MODEL 1
REMARK VINA RESULT:      -5.4      0.000      0.000
REMARK  5 active torsions:
REMARK  status: ('A' for Active; 'I' for Inactive)
REMARK    1  A    between atoms: C2_2  and  C4_4 
REMARK    2  A    between atoms: C4_4  and  C6_6 
REMARK    3  A    between atoms: C5_5  and  C6_6 
REMARK    4  A    between atoms: C5_5  and  C7_7 
REMARK    5  A    between atoms: C6_6  and  O8_8 
ROOT
HETATM    1  C6  UNL     1     -32.665   7.506   2.751  1.00 20.00     0.130 C 
ENDROOT
BRANCH   1   2
HETATM    2  C4  UNL     1     -33.276   6.125   3.038  1.00 20.00     0.065 C 
BRANCH   2   3
HETATM    3  C2  UNL     1     -34.112   6.092   4.299  1.00 20.00    -0.091 C 
HETATM    4  C1  UNL     1     -33.824   6.872   5.354  1.00 20.00     0.014 C 
HETATM    5  C3  UNL     1     -35.254   5.117   4.338  1.00 20.00     0.042 C 
ENDBRANCH   2   3
ENDBRANCH   1   2
BRANCH   1   6
HETATM    6  C5  UNL     1     -32.399   7.674   1.249  1.00 20.00     0.149 C 
BRANCH   6   7
HETATM    7  C7  UNL     1     -33.117   8.866   0.647  1.00 20.00     0.390 C 
HETATM    8  F9  UNL     1     -32.261   9.861   0.335  1.00 20.00    -0.171 F 
HETATM    9  F10 UNL     1     -33.756   8.506  -0.487  1.00 20.00    -0.171 F 
HETATM   10  F11 UNL     1     -34.040   9.362   1.499  1.00 20.00    -0.171 F 
ENDBRANCH   6   7
ENDBRANCH   1   6
BRANCH   1  11
HETATM   11  O8  UNL     1     -31.436   7.605   3.468  1.00 20.00    -0.395 OA
HETATM   12  H22 UNL     1     -31.412   6.855   4.079  1.00 20.00     0.210 HD
ENDBRANCH   1  11
TORSDOF 5
ENDMDL
MODEL 2
REMARK VINA RESULT:      -5.1      3.276      4.988
REMARK  5 active torsions:
REMARK  status: ('A' for Active; 'I' for Inactive)
REMARK    1  A    between atoms: C2_2  and  C4_4 
REMARK    2  A    between atoms: C4_4  and  C6_6 
REMARK    3  A    between atoms: C5_5  and  C6_6 
REMARK    4  A    between atoms: C5_5  and  C7_7 
REMARK    5  A    between atoms: C6_6  and  O8_8 
ROOT
HETATM    1  C6  UNL     1     -33.448   6.370   2.895  1.00 20.00     0.130 C 
ENDROOT
BRANCH   1   2
HETATM    2  C4  UNL     1     -32.337   7.390   2.601  1.00 20.00     0.065 C 
BRANCH   2   3
HETATM    3  C2  UNL     1     -32.505   8.090   1.269  1.00 20.00    -0.091 C 
HETATM    4  C1  UNL     1     -31.969   7.594   0.142  1.00 20.00     0.014 C 
HETATM    5  C3  UNL     1     -33.261   9.388   1.269  1.00 20.00     0.042 C 
ENDBRANCH   2   3
ENDBRANCH   1   2
BRANCH   1   6
HETATM    6  C5  UNL     1     -33.779   6.353   4.393  1.00 20.00     0.149 C 
BRANCH   6   7
HETATM    7  C7  UNL     1     -34.844   5.335   4.755  1.00 20.00     0.390 C 
HETATM    8  F9  UNL     1     -34.430   4.073   4.522  1.00 20.00    -0.171 F 
HETATM    9  F10 UNL     1     -35.156   5.427   6.067  1.00 20.00    -0.171 F 
HETATM   10  F11 UNL     1     -35.977   5.540   4.049  1.00 20.00    -0.171 F 
ENDBRANCH   6   7
ENDBRANCH   1   6
BRANCH   1  11
HETATM   11  O8  UNL     1     -32.986   5.082   2.493  1.00 20.00    -0.395 OA
HETATM   12  H22 UNL     1     -32.714   5.163   1.567  1.00 20.00     0.210 HD
ENDBRANCH   1  11
TORSDOF 5
ENDMDL
MODEL 3
REMARK VINA RESULT:      -5.1      3.271      4.964
REMARK  5 active torsions:
REMARK  status: ('A' for Active; 'I' for Inactive)
REMARK    1  A    between atoms: C2_2  and  C4_4 
REMARK    2  A    between atoms: C4_4  and  C6_6 
REMARK    3  A    between atoms: C5_5  and  C6_6 
REMARK    4  A    between atoms: C5_5  and  C7_7 
REMARK    5  A    between atoms: C6_6  and  O8_8 
ROOT
HETATM    1  C6  UNL     1     -33.453   6.371   2.894  1.00 20.00     0.130 C 
ENDROOT
BRANCH   1   2
HETATM    2  C4  UNL     1     -32.339   7.387   2.599  1.00 20.00     0.065 C 
BRANCH   2   3
HETATM    3  C2  UNL     1     -32.506   8.089   1.269  1.00 20.00    -0.091 C 
HETATM    4  C1  UNL     1     -31.963   7.599   0.143  1.00 20.00     0.014 C 
HETATM    5  C3  UNL     1     -33.270   9.382   1.270  1.00 20.00     0.042 C 
ENDBRANCH   2   3
ENDBRANCH   1   2
BRANCH   1   6
HETATM    6  C5  UNL     1     -33.786   6.357   4.392  1.00 20.00     0.149 C 
BRANCH   6   7
HETATM    7  C7  UNL     1     -34.844   5.333   4.757  1.00 20.00     0.390 C 
HETATM    8  F9  UNL     1     -35.167   5.391   6.065  1.00 20.00    -0.171 F 
HETATM    9  F10 UNL     1     -35.973   5.551   4.047  1.00 20.00    -0.171 F 
HETATM   10  F11 UNL     1     -34.425   4.079   4.484  1.00 20.00    -0.171 F 
ENDBRANCH   6   7
ENDBRANCH   1   6
BRANCH   1  11
HETATM   11  O8  UNL     1     -32.995   5.080   2.495  1.00 20.00    -0.395 OA
HETATM   12  H22 UNL     1     -33.747   4.637   2.077  1.00 20.00     0.210 HD
ENDBRANCH   1  11
TORSDOF 5
ENDMDL
MODEL 4
REMARK VINA RESULT:      -4.9      1.893      2.529
REMARK  5 active torsions:
REMARK  status: ('A' for Active; 'I' for Inactive)
REMARK    1  A    between atoms: C2_2  and  C4_4 
REMARK    2  A    between atoms: C4_4  and  C6_6 
REMARK    3  A    between atoms: C5_5  and  C6_6 
REMARK    4  A    between atoms: C5_5  and  C7_7 
REMARK    5  A    between atoms: C6_6  and  O8_8 
ROOT
HETATM    1  C6  UNL     1     -33.274   5.558   2.896  1.00 20.00     0.130 C 
ENDROOT
BRANCH   1   2
HETATM    2  C4  UNL     1     -34.576   5.551   3.712  1.00 20.00     0.065 C 
BRANCH   2   3
HETATM    3  C2  UNL     1     -34.361   5.842   5.182  1.00 20.00    -0.091 C 
HETATM    4  C1  UNL     1     -34.825   5.019   6.136  1.00 20.00     0.014 C 
HETATM    5  C3  UNL     1     -33.642   7.115   5.529  1.00 20.00     0.042 C 
ENDBRANCH   2   3
ENDBRANCH   1   2
BRANCH   1   6
HETATM    6  C5  UNL     1     -33.410   6.477   1.674  1.00 20.00     0.149 C 
BRANCH   6   7
HETATM    7  C7  UNL     1     -32.471   7.666   1.718  1.00 20.00     0.390 C 
HETATM    8  F9  UNL     1     -33.138   8.836   1.636  1.00 20.00    -0.171 F 
HETATM    9  F10 UNL     1     -31.777   7.674   2.878  1.00 20.00    -0.171 F 
HETATM   10  F11 UNL     1     -31.577   7.623   0.707  1.00 20.00    -0.171 F 
ENDBRANCH   6   7
ENDBRANCH   1   6
BRANCH   1  11
HETATM   11  O8  UNL     1     -33.015   4.223   2.462  1.00 20.00    -0.395 OA
HETATM   12  H22 UNL     1     -32.064   4.171   2.285  1.00 20.00     0.210 HD
ENDBRANCH   1  11
TORSDOF 5
ENDMDL
MODEL 5
REMARK VINA RESULT:      -4.7      9.844     10.751
REMARK  5 active torsions:
REMARK  status: ('A' for Active; 'I' for Inactive)
REMARK    1  A    between atoms: C2_2  and  C4_4 
REMARK    2  A    between atoms: C4_4  and  C6_6 
REMARK    3  A    between atoms: C5_5  and  C6_6 
REMARK    4  A    between atoms: C5_5  and  C7_7 
REMARK    5  A    between atoms: C6_6  and  O8_8 
ROOT
HETATM    1  C6  UNL     1     -33.582  14.551  -4.291  1.00 20.00     0.130 C 
ENDROOT
BRANCH   1   2
HETATM    2  C4  UNL     1     -34.265  14.967  -5.604  1.00 20.00     0.065 C 
BRANCH   2   3
HETATM    3  C2  UNL     1     -35.775  14.872  -5.548  1.00 20.00    -0.091 C 
HETATM    4  C1  UNL     1     -36.558  15.747  -6.199  1.00 20.00     0.014 C 
HETATM    5  C3  UNL     1     -36.361  13.782  -4.696  1.00 20.00     0.042 C 
ENDBRANCH   2   3
ENDBRANCH   1   2
BRANCH   1   6
HETATM    6  C5  UNL     1     -33.085  15.787  -3.529  1.00 20.00     0.149 C 
BRANCH   6   7
HETATM    7  C7  UNL     1     -34.127  16.365  -2.591  1.00 20.00     0.390 C 
HETATM    8  F9  UNL     1     -34.942  15.410  -2.098  1.00 20.00    -0.171 F 
HETATM    9  F10 UNL     1     -33.530  16.973  -1.543  1.00 20.00    -0.171 F 
HETATM   10  F11 UNL     1     -34.892  17.286  -3.217  1.00 20.00    -0.171 F 
ENDBRANCH   6   7
ENDBRANCH   1   6
BRANCH   1  11
HETATM   11  O8  UNL     1     -32.475  13.711  -4.614  1.00 20.00    -0.395 OA
HETATM   12  H22 UNL     1     -32.152  13.348  -3.776  1.00 20.00     0.210 HD
ENDBRANCH   1  11
TORSDOF 5
ENDMDL
MODEL 6
REMARK VINA RESULT:      -4.6     10.107     10.779
REMARK  5 active torsions:
REMARK  status: ('A' for Active; 'I' for Inactive)
REMARK    1  A    between atoms: C2_2  and  C4_4 
REMARK    2  A    between atoms: C4_4  and  C6_6 
REMARK    3  A    between atoms: C5_5  and  C6_6 
REMARK    4  A    between atoms: C5_5  and  C7_7 
REMARK    5  A    between atoms: C6_6  and  O8_8 
ROOT
HETATM    1  C6  UNL     1     -35.220  13.888  -4.458  1.00 20.00     0.130 C 
ENDROOT
BRANCH   1   2
HETATM    2  C4  UNL     1     -35.609  14.776  -3.266  1.00 20.00     0.065 C 
BRANCH   2   3
HETATM    3  C2  UNL     1     -34.502  15.712  -2.832  1.00 20.00    -0.091 C 
HETATM    4  C1  UNL     1     -33.295  15.693  -3.419  1.00 20.00     0.014 C 
HETATM    5  C3  UNL     1     -34.797  16.635  -1.684  1.00 20.00     0.042 C 
ENDBRANCH   2   3
ENDBRANCH   1   2
BRANCH   1   6
HETATM    6  C5  UNL     1     -35.911  14.375  -5.739  1.00 20.00     0.149 C 
BRANCH   6   7
HETATM    7  C7  UNL     1     -34.999  15.194  -6.632  1.00 20.00     0.390 C 
HETATM    8  F9  UNL     1     -33.724  14.757  -6.581  1.00 20.00    -0.171 F 
HETATM    9  F10 UNL     1     -35.406  15.116  -7.918  1.00 20.00    -0.171 F 
HETATM   10  F11 UNL     1     -35.008  16.497  -6.277  1.00 20.00    -0.171 F 
ENDBRANCH   6   7
ENDBRANCH   1   6
BRANCH   1  11
HETATM   11  O8  UNL     1     -35.633  12.553  -4.171  1.00 20.00    -0.395 OA
HETATM   12  H22 UNL     1     -36.358  12.352  -4.781  1.00 20.00     0.210 HD
ENDBRANCH   1  11
TORSDOF 5
ENDMDL
MODEL 7
REMARK VINA RESULT:      -4.6     10.143     10.823
REMARK  5 active torsions:
REMARK  status: ('A' for Active; 'I' for Inactive)
REMARK    1  A    between atoms: C2_2  and  C4_4 
REMARK    2  A    between atoms: C4_4  and  C6_6 
REMARK    3  A    between atoms: C5_5  and  C6_6 
REMARK    4  A    between atoms: C5_5  and  C7_7 
REMARK    5  A    between atoms: C6_6  and  O8_8 
ROOT
HETATM    1  C6  UNL     1     -35.029  14.015  -4.427  1.00 20.00     0.130 C 
ENDROOT
BRANCH   1   2
HETATM    2  C4  UNL     1     -35.534  14.861  -3.249  1.00 20.00     0.065 C 
BRANCH   2   3
HETATM    3  C2  UNL     1     -34.485  15.801  -2.694  1.00 20.00    -0.091 C 
HETATM    4  C1  UNL     1     -34.750  16.621  -1.665  1.00 20.00     0.014 C 
HETATM    5  C3  UNL     1     -33.146  15.808  -3.374  1.00 20.00     0.042 C 
ENDBRANCH   2   3
ENDBRANCH   1   2
BRANCH   1   6
HETATM    6  C5  UNL     1     -35.765  14.397  -5.719  1.00 20.00     0.149 C 
BRANCH   6   7
HETATM    7  C7  UNL     1     -34.908  15.202  -6.675  1.00 20.00     0.390 C 
HETATM    8  F9  UNL     1     -35.434  15.229  -7.917  1.00 20.00    -0.171 F 
HETATM    9  F10 UNL     1     -34.803  16.480  -6.249  1.00 20.00    -0.171 F 
HETATM   10  F11 UNL     1     -33.660  14.695  -6.760  1.00 20.00    -0.171 F 
ENDBRANCH   6   7
ENDBRANCH   1   6
BRANCH   1  11
HETATM   11  O8  UNL     1     -35.274  12.642  -4.126  1.00 20.00    -0.395 OA
HETATM   12  H22 UNL     1     -35.818  12.294  -4.848  1.00 20.00     0.210 HD
ENDBRANCH   1  11
TORSDOF 5
ENDMDL
MODEL 8
REMARK VINA RESULT:      -4.6      3.924      5.023
REMARK  5 active torsions:
REMARK  status: ('A' for Active; 'I' for Inactive)
REMARK    1  A    between atoms: C2_2  and  C4_4 
REMARK    2  A    between atoms: C4_4  and  C6_6 
REMARK    3  A    between atoms: C5_5  and  C6_6 
REMARK    4  A    between atoms: C5_5  and  C7_7 
REMARK    5  A    between atoms: C6_6  and  O8_8 
ROOT
HETATM    1  C6  UNL     1     -34.315   5.242   3.396  1.00 20.00     0.130 C 
ENDROOT
BRANCH   1   2
HETATM    2  C4  UNL     1     -32.894   5.448   2.849  1.00 20.00     0.065 C 
BRANCH   2   3
HETATM    3  C2  UNL     1     -32.533   6.905   2.654  1.00 20.00    -0.091 C 
HETATM    4  C1  UNL     1     -32.829   7.557   1.518  1.00 20.00     0.014 C 
HETATM    5  C3  UNL     1     -31.790   7.581   3.771  1.00 20.00     0.042 C 
ENDBRANCH   2   3
ENDBRANCH   1   2
BRANCH   1   6
HETATM    6  C5  UNL     1     -34.665   6.342   4.408  1.00 20.00     0.149 C 
BRANCH   6   7
HETATM    7  C7  UNL     1     -34.478   5.905   5.848  1.00 20.00     0.390 C 
HETATM    8  F9  UNL     1     -33.279   5.319   6.042  1.00 20.00    -0.171 F 
HETATM    9  F10 UNL     1     -34.551   6.971   6.676  1.00 20.00    -0.171 F 
HETATM   10  F11 UNL     1     -35.436   5.030   6.223  1.00 20.00    -0.171 F 
ENDBRANCH   6   7
ENDBRANCH   1   6
BRANCH   1  11
HETATM   11  O8  UNL     1     -34.363   3.969   4.038  1.00 20.00    -0.395 OA
HETATM   12  H22 UNL     1     -33.480   3.810   4.401  1.00 20.00     0.210 HD
ENDBRANCH   1  11
TORSDOF 5
ENDMDL
MODEL 9
REMARK VINA RESULT:      -4.5     10.344     11.211
REMARK  5 active torsions:
REMARK  status: ('A' for Active; 'I' for Inactive)
REMARK    1  A    between atoms: C2_2  and  C4_4 
REMARK    2  A    between atoms: C4_4  and  C6_6 
REMARK    3  A    between atoms: C5_5  and  C6_6 
REMARK    4  A    between atoms: C5_5  and  C7_7 
REMARK    5  A    between atoms: C6_6  and  O8_8 
ROOT
HETATM    1  C6  UNL     1     -34.123  15.107  -5.335  1.00 20.00     0.130 C 
ENDROOT
BRANCH   1   2
HETATM    2  C4  UNL     1     -34.234  14.658  -3.870  1.00 20.00     0.065 C 
BRANCH   2   3
HETATM    3  C2  UNL     1     -34.170  15.807  -2.886  1.00 20.00    -0.091 C 
HETATM    4  C1  UNL     1     -35.149  16.022  -1.993  1.00 20.00     0.014 C 
HETATM    5  C3  UNL     1     -32.983  16.723  -2.982  1.00 20.00     0.042 C 
ENDBRANCH   2   3
ENDBRANCH   1   2
BRANCH   1   6
HETATM    6  C5  UNL     1     -35.413  14.775  -6.098  1.00 20.00     0.149 C 
BRANCH   6   7
HETATM    7  C7  UNL     1     -36.524  15.777  -5.852  1.00 20.00     0.390 C 
HETATM    8  F9  UNL     1     -37.255  15.998  -6.964  1.00 20.00    -0.171 F 
HETATM    9  F10 UNL     1     -37.364  15.323  -4.896  1.00 20.00    -0.171 F 
HETATM   10  F11 UNL     1     -36.030  16.963  -5.434  1.00 20.00    -0.171 F 
ENDBRANCH   6   7
ENDBRANCH   1   6
BRANCH   1  11
HETATM   11  O8  UNL     1     -33.026  14.416  -5.929  1.00 20.00    -0.395 OA
HETATM   12  H22 UNL     1     -33.402  13.673  -6.423  1.00 20.00     0.210 HD
ENDBRANCH   1  11
TORSDOF 5
ENDMDL
