MODEL 1
REMARK VINA RESULT:      -5.1      0.000      0.000
REMARK  1 active torsions:
REMARK  status: ('A' for Active; 'I' for Inactive)
REMARK    1  A    between atoms: C1_1  and  C3_3 
ROOT
HETATM    1  C2  UNL     1     -33.757  16.470  -3.922  1.00 20.00     0.019 C 
HETATM    2  C3  UNL     1     -34.856  14.601  -3.659  1.00 20.00     0.070 C 
HETATM    3  C4  UNL     1     -35.095  16.091  -3.234  1.00 20.00    -0.036 C 
HETATM    4  C5  UNL     1     -33.713  15.083  -4.617  1.00 20.00    -0.036 C 
HETATM    5  C7  UNL     1     -35.062  16.288  -1.716  1.00 20.00     0.015 C 
HETATM    6  C8  UNL     1     -36.308  16.801  -3.837  1.00 20.00     0.015 C 
HETATM    7  C9  UNL     1     -32.393  14.342  -4.386  1.00 20.00     0.015 C 
HETATM    8  C10 UNL     1     -34.037  15.144  -6.111  1.00 20.00     0.015 C 
ENDROOT
BRANCH   2   9
HETATM    9  C1  UNL     1     -36.022  13.792  -4.235  1.00 20.00     0.128 C 
HETATM   10  C6  UNL     1     -37.352  14.490  -4.320  1.00 20.00     0.091 C 
HETATM   11  O11 UNL     1     -35.877  12.630  -4.610  1.00 20.00    -0.298 OA
ENDBRANCH   2   9
TORSDOF 1
ENDMDL
MODEL 2
REMARK VINA RESULT:      -5.1      1.448      2.597
REMARK  1 active torsions:
REMARK  status: ('A' for Active; 'I' for Inactive)
REMARK    1  A    between atoms: C1_1  and  C3_3 
ROOT
HETATM    1  C2  UNL     1     -34.497  16.237  -4.873  1.00 20.00     0.019 C 
HETATM    2  C3  UNL     1     -36.519  15.721  -4.230  1.00 20.00     0.070 C 
HETATM    3  C4  UNL     1     -35.895  16.307  -5.543  1.00 20.00    -0.036 C 
HETATM    4  C5  UNL     1     -35.078  15.354  -3.736  1.00 20.00    -0.036 C 
HETATM    5  C7  UNL     1     -36.348  17.741  -5.827  1.00 20.00     0.015 C 
HETATM    6  C8  UNL     1     -36.003  15.453  -6.807  1.00 20.00     0.015 C 
HETATM    7  C9  UNL     1     -34.771  15.901  -2.340  1.00 20.00     0.015 C 
HETATM    8  C10 UNL     1     -34.661  13.885  -3.838  1.00 20.00     0.015 C 
ENDROOT
BRANCH   2   9
HETATM    9  C1  UNL     1     -37.577  14.619  -4.333  1.00 20.00     0.128 C 
HETATM   10  C6  UNL     1     -39.013  15.043  -4.191  1.00 20.00     0.091 C 
HETATM   11  O11 UNL     1     -37.267  13.444  -4.525  1.00 20.00    -0.298 OA
ENDBRANCH   2   9
TORSDOF 1
ENDMDL
MODEL 3
REMARK VINA RESULT:      -5.0      1.558      3.275
REMARK  1 active torsions:
REMARK  status: ('A' for Active; 'I' for Inactive)
REMARK    1  A    between atoms: C1_1  and  C3_3 
ROOT
HETATM    1  C2  UNL     1     -34.943  15.184  -2.970  1.00 20.00     0.019 C 
HETATM    2  C3  UNL     1     -34.807  16.079  -4.957  1.00 20.00     0.070 C 
HETATM    3  C4  UNL     1     -33.770  15.703  -3.843  1.00 20.00    -0.036 C 
HETATM    4  C5  UNL     1     -35.892  15.242  -4.197  1.00 20.00    -0.036 C 
HETATM    5  C7  UNL     1     -33.075  16.927  -3.241  1.00 20.00     0.015 C 
HETATM    6  C8  UNL     1     -32.744  14.621  -4.183  1.00 20.00     0.015 C 
HETATM    7  C9  UNL     1     -37.172  16.038  -3.924  1.00 20.00     0.015 C 
HETATM    8  C10 UNL     1     -36.232  13.863  -4.765  1.00 20.00     0.015 C 
ENDROOT
BRANCH   2   9
HETATM    9  C1  UNL     1     -34.490  15.741  -6.417  1.00 20.00     0.128 C 
HETATM   10  C6  UNL     1     -34.861  16.772  -7.447  1.00 20.00     0.091 C 
HETATM   11  O11 UNL     1     -33.956  14.678  -6.731  1.00 20.00    -0.298 OA
ENDBRANCH   2   9
TORSDOF 1
ENDMDL
MODEL 4
REMARK VINA RESULT:      -4.9      1.341      3.272
REMARK  1 active torsions:
REMARK  status: ('A' for Active; 'I' for Inactive)
REMARK    1  A    between atoms: C1_1  and  C3_3 
ROOT
HETATM    1  C2  UNL     1     -35.554  15.598  -2.891  1.00 20.00     0.019 C 
HETATM    2  C3  UNL     1     -35.199  15.772  -5.038  1.00 20.00     0.070 C 
HETATM    3  C4  UNL     1     -34.385  15.194  -3.830  1.00 20.00    -0.036 C 
HETATM    4  C5  UNL     1     -36.468  15.842  -4.121  1.00 20.00    -0.036 C 
HETATM    5  C7  UNL     1     -33.100  15.977  -3.551  1.00 20.00     0.015 C 
HETATM    6  C8  UNL     1     -34.105  13.691  -3.834  1.00 20.00     0.015 C 
HETATM    7  C9  UNL     1     -37.119  17.228  -4.114  1.00 20.00     0.015 C 
HETATM    8  C10 UNL     1     -37.527  14.756  -4.314  1.00 20.00     0.015 C 
ENDROOT
BRANCH   2   9
HETATM    9  C1  UNL     1     -35.264  14.974  -6.344  1.00 20.00     0.128 C 
HETATM   10  C6  UNL     1     -34.447  15.491  -7.496  1.00 20.00     0.091 C 
HETATM   11  O11 UNL     1     -35.951  13.958  -6.444  1.00 20.00    -0.298 OA
ENDBRANCH   2   9
TORSDOF 1
ENDMDL
MODEL 5
REMARK VINA RESULT:      -4.8      1.744      3.422
REMARK  1 active torsions:
REMARK  status: ('A' for Active; 'I' for Inactive)
REMARK    1  A    between atoms: C1_1  and  C3_3 
ROOT
HETATM    1  C2  UNL     1     -33.754  14.666  -4.141  1.00 20.00     0.019 C 
HETATM    2  C3  UNL     1     -34.694  16.532  -4.773  1.00 20.00     0.070 C 
HETATM    3  C4  UNL     1     -34.628  15.078  -5.355  1.00 20.00    -0.036 C 
HETATM    4  C5  UNL     1     -34.114  15.993  -3.421  1.00 20.00    -0.036 C 
HETATM    5  C7  UNL     1     -33.874  15.004  -6.685  1.00 20.00     0.015 C 
HETATM    6  C8  UNL     1     -35.944  14.303  -5.444  1.00 20.00     0.015 C 
HETATM    7  C9  UNL     1     -32.881  16.770  -2.952  1.00 20.00     0.015 C 
HETATM    8  C10 UNL     1     -35.099  15.807  -2.266  1.00 20.00     0.015 C 
ENDROOT
BRANCH   2   9
HETATM    9  C1  UNL     1     -36.035  17.274  -4.768  1.00 20.00     0.128 C 
HETATM   10  C6  UNL     1     -36.040  18.666  -5.339  1.00 20.00     0.091 C 
HETATM   11  O11 UNL     1     -37.056  16.755  -4.320  1.00 20.00    -0.298 OA
ENDBRANCH   2   9
TORSDOF 1
ENDMDL
MODEL 6
REMARK VINA RESULT:      -4.8      2.044      3.074
REMARK  1 active torsions:
REMARK  status: ('A' for Active; 'I' for Inactive)
REMARK    1  A    between atoms: C1_1  and  C3_3 
ROOT
HETATM    1  C2  UNL     1     -34.335  14.534  -3.652  1.00 20.00     0.019 C 
HETATM    2  C3  UNL     1     -35.357  16.334  -4.345  1.00 20.00     0.070 C 
HETATM    3  C4  UNL     1     -34.393  16.002  -3.154  1.00 20.00    -0.036 C 
HETATM    4  C5  UNL     1     -34.996  14.953  -4.992  1.00 20.00    -0.036 C 
HETATM    5  C7  UNL     1     -35.068  16.142  -1.787  1.00 20.00     0.015 C 
HETATM    6  C8  UNL     1     -33.029  16.694  -3.149  1.00 20.00     0.015 C 
HETATM    7  C9  UNL     1     -36.233  14.117  -5.334  1.00 20.00     0.015 C 
HETATM    8  C10 UNL     1     -34.020  14.971  -6.169  1.00 20.00     0.015 C 
ENDROOT
BRANCH   2   9
HETATM    9  C1  UNL     1     -35.134  17.618  -5.150  1.00 20.00     0.128 C 
HETATM   10  C6  UNL     1     -36.127  18.729  -4.943  1.00 20.00     0.091 C 
HETATM   11  O11 UNL     1     -34.188  17.734  -5.927  1.00 20.00    -0.298 OA
ENDBRANCH   2   9
TORSDOF 1
ENDMDL
MODEL 7
REMARK VINA RESULT:      -4.7      1.526      2.706
REMARK  1 active torsions:
REMARK  status: ('A' for Active; 'I' for Inactive)
REMARK    1  A    between atoms: C1_1  and  C3_3 
ROOT
HETATM    1  C2  UNL     1     -35.100  17.844  -3.571  1.00 20.00     0.019 C 
HETATM    2  C3  UNL     1     -35.626  15.725  -3.613  1.00 20.00     0.070 C 
HETATM    3  C4  UNL     1     -35.805  16.926  -4.605  1.00 20.00    -0.036 C 
HETATM    4  C5  UNL     1     -34.634  16.599  -2.771  1.00 20.00    -0.036 C 
HETATM    5  C7  UNL     1     -37.273  17.297  -4.829  1.00 20.00     0.015 C 
HETATM    6  C8  UNL     1     -35.066  16.841  -5.941  1.00 20.00     0.015 C 
HETATM    7  C9  UNL     1     -35.013  16.666  -1.289  1.00 20.00     0.015 C 
HETATM    8  C10 UNL     1     -33.142  16.303  -2.927  1.00 20.00     0.015 C 
ENDROOT
BRANCH   2   9
HETATM    9  C1  UNL     1     -35.155  14.373  -4.156  1.00 20.00     0.128 C 
HETATM   10  C6  UNL     1     -36.224  13.414  -4.606  1.00 20.00     0.091 C 
HETATM   11  O11 UNL     1     -33.961  14.085  -4.221  1.00 20.00    -0.298 OA
ENDBRANCH   2   9
TORSDOF 1
ENDMDL
MODEL 8
REMARK VINA RESULT:      -4.6      1.937      3.639
REMARK  1 active torsions:
REMARK  status: ('A' for Active; 'I' for Inactive)
REMARK    1  A    between atoms: C1_1  and  C3_3 
ROOT
HETATM    1  C2  UNL     1     -35.158  15.551  -5.642  1.00 20.00     0.019 C 
HETATM    2  C3  UNL     1     -35.246  15.915  -3.491  1.00 20.00     0.070 C 
HETATM    3  C4  UNL     1     -34.689  14.760  -4.392  1.00 20.00    -0.036 C 
HETATM    4  C5  UNL     1     -35.385  16.813  -4.768  1.00 20.00    -0.036 C 
HETATM    5  C7  UNL     1     -35.444  13.442  -4.203  1.00 20.00     0.015 C 
HETATM    6  C8  UNL     1     -33.179  14.519  -4.361  1.00 20.00     0.015 C 
HETATM    7  C9  UNL     1     -36.789  17.405  -4.927  1.00 20.00     0.015 C 
HETATM    8  C10 UNL     1     -34.323  17.894  -4.977  1.00 20.00     0.015 C 
ENDROOT
BRANCH   2   9
HETATM    9  C1  UNL     1     -34.404  16.415  -2.313  1.00 20.00     0.128 C 
HETATM   10  C6  UNL     1     -35.146  16.775  -1.055  1.00 20.00     0.091 C 
HETATM   11  O11 UNL     1     -33.181  16.516  -2.393  1.00 20.00    -0.298 OA
ENDBRANCH   2   9
TORSDOF 1
ENDMDL
MODEL 9
REMARK VINA RESULT:      -4.6      2.081      3.445
REMARK  1 active torsions:
REMARK  status: ('A' for Active; 'I' for Inactive)
REMARK    1  A    between atoms: C1_1  and  C3_3 
ROOT
HETATM    1  C2  UNL     1     -35.451  14.771  -3.882  1.00 20.00     0.019 C 
HETATM    2  C3  UNL     1     -34.615  16.737  -4.332  1.00 20.00     0.070 C 
HETATM    3  C4  UNL     1     -35.571  16.172  -3.226  1.00 20.00    -0.036 C 
HETATM    4  C5  UNL     1     -34.258  15.267  -4.741  1.00 20.00    -0.036 C 
HETATM    5  C7  UNL     1     -36.986  16.751  -3.312  1.00 20.00     0.015 C 
HETATM    6  C8  UNL     1     -35.067  16.209  -1.783  1.00 20.00     0.015 C 
HETATM    7  C9  UNL     1     -34.450  15.005  -6.238  1.00 20.00     0.015 C 
HETATM    8  C10 UNL     1     -32.907  14.723  -4.273  1.00 20.00     0.015 C 
ENDROOT
BRANCH   2   9
HETATM    9  C1  UNL     1     -33.489  17.694  -3.927  1.00 20.00     0.128 C 
HETATM   10  C6  UNL     1     -33.336  18.945  -4.749  1.00 20.00     0.091 C 
HETATM   11  O11 UNL     1     -32.748  17.452  -2.975  1.00 20.00    -0.298 OA
ENDBRANCH   2   9
TORSDOF 1
ENDMDL
