MODEL 1
REMARK VINA RESULT:      -4.5      0.000      0.000
REMARK  4 active torsions:
REMARK  status: ('A' for Active; 'I' for Inactive)
REMARK    1  A    between atoms: C6_6  and  C7_7 
REMARK    2  A    between atoms: C7_7  and  C9_9 
REMARK    3  A    between atoms: C8_8  and  C9_9 
REMARK    4  A    between atoms: C8_8  and  C10_10 
ROOT
HETATM    1  C1  UNL     1     -36.116  14.209  -4.567  1.00 20.00     0.068 C 
HETATM    2  C4  UNL     1     -33.681  14.040  -4.212  1.00 20.00     0.031 C 
HETATM    3  C5  UNL     1     -34.622  15.377  -6.100  1.00 20.00     0.031 C 
HETATM    4  C10 UNL     1     -34.839  14.957  -4.628  1.00 20.00     0.042 C 
HETATM    5  N11 UNL     1     -37.117  13.623  -4.529  1.00 20.00    -0.196 NA
ENDROOT
BRANCH   4   6
HETATM    6  C8  UNL     1     -34.903  16.248  -3.762  1.00 20.00     0.028 C 
BRANCH   6   7
HETATM    7  C9  UNL     1     -34.254  16.233  -2.354  1.00 20.00    -0.017 C 
HETATM    8  C3  UNL     1     -35.212  16.680  -1.245  1.00 20.00     0.010 C 
BRANCH   7   9
HETATM    9  C7  UNL     1     -33.000  17.142  -2.303  1.00 20.00     0.004 C 
BRANCH   9  10
HETATM   10  C6  UNL     1     -32.918  18.025  -1.055  1.00 20.00    -0.004 C 
HETATM   11  C2  UNL     1     -31.473  18.342  -0.694  1.00 20.00     0.005 C 
ENDBRANCH   9  10
ENDBRANCH   7   9
ENDBRANCH   6   7
ENDBRANCH   4   6
TORSDOF 4
ENDMDL
MODEL 2
REMARK VINA RESULT:      -4.4      1.309      1.870
REMARK  4 active torsions:
REMARK  status: ('A' for Active; 'I' for Inactive)
REMARK    1  A    between atoms: C6_6  and  C7_7 
REMARK    2  A    between atoms: C7_7  and  C9_9 
REMARK    3  A    between atoms: C8_8  and  C9_9 
REMARK    4  A    between atoms: C8_8  and  C10_10 
ROOT
HETATM    1  C1  UNL     1     -35.334  13.815  -4.310  1.00 20.00     0.068 C 
HETATM    2  C4  UNL     1     -32.999  14.607  -4.387  1.00 20.00     0.031 C 
HETATM    3  C5  UNL     1     -34.892  16.102  -5.031  1.00 20.00     0.031 C 
HETATM    4  C10 UNL     1     -34.452  14.980  -4.065  1.00 20.00     0.042 C 
HETATM    5  N11 UNL     1     -36.029  12.908  -4.512  1.00 20.00    -0.196 NA
ENDROOT
BRANCH   4   6
HETATM    6  C8  UNL     1     -34.611  15.505  -2.609  1.00 20.00     0.028 C 
BRANCH   6   7
HETATM    7  C9  UNL     1     -34.385  17.014  -2.333  1.00 20.00    -0.017 C 
HETATM    8  C3  UNL     1     -32.911  17.370  -2.108  1.00 20.00     0.010 C 
BRANCH   7   9
HETATM    9  C7  UNL     1     -35.188  17.487  -1.095  1.00 20.00     0.004 C 
BRANCH   9  10
HETATM   10  C6  UNL     1     -34.365  18.290  -0.084  1.00 20.00    -0.004 C 
HETATM   11  C2  UNL     1     -34.622  17.818   1.340  1.00 20.00     0.005 C 
ENDBRANCH   9  10
ENDBRANCH   7   9
ENDBRANCH   6   7
ENDBRANCH   4   6
TORSDOF 4
ENDMDL
MODEL 3
REMARK VINA RESULT:      -4.3      1.524      2.301
REMARK  4 active torsions:
REMARK  status: ('A' for Active; 'I' for Inactive)
REMARK    1  A    between atoms: C6_6  and  C7_7 
REMARK    2  A    between atoms: C7_7  and  C9_9 
REMARK    3  A    between atoms: C8_8  and  C9_9 
REMARK    4  A    between atoms: C8_8  and  C10_10 
ROOT
HETATM    1  C1  UNL     1     -37.182  14.503  -4.617  1.00 20.00     0.068 C 
HETATM    2  C4  UNL     1     -35.459  14.658  -6.377  1.00 20.00     0.031 C 
HETATM    3  C5  UNL     1     -36.271  16.694  -5.179  1.00 20.00     0.031 C 
HETATM    4  C10 UNL     1     -35.935  15.194  -5.019  1.00 20.00     0.042 C 
HETATM    5  N11 UNL     1     -38.164  13.970  -4.304  1.00 20.00    -0.196 NA
ENDROOT
BRANCH   4   6
HETATM    6  C8  UNL     1     -34.840  15.059  -3.922  1.00 20.00     0.028 C 
BRANCH   6   7
HETATM    7  C9  UNL     1     -34.493  16.299  -3.058  1.00 20.00    -0.017 C 
HETATM    8  C3  UNL     1     -32.986  16.560  -2.958  1.00 20.00     0.010 C 
BRANCH   7   9
HETATM    9  C7  UNL     1     -35.055  16.160  -1.621  1.00 20.00     0.004 C 
BRANCH   9  10
HETATM   10  C6  UNL     1     -35.266  17.494  -0.900  1.00 20.00    -0.004 C 
HETATM   11  C2  UNL     1     -35.556  17.285   0.580  1.00 20.00     0.005 C 
ENDBRANCH   9  10
ENDBRANCH   7   9
ENDBRANCH   6   7
ENDBRANCH   4   6
TORSDOF 4
ENDMDL
MODEL 4
REMARK VINA RESULT:      -4.3      1.252      1.904
REMARK  4 active torsions:
REMARK  status: ('A' for Active; 'I' for Inactive)
REMARK    1  A    between atoms: C6_6  and  C7_7 
REMARK    2  A    between atoms: C7_7  and  C9_9 
REMARK    3  A    between atoms: C8_8  and  C9_9 
REMARK    4  A    between atoms: C8_8  and  C10_10 
ROOT
HETATM    1  C1  UNL     1     -36.036  13.879  -4.764  1.00 20.00     0.068 C 
HETATM    2  C4  UNL     1     -36.272  15.480  -6.627  1.00 20.00     0.031 C 
HETATM    3  C5  UNL     1     -37.714  15.641  -4.596  1.00 20.00     0.031 C 
HETATM    4  C10 UNL     1     -36.296  15.298  -5.103  1.00 20.00     0.042 C 
HETATM    5  N11 UNL     1     -35.843  12.767  -4.496  1.00 20.00    -0.196 NA
ENDROOT
BRANCH   4   6
HETATM    6  C8  UNL     1     -35.285  16.239  -4.386  1.00 20.00     0.028 C 
BRANCH   6   7
HETATM    7  C9  UNL     1     -34.562  15.725  -3.114  1.00 20.00    -0.017 C 
HETATM    8  C3  UNL     1     -35.254  16.153  -1.815  1.00 20.00     0.010 C 
BRANCH   7   9
HETATM    9  C7  UNL     1     -33.094  16.217  -3.064  1.00 20.00     0.004 C 
BRANCH   9  10
HETATM   10  C6  UNL     1     -32.948  17.731  -2.884  1.00 20.00    -0.004 C 
HETATM   11  C2  UNL     1     -32.203  18.067  -1.600  1.00 20.00     0.005 C 
ENDBRANCH   9  10
ENDBRANCH   7   9
ENDBRANCH   6   7
ENDBRANCH   4   6
TORSDOF 4
ENDMDL
MODEL 5
REMARK VINA RESULT:      -4.2      1.980      2.991
REMARK  4 active torsions:
REMARK  status: ('A' for Active; 'I' for Inactive)
REMARK    1  A    between atoms: C6_6  and  C7_7 
REMARK    2  A    between atoms: C7_7  and  C9_9 
REMARK    3  A    between atoms: C8_8  and  C9_9 
REMARK    4  A    between atoms: C8_8  and  C10_10 
ROOT
HETATM    1  C1  UNL     1     -36.632  13.965  -4.462  1.00 20.00     0.068 C 
HETATM    2  C4  UNL     1     -37.120  15.896  -5.918  1.00 20.00     0.031 C 
HETATM    3  C5  UNL     1     -38.803  15.059  -4.274  1.00 20.00     0.031 C 
HETATM    4  C10 UNL     1     -37.295  15.289  -4.519  1.00 20.00     0.042 C 
HETATM    5  N11 UNL     1     -36.122  12.924  -4.417  1.00 20.00    -0.196 NA
ENDROOT
BRANCH   4   6
HETATM    6  C8  UNL     1     -36.762  16.231  -3.402  1.00 20.00     0.028 C 
BRANCH   6   7
HETATM    7  C9  UNL     1     -35.369  15.941  -2.784  1.00 20.00    -0.017 C 
HETATM    8  C3  UNL     1     -35.214  16.495  -1.363  1.00 20.00     0.010 C 
BRANCH   7   9
HETATM    9  C7  UNL     1     -34.233  16.530  -3.658  1.00 20.00     0.004 C 
BRANCH   9  10
HETATM   10  C6  UNL     1     -32.914  15.756  -3.574  1.00 20.00    -0.004 C 
HETATM   11  C2  UNL     1     -32.947  14.509  -4.446  1.00 20.00     0.005 C 
ENDBRANCH   9  10
ENDBRANCH   7   9
ENDBRANCH   6   7
ENDBRANCH   4   6
TORSDOF 4
ENDMDL
MODEL 6
REMARK VINA RESULT:      -4.1      1.795      2.795
REMARK  4 active torsions:
REMARK  status: ('A' for Active; 'I' for Inactive)
REMARK    1  A    between atoms: C6_6  and  C7_7 
REMARK    2  A    between atoms: C7_7  and  C9_9 
REMARK    3  A    between atoms: C8_8  and  C9_9 
REMARK    4  A    between atoms: C8_8  and  C10_10 
ROOT
HETATM    1  C1  UNL     1     -33.515  14.737  -4.106  1.00 20.00     0.068 C 
HETATM    2  C4  UNL     1     -34.524  16.916  -4.672  1.00 20.00     0.031 C 
HETATM    3  C5  UNL     1     -35.152  15.706  -2.580  1.00 20.00     0.031 C 
HETATM    4  C10 UNL     1     -33.987  16.023  -3.545  1.00 20.00     0.042 C 
HETATM    5  N11 UNL     1     -33.153  13.724  -4.542  1.00 20.00    -0.196 NA
ENDROOT
BRANCH   4   6
HETATM    6  C8  UNL     1     -32.863  16.725  -2.729  1.00 20.00     0.028 C 
BRANCH   6   7
HETATM    7  C9  UNL     1     -33.148  18.119  -2.113  1.00 20.00    -0.017 C 
HETATM    8  C3  UNL     1     -32.466  19.263  -2.871  1.00 20.00     0.010 C 
BRANCH   7   9
HETATM    9  C7  UNL     1     -32.694  18.183  -0.632  1.00 20.00     0.004 C 
BRANCH   9  10
HETATM   10  C6  UNL     1     -31.208  18.503  -0.447  1.00 20.00    -0.004 C 
HETATM   11  C2  UNL     1     -30.750  18.204   0.973  1.00 20.00     0.005 C 
ENDBRANCH   9  10
ENDBRANCH   7   9
ENDBRANCH   6   7
ENDBRANCH   4   6
TORSDOF 4
ENDMDL
MODEL 7
REMARK VINA RESULT:      -4.1      1.742      2.588
REMARK  4 active torsions:
REMARK  status: ('A' for Active; 'I' for Inactive)
REMARK    1  A    between atoms: C6_6  and  C7_7 
REMARK    2  A    between atoms: C7_7  and  C9_9 
REMARK    3  A    between atoms: C8_8  and  C9_9 
REMARK    4  A    between atoms: C8_8  and  C10_10 
ROOT
HETATM    1  C1  UNL     1     -34.574  14.872  -5.656  1.00 20.00     0.068 C 
HETATM    2  C4  UNL     1     -36.442  16.219  -4.771  1.00 20.00     0.031 C 
HETATM    3  C5  UNL     1     -36.381  13.741  -4.471  1.00 20.00     0.031 C 
HETATM    4  C10 UNL     1     -35.516  15.021  -4.522  1.00 20.00     0.042 C 
HETATM    5  N11 UNL     1     -33.842  14.747  -6.547  1.00 20.00    -0.196 NA
ENDROOT
BRANCH   4   6
HETATM    6  C8  UNL     1     -34.752  15.142  -3.172  1.00 20.00     0.028 C 
BRANCH   6   7
HETATM    7  C9  UNL     1     -34.522  16.553  -2.571  1.00 20.00    -0.017 C 
HETATM    8  C3  UNL     1     -33.039  16.920  -2.450  1.00 20.00     0.010 C 
BRANCH   7   9
HETATM    9  C7  UNL     1     -35.166  16.679  -1.167  1.00 20.00     0.004 C 
BRANCH   9  10
HETATM   10  C6  UNL     1     -34.808  17.972  -0.428  1.00 20.00    -0.004 C 
HETATM   11  C2  UNL     1     -34.689  17.739   1.071  1.00 20.00     0.005 C 
ENDBRANCH   9  10
ENDBRANCH   7   9
ENDBRANCH   6   7
ENDBRANCH   4   6
TORSDOF 4
ENDMDL
MODEL 8
REMARK VINA RESULT:      -4.0      2.114      4.636
REMARK  4 active torsions:
REMARK  status: ('A' for Active; 'I' for Inactive)
REMARK    1  A    between atoms: C6_6  and  C7_7 
REMARK    2  A    between atoms: C7_7  and  C9_9 
REMARK    3  A    between atoms: C8_8  and  C9_9 
REMARK    4  A    between atoms: C8_8  and  C10_10 
ROOT
HETATM    1  C1  UNL     1     -35.325  13.778  -4.311  1.00 20.00     0.068 C 
HETATM    2  C4  UNL     1     -34.577  15.599  -2.824  1.00 20.00     0.031 C 
HETATM    3  C5  UNL     1     -32.967  14.404  -4.313  1.00 20.00     0.031 C 
HETATM    4  C10 UNL     1     -34.412  14.940  -4.200  1.00 20.00     0.042 C 
HETATM    5  N11 UNL     1     -36.031  12.861  -4.396  1.00 20.00    -0.196 NA
ENDROOT
BRANCH   4   6
HETATM    6  C8  UNL     1     -34.646  15.948  -5.362  1.00 20.00     0.028 C 
BRANCH   6   7
HETATM    7  C9  UNL     1     -35.187  15.414  -6.714  1.00 20.00    -0.017 C 
HETATM    8  C3  UNL     1     -34.233  15.667  -7.886  1.00 20.00     0.010 C 
BRANCH   7   9
HETATM    9  C7  UNL     1     -36.557  16.049  -7.061  1.00 20.00     0.004 C 
BRANCH   9  10
HETATM   10  C6  UNL     1     -37.196  16.828  -5.908  1.00 20.00    -0.004 C 
HETATM   11  C2  UNL     1     -38.279  16.011  -5.219  1.00 20.00     0.005 C 
ENDBRANCH   9  10
ENDBRANCH   7   9
ENDBRANCH   6   7
ENDBRANCH   4   6
TORSDOF 4
ENDMDL
MODEL 9
REMARK VINA RESULT:      -4.0      2.142      4.628
REMARK  4 active torsions:
REMARK  status: ('A' for Active; 'I' for Inactive)
REMARK    1  A    between atoms: C6_6  and  C7_7 
REMARK    2  A    between atoms: C7_7  and  C9_9 
REMARK    3  A    between atoms: C8_8  and  C9_9 
REMARK    4  A    between atoms: C8_8  and  C10_10 
ROOT
HETATM    1  C1  UNL     1     -35.118  16.981  -0.983  1.00 20.00     0.068 C 
HETATM    2  C4  UNL     1     -35.282  17.744  -3.324  1.00 20.00     0.031 C 
HETATM    3  C5  UNL     1     -33.084  17.113  -2.322  1.00 20.00     0.031 C 
HETATM    4  C10 UNL     1     -34.592  16.777  -2.353  1.00 20.00     0.042 C 
HETATM    5  N11 UNL     1     -35.521  17.146   0.092  1.00 20.00    -0.196 NA
ENDROOT
BRANCH   4   6
HETATM    6  C8  UNL     1     -34.747  15.293  -2.796  1.00 20.00     0.028 C 
BRANCH   6   7
HETATM    7  C9  UNL     1     -35.089  14.990  -4.278  1.00 20.00    -0.017 C 
HETATM    8  C3  UNL     1     -36.015  13.781  -4.446  1.00 20.00     0.010 C 
BRANCH   7   9
HETATM    9  C7  UNL     1     -33.807  14.737  -5.111  1.00 20.00     0.004 C 
BRANCH   9  10
HETATM   10  C6  UNL     1     -33.948  15.082  -6.596  1.00 20.00    -0.004 C 
HETATM   11  C2  UNL     1     -34.610  16.440  -6.789  1.00 20.00     0.005 C 
ENDBRANCH   9  10
ENDBRANCH   7   9
ENDBRANCH   6   7
ENDBRANCH   4   6
TORSDOF 4
ENDMDL
