MODEL 1
REMARK VINA RESULT:      -4.4      0.000      0.000
REMARK  3 active torsions:
REMARK  status: ('A' for Active; 'I' for Inactive)
REMARK    1  A    between atoms: C3_3  and  C8_8 
REMARK    2  A    between atoms: C8_8  and  C9_9 
REMARK    3  A    between atoms: C9_9  and  O11_11 
ROOT
HETATM    1  C1  UNL     1     -32.665  17.710  -2.250  1.00 20.00     0.088 C 
HETATM    2  C2  UNL     1     -33.058  16.563  -2.991  1.00 20.00     0.096 C 
HETATM    3  C3  UNL     1     -34.189  15.867  -2.765  1.00 20.00    -0.071 C 
HETATM    4  C4  UNL     1     -35.210  16.231  -1.719  1.00 20.00     0.044 C 
HETATM    5  N10 UNL     1     -32.336  18.647  -1.649  1.00 20.00    -0.192 NA
ENDROOT
BRANCH   3   6
HETATM    6  C8  UNL     1     -34.518  14.657  -3.627  1.00 20.00     0.071 C 
BRANCH   6   7
HETATM    7  C9  UNL     1     -35.520  14.894  -4.781  1.00 20.00     0.056 C 
HETATM    8  C5  UNL     1     -36.863  14.242  -4.428  1.00 20.00     0.046 C 
HETATM    9  C6  UNL     1     -35.729  16.379  -5.089  1.00 20.00     0.046 C 
BRANCH   7  10
HETATM   10  O11 UNL     1     -35.031  14.244  -5.955  1.00 20.00    -0.385 OA
HETATM   11  C7  UNL     1     -34.053  15.034  -6.611  1.00 20.00     0.202 C 
ENDBRANCH   7  10
ENDBRANCH   6   7
ENDBRANCH   3   6
TORSDOF 3
ENDMDL
MODEL 2
REMARK VINA RESULT:      -4.3      1.110      1.742
REMARK  3 active torsions:
REMARK  status: ('A' for Active; 'I' for Inactive)
REMARK    1  A    between atoms: C3_3  and  C8_8 
REMARK    2  A    between atoms: C8_8  and  C9_9 
REMARK    3  A    between atoms: C9_9  and  O11_11 
ROOT
HETATM    1  C1  UNL     1     -35.200  17.063  -0.868  1.00 20.00     0.088 C 
HETATM    2  C2  UNL     1     -35.171  16.022  -1.834  1.00 20.00     0.096 C 
HETATM    3  C3  UNL     1     -34.208  15.879  -2.765  1.00 20.00    -0.071 C 
HETATM    4  C4  UNL     1     -33.010  16.784  -2.886  1.00 20.00     0.044 C 
HETATM    5  N10 UNL     1     -35.231  17.911  -0.075  1.00 20.00    -0.192 NA
ENDROOT
BRANCH   3   6
HETATM    6  C8  UNL     1     -34.271  14.719  -3.747  1.00 20.00     0.071 C 
BRANCH   6   7
HETATM    7  C9  UNL     1     -35.309  14.845  -4.886  1.00 20.00     0.056 C 
HETATM    8  C5  UNL     1     -36.545  14.004  -4.541  1.00 20.00     0.046 C 
HETATM    9  C6  UNL     1     -35.725  16.294  -5.152  1.00 20.00     0.046 C 
BRANCH   7  10
HETATM   10  O11 UNL     1     -34.748  14.299  -6.082  1.00 20.00    -0.385 OA
HETATM   11  C7  UNL     1     -34.212  15.318  -6.909  1.00 20.00     0.202 C 
ENDBRANCH   7  10
ENDBRANCH   6   7
ENDBRANCH   3   6
TORSDOF 3
ENDMDL
MODEL 3
REMARK VINA RESULT:      -4.3      1.476      2.439
REMARK  3 active torsions:
REMARK  status: ('A' for Active; 'I' for Inactive)
REMARK    1  A    between atoms: C3_3  and  C8_8 
REMARK    2  A    between atoms: C8_8  and  C9_9 
REMARK    3  A    between atoms: C9_9  and  O11_11 
ROOT
HETATM    1  C1  UNL     1     -34.159  17.229  -1.409  1.00 20.00     0.088 C 
HETATM    2  C2  UNL     1     -34.922  16.165  -1.962  1.00 20.00     0.096 C 
HETATM    3  C3  UNL     1     -34.539  15.432  -3.025  1.00 20.00    -0.071 C 
HETATM    4  C4  UNL     1     -33.232  15.616  -3.751  1.00 20.00     0.044 C 
HETATM    5  N10 UNL     1     -33.542  18.100  -0.951  1.00 20.00    -0.192 NA
ENDROOT
BRANCH   3   6
HETATM    6  C8  UNL     1     -35.432  14.308  -3.529  1.00 20.00     0.071 C 
BRANCH   6   7
HETATM    7  C9  UNL     1     -36.418  14.675  -4.662  1.00 20.00     0.056 C 
HETATM    8  C5  UNL     1     -36.832  16.145  -4.516  1.00 20.00     0.046 C 
HETATM    9  C6  UNL     1     -35.834  14.436  -6.057  1.00 20.00     0.046 C 
BRANCH   7  10
HETATM   10  O11 UNL     1     -37.601  13.888  -4.515  1.00 20.00    -0.385 OA
HETATM   11  C7  UNL     1     -38.730  14.703  -4.248  1.00 20.00     0.202 C 
ENDBRANCH   7  10
ENDBRANCH   6   7
ENDBRANCH   3   6
TORSDOF 3
ENDMDL
MODEL 4
REMARK VINA RESULT:      -4.2      1.166      2.325
REMARK  3 active torsions:
REMARK  status: ('A' for Active; 'I' for Inactive)
REMARK    1  A    between atoms: C3_3  and  C8_8 
REMARK    2  A    between atoms: C8_8  and  C9_9 
REMARK    3  A    between atoms: C9_9  and  O11_11 
ROOT
HETATM    1  C1  UNL     1     -35.127  17.026  -1.088  1.00 20.00     0.088 C 
HETATM    2  C2  UNL     1     -35.008  15.978  -2.040  1.00 20.00     0.096 C 
HETATM    3  C3  UNL     1     -34.054  15.922  -2.990  1.00 20.00    -0.071 C 
HETATM    4  C4  UNL     1     -32.960  16.946  -3.148  1.00 20.00     0.044 C 
HETATM    5  N10 UNL     1     -35.233  17.879  -0.307  1.00 20.00    -0.192 NA
ENDROOT
BRANCH   3   6
HETATM    6  C8  UNL     1     -34.013  14.746  -3.953  1.00 20.00     0.071 C 
BRANCH   6   7
HETATM    7  C9  UNL     1     -34.784  14.925  -5.281  1.00 20.00     0.056 C 
HETATM    8  C5  UNL     1     -35.645  16.192  -5.200  1.00 20.00     0.046 C 
HETATM    9  C6  UNL     1     -33.860  15.002  -6.499  1.00 20.00     0.046 C 
BRANCH   7  10
HETATM   10  O11 UNL     1     -35.676  13.820  -5.447  1.00 20.00    -0.385 OA
HETATM   11  C7  UNL     1     -36.804  13.939  -4.598  1.00 20.00     0.202 C 
ENDBRANCH   7  10
ENDBRANCH   6   7
ENDBRANCH   3   6
TORSDOF 3
ENDMDL
MODEL 5
REMARK VINA RESULT:      -4.2      2.923      4.279
REMARK  3 active torsions:
REMARK  status: ('A' for Active; 'I' for Inactive)
REMARK    1  A    between atoms: C3_3  and  C8_8 
REMARK    2  A    between atoms: C8_8  and  C9_9 
REMARK    3  A    between atoms: C9_9  and  O11_11 
ROOT
HETATM    1  C1  UNL     1     -35.573  13.822  -4.104  1.00 20.00     0.088 C 
HETATM    2  C2  UNL     1     -35.082  14.961  -3.411  1.00 20.00     0.096 C 
HETATM    3  C3  UNL     1     -33.807  15.390  -3.467  1.00 20.00    -0.071 C 
HETATM    4  C4  UNL     1     -32.734  14.743  -4.303  1.00 20.00     0.044 C 
HETATM    5  N10 UNL     1     -35.982  12.892  -4.667  1.00 20.00    -0.192 NA
ENDROOT
BRANCH   3   6
HETATM    6  C8  UNL     1     -33.391  16.631  -2.690  1.00 20.00     0.071 C 
BRANCH   6   7
HETATM    7  C9  UNL     1     -33.695  17.990  -3.362  1.00 20.00     0.056 C 
HETATM    8  C5  UNL     1     -34.997  18.560  -2.784  1.00 20.00     0.046 C 
HETATM    9  C6  UNL     1     -32.562  19.004  -3.190  1.00 20.00     0.046 C 
BRANCH   7  10
HETATM   10  O11 UNL     1     -33.913  17.774  -4.758  1.00 20.00    -0.385 OA
HETATM   11  C7  UNL     1     -35.072  18.457  -5.208  1.00 20.00     0.202 C 
ENDBRANCH   7  10
ENDBRANCH   6   7
ENDBRANCH   3   6
TORSDOF 3
ENDMDL
MODEL 6
REMARK VINA RESULT:      -4.2      3.121      4.692
REMARK  3 active torsions:
REMARK  status: ('A' for Active; 'I' for Inactive)
REMARK    1  A    between atoms: C3_3  and  C8_8 
REMARK    2  A    between atoms: C8_8  and  C9_9 
REMARK    3  A    between atoms: C9_9  and  O11_11 
ROOT
HETATM    1  C1  UNL     1     -35.581  13.845  -4.105  1.00 20.00     0.088 C 
HETATM    2  C2  UNL     1     -35.045  14.966  -3.417  1.00 20.00     0.096 C 
HETATM    3  C3  UNL     1     -33.759  15.360  -3.499  1.00 20.00    -0.071 C 
HETATM    4  C4  UNL     1     -32.723  14.687  -4.361  1.00 20.00     0.044 C 
HETATM    5  N10 UNL     1     -36.028  12.929  -4.662  1.00 20.00    -0.192 NA
ENDROOT
BRANCH   3   6
HETATM    6  C8  UNL     1     -33.293  16.585  -2.726  1.00 20.00     0.071 C 
BRANCH   6   7
HETATM    7  C9  UNL     1     -33.728  17.956  -3.294  1.00 20.00     0.056 C 
HETATM    8  C5  UNL     1     -32.630  18.991  -3.016  1.00 20.00     0.046 C 
HETATM    9  C6  UNL     1     -34.029  17.908  -4.794  1.00 20.00     0.046 C 
BRANCH   7  10
HETATM   10  O11 UNL     1     -34.900  18.389  -2.601  1.00 20.00    -0.385 OA
HETATM   11  C7  UNL     1     -34.782  18.169  -1.205  1.00 20.00     0.202 C 
ENDBRANCH   7  10
ENDBRANCH   6   7
ENDBRANCH   3   6
TORSDOF 3
ENDMDL
MODEL 7
REMARK VINA RESULT:      -4.1      3.184      4.691
REMARK  3 active torsions:
REMARK  status: ('A' for Active; 'I' for Inactive)
REMARK    1  A    between atoms: C3_3  and  C8_8 
REMARK    2  A    between atoms: C8_8  and  C9_9 
REMARK    3  A    between atoms: C9_9  and  O11_11 
ROOT
HETATM    1  C1  UNL     1     -36.377  14.407  -3.983  1.00 20.00     0.088 C 
HETATM    2  C2  UNL     1     -35.574  15.332  -3.263  1.00 20.00     0.096 C 
HETATM    3  C3  UNL     1     -34.235  15.424  -3.381  1.00 20.00    -0.071 C 
HETATM    4  C4  UNL     1     -33.411  14.582  -4.319  1.00 20.00     0.044 C 
HETATM    5  N10 UNL     1     -37.041  13.654  -4.566  1.00 20.00    -0.192 NA
ENDROOT
BRANCH   3   6
HETATM    6  C8  UNL     1     -33.473  16.460  -2.567  1.00 20.00     0.071 C 
BRANCH   6   7
HETATM    7  C9  UNL     1     -33.658  17.934  -2.997  1.00 20.00     0.056 C 
HETATM    8  C5  UNL     1     -33.795  18.003  -4.523  1.00 20.00     0.046 C 
HETATM    9  C6  UNL     1     -34.869  18.597  -2.336  1.00 20.00     0.046 C 
BRANCH   7  10
HETATM   10  O11 UNL     1     -32.482  18.665  -2.646  1.00 20.00    -0.385 OA
HETATM   11  C7  UNL     1     -32.018  18.303  -1.356  1.00 20.00     0.202 C 
ENDBRANCH   7  10
ENDBRANCH   6   7
ENDBRANCH   3   6
TORSDOF 3
ENDMDL
MODEL 8
REMARK VINA RESULT:      -4.0      2.943      4.575
REMARK  3 active torsions:
REMARK  status: ('A' for Active; 'I' for Inactive)
REMARK    1  A    between atoms: C3_3  and  C8_8 
REMARK    2  A    between atoms: C8_8  and  C9_9 
REMARK    3  A    between atoms: C9_9  and  O11_11 
ROOT
HETATM    1  C1  UNL     1     -35.889  14.456  -5.128  1.00 20.00     0.088 C 
HETATM    2  C2  UNL     1     -35.728  15.144  -3.895  1.00 20.00     0.096 C 
HETATM    3  C3  UNL     1     -34.535  15.436  -3.341  1.00 20.00    -0.071 C 
HETATM    4  C4  UNL     1     -33.208  15.105  -3.971  1.00 20.00     0.044 C 
HETATM    5  N10 UNL     1     -36.029  13.894  -6.134  1.00 20.00    -0.192 NA
ENDROOT
BRANCH   3   6
HETATM    6  C8  UNL     1     -34.479  16.187  -2.019  1.00 20.00     0.071 C 
BRANCH   6   7
HETATM    7  C9  UNL     1     -34.028  17.664  -2.093  1.00 20.00     0.056 C 
HETATM    8  C5  UNL     1     -34.911  18.511  -1.167  1.00 20.00     0.046 C 
HETATM    9  C6  UNL     1     -32.555  17.854  -1.721  1.00 20.00     0.046 C 
BRANCH   7  10
HETATM   10  O11 UNL     1     -34.234  18.141  -3.424  1.00 20.00    -0.385 OA
HETATM   11  C7  UNL     1     -33.113  18.879  -3.883  1.00 20.00     0.202 C 
ENDBRANCH   7  10
ENDBRANCH   6   7
ENDBRANCH   3   6
TORSDOF 3
ENDMDL
MODEL 9
REMARK VINA RESULT:      -3.9      3.274      4.958
REMARK  3 active torsions:
REMARK  status: ('A' for Active; 'I' for Inactive)
REMARK    1  A    between atoms: C3_3  and  C8_8 
REMARK    2  A    between atoms: C8_8  and  C9_9 
REMARK    3  A    between atoms: C9_9  and  O11_11 
ROOT
HETATM    1  C1  UNL     1     -35.971  14.389  -5.073  1.00 20.00     0.088 C 
HETATM    2  C2  UNL     1     -35.910  15.031  -3.807  1.00 20.00     0.096 C 
HETATM    3  C3  UNL     1     -34.767  15.418  -3.209  1.00 20.00    -0.071 C 
HETATM    4  C4  UNL     1     -33.399  15.256  -3.817  1.00 20.00     0.044 C 
HETATM    5  N10 UNL     1     -36.029  13.863  -6.107  1.00 20.00    -0.192 NA
ENDROOT
BRANCH   3   6
HETATM    6  C8  UNL     1     -34.819  16.108  -1.853  1.00 20.00     0.071 C 
BRANCH   6   7
HETATM    7  C9  UNL     1     -34.484  17.617  -1.844  1.00 20.00     0.056 C 
HETATM    8  C5  UNL     1     -32.977  17.800  -1.624  1.00 20.00     0.046 C 
HETATM    9  C6  UNL     1     -34.912  18.328  -3.130  1.00 20.00     0.046 C 
BRANCH   7  10
HETATM   10  O11 UNL     1     -35.149  18.228  -0.736  1.00 20.00    -0.385 OA
HETATM   11  C7  UNL     1     -35.511  17.264   0.240  1.00 20.00     0.202 C 
ENDBRANCH   7  10
ENDBRANCH   6   7
ENDBRANCH   3   6
TORSDOF 3
ENDMDL
