MODEL 1
REMARK VINA RESULT:      -4.7      0.000      0.000
REMARK  4 active torsions:
REMARK  status: ('A' for Active; 'I' for Inactive)
REMARK    1  A    between atoms: C6_6  and  C7_7 
REMARK    2  A    between atoms: C7_7  and  C9_9 
REMARK    3  A    between atoms: C8_8  and  C9_9 
REMARK    4  A    between atoms: C8_8  and  C10_10 
ROOT
HETATM    1  C1  UNL     1     -35.267  13.808  -4.288  1.00 20.00     0.068 C 
HETATM    2  C4  UNL     1     -32.934  14.606  -4.395  1.00 20.00     0.031 C 
HETATM    3  C5  UNL     1     -34.839  16.100  -5.002  1.00 20.00     0.031 C 
HETATM    4  C10 UNL     1     -34.384  14.973  -4.049  1.00 20.00     0.042 C 
HETATM    5  N11 UNL     1     -35.962  12.900  -4.485  1.00 20.00    -0.196 NA
ENDROOT
BRANCH   4   6
HETATM    6  C8  UNL     1     -34.522  15.490  -2.588  1.00 20.00     0.028 C 
BRANCH   6   7
HETATM    7  C9  UNL     1     -34.418  17.014  -2.323  1.00 20.00    -0.017 C 
HETATM    8  C3  UNL     1     -35.229  17.471  -1.106  1.00 20.00     0.010 C 
BRANCH   7   9
HETATM    9  C7  UNL     1     -32.945  17.446  -2.111  1.00 20.00     0.004 C 
BRANCH   9  10
HETATM   10  C6  UNL     1     -32.710  18.264  -0.838  1.00 20.00    -0.004 C 
HETATM   11  C2  UNL     1     -31.239  18.269  -0.446  1.00 20.00     0.005 C 
ENDBRANCH   9  10
ENDBRANCH   7   9
ENDBRANCH   6   7
ENDBRANCH   4   6
TORSDOF 4
ENDMDL
MODEL 2
REMARK VINA RESULT:      -4.6      1.657      2.171
REMARK  4 active torsions:
REMARK  status: ('A' for Active; 'I' for Inactive)
REMARK    1  A    between atoms: C6_6  and  C7_7 
REMARK    2  A    between atoms: C7_7  and  C9_9 
REMARK    3  A    between atoms: C8_8  and  C9_9 
REMARK    4  A    between atoms: C8_8  and  C10_10 
ROOT
HETATM    1  C1  UNL     1     -37.032  14.291  -4.407  1.00 20.00     0.068 C 
HETATM    2  C4  UNL     1     -34.722  13.548  -3.960  1.00 20.00     0.031 C 
HETATM    3  C5  UNL     1     -35.273  14.915  -5.975  1.00 20.00     0.031 C 
HETATM    4  C10 UNL     1     -35.607  14.688  -4.484  1.00 20.00     0.042 C 
HETATM    5  N11 UNL     1     -38.149  13.979  -4.357  1.00 20.00    -0.196 NA
ENDROOT
BRANCH   4   6
HETATM    6  C8  UNL     1     -35.355  16.021  -3.722  1.00 20.00     0.028 C 
BRANCH   6   7
HETATM    7  C9  UNL     1     -34.444  16.002  -2.468  1.00 20.00    -0.017 C 
HETATM    8  C3  UNL     1     -33.103  16.710  -2.686  1.00 20.00     0.010 C 
BRANCH   7   9
HETATM    9  C7  UNL     1     -35.148  16.663  -1.256  1.00 20.00     0.004 C 
BRANCH   9  10
HETATM   10  C6  UNL     1     -34.320  17.754  -0.571  1.00 20.00    -0.004 C 
HETATM   11  C2  UNL     1     -34.654  17.855   0.911  1.00 20.00     0.005 C 
ENDBRANCH   9  10
ENDBRANCH   7   9
ENDBRANCH   6   7
ENDBRANCH   4   6
TORSDOF 4
ENDMDL
MODEL 3
REMARK VINA RESULT:      -4.4      1.493      3.022
REMARK  4 active torsions:
REMARK  status: ('A' for Active; 'I' for Inactive)
REMARK    1  A    between atoms: C6_6  and  C7_7 
REMARK    2  A    between atoms: C7_7  and  C9_9 
REMARK    3  A    between atoms: C8_8  and  C9_9 
REMARK    4  A    between atoms: C8_8  and  C10_10 
ROOT
HETATM    1  C1  UNL     1     -35.997  13.935  -5.098  1.00 20.00     0.068 C 
HETATM    2  C4  UNL     1     -35.930  14.954  -7.345  1.00 20.00     0.031 C 
HETATM    3  C5  UNL     1     -36.745  16.240  -5.366  1.00 20.00     0.031 C 
HETATM    4  C10 UNL     1     -35.721  15.186  -5.841  1.00 20.00     0.042 C 
HETATM    5  N11 UNL     1     -36.223  12.959  -4.512  1.00 20.00    -0.196 NA
ENDROOT
BRANCH   4   6
HETATM    6  C8  UNL     1     -34.294  15.722  -5.526  1.00 20.00     0.028 C 
BRANCH   6   7
HETATM    7  C9  UNL     1     -33.642  15.352  -4.168  1.00 20.00    -0.017 C 
HETATM    8  C3  UNL     1     -32.453  14.397  -4.312  1.00 20.00     0.010 C 
BRANCH   7   9
HETATM    9  C7  UNL     1     -33.158  16.618  -3.417  1.00 20.00     0.004 C 
BRANCH   9  10
HETATM   10  C6  UNL     1     -33.827  16.833  -2.058  1.00 20.00    -0.004 C 
HETATM   11  C2  UNL     1     -35.148  16.083  -1.966  1.00 20.00     0.005 C 
ENDBRANCH   9  10
ENDBRANCH   7   9
ENDBRANCH   6   7
ENDBRANCH   4   6
TORSDOF 4
ENDMDL
MODEL 4
REMARK VINA RESULT:      -4.3      1.645      2.250
REMARK  4 active torsions:
REMARK  status: ('A' for Active; 'I' for Inactive)
REMARK    1  A    between atoms: C6_6  and  C7_7 
REMARK    2  A    between atoms: C7_7  and  C9_9 
REMARK    3  A    between atoms: C8_8  and  C9_9 
REMARK    4  A    between atoms: C8_8  and  C10_10 
ROOT
HETATM    1  C1  UNL     1     -35.862  13.939  -4.831  1.00 20.00     0.068 C 
HETATM    2  C4  UNL     1     -34.256  15.090  -6.310  1.00 20.00     0.031 C 
HETATM    3  C5  UNL     1     -36.658  15.767  -6.233  1.00 20.00     0.031 C 
HETATM    4  C10 UNL     1     -35.472  15.255  -5.387  1.00 20.00     0.042 C 
HETATM    5  N11 UNL     1     -36.176  12.907  -4.403  1.00 20.00    -0.196 NA
ENDROOT
BRANCH   4   6
HETATM    6  C8  UNL     1     -35.207  16.286  -4.252  1.00 20.00     0.028 C 
BRANCH   6   7
HETATM    7  C9  UNL     1     -34.384  15.838  -3.015  1.00 20.00    -0.017 C 
HETATM    8  C3  UNL     1     -32.984  16.457  -2.967  1.00 20.00     0.010 C 
BRANCH   7   9
HETATM    9  C7  UNL     1     -35.117  16.196  -1.697  1.00 20.00     0.004 C 
BRANCH   9  10
HETATM   10  C6  UNL     1     -34.667  17.518  -1.071  1.00 20.00    -0.004 C 
HETATM   11  C2  UNL     1     -34.970  17.557   0.420  1.00 20.00     0.005 C 
ENDBRANCH   9  10
ENDBRANCH   7   9
ENDBRANCH   6   7
ENDBRANCH   4   6
TORSDOF 4
ENDMDL
MODEL 5
REMARK VINA RESULT:      -4.2      1.539      2.749
REMARK  4 active torsions:
REMARK  status: ('A' for Active; 'I' for Inactive)
REMARK    1  A    between atoms: C6_6  and  C7_7 
REMARK    2  A    between atoms: C7_7  and  C9_9 
REMARK    3  A    between atoms: C8_8  and  C9_9 
REMARK    4  A    between atoms: C8_8  and  C10_10 
ROOT
HETATM    1  C1  UNL     1     -37.129  14.616  -4.929  1.00 20.00     0.068 C 
HETATM    2  C4  UNL     1     -35.691  14.831  -6.923  1.00 20.00     0.031 C 
HETATM    3  C5  UNL     1     -37.160  16.708  -6.180  1.00 20.00     0.031 C 
HETATM    4  C10 UNL     1     -36.266  15.547  -5.692  1.00 20.00     0.042 C 
HETATM    5  N11 UNL     1     -37.814  13.892  -4.334  1.00 20.00    -0.196 NA
ENDROOT
BRANCH   4   6
HETATM    6  C8  UNL     1     -35.148  16.143  -4.789  1.00 20.00     0.028 C 
BRANCH   6   7
HETATM    7  C9  UNL     1     -34.447  15.216  -3.761  1.00 20.00    -0.017 C 
HETATM    8  C3  UNL     1     -33.036  14.802  -4.188  1.00 20.00     0.010 C 
BRANCH   7   9
HETATM    9  C7  UNL     1     -34.352  15.895  -2.371  1.00 20.00     0.004 C 
BRANCH   9  10
HETATM   10  C6  UNL     1     -34.067  17.398  -2.427  1.00 20.00    -0.004 C 
HETATM   11  C2  UNL     1     -32.685  17.720  -1.876  1.00 20.00     0.005 C 
ENDBRANCH   9  10
ENDBRANCH   7   9
ENDBRANCH   6   7
ENDBRANCH   4   6
TORSDOF 4
ENDMDL
MODEL 6
REMARK VINA RESULT:      -4.1      1.610      2.663
REMARK  4 active torsions:
REMARK  status: ('A' for Active; 'I' for Inactive)
REMARK    1  A    between atoms: C6_6  and  C7_7 
REMARK    2  A    between atoms: C7_7  and  C9_9 
REMARK    3  A    between atoms: C8_8  and  C9_9 
REMARK    4  A    between atoms: C8_8  and  C10_10 
ROOT
HETATM    1  C1  UNL     1     -34.396  15.158  -6.120  1.00 20.00     0.068 C 
HETATM    2  C4  UNL     1     -35.251  13.944  -4.149  1.00 20.00     0.031 C 
HETATM    3  C5  UNL     1     -32.811  14.385  -4.436  1.00 20.00     0.031 C 
HETATM    4  C10 UNL     1     -34.225  14.964  -4.661  1.00 20.00     0.042 C 
HETATM    5  N11 UNL     1     -34.520  15.303  -7.264  1.00 20.00    -0.196 NA
ENDROOT
BRANCH   4   6
HETATM    6  C8  UNL     1     -34.320  16.319  -3.902  1.00 20.00     0.028 C 
BRANCH   6   7
HETATM    7  C9  UNL     1     -33.895  16.370  -2.411  1.00 20.00    -0.017 C 
HETATM    8  C3  UNL     1     -32.861  17.462  -2.116  1.00 20.00     0.010 C 
BRANCH   7   9
HETATM    9  C7  UNL     1     -35.119  16.602  -1.489  1.00 20.00     0.004 C 
BRANCH   9  10
HETATM   10  C6  UNL     1     -34.905  17.682  -0.425  1.00 20.00    -0.004 C 
HETATM   11  C2  UNL     1     -35.635  17.341   0.866  1.00 20.00     0.005 C 
ENDBRANCH   9  10
ENDBRANCH   7   9
ENDBRANCH   6   7
ENDBRANCH   4   6
TORSDOF 4
ENDMDL
MODEL 7
REMARK VINA RESULT:      -4.1      2.773      4.943
REMARK  4 active torsions:
REMARK  status: ('A' for Active; 'I' for Inactive)
REMARK    1  A    between atoms: C6_6  and  C7_7 
REMARK    2  A    between atoms: C7_7  and  C9_9 
REMARK    3  A    between atoms: C8_8  and  C9_9 
REMARK    4  A    between atoms: C8_8  and  C10_10 
ROOT
HETATM    1  C1  UNL     1     -31.894  18.169  -1.127  1.00 20.00     0.068 C 
HETATM    2  C4  UNL     1     -34.204  17.750  -0.365  1.00 20.00     0.031 C 
HETATM    3  C5  UNL     1     -33.734  19.263  -2.294  1.00 20.00     0.031 C 
HETATM    4  C10 UNL     1     -33.290  17.968  -1.579  1.00 20.00     0.042 C 
HETATM    5  N11 UNL     1     -30.802  18.338  -0.774  1.00 20.00    -0.196 NA
ENDROOT
BRANCH   4   6
HETATM    6  C8  UNL     1     -33.385  16.796  -2.599  1.00 20.00     0.028 C 
BRANCH   6   7
HETATM    7  C9  UNL     1     -34.674  15.934  -2.627  1.00 20.00    -0.017 C 
HETATM    8  C3  UNL     1     -35.878  16.671  -3.223  1.00 20.00     0.010 C 
BRANCH   7   9
HETATM    9  C7  UNL     1     -34.458  14.630  -3.436  1.00 20.00     0.004 C 
BRANCH   9  10
HETATM   10  C6  UNL     1     -33.375  14.735  -4.513  1.00 20.00    -0.004 C 
HETATM   11  C2  UNL     1     -33.981  15.014  -5.881  1.00 20.00     0.005 C 
ENDBRANCH   9  10
ENDBRANCH   7   9
ENDBRANCH   6   7
ENDBRANCH   4   6
TORSDOF 4
ENDMDL
MODEL 8
REMARK VINA RESULT:      -4.1      1.354      1.892
REMARK  4 active torsions:
REMARK  status: ('A' for Active; 'I' for Inactive)
REMARK    1  A    between atoms: C6_6  and  C7_7 
REMARK    2  A    between atoms: C7_7  and  C9_9 
REMARK    3  A    between atoms: C8_8  and  C9_9 
REMARK    4  A    between atoms: C8_8  and  C10_10 
ROOT
HETATM    1  C1  UNL     1     -34.734  16.198  -4.966  1.00 20.00     0.068 C 
HETATM    2  C4  UNL     1     -35.455  13.976  -4.171  1.00 20.00     0.031 C 
HETATM    3  C5  UNL     1     -33.035  14.550  -4.382  1.00 20.00     0.031 C 
HETATM    4  C10 UNL     1     -34.428  15.106  -4.013  1.00 20.00     0.042 C 
HETATM    5  N11 UNL     1     -34.965  17.051  -5.718  1.00 20.00    -0.196 NA
ENDROOT
BRANCH   4   6
HETATM    6  C8  UNL     1     -34.365  15.638  -2.552  1.00 20.00     0.028 C 
BRANCH   6   7
HETATM    7  C9  UNL     1     -34.240  17.166  -2.320  1.00 20.00    -0.017 C 
HETATM    8  C3  UNL     1     -35.115  17.674  -1.169  1.00 20.00     0.010 C 
BRANCH   7   9
HETATM    9  C7  UNL     1     -32.773  17.569  -2.026  1.00 20.00     0.004 C 
BRANCH   9  10
HETATM   10  C6  UNL     1     -32.573  18.260  -0.675  1.00 20.00    -0.004 C 
HETATM   11  C2  UNL     1     -31.101  18.318  -0.294  1.00 20.00     0.005 C 
ENDBRANCH   9  10
ENDBRANCH   7   9
ENDBRANCH   6   7
ENDBRANCH   4   6
TORSDOF 4
ENDMDL
MODEL 9
REMARK VINA RESULT:      -4.0      1.449      2.798
REMARK  4 active torsions:
REMARK  status: ('A' for Active; 'I' for Inactive)
REMARK    1  A    between atoms: C6_6  and  C7_7 
REMARK    2  A    between atoms: C7_7  and  C9_9 
REMARK    3  A    between atoms: C8_8  and  C9_9 
REMARK    4  A    between atoms: C8_8  and  C10_10 
ROOT
HETATM    1  C1  UNL     1     -35.415  13.909  -4.220  1.00 20.00     0.068 C 
HETATM    2  C4  UNL     1     -35.047  15.583  -2.445  1.00 20.00     0.031 C 
HETATM    3  C5  UNL     1     -33.263  15.048  -4.108  1.00 20.00     0.031 C 
HETATM    4  C10 UNL     1     -34.786  15.214  -3.912  1.00 20.00     0.042 C 
HETATM    5  N11 UNL     1     -35.898  12.881  -4.461  1.00 20.00    -0.196 NA
ENDROOT
BRANCH   4   6
HETATM    6  C8  UNL     1     -35.282  16.319  -4.890  1.00 20.00     0.028 C 
BRANCH   6   7
HETATM    7  C9  UNL     1     -34.273  17.391  -5.376  1.00 20.00    -0.017 C 
HETATM    8  C3  UNL     1     -34.610  17.950  -6.762  1.00 20.00     0.010 C 
BRANCH   7   9
HETATM    9  C7  UNL     1     -34.196  18.578  -4.383  1.00 20.00     0.004 C 
BRANCH   9  10
HETATM   10  C6  UNL     1     -32.780  18.888  -3.888  1.00 20.00    -0.004 C 
HETATM   11  C2  UNL     1     -32.573  18.399  -2.462  1.00 20.00     0.005 C 
ENDBRANCH   9  10
ENDBRANCH   7   9
ENDBRANCH   6   7
ENDBRANCH   4   6
TORSDOF 4
ENDMDL
