MODEL 1
REMARK VINA RESULT:      -4.6      0.000      0.000
REMARK  3 active torsions:
REMARK  status: ('A' for Active; 'I' for Inactive)
REMARK    1  A    between atoms: C7_7  and  C9_9 
REMARK    2  A    between atoms: C8_8  and  C9_9 
REMARK    3  A    between atoms: C9_9  and  O11_11 
ROOT
HETATM    1  C1  UNL     1     -35.219   4.961   4.642  1.00 20.00     0.027 C 
HETATM    2  C2  UNL     1     -34.215   5.370   3.569  1.00 20.00     0.011 C 
HETATM    3  C5  UNL     1     -34.685   5.288   6.030  1.00 20.00     0.167 C 
HETATM    4  C6  UNL     1     -33.320   7.043   5.211  1.00 20.00     0.174 C 
HETATM    5  C8  UNL     1     -33.775   6.824   3.767  1.00 20.00     0.039 C 
HETATM    6  O10 UNL     1     -34.350   6.672   6.129  1.00 20.00    -0.391 OA
ENDROOT
BRANCH   5   7
HETATM    7  C9  UNL     1     -32.679   7.208   2.779  1.00 20.00     0.128 C 
BRANCH   7   8
HETATM    8  C7  UNL     1     -33.251   7.837   1.519  1.00 20.00     0.015 A 
HETATM    9  C3  UNL     1     -32.926   9.263   1.169  1.00 20.00     0.007 A 
HETATM   10  C4  UNL     1     -32.356   8.140   0.350  1.00 20.00     0.007 A 
ENDBRANCH   7   8
BRANCH   7  11
HETATM   11  O11 UNL     1     -31.939   6.045   2.430  1.00 20.00    -0.395 OA
HETATM   12  H27 UNL     1     -31.063   6.139   2.837  1.00 20.00     0.210 HD
ENDBRANCH   7  11
ENDBRANCH   5   7
TORSDOF 3
ENDMDL
MODEL 2
REMARK VINA RESULT:      -4.4     10.728     11.820
REMARK  3 active torsions:
REMARK  status: ('A' for Active; 'I' for Inactive)
REMARK    1  A    between atoms: C7_7  and  C9_9 
REMARK    2  A    between atoms: C8_8  and  C9_9 
REMARK    3  A    between atoms: C9_9  and  O11_11 
ROOT
HETATM    1  C1  UNL     1     -36.602  14.879  -3.764  1.00 20.00     0.027 C 
HETATM    2  C2  UNL     1     -35.553  15.981  -3.655  1.00 20.00     0.011 C 
HETATM    3  C5  UNL     1     -36.080  13.720  -4.601  1.00 20.00     0.167 C 
HETATM    4  C6  UNL     1     -33.823  14.212  -4.072  1.00 20.00     0.174 C 
HETATM    5  C8  UNL     1     -34.210  15.405  -3.195  1.00 20.00     0.039 C 
HETATM    6  O10 UNL     1     -34.853  13.222  -4.065  1.00 20.00    -0.391 OA
ENDROOT
BRANCH   5   7
HETATM    7  C9  UNL     1     -33.121  16.472  -3.204  1.00 20.00     0.128 C 
BRANCH   7   8
HETATM    8  C7  UNL     1     -33.320  17.489  -2.091  1.00 20.00     0.015 A 
HETATM    9  C3  UNL     1     -32.140  17.997  -1.310  1.00 20.00     0.007 A 
HETATM   10  C4  UNL     1     -32.853  18.907  -2.269  1.00 20.00     0.007 A 
ENDBRANCH   7   8
BRANCH   7  11
HETATM   11  O11 UNL     1     -33.132  17.139  -4.460  1.00 20.00    -0.395 OA
HETATM   12  H27 UNL     1     -32.279  16.953  -4.883  1.00 20.00     0.210 HD
ENDBRANCH   7  11
ENDBRANCH   5   7
TORSDOF 3
ENDMDL
MODEL 3
REMARK VINA RESULT:      -4.3     10.946     11.800
REMARK  3 active torsions:
REMARK  status: ('A' for Active; 'I' for Inactive)
REMARK    1  A    between atoms: C7_7  and  C9_9 
REMARK    2  A    between atoms: C8_8  and  C9_9 
REMARK    3  A    between atoms: C9_9  and  O11_11 
ROOT
HETATM    1  C1  UNL     1     -33.141  17.497  -1.970  1.00 20.00     0.027 C 
HETATM    2  C2  UNL     1     -33.079  16.641  -3.231  1.00 20.00     0.011 C 
HETATM    3  C5  UNL     1     -34.585  17.757  -1.566  1.00 20.00     0.167 C 
HETATM    4  C6  UNL     1     -35.347  15.768  -2.605  1.00 20.00     0.174 C 
HETATM    5  C8  UNL     1     -33.942  15.384  -3.072  1.00 20.00     0.039 C 
HETATM    6  O10 UNL     1     -35.290  16.527  -1.396  1.00 20.00    -0.391 OA
ENDROOT
BRANCH   5   7
HETATM    7  C9  UNL     1     -33.991  14.582  -4.368  1.00 20.00     0.128 C 
BRANCH   7   8
HETATM    8  C7  UNL     1     -34.610  15.383  -5.503  1.00 20.00     0.015 A 
HETATM    9  C3  UNL     1     -34.130  15.191  -6.915  1.00 20.00     0.007 A 
HETATM   10  C4  UNL     1     -35.494  14.706  -6.513  1.00 20.00     0.007 A 
ENDBRANCH   7   8
BRANCH   7  11
HETATM   11  O11 UNL     1     -34.752  13.400  -4.155  1.00 20.00    -0.395 OA
HETATM   12  H27 UNL     1     -34.116  12.681  -4.009  1.00 20.00     0.210 HD
ENDBRANCH   7  11
ENDBRANCH   5   7
TORSDOF 3
ENDMDL
MODEL 4
REMARK VINA RESULT:      -4.3     11.329     12.094
REMARK  3 active torsions:
REMARK  status: ('A' for Active; 'I' for Inactive)
REMARK    1  A    between atoms: C7_7  and  C9_9 
REMARK    2  A    between atoms: C8_8  and  C9_9 
REMARK    3  A    between atoms: C9_9  and  O11_11 
ROOT
HETATM    1  C1  UNL     1     -36.100  13.970  -4.233  1.00 20.00     0.027 C 
HETATM    2  C2  UNL     1     -35.382  15.005  -3.374  1.00 20.00     0.011 C 
HETATM    3  C5  UNL     1     -35.915  14.276  -5.712  1.00 20.00     0.167 C 
HETATM    4  C6  UNL     1     -33.866  15.405  -5.334  1.00 20.00     0.174 C 
HETATM    5  C8  UNL     1     -33.926  15.164  -3.824  1.00 20.00     0.039 C 
HETATM    6  O10 UNL     1     -34.528  14.355  -6.042  1.00 20.00    -0.391 OA
ENDROOT
BRANCH   5   7
HETATM    7  C9  UNL     1     -33.231  16.285  -3.059  1.00 20.00     0.128 C 
BRANCH   7   8
HETATM    8  C7  UNL     1     -34.137  16.889  -1.998  1.00 20.00     0.015 A 
HETATM    9  C3  UNL     1     -33.552  17.681  -0.863  1.00 20.00     0.007 A 
HETATM   10  C4  UNL     1     -34.341  18.377  -1.934  1.00 20.00     0.007 A 
ENDBRANCH   7   8
BRANCH   7  11
HETATM   11  O11 UNL     1     -32.837  17.299  -3.975  1.00 20.00    -0.395 OA
HETATM   12  H27 UNL     1     -33.426  18.055  -3.824  1.00 20.00     0.210 HD
ENDBRANCH   7  11
ENDBRANCH   5   7
TORSDOF 3
ENDMDL
MODEL 5
REMARK VINA RESULT:      -4.2     10.877     11.808
REMARK  3 active torsions:
REMARK  status: ('A' for Active; 'I' for Inactive)
REMARK    1  A    between atoms: C7_7  and  C9_9 
REMARK    2  A    between atoms: C8_8  and  C9_9 
REMARK    3  A    between atoms: C9_9  and  O11_11 
ROOT
HETATM    1  C1  UNL     1     -34.744  14.149  -3.997  1.00 20.00     0.027 C 
HETATM    2  C2  UNL     1     -35.545  15.194  -3.227  1.00 20.00     0.011 C 
HETATM    3  C5  UNL     1     -33.520  14.779  -4.645  1.00 20.00     0.167 C 
HETATM    4  C6  UNL     1     -33.414  16.504  -3.024  1.00 20.00     0.174 C 
HETATM    5  C8  UNL     1     -34.636  15.975  -2.271  1.00 20.00     0.039 C 
HETATM    6  O10 UNL     1     -32.714  15.438  -3.669  1.00 20.00    -0.391 OA
ENDROOT
BRANCH   5   7
HETATM    7  C9  UNL     1     -35.397  17.106  -1.588  1.00 20.00     0.128 C 
BRANCH   7   8
HETATM    8  C7  UNL     1     -35.334  16.993  -0.074  1.00 20.00     0.015 A 
HETATM    9  C3  UNL     1     -34.789  18.128   0.749  1.00 20.00     0.007 A 
HETATM   10  C4  UNL     1     -36.257  17.811   0.785  1.00 20.00     0.007 A 
ENDBRANCH   7   8
BRANCH   7  11
HETATM   11  O11 UNL     1     -36.755  17.073  -2.008  1.00 20.00    -0.395 OA
HETATM   12  H27 UNL     1     -36.811  16.417  -2.721  1.00 20.00     0.210 HD
ENDBRANCH   7  11
ENDBRANCH   5   7
TORSDOF 3
ENDMDL
MODEL 6
REMARK VINA RESULT:      -4.2     11.224     11.992
REMARK  3 active torsions:
REMARK  status: ('A' for Active; 'I' for Inactive)
REMARK    1  A    between atoms: C7_7  and  C9_9 
REMARK    2  A    between atoms: C8_8  and  C9_9 
REMARK    3  A    between atoms: C9_9  and  O11_11 
ROOT
HETATM    1  C1  UNL     1     -36.561  13.924  -4.697  1.00 20.00     0.027 C 
HETATM    2  C2  UNL     1     -36.392  15.050  -3.682  1.00 20.00     0.011 C 
HETATM    3  C5  UNL     1     -35.754  14.207  -5.955  1.00 20.00     0.167 C 
HETATM    4  C6  UNL     1     -34.193  15.550  -4.783  1.00 20.00     0.174 C 
HETATM    5  C8  UNL     1     -34.907  15.345  -3.446  1.00 20.00     0.039 C 
HETATM    6  O10 UNL     1     -34.379  14.419  -5.637  1.00 20.00    -0.391 OA
ENDROOT
BRANCH   5   7
HETATM    7  C9  UNL     1     -34.723  16.551  -2.532  1.00 20.00     0.128 C 
BRANCH   7   8
HETATM    8  C7  UNL     1     -33.255  16.893  -2.338  1.00 20.00     0.015 A 
HETATM    9  C3  UNL     1     -32.734  18.248  -2.730  1.00 20.00     0.007 A 
HETATM   10  C4  UNL     1     -32.840  17.876  -1.279  1.00 20.00     0.007 A 
ENDBRANCH   7   8
BRANCH   7  11
HETATM   11  O11 UNL     1     -35.313  16.272  -1.268  1.00 20.00    -0.395 OA
HETATM   12  H27 UNL     1     -36.268  16.417  -1.368  1.00 20.00     0.210 HD
ENDBRANCH   7  11
ENDBRANCH   5   7
TORSDOF 3
ENDMDL
MODEL 7
REMARK VINA RESULT:      -4.1     15.509     16.069
REMARK  3 active torsions:
REMARK  status: ('A' for Active; 'I' for Inactive)
REMARK    1  A    between atoms: C7_7  and  C9_9 
REMARK    2  A    between atoms: C8_8  and  C9_9 
REMARK    3  A    between atoms: C9_9  and  O11_11 
ROOT
HETATM    1  C1  UNL     1     -26.726  17.081  12.331  1.00 20.00     0.027 C 
HETATM    2  C2  UNL     1     -25.215  16.920  12.203  1.00 20.00     0.011 C 
HETATM    3  C5  UNL     1     -27.147  18.504  11.992  1.00 20.00     0.167 C 
HETATM    4  C6  UNL     1     -25.268  18.840  10.588  1.00 20.00     0.174 C 
HETATM    5  C8  UNL     1     -24.732  17.429  10.841  1.00 20.00     0.039 C 
HETATM    6  O10 UNL     1     -26.693  18.867  10.688  1.00 20.00    -0.391 OA
ENDROOT
BRANCH   5   7
HETATM    7  C9  UNL     1     -23.211  17.392  10.747  1.00 20.00     0.128 C 
BRANCH   7   8
HETATM    8  C7  UNL     1     -22.742  16.891   9.390  1.00 20.00     0.015 A 
HETATM    9  C3  UNL     1     -22.585  17.849   8.241  1.00 20.00     0.007 A 
HETATM   10  C4  UNL     1     -21.371  17.243   8.885  1.00 20.00     0.007 A 
ENDBRANCH   7   8
BRANCH   7  11
HETATM   11  O11 UNL     1     -22.702  16.539  11.765  1.00 20.00    -0.395 OA
HETATM   12  H27 UNL     1     -23.214  15.716  11.720  1.00 20.00     0.210 HD
ENDBRANCH   7  11
ENDBRANCH   5   7
TORSDOF 3
ENDMDL
MODEL 8
REMARK VINA RESULT:      -4.0     14.955     16.303
REMARK  3 active torsions:
REMARK  status: ('A' for Active; 'I' for Inactive)
REMARK    1  A    between atoms: C7_7  and  C9_9 
REMARK    2  A    between atoms: C8_8  and  C9_9 
REMARK    3  A    between atoms: C9_9  and  O11_11 
ROOT
HETATM    1  C1  UNL     1     -25.768  18.907   6.101  1.00 20.00     0.027 C 
HETATM    2  C2  UNL     1     -26.100  19.190   7.562  1.00 20.00     0.011 C 
HETATM    3  C5  UNL     1     -24.320  19.263   5.799  1.00 20.00     0.167 C 
HETATM    4  C6  UNL     1     -23.653  18.919   8.046  1.00 20.00     0.174 C 
HETATM    5  C8  UNL     1     -25.067  18.536   8.486  1.00 20.00     0.039 C 
HETATM    6  O10 UNL     1     -23.435  18.569   6.678  1.00 20.00    -0.391 OA
ENDROOT
BRANCH   5   7
HETATM    7  C9  UNL     1     -25.314  18.915   9.943  1.00 20.00     0.128 C 
BRANCH   7   8
HETATM    8  C7  UNL     1     -24.878  17.812  10.893  1.00 20.00     0.015 A 
HETATM    9  C3  UNL     1     -23.877  18.097  11.978  1.00 20.00     0.007 A 
HETATM   10  C4  UNL     1     -25.313  17.836  12.332  1.00 20.00     0.007 A 
ENDBRANCH   7   8
BRANCH   7  11
HETATM   11  O11 UNL     1     -26.699  19.177  10.128  1.00 20.00    -0.395 OA
HETATM   12  H27 UNL     1     -26.859  19.167  11.085  1.00 20.00     0.210 HD
ENDBRANCH   7  11
ENDBRANCH   5   7
TORSDOF 3
ENDMDL
MODEL 9
REMARK VINA RESULT:      -4.0     10.819     11.945
REMARK  3 active torsions:
REMARK  status: ('A' for Active; 'I' for Inactive)
REMARK    1  A    between atoms: C7_7  and  C9_9 
REMARK    2  A    between atoms: C8_8  and  C9_9 
REMARK    3  A    between atoms: C9_9  and  O11_11 
ROOT
HETATM    1  C1  UNL     1     -36.595  15.645  -5.480  1.00 20.00     0.027 C 
HETATM    2  C2  UNL     1     -35.747  16.298  -4.393  1.00 20.00     0.011 C 
HETATM    3  C5  UNL     1     -35.915  14.392  -6.012  1.00 20.00     0.167 C 
HETATM    4  C6  UNL     1     -34.740  14.036  -3.985  1.00 20.00     0.174 C 
HETATM    5  C8  UNL     1     -35.355  15.272  -3.325  1.00 20.00     0.039 C 
HETATM    6  O10 UNL     1     -35.634  13.479  -4.951  1.00 20.00    -0.391 OA
ENDROOT
BRANCH   5   7
HETATM    7  C9  UNL     1     -34.404  15.880  -2.300  1.00 20.00     0.128 C 
BRANCH   7   8
HETATM    8  C7  UNL     1     -34.996  17.119  -1.647  1.00 20.00     0.015 A 
HETATM    9  C3  UNL     1     -35.388  17.097  -0.196  1.00 20.00     0.007 A 
HETATM   10  C4  UNL     1     -34.198  17.899  -0.640  1.00 20.00     0.007 A 
ENDBRANCH   7   8
BRANCH   7  11
HETATM   11  O11 UNL     1     -33.183  16.224  -2.943  1.00 20.00    -0.395 OA
HETATM   12  H27 UNL     1     -32.958  17.122  -2.652  1.00 20.00     0.210 HD
ENDBRANCH   7  11
ENDBRANCH   5   7
TORSDOF 3
ENDMDL
