MODEL 1
REMARK VINA RESULT:      -4.7      0.000      0.000
REMARK  0 active torsions:
REMARK  status: ('A' for Active; 'I' for Inactive)
ROOT
HETATM    1  C1  UNL     1     -21.765  17.388   7.638  1.00 20.00     0.065 C 
HETATM    2  C2  UNL     1     -23.933  16.277  11.956  1.00 20.00     0.032 C 
HETATM    3  C3  UNL     1     -24.942  17.104  11.180  1.00 20.00     0.037 C 
HETATM    4  C4  UNL     1     -23.833  17.767   8.963  1.00 20.00     0.056 C 
HETATM    5  C5  UNL     1     -22.842  17.286  12.271  1.00 20.00     0.273 C 
HETATM    6  C6  UNL     1     -21.775  17.667  10.108  1.00 20.00     0.292 C 
HETATM    7  C7  UNL     1     -22.361  18.098   8.772  1.00 20.00     0.123 C 
HETATM    8  C8  UNL     1     -24.090  18.120  10.429  1.00 20.00     0.224 C 
HETATM    9  N9  UNL     1     -21.293  16.826   6.740  1.00 20.00    -0.197 NA
HETATM   10  N10 UNL     1     -22.761  18.149  11.088  1.00 20.00     0.094 N 
ENDROOT
TORSDOF 0
ENDMDL
MODEL 2
REMARK VINA RESULT:      -4.7      1.716      1.919
REMARK  0 active torsions:
REMARK  status: ('A' for Active; 'I' for Inactive)
ROOT
HETATM    1  C1  UNL     1     -24.129  19.046   7.768  1.00 20.00     0.065 C 
HETATM    2  C2  UNL     1     -24.739  16.042  11.664  1.00 20.00     0.032 C 
HETATM    3  C3  UNL     1     -25.669  17.220  11.893  1.00 20.00     0.037 C 
HETATM    4  C4  UNL     1     -25.332  18.842   9.933  1.00 20.00     0.056 C 
HETATM    5  C5  UNL     1     -23.362  16.665  11.815  1.00 20.00     0.273 C 
HETATM    6  C6  UNL     1     -23.126  18.022   9.798  1.00 20.00     0.292 C 
HETATM    7  C7  UNL     1     -24.013  19.117   9.226  1.00 20.00     0.123 C 
HETATM    8  C8  UNL     1     -24.900  18.412  11.336  1.00 20.00     0.224 C 
HETATM    9  N9  UNL     1     -24.221  18.990   6.612  1.00 20.00    -0.197 NA
HETATM   10  N10 UNL     1     -23.478  18.004  11.226  1.00 20.00     0.094 N 
ENDROOT
TORSDOF 0
ENDMDL
MODEL 3
REMARK VINA RESULT:      -4.4     23.261     24.265
REMARK  0 active torsions:
REMARK  status: ('A' for Active; 'I' for Inactive)
ROOT
HETATM    1  C1  UNL     1     -41.374   9.093   0.410  1.00 20.00     0.065 C 
HETATM    2  C2  UNL     1     -43.274   4.945  -1.530  1.00 20.00     0.032 C 
HETATM    3  C3  UNL     1     -43.417   4.809  -0.026  1.00 20.00     0.037 C 
HETATM    4  C4  UNL     1     -42.377   6.905   1.028  1.00 20.00     0.056 C 
HETATM    5  C5  UNL     1     -41.771   4.865  -1.734  1.00 20.00     0.273 C 
HETATM    6  C6  UNL     1     -40.961   6.994  -0.854  1.00 20.00     0.292 C 
HETATM    7  C7  UNL     1     -41.157   7.648   0.505  1.00 20.00     0.123 C 
HETATM    8  C8  UNL     1     -42.164   5.475   0.529  1.00 20.00     0.224 C 
HETATM    9  N9  UNL     1     -41.546  10.239   0.336  1.00 20.00    -0.197 NA
HETATM   10  N10 UNL     1     -41.187   5.566  -0.585  1.00 20.00     0.094 N 
ENDROOT
TORSDOF 0
ENDMDL
MODEL 4
REMARK VINA RESULT:      -4.1     16.642     17.967
REMARK  0 active torsions:
REMARK  status: ('A' for Active; 'I' for Inactive)
ROOT
HETATM    1  C1  UNL     1     -36.056  14.177  -4.119  1.00 20.00     0.065 C 
HETATM    2  C2  UNL     1     -34.263  18.655  -2.972  1.00 20.00     0.032 C 
HETATM    3  C3  UNL     1     -33.261  18.033  -3.928  1.00 20.00     0.037 C 
HETATM    4  C4  UNL     1     -34.112  15.679  -4.493  1.00 20.00     0.056 C 
HETATM    5  C5  UNL     1     -34.113  17.801  -1.725  1.00 20.00     0.273 C 
HETATM    6  C6  UNL     1     -35.127  15.673  -2.366  1.00 20.00     0.292 C 
HETATM    7  C7  UNL     1     -34.839  14.746  -3.537  1.00 20.00     0.123 C 
HETATM    8  C8  UNL     1     -33.269  16.554  -3.564  1.00 20.00     0.224 C 
HETATM    9  N9  UNL     1     -37.020  13.726  -4.581  1.00 20.00    -0.197 NA
HETATM   10  N10 UNL     1     -33.879  16.438  -2.216  1.00 20.00     0.094 N 
ENDROOT
TORSDOF 0
ENDMDL
MODEL 5
REMARK VINA RESULT:      -4.1     16.988     18.341
REMARK  0 active torsions:
REMARK  status: ('A' for Active; 'I' for Inactive)
ROOT
HETATM    1  C1  UNL     1     -35.930  13.946  -4.232  1.00 20.00     0.065 C 
HETATM    2  C2  UNL     1     -32.917  17.813  -3.489  1.00 20.00     0.032 C 
HETATM    3  C3  UNL     1     -33.482  17.454  -2.127  1.00 20.00     0.037 C 
HETATM    4  C4  UNL     1     -35.109  15.499  -2.473  1.00 20.00     0.056 C 
HETATM    5  C5  UNL     1     -34.131  18.351  -4.226  1.00 20.00     0.273 C 
HETATM    6  C6  UNL     1     -35.479  16.356  -4.638  1.00 20.00     0.292 C 
HETATM    7  C7  UNL     1     -36.012  15.301  -3.681  1.00 20.00     0.123 C 
HETATM    8  C8  UNL     1     -34.912  17.015  -2.422  1.00 20.00     0.224 C 
HETATM    9  N9  UNL     1     -35.865  12.873  -4.667  1.00 20.00    -0.197 NA
HETATM   10  N10 UNL     1     -35.256  17.525  -3.772  1.00 20.00     0.094 N 
ENDROOT
TORSDOF 0
ENDMDL
MODEL 6
REMARK VINA RESULT:      -4.0     15.542     16.844
REMARK  0 active torsions:
REMARK  status: ('A' for Active; 'I' for Inactive)
ROOT
HETATM    1  C1  UNL     1     -34.582  14.596  -3.748  1.00 20.00     0.065 C 
HETATM    2  C2  UNL     1     -32.231  18.151  -1.214  1.00 20.00     0.032 C 
HETATM    3  C3  UNL     1     -33.598  18.009  -0.569  1.00 20.00     0.037 C 
HETATM    4  C4  UNL     1     -34.882  16.228  -1.897  1.00 20.00     0.056 C 
HETATM    5  C5  UNL     1     -32.560  18.740  -2.574  1.00 20.00     0.273 C 
HETATM    6  C6  UNL     1     -33.602  16.880  -3.766  1.00 20.00     0.292 C 
HETATM    7  C7  UNL     1     -34.790  16.004  -3.399  1.00 20.00     0.123 C 
HETATM    8  C8  UNL     1     -34.530  17.708  -1.737  1.00 20.00     0.224 C 
HETATM    9  N9  UNL     1     -34.418  13.481  -4.024  1.00 20.00    -0.197 NA
HETATM   10  N10 UNL     1     -33.819  18.103  -2.978  1.00 20.00     0.094 N 
ENDROOT
TORSDOF 0
ENDMDL
MODEL 7
REMARK VINA RESULT:      -3.9     16.839     18.262
REMARK  0 active torsions:
REMARK  status: ('A' for Active; 'I' for Inactive)
ROOT
HETATM    1  C1  UNL     1     -33.875  17.630  -1.999  1.00 20.00     0.065 C 
HETATM    2  C2  UNL     1     -35.678  15.050  -5.830  1.00 20.00     0.032 C 
HETATM    3  C3  UNL     1     -35.960  14.217  -4.593  1.00 20.00     0.037 C 
HETATM    4  C4  UNL     1     -34.976  15.481  -2.588  1.00 20.00     0.056 C 
HETATM    5  C5  UNL     1     -34.165  14.984  -5.943  1.00 20.00     0.273 C 
HETATM    6  C6  UNL     1     -33.393  16.373  -4.088  1.00 20.00     0.292 C 
HETATM    7  C7  UNL     1     -33.698  16.306  -2.600  1.00 20.00     0.123 C 
HETATM    8  C8  UNL     1     -34.748  14.456  -3.700  1.00 20.00     0.224 C 
HETATM    9  N9  UNL     1     -34.015  18.678  -1.522  1.00 20.00    -0.197 NA
HETATM   10  N10 UNL     1     -33.673  15.009  -4.560  1.00 20.00     0.094 N 
ENDROOT
TORSDOF 0
ENDMDL
MODEL 8
REMARK VINA RESULT:      -3.9     17.206     18.593
REMARK  0 active torsions:
REMARK  status: ('A' for Active; 'I' for Inactive)
ROOT
HETATM    1  C1  UNL     1     -33.053  17.149  -2.692  1.00 20.00     0.065 C 
HETATM    2  C2  UNL     1     -36.800  15.453  -5.460  1.00 20.00     0.032 C 
HETATM    3  C3  UNL     1     -36.895  14.723  -4.132  1.00 20.00     0.037 C 
HETATM    4  C4  UNL     1     -34.926  15.516  -2.689  1.00 20.00     0.056 C 
HETATM    5  C5  UNL     1     -35.528  14.885  -6.066  1.00 20.00     0.273 C 
HETATM    6  C6  UNL     1     -33.757  15.873  -4.704  1.00 20.00     0.292 C 
HETATM    7  C7  UNL     1     -33.536  15.863  -3.200  1.00 20.00     0.123 C 
HETATM    8  C8  UNL     1     -35.443  14.511  -3.721  1.00 20.00     0.224 C 
HETATM    9  N9  UNL     1     -32.670  18.167  -2.288  1.00 20.00    -0.197 NA
HETATM   10  N10 UNL     1     -34.612  14.698  -4.935  1.00 20.00     0.094 N 
ENDROOT
TORSDOF 0
ENDMDL
MODEL 9
REMARK VINA RESULT:      -3.9     23.913     24.865
REMARK  0 active torsions:
REMARK  status: ('A' for Active; 'I' for Inactive)
ROOT
HETATM    1  C1  UNL     1     -42.700   4.232  -1.972  1.00 20.00     0.065 C 
HETATM    2  C2  UNL     1     -42.591   8.913  -0.344  1.00 20.00     0.032 C 
HETATM    3  C3  UNL     1     -41.168   8.398  -0.236  1.00 20.00     0.037 C 
HETATM    4  C4  UNL     1     -41.188   5.948  -1.000  1.00 20.00     0.056 C 
HETATM    5  C5  UNL     1     -43.322   8.107   0.716  1.00 20.00     0.273 C 
HETATM    6  C6  UNL     1     -43.417   5.861  -0.239  1.00 20.00     0.292 C 
HETATM    7  C7  UNL     1     -42.313   4.953  -0.758  1.00 20.00     0.123 C 
HETATM    8  C8  UNL     1     -41.331   6.935   0.160  1.00 20.00     0.224 C 
HETATM    9  N9  UNL     1     -43.005   3.659  -2.935  1.00 20.00    -0.197 NA
HETATM   10  N10 UNL     1     -42.713   6.773   0.675  1.00 20.00     0.094 N 
ENDROOT
TORSDOF 0
ENDMDL
