MODEL 1
REMARK VINA RESULT:      -5.1      0.000      0.000
REMARK  0 active torsions:
REMARK  status: ('A' for Active; 'I' for Inactive)
ROOT
HETATM    1  C1  UNL     1     -32.655   7.657   1.754  1.00 20.00     0.065 C 
HETATM    2  C2  UNL     1     -34.310   5.135   5.864  1.00 20.00     0.032 C 
HETATM    3  C3  UNL     1     -34.955   4.795   4.534  1.00 20.00     0.037 C 
HETATM    4  C4  UNL     1     -33.280   5.450   2.702  1.00 20.00     0.056 C 
HETATM    5  C5  UNL     1     -34.245   6.652   5.828  1.00 20.00     0.273 C 
HETATM    6  C6  UNL     1     -32.505   7.127   4.176  1.00 20.00     0.292 C 
HETATM    7  C7  UNL     1     -32.317   6.627   2.750  1.00 20.00     0.123 C 
HETATM    8  C8  UNL     1     -34.450   5.880   3.589  1.00 20.00     0.224 C 
HETATM    9  N9  UNL     1     -32.922   8.469   0.968  1.00 20.00    -0.197 NA
HETATM   10  N10 UNL     1     -33.949   6.993   4.432  1.00 20.00     0.094 N 
ENDROOT
TORSDOF 0
ENDMDL
MODEL 2
REMARK VINA RESULT:      -4.7     15.903     16.464
REMARK  0 active torsions:
REMARK  status: ('A' for Active; 'I' for Inactive)
ROOT
HETATM    1  C1  UNL     1     -21.947  17.517   8.121  1.00 20.00     0.065 C 
HETATM    2  C2  UNL     1     -25.580  18.932  11.406  1.00 20.00     0.032 C 
HETATM    3  C3  UNL     1     -25.062  17.510  11.513  1.00 20.00     0.037 C 
HETATM    4  C4  UNL     1     -22.711  17.492  10.483  1.00 20.00     0.056 C 
HETATM    5  C5  UNL     1     -25.738  19.120   9.908  1.00 20.00     0.273 C 
HETATM    6  C6  UNL     1     -23.439  19.253   9.086  1.00 20.00     0.292 C 
HETATM    7  C7  UNL     1     -22.242  18.337   9.308  1.00 20.00     0.123 C 
HETATM    8  C8  UNL     1     -24.216  17.328  10.258  1.00 20.00     0.224 C 
HETATM    9  N9  UNL     1     -21.713  16.870   7.186  1.00 20.00    -0.197 NA
HETATM   10  N10 UNL     1     -24.614  18.394   9.306  1.00 20.00     0.094 N 
ENDROOT
TORSDOF 0
ENDMDL
MODEL 3
REMARK VINA RESULT:      -4.5     11.353     11.998
REMARK  0 active torsions:
REMARK  status: ('A' for Active; 'I' for Inactive)
ROOT
HETATM    1  C1  UNL     1     -35.790  13.970  -4.538  1.00 20.00     0.065 C 
HETATM    2  C2  UNL     1     -34.021  17.893  -1.805  1.00 20.00     0.032 C 
HETATM    3  C3  UNL     1     -32.997  16.977  -2.448  1.00 20.00     0.037 C 
HETATM    4  C4  UNL     1     -34.158  15.838  -4.434  1.00 20.00     0.056 C 
HETATM    5  C5  UNL     1     -35.037  16.917  -1.239  1.00 20.00     0.273 C 
HETATM    6  C6  UNL     1     -36.174  16.039  -3.218  1.00 20.00     0.292 C 
HETATM    7  C7  UNL     1     -35.623  15.432  -4.502  1.00 20.00     0.123 C 
HETATM    8  C8  UNL     1     -33.819  15.792  -2.943  1.00 20.00     0.224 C 
HETATM    9  N9  UNL     1     -35.922  12.817  -4.567  1.00 20.00    -0.197 NA
HETATM   10  N10 UNL     1     -35.113  15.828  -2.219  1.00 20.00     0.094 N 
ENDROOT
TORSDOF 0
ENDMDL
MODEL 4
REMARK VINA RESULT:      -4.4     11.481     12.256
REMARK  0 active torsions:
REMARK  status: ('A' for Active; 'I' for Inactive)
ROOT
HETATM    1  C1  UNL     1     -37.687  14.764  -4.539  1.00 20.00     0.065 C 
HETATM    2  C2  UNL     1     -33.020  16.374  -3.267  1.00 20.00     0.032 C 
HETATM    3  C3  UNL     1     -33.124  15.036  -3.975  1.00 20.00     0.037 C 
HETATM    4  C4  UNL     1     -35.335  15.053  -5.279  1.00 20.00     0.056 C 
HETATM    5  C5  UNL     1     -34.147  16.306  -2.252  1.00 20.00     0.273 C 
HETATM    6  C6  UNL     1     -36.172  16.500  -3.609  1.00 20.00     0.292 C 
HETATM    7  C7  UNL     1     -36.624  15.736  -4.847  1.00 20.00     0.123 C 
HETATM    8  C8  UNL     1     -34.617  14.729  -3.968  1.00 20.00     0.224 C 
HETATM    9  N9  UNL     1     -38.525  13.998  -4.296  1.00 20.00    -0.197 NA
HETATM   10  N10 UNL     1     -35.234  15.591  -2.930  1.00 20.00     0.094 N 
ENDROOT
TORSDOF 0
ENDMDL
MODEL 5
REMARK VINA RESULT:      -4.4     11.329     12.632
REMARK  0 active torsions:
REMARK  status: ('A' for Active; 'I' for Inactive)
ROOT
HETATM    1  C1  UNL     1     -36.611  14.201  -4.578  1.00 20.00     0.065 C 
HETATM    2  C2  UNL     1     -33.140  17.766  -3.467  1.00 20.00     0.032 C 
HETATM    3  C3  UNL     1     -33.415  16.712  -2.411  1.00 20.00     0.037 C 
HETATM    4  C4  UNL     1     -34.362  14.662  -3.633  1.00 20.00     0.056 C 
HETATM    5  C5  UNL     1     -34.532  18.129  -3.951  1.00 20.00     0.273 C 
HETATM    6  C6  UNL     1     -35.239  16.167  -5.230  1.00 20.00     0.292 C 
HETATM    7  C7  UNL     1     -35.252  14.688  -4.867  1.00 20.00     0.123 C 
HETATM    8  C8  UNL     1     -34.654  15.987  -2.926  1.00 20.00     0.224 C 
HETATM    9  N9  UNL     1     -37.682  13.817  -4.350  1.00 20.00    -0.197 NA
HETATM   10  N10 UNL     1     -35.286  16.870  -3.936  1.00 20.00     0.094 N 
ENDROOT
TORSDOF 0
ENDMDL
MODEL 6
REMARK VINA RESULT:      -4.3      8.957      9.852
REMARK  0 active torsions:
REMARK  status: ('A' for Active; 'I' for Inactive)
ROOT
HETATM    1  C1  UNL     1     -41.544   9.097   0.560  1.00 20.00     0.065 C 
HETATM    2  C2  UNL     1     -42.685   4.569  -1.488  1.00 20.00     0.032 C 
HETATM    3  C3  UNL     1     -41.230   4.998  -1.517  1.00 20.00     0.037 C 
HETATM    4  C4  UNL     1     -40.916   6.703   0.377  1.00 20.00     0.056 C 
HETATM    5  C5  UNL     1     -43.417   5.837  -1.890  1.00 20.00     0.273 C 
HETATM    6  C6  UNL     1     -43.181   7.296   0.058  1.00 20.00     0.292 C 
HETATM    7  C7  UNL     1     -41.950   7.712   0.853  1.00 20.00     0.123 C 
HETATM    8  C8  UNL     1     -41.267   6.462  -1.093  1.00 20.00     0.224 C 
HETATM    9  N9  UNL     1     -41.225  10.189   0.329  1.00 20.00    -0.197 NA
HETATM   10  N10 UNL     1     -42.662   6.932  -1.272  1.00 20.00     0.094 N 
ENDROOT
TORSDOF 0
ENDMDL
MODEL 7
REMARK VINA RESULT:      -4.0     11.189     12.623
REMARK  0 active torsions:
REMARK  status: ('A' for Active; 'I' for Inactive)
ROOT
HETATM    1  C1  UNL     1     -35.973  13.924  -4.215  1.00 20.00     0.065 C 
HETATM    2  C2  UNL     1     -33.515  18.270  -3.185  1.00 20.00     0.032 C 
HETATM    3  C3  UNL     1     -33.821  17.974  -4.641  1.00 20.00     0.037 C 
HETATM    4  C4  UNL     1     -35.817  16.360  -4.670  1.00 20.00     0.056 C 
HETATM    5  C5  UNL     1     -33.024  16.931  -2.665  1.00 20.00     0.273 C 
HETATM    6  C6  UNL     1     -35.044  15.555  -2.587  1.00 20.00     0.292 C 
HETATM    7  C7  UNL     1     -36.106  15.275  -3.643  1.00 20.00     0.123 C 
HETATM    8  C8  UNL     1     -34.297  16.525  -4.632  1.00 20.00     0.224 C 
HETATM    9  N9  UNL     1     -35.869  12.860  -4.666  1.00 20.00    -0.197 NA
HETATM   10  N10 UNL     1     -33.843  15.926  -3.353  1.00 20.00     0.094 N 
ENDROOT
TORSDOF 0
ENDMDL
MODEL 8
REMARK VINA RESULT:      -4.0     11.437     12.267
REMARK  0 active torsions:
REMARK  status: ('A' for Active; 'I' for Inactive)
ROOT
HETATM    1  C1  UNL     1     -35.327  14.235  -5.309  1.00 20.00     0.065 C 
HETATM    2  C2  UNL     1     -33.323  17.420  -1.869  1.00 20.00     0.032 C 
HETATM    3  C3  UNL     1     -34.835  17.298  -1.905  1.00 20.00     0.037 C 
HETATM    4  C4  UNL     1     -35.375  15.019  -2.954  1.00 20.00     0.056 C 
HETATM    5  C5  UNL     1     -32.956  17.498  -3.340  1.00 20.00     0.273 C 
HETATM    6  C6  UNL     1     -33.358  15.231  -4.167  1.00 20.00     0.292 C 
HETATM    7  C7  UNL     1     -34.575  14.323  -4.046  1.00 20.00     0.123 C 
HETATM    8  C8  UNL     1     -35.112  16.509  -3.179  1.00 20.00     0.224 C 
HETATM    9  N9  UNL     1     -35.919  14.165  -6.304  1.00 20.00    -0.197 NA
HETATM   10  N10 UNL     1     -33.893  16.596  -4.020  1.00 20.00     0.094 N 
ENDROOT
TORSDOF 0
ENDMDL
MODEL 9
REMARK VINA RESULT:      -4.0     11.773     12.805
REMARK  0 active torsions:
REMARK  status: ('A' for Active; 'I' for Inactive)
ROOT
HETATM    1  C1  UNL     1     -31.652  18.431  -1.000  1.00 20.00     0.065 C 
HETATM    2  C2  UNL     1     -35.280  16.417  -3.962  1.00 20.00     0.032 C 
HETATM    3  C3  UNL     1     -35.195  15.918  -2.532  1.00 20.00     0.037 C 
HETATM    4  C4  UNL     1     -34.036  17.758  -1.168  1.00 20.00     0.056 C 
HETATM    5  C5  UNL     1     -33.824  16.454  -4.393  1.00 20.00     0.273 C 
HETATM    6  C6  UNL     1     -32.892  18.343  -3.151  1.00 20.00     0.292 C 
HETATM    7  C7  UNL     1     -32.939  18.687  -1.668  1.00 20.00     0.123 C 
HETATM    8  C8  UNL     1     -33.881  16.494  -2.016  1.00 20.00     0.224 C 
HETATM    9  N9  UNL     1     -30.638  18.230  -0.473  1.00 20.00    -0.197 NA
HETATM   10  N10 UNL     1     -33.080  16.883  -3.203  1.00 20.00     0.094 N 
ENDROOT
TORSDOF 0
ENDMDL
