MODEL 1
REMARK VINA RESULT:      -5.6      0.000      0.000
REMARK  0 active torsions:
REMARK  status: ('A' for Active; 'I' for Inactive)
ROOT
HETATM    1  C1  UNL     1     -33.420   6.058   2.601  1.00 20.00     0.053 A 
HETATM    2  C2  UNL     1     -32.035   7.775   3.538  1.00 20.00     0.159 A 
HETATM    3  C3  UNL     1     -33.963   5.902   3.861  1.00 20.00    -0.030 A 
HETATM    4  C4  UNL     1     -32.424   7.016   2.434  1.00 20.00     0.134 A 
HETATM    5  C5  UNL     1     -33.510   6.711   4.898  1.00 20.00     0.040 A 
HETATM    6  C6  UNL     1     -35.053   4.990   4.317  1.00 20.00     0.041 C 
HETATM    7  C7  UNL     1     -34.264   6.422   6.164  1.00 20.00     0.060 C 
HETATM    8  C8  UNL     1     -34.859   5.044   5.842  1.00 20.00     0.011 C 
HETATM    9  N9  UNL     1     -32.559   7.652   4.780  1.00 20.00    -0.262 NA
HETATM   10  F10 UNL     1     -31.855   7.208   1.239  1.00 20.00    -0.205 F 
ENDROOT
TORSDOF 0
ENDMDL
MODEL 2
REMARK VINA RESULT:      -5.5      1.325      2.033
REMARK  0 active torsions:
REMARK  status: ('A' for Active; 'I' for Inactive)
ROOT
HETATM    1  C1  UNL     1     -32.789   7.346   3.595  1.00 20.00     0.053 A 
HETATM    2  C2  UNL     1     -33.153   5.598   1.996  1.00 20.00     0.159 A 
HETATM    3  C3  UNL     1     -33.510   6.584   4.492  1.00 20.00    -0.030 A 
HETATM    4  C4  UNL     1     -32.609   6.844   2.309  1.00 20.00     0.134 A 
HETATM    5  C5  UNL     1     -34.010   5.352   4.084  1.00 20.00     0.040 A 
HETATM    6  C6  UNL     1     -33.826   6.853   5.925  1.00 20.00     0.041 C 
HETATM    7  C7  UNL     1     -34.712   4.662   5.219  1.00 20.00     0.060 C 
HETATM    8  C8  UNL     1     -34.959   5.842   6.170  1.00 20.00     0.011 C 
HETATM    9  N9  UNL     1     -33.853   4.825   2.859  1.00 20.00    -0.262 NA
HETATM   10  F10 UNL     1     -31.924   7.540   1.394  1.00 20.00    -0.205 F 
ENDROOT
TORSDOF 0
ENDMDL
MODEL 3
REMARK VINA RESULT:      -5.3      2.314      3.670
REMARK  0 active torsions:
REMARK  status: ('A' for Active; 'I' for Inactive)
ROOT
HETATM    1  C1  UNL     1     -34.597   4.854   4.470  1.00 20.00     0.053 A 
HETATM    2  C2  UNL     1     -34.161   6.564   6.092  1.00 20.00     0.159 A 
HETATM    3  C3  UNL     1     -33.765   5.547   3.614  1.00 20.00    -0.030 A 
HETATM    4  C4  UNL     1     -34.806   5.378   5.743  1.00 20.00     0.134 A 
HETATM    5  C5  UNL     1     -33.164   6.720   4.057  1.00 20.00     0.040 A 
HETATM    6  C6  UNL     1     -33.338   5.208   2.225  1.00 20.00     0.041 C 
HETATM    7  C7  UNL     1     -32.260   7.286   3.000  1.00 20.00     0.060 C 
HETATM    8  C8  UNL     1     -32.782   6.561   1.751  1.00 20.00     0.011 C 
HETATM    9  N9  UNL     1     -33.330   7.257   5.277  1.00 20.00    -0.262 NA
HETATM   10  F10 UNL     1     -35.607   4.754   6.614  1.00 20.00    -0.205 F 
ENDROOT
TORSDOF 0
ENDMDL
MODEL 4
REMARK VINA RESULT:      -4.8      2.546      4.010
REMARK  0 active torsions:
REMARK  status: ('A' for Active; 'I' for Inactive)
ROOT
HETATM    1  C1  UNL     1     -33.713   7.057   5.085  1.00 20.00     0.053 A 
HETATM    2  C2  UNL     1     -34.922   5.083   5.708  1.00 20.00     0.159 A 
HETATM    3  C3  UNL     1     -33.482   6.450   3.867  1.00 20.00    -0.030 A 
HETATM    4  C4  UNL     1     -34.448   6.353   6.036  1.00 20.00     0.134 A 
HETATM    5  C5  UNL     1     -34.000   5.180   3.635  1.00 20.00     0.040 A 
HETATM    6  C6  UNL     1     -32.767   6.974   2.667  1.00 20.00     0.041 C 
HETATM    7  C7  UNL     1     -33.686   4.726   2.238  1.00 20.00     0.060 C 
HETATM    8  C8  UNL     1     -32.537   5.677   1.874  1.00 20.00     0.011 C 
HETATM    9  N9  UNL     1     -34.721   4.470   4.518  1.00 20.00    -0.262 NA
HETATM   10  F10 UNL     1     -34.698   6.887   7.237  1.00 20.00    -0.205 F 
ENDROOT
TORSDOF 0
ENDMDL
MODEL 5
REMARK VINA RESULT:      -4.6     11.382     11.933
REMARK  0 active torsions:
REMARK  status: ('A' for Active; 'I' for Inactive)
ROOT
HETATM    1  C1  UNL     1     -35.517  15.092  -2.928  1.00 20.00     0.053 A 
HETATM    2  C2  UNL     1     -33.640  14.534  -4.310  1.00 20.00     0.159 A 
HETATM    3  C3  UNL     1     -34.745  16.110  -2.406  1.00 20.00    -0.030 A 
HETATM    4  C4  UNL     1     -34.949  14.276  -3.903  1.00 20.00     0.134 A 
HETATM    5  C5  UNL     1     -33.450  16.288  -2.881  1.00 20.00     0.040 A 
HETATM    6  C6  UNL     1     -35.100  17.144  -1.390  1.00 20.00     0.041 C 
HETATM    7  C7  UNL     1     -32.804  17.476  -2.228  1.00 20.00     0.060 C 
HETATM    8  C8  UNL     1     -33.705  17.659  -0.998  1.00 20.00     0.011 C 
HETATM    9  N9  UNL     1     -32.865  15.533  -3.825  1.00 20.00    -0.262 NA
HETATM   10  F10 UNL     1     -35.646  13.269  -4.441  1.00 20.00    -0.205 F 
ENDROOT
TORSDOF 0
ENDMDL
MODEL 6
REMARK VINA RESULT:      -4.5     16.026     16.236
REMARK  0 active torsions:
REMARK  status: ('A' for Active; 'I' for Inactive)
ROOT
HETATM    1  C1  UNL     1     -24.156  18.543   8.653  1.00 20.00     0.053 A 
HETATM    2  C2  UNL     1     -22.329  17.342   9.636  1.00 20.00     0.159 A 
HETATM    3  C3  UNL     1     -24.707  18.605   9.917  1.00 20.00    -0.030 A 
HETATM    4  C4  UNL     1     -22.935  17.889   8.505  1.00 20.00     0.134 A 
HETATM    5  C5  UNL     1     -24.023  18.032  10.983  1.00 20.00     0.040 A 
HETATM    6  C6  UNL     1     -25.968  19.263  10.369  1.00 20.00     0.041 C 
HETATM    7  C7  UNL     1     -24.762  18.256  12.271  1.00 20.00     0.060 C 
HETATM    8  C8  UNL     1     -26.162  18.607  11.747  1.00 20.00     0.011 C 
HETATM    9  N9  UNL     1     -22.841  17.400  10.889  1.00 20.00    -0.262 NA
HETATM   10  F10 UNL     1     -22.354  17.791   7.305  1.00 20.00    -0.205 F 
ENDROOT
TORSDOF 0
ENDMDL
MODEL 7
REMARK VINA RESULT:      -4.5     16.152     16.513
REMARK  0 active torsions:
REMARK  status: ('A' for Active; 'I' for Inactive)
ROOT
HETATM    1  C1  UNL     1     -25.333  18.881  10.257  1.00 20.00     0.053 A 
HETATM    2  C2  UNL     1     -24.540  17.716  12.196  1.00 20.00     0.159 A 
HETATM    3  C3  UNL     1     -24.280  18.313   9.568  1.00 20.00    -0.030 A 
HETATM    4  C4  UNL     1     -25.465  18.580  11.610  1.00 20.00     0.134 A 
HETATM    5  C5  UNL     1     -23.412  17.461  10.241  1.00 20.00     0.040 A 
HETATM    6  C6  UNL     1     -23.919  18.429   8.125  1.00 20.00     0.041 C 
HETATM    7  C7  UNL     1     -22.375  16.910   9.304  1.00 20.00     0.060 C 
HETATM    8  C8  UNL     1     -22.472  17.909   8.143  1.00 20.00     0.011 C 
HETATM    9  N9  UNL     1     -23.506  17.135  11.541  1.00 20.00    -0.262 NA
HETATM   10  F10 UNL     1     -26.462  19.104  12.332  1.00 20.00    -0.205 F 
ENDROOT
TORSDOF 0
ENDMDL
MODEL 8
REMARK VINA RESULT:      -4.4     11.664     12.245
REMARK  0 active torsions:
REMARK  status: ('A' for Active; 'I' for Inactive)
ROOT
HETATM    1  C1  UNL     1     -32.770  17.433  -1.975  1.00 20.00     0.053 A 
HETATM    2  C2  UNL     1     -34.620  17.673  -0.470  1.00 20.00     0.159 A 
HETATM    3  C3  UNL     1     -33.518  16.481  -2.637  1.00 20.00    -0.030 A 
HETATM    4  C4  UNL     1     -33.332  18.044  -0.857  1.00 20.00     0.134 A 
HETATM    5  C5  UNL     1     -34.795  16.183  -2.175  1.00 20.00     0.040 A 
HETATM    6  C6  UNL     1     -33.188  15.702  -3.866  1.00 20.00     0.041 C 
HETATM    7  C7  UNL     1     -35.457  15.168  -3.062  1.00 20.00     0.060 C 
HETATM    8  C8  UNL     1     -34.241  14.584  -3.795  1.00 20.00     0.011 C 
HETATM    9  N9  UNL     1     -35.380  16.752  -1.108  1.00 20.00    -0.262 NA
HETATM   10  F10 UNL     1     -32.653  18.970  -0.171  1.00 20.00    -0.205 F 
ENDROOT
TORSDOF 0
ENDMDL
MODEL 9
REMARK VINA RESULT:      -4.4     11.573     12.043
REMARK  0 active torsions:
REMARK  status: ('A' for Active; 'I' for Inactive)
ROOT
HETATM    1  C1  UNL     1     -32.946  16.035  -3.557  1.00 20.00     0.053 A 
HETATM    2  C2  UNL     1     -34.931  14.716  -3.812  1.00 20.00     0.159 A 
HETATM    3  C3  UNL     1     -33.555  16.618  -2.463  1.00 20.00    -0.030 A 
HETATM    4  C4  UNL     1     -33.655  15.061  -4.256  1.00 20.00     0.134 A 
HETATM    5  C5  UNL     1     -34.830  16.202  -2.098  1.00 20.00     0.040 A 
HETATM    6  C6  UNL     1     -33.026  17.647  -1.521  1.00 20.00     0.041 C 
HETATM    7  C7  UNL     1     -35.286  16.916  -0.857  1.00 20.00     0.060 C 
HETATM    8  C8  UNL     1     -34.323  18.112  -0.838  1.00 20.00     0.011 C 
HETATM    9  N9  UNL     1     -35.546  15.262  -2.736  1.00 20.00    -0.262 NA
HETATM   10  F10 UNL     1     -33.120  14.466  -5.328  1.00 20.00    -0.205 F 
ENDROOT
TORSDOF 0
ENDMDL
