MODEL 1
REMARK VINA RESULT:      -5.6      0.000      0.000
REMARK  0 active torsions:
REMARK  status: ('A' for Active; 'I' for Inactive)
ROOT
HETATM    1  C1  UNL     1     -33.780   4.802   2.763  1.00 20.00     0.015 A 
HETATM    2  C2  UNL     1     -33.122   5.585   1.900  1.00 20.00     0.083 A 
HETATM    3  C3  UNL     1     -34.028   5.287   4.076  1.00 20.00    -0.028 A 
HETATM    4  C4  UNL     1     -33.603   6.499   4.422  1.00 20.00     0.063 A 
HETATM    5  C5  UNL     1     -32.654   6.940   2.295  1.00 20.00     0.287 A 
HETATM    6  C6  UNL     1     -34.724   4.601   5.194  1.00 20.00     0.041 C 
HETATM    7  C7  UNL     1     -33.930   6.860   5.823  1.00 20.00     0.066 C 
HETATM    8  C8  UNL     1     -34.921   5.749   6.201  1.00 20.00     0.011 C 
HETATM    9  O9  UNL     1     -32.053   7.646   1.491  1.00 20.00    -0.260 OA
HETATM   10  O10 UNL     1     -32.913   7.366   3.579  1.00 20.00    -0.279 OA
ENDROOT
TORSDOF 0
ENDMDL
MODEL 2
REMARK VINA RESULT:      -5.2     11.273     11.878
REMARK  0 active torsions:
REMARK  status: ('A' for Active; 'I' for Inactive)
ROOT
HETATM    1  C1  UNL     1     -33.047  15.116  -4.039  1.00 20.00     0.015 A 
HETATM    2  C2  UNL     1     -33.766  14.095  -4.521  1.00 20.00     0.083 A 
HETATM    3  C3  UNL     1     -33.632  15.963  -3.058  1.00 20.00    -0.028 A 
HETATM    4  C4  UNL     1     -34.874  15.729  -2.642  1.00 20.00     0.063 A 
HETATM    5  C5  UNL     1     -35.152  13.840  -4.047  1.00 20.00     0.287 A 
HETATM    6  C6  UNL     1     -33.035  17.148  -2.392  1.00 20.00     0.041 C 
HETATM    7  C7  UNL     1     -35.346  16.699  -1.625  1.00 20.00     0.066 C 
HETATM    8  C8  UNL     1     -34.038  17.414  -1.254  1.00 20.00     0.011 C 
HETATM    9  O9  UNL     1     -35.796  12.898  -4.498  1.00 20.00    -0.260 OA
HETATM   10  O10 UNL     1     -35.679  14.688  -3.099  1.00 20.00    -0.279 OA
ENDROOT
TORSDOF 0
ENDMDL
MODEL 3
REMARK VINA RESULT:      -5.0      1.075      2.044
REMARK  0 active torsions:
REMARK  status: ('A' for Active; 'I' for Inactive)
ROOT
HETATM    1  C1  UNL     1     -32.573   7.702   4.766  1.00 20.00     0.015 A 
HETATM    2  C2  UNL     1     -32.067   7.886   3.540  1.00 20.00     0.083 A 
HETATM    3  C3  UNL     1     -33.567   6.703   4.954  1.00 20.00    -0.028 A 
HETATM    4  C4  UNL     1     -33.975   5.975   3.918  1.00 20.00     0.063 A 
HETATM    5  C5  UNL     1     -32.528   7.065   2.389  1.00 20.00     0.287 A 
HETATM    6  C6  UNL     1     -34.269   6.329   6.208  1.00 20.00     0.041 C 
HETATM    7  C7  UNL     1     -35.017   4.981   4.270  1.00 20.00     0.066 C 
HETATM    8  C8  UNL     1     -34.965   5.016   5.806  1.00 20.00     0.011 C 
HETATM    9  O9  UNL     1     -32.052   7.245   1.272  1.00 20.00    -0.260 OA
HETATM   10  O10 UNL     1     -33.494   6.111   2.618  1.00 20.00    -0.279 OA
ENDROOT
TORSDOF 0
ENDMDL
MODEL 4
REMARK VINA RESULT:      -4.9     11.656     12.269
REMARK  0 active torsions:
REMARK  status: ('A' for Active; 'I' for Inactive)
ROOT
HETATM    1  C1  UNL     1     -34.683  14.074  -4.036  1.00 20.00     0.015 A 
HETATM    2  C2  UNL     1     -35.886  13.606  -4.392  1.00 20.00     0.083 A 
HETATM    3  C3  UNL     1     -34.601  15.349  -3.412  1.00 20.00    -0.028 A 
HETATM    4  C4  UNL     1     -35.712  16.050  -3.196  1.00 20.00     0.063 A 
HETATM    5  C5  UNL     1     -37.121  14.396  -4.143  1.00 20.00     0.287 A 
HETATM    6  C6  UNL     1     -33.390  16.068  -2.943  1.00 20.00     0.041 C 
HETATM    7  C7  UNL     1     -35.465  17.359  -2.545  1.00 20.00     0.066 C 
HETATM    8  C8  UNL     1     -33.998  17.212  -2.111  1.00 20.00     0.011 C 
HETATM    9  O9  UNL     1     -38.216  13.951  -4.474  1.00 20.00    -0.260 OA
HETATM   10  O10 UNL     1     -36.994  15.627  -3.539  1.00 20.00    -0.279 OA
ENDROOT
TORSDOF 0
ENDMDL
MODEL 5
REMARK VINA RESULT:      -4.9     16.384     16.598
REMARK  0 active torsions:
REMARK  status: ('A' for Active; 'I' for Inactive)
ROOT
HETATM    1  C1  UNL     1     -22.283  17.393   9.552  1.00 20.00     0.015 A 
HETATM    2  C2  UNL     1     -22.463  17.797   8.289  1.00 20.00     0.083 A 
HETATM    3  C3  UNL     1     -23.300  17.661  10.509  1.00 20.00    -0.028 A 
HETATM    4  C4  UNL     1     -24.403  18.304  10.136  1.00 20.00     0.063 A 
HETATM    5  C5  UNL     1     -23.701  18.513   7.882  1.00 20.00     0.287 A 
HETATM    6  C6  UNL     1     -23.317  17.318  11.954  1.00 20.00     0.041 C 
HETATM    7  C7  UNL     1     -25.365  18.514  11.244  1.00 20.00     0.066 C 
HETATM    8  C8  UNL     1     -24.783  17.599  12.332  1.00 20.00     0.011 C 
HETATM    9  O9  UNL     1     -23.851  18.874   6.718  1.00 20.00    -0.260 OA
HETATM   10  O10 UNL     1     -24.658  18.753   8.842  1.00 20.00    -0.279 OA
ENDROOT
TORSDOF 0
ENDMDL
MODEL 6
REMARK VINA RESULT:      -4.7     11.715     12.113
REMARK  0 active torsions:
REMARK  status: ('A' for Active; 'I' for Inactive)
ROOT
HETATM    1  C1  UNL     1     -35.589  15.113  -3.000  1.00 20.00     0.015 A 
HETATM    2  C2  UNL     1     -35.108  14.545  -4.113  1.00 20.00     0.083 A 
HETATM    3  C3  UNL     1     -34.783  16.060  -2.310  1.00 20.00    -0.028 A 
HETATM    4  C4  UNL     1     -33.574  16.361  -2.778  1.00 20.00     0.063 A 
HETATM    5  C5  UNL     1     -33.757  14.891  -4.628  1.00 20.00     0.287 A 
HETATM    6  C6  UNL     1     -35.100  16.804  -1.066  1.00 20.00     0.041 C 
HETATM    7  C7  UNL     1     -32.854  17.357  -1.949  1.00 20.00     0.066 C 
HETATM    8  C8  UNL     1     -33.978  17.857  -1.028  1.00 20.00     0.011 C 
HETATM    9  O9  UNL     1     -33.332  14.362  -5.651  1.00 20.00    -0.260 OA
HETATM   10  O10 UNL     1     -33.011  15.811  -3.926  1.00 20.00    -0.279 OA
ENDROOT
TORSDOF 0
ENDMDL
MODEL 7
REMARK VINA RESULT:      -4.6     11.700     12.397
REMARK  0 active torsions:
REMARK  status: ('A' for Active; 'I' for Inactive)
ROOT
HETATM    1  C1  UNL     1     -35.283  16.799  -1.241  1.00 20.00     0.015 A 
HETATM    2  C2  UNL     1     -34.484  17.688  -0.638  1.00 20.00     0.083 A 
HETATM    3  C3  UNL     1     -34.775  16.059  -2.344  1.00 20.00    -0.028 A 
HETATM    4  C4  UNL     1     -33.527  16.262  -2.756  1.00 20.00     0.063 A 
HETATM    5  C5  UNL     1     -33.089  17.905  -1.105  1.00 20.00     0.287 A 
HETATM    6  C6  UNL     1     -35.472  15.035  -3.164  1.00 20.00     0.041 C 
HETATM    7  C7  UNL     1     -33.146  15.423  -3.918  1.00 20.00     0.066 C 
HETATM    8  C8  UNL     1     -34.310  14.421  -3.965  1.00 20.00     0.011 C 
HETATM    9  O9  UNL     1     -32.369  18.723  -0.540  1.00 20.00    -0.260 OA
HETATM   10  O10 UNL     1     -32.641  17.169  -2.179  1.00 20.00    -0.279 OA
ENDROOT
TORSDOF 0
ENDMDL
MODEL 8
REMARK VINA RESULT:      -4.6     12.000     12.436
REMARK  0 active torsions:
REMARK  status: ('A' for Active; 'I' for Inactive)
ROOT
HETATM    1  C1  UNL     1     -36.718  15.186  -3.507  1.00 20.00     0.015 A 
HETATM    2  C2  UNL     1     -36.899  14.623  -4.708  1.00 20.00     0.083 A 
HETATM    3  C3  UNL     1     -35.413  15.620  -3.144  1.00 20.00    -0.028 A 
HETATM    4  C4  UNL     1     -34.403  15.458  -3.996  1.00 20.00     0.063 A 
HETATM    5  C5  UNL     1     -35.764  14.451  -5.654  1.00 20.00     0.287 A 
HETATM    6  C6  UNL     1     -34.976  16.257  -1.876  1.00 20.00     0.041 C 
HETATM    7  C7  UNL     1     -33.108  15.953  -3.472  1.00 20.00     0.066 C 
HETATM    8  C8  UNL     1     -33.560  16.743  -2.234  1.00 20.00     0.011 C 
HETATM    9  O9  UNL     1     -35.949  13.935  -6.753  1.00 20.00    -0.260 OA
HETATM   10  O10 UNL     1     -34.518  14.883  -5.258  1.00 20.00    -0.279 OA
ENDROOT
TORSDOF 0
ENDMDL
MODEL 9
REMARK VINA RESULT:      -4.5      1.863      4.122
REMARK  0 active torsions:
REMARK  status: ('A' for Active; 'I' for Inactive)
ROOT
HETATM    1  C1  UNL     1     -33.388   7.236   5.339  1.00 20.00     0.015 A 
HETATM    2  C2  UNL     1     -34.199   6.447   6.054  1.00 20.00     0.083 A 
HETATM    3  C3  UNL     1     -33.081   6.869   4.000  1.00 20.00    -0.028 A 
HETATM    4  C4  UNL     1     -33.598   5.756   3.486  1.00 20.00     0.063 A 
HETATM    5  C5  UNL     1     -34.774   5.207   5.469  1.00 20.00     0.287 A 
HETATM    6  C6  UNL     1     -32.209   7.578   3.029  1.00 20.00     0.041 C 
HETATM    7  C7  UNL     1     -33.181   5.506   2.086  1.00 20.00     0.066 C 
HETATM    8  C8  UNL     1     -32.539   6.851   1.713  1.00 20.00     0.011 C 
HETATM    9  O9  UNL     1     -35.518   4.495   6.139  1.00 20.00    -0.260 OA
HETATM   10  O10 UNL     1     -34.447   4.889   4.170  1.00 20.00    -0.279 OA
ENDROOT
TORSDOF 0
ENDMDL
