MODEL 1
REMARK VINA RESULT:      -4.5      0.000      0.000
REMARK  2 active torsions:
REMARK  status: ('A' for Active; 'I' for Inactive)
REMARK    1  A    between atoms: C1_1  and  N9_9 
REMARK    2  A    between atoms: C8_8  and  N9_9 
ROOT
HETATM    1  C2  UNL     1     -33.063  14.980  -4.118  1.00 20.00     0.005 C 
HETATM    2  C3  UNL     1     -34.178  15.090  -5.168  1.00 20.00     0.007 C 
HETATM    3  C4  UNL     1     -33.833  17.232  -4.211  1.00 20.00     0.011 C 
HETATM    4  C5  UNL     1     -34.589  15.912  -2.368  1.00 20.00     0.030 C 
HETATM    5  C6  UNL     1     -33.328  16.191  -3.209  1.00 20.00    -0.012 C 
HETATM    6  C7  UNL     1     -34.967  16.333  -4.711  1.00 20.00     0.009 C 
HETATM    7  C8  UNL     1     -35.726  16.066  -3.394  1.00 20.00     0.088 C 
ENDROOT
BRANCH   7   8
HETATM    8  N9  UNL     1     -36.603  14.932  -3.442  1.00 20.00    -0.363 N 
HETATM    9  H23 UNL     1     -36.372  14.120  -2.870  1.00 20.00     0.162 HD
BRANCH   8  10
HETATM   10  C1  UNL     1     -37.746  14.878  -4.219  1.00 20.00     0.348 C 
HETATM   11  O10 UNL     1     -38.438  13.899  -4.463  1.00 20.00    -0.284 OA
ENDBRANCH   8  10
ENDBRANCH   7   8
TORSDOF 2
ENDMDL
MODEL 2
REMARK VINA RESULT:      -4.5      1.465      2.177
REMARK  2 active torsions:
REMARK  status: ('A' for Active; 'I' for Inactive)
REMARK    1  A    between atoms: C1_1  and  N9_9 
REMARK    2  A    between atoms: C8_8  and  N9_9 
ROOT
HETATM    1  C2  UNL     1     -34.030  17.647  -4.179  1.00 20.00     0.005 C 
HETATM    2  C3  UNL     1     -35.391  17.627  -3.470  1.00 20.00     0.007 C 
HETATM    3  C4  UNL     1     -33.750  16.803  -1.970  1.00 20.00     0.011 C 
HETATM    4  C5  UNL     1     -33.742  15.201  -3.743  1.00 20.00     0.030 C 
HETATM    5  C6  UNL     1     -33.218  16.606  -3.391  1.00 20.00    -0.012 C 
HETATM    6  C7  UNL     1     -35.203  16.551  -2.382  1.00 20.00     0.009 C 
HETATM    7  C8  UNL     1     -35.088  15.141  -2.999  1.00 20.00     0.088 C 
ENDROOT
BRANCH   7   8
HETATM    8  N9  UNL     1     -36.188  14.779  -3.847  1.00 20.00    -0.363 N 
HETATM    9  H23 UNL     1     -37.036  15.344  -3.804  1.00 20.00     0.162 HD
BRANCH   8  10
HETATM   10  C1  UNL     1     -36.161  13.708  -4.721  1.00 20.00     0.348 C 
HETATM   11  O10 UNL     1     -35.840  12.553  -4.476  1.00 20.00    -0.284 OA
ENDBRANCH   8  10
ENDBRANCH   7   8
TORSDOF 2
ENDMDL
MODEL 3
REMARK VINA RESULT:      -4.5      0.866      1.489
REMARK  2 active torsions:
REMARK  status: ('A' for Active; 'I' for Inactive)
REMARK    1  A    between atoms: C1_1  and  N9_9 
REMARK    2  A    between atoms: C8_8  and  N9_9 
ROOT
HETATM    1  C2  UNL     1     -33.971  15.607  -5.687  1.00 20.00     0.005 C 
HETATM    2  C3  UNL     1     -34.704  16.766  -4.998  1.00 20.00     0.007 C 
HETATM    3  C4  UNL     1     -33.133  15.856  -3.472  1.00 20.00     0.011 C 
HETATM    4  C5  UNL     1     -34.654  14.053  -3.849  1.00 20.00     0.030 C 
HETATM    5  C6  UNL     1     -33.458  14.773  -4.502  1.00 20.00    -0.012 C 
HETATM    6  C7  UNL     1     -34.550  16.436  -3.500  1.00 20.00     0.009 C 
HETATM    7  C8  UNL     1     -35.378  15.193  -3.110  1.00 20.00     0.088 C 
ENDROOT
BRANCH   7   8
HETATM    8  N9  UNL     1     -36.771  15.288  -3.441  1.00 20.00    -0.363 N 
HETATM    9  H23 UNL     1     -37.342  15.963  -2.934  1.00 20.00     0.162 HD
BRANCH   8  10
HETATM   10  C1  UNL     1     -37.383  14.514  -4.410  1.00 20.00     0.348 C 
HETATM   11  O10 UNL     1     -38.458  13.933  -4.333  1.00 20.00    -0.284 OA
ENDBRANCH   8  10
ENDBRANCH   7   8
TORSDOF 2
ENDMDL
MODEL 4
REMARK VINA RESULT:      -4.3      0.844      2.096
REMARK  2 active torsions:
REMARK  status: ('A' for Active; 'I' for Inactive)
REMARK    1  A    between atoms: C1_1  and  N9_9 
REMARK    2  A    between atoms: C8_8  and  N9_9 
ROOT
HETATM    1  C2  UNL     1     -34.309  17.879  -2.588  1.00 20.00     0.005 C 
HETATM    2  C3  UNL     1     -34.786  16.670  -1.772  1.00 20.00     0.007 C 
HETATM    3  C4  UNL     1     -33.247  15.912  -3.409  1.00 20.00     0.011 C 
HETATM    4  C5  UNL     1     -35.060  16.775  -4.703  1.00 20.00     0.030 C 
HETATM    5  C6  UNL     1     -33.829  17.239  -3.901  1.00 20.00    -0.012 C 
HETATM    6  C7  UNL     1     -34.552  15.486  -2.731  1.00 20.00     0.009 C 
HETATM    7  C8  UNL     1     -35.527  15.531  -3.927  1.00 20.00     0.088 C 
ENDROOT
BRANCH   7   8
HETATM    8  N9  UNL     1     -36.912  15.582  -3.555  1.00 20.00    -0.363 N 
HETATM    9  H23 UNL     1     -37.176  16.159  -2.758  1.00 20.00     0.162 HD
BRANCH   8  10
HETATM   10  C1  UNL     1     -37.909  14.892  -4.220  1.00 20.00     0.348 C 
HETATM   11  O10 UNL     1     -37.974  13.687  -4.426  1.00 20.00    -0.284 OA
ENDBRANCH   8  10
ENDBRANCH   7   8
TORSDOF 2
ENDMDL
MODEL 5
REMARK VINA RESULT:      -4.2     11.908     12.815
REMARK  2 active torsions:
REMARK  status: ('A' for Active; 'I' for Inactive)
REMARK    1  A    between atoms: C1_1  and  N9_9 
REMARK    2  A    between atoms: C8_8  and  N9_9 
ROOT
HETATM    1  C2  UNL     1     -34.008   5.075   5.910  1.00 20.00     0.005 C 
HETATM    2  C3  UNL     1     -34.028   6.574   5.579  1.00 20.00     0.007 C 
HETATM    3  C4  UNL     1     -35.715   5.501   4.305  1.00 20.00     0.011 C 
HETATM    4  C5  UNL     1     -33.693   4.523   3.490  1.00 20.00     0.030 C 
HETATM    5  C6  UNL     1     -34.674   4.443   4.676  1.00 20.00    -0.012 C 
HETATM    6  C7  UNL     1     -34.673   6.615   4.179  1.00 20.00     0.009 C 
HETATM    7  C8  UNL     1     -33.736   6.014   3.110  1.00 20.00     0.088 C 
ENDROOT
BRANCH   7   8
HETATM    8  N9  UNL     1     -32.437   6.622   3.058  1.00 20.00    -0.363 N 
HETATM    9  H23 UNL     1     -31.716   6.272   3.687  1.00 20.00     0.162 HD
BRANCH   8  10
HETATM   10  C1  UNL     1     -32.109   7.656   2.201  1.00 20.00     0.348 C 
HETATM   11  O10 UNL     1     -32.702   8.003   1.187  1.00 20.00    -0.284 OA
ENDBRANCH   8  10
ENDBRANCH   7   8
TORSDOF 2
ENDMDL
MODEL 6
REMARK VINA RESULT:      -4.1     11.367     12.504
REMARK  2 active torsions:
REMARK  status: ('A' for Active; 'I' for Inactive)
REMARK    1  A    between atoms: C1_1  and  N9_9 
REMARK    2  A    between atoms: C8_8  and  N9_9 
ROOT
HETATM    1  C2  UNL     1     -42.516   8.085  -1.186  1.00 20.00     0.005 C 
HETATM    2  C3  UNL     1     -43.417   7.557  -0.061  1.00 20.00     0.007 C 
HETATM    3  C4  UNL     1     -41.171   7.527   0.698  1.00 20.00     0.011 C 
HETATM    4  C5  UNL     1     -41.166   5.979  -1.122  1.00 20.00     0.030 C 
HETATM    5  C6  UNL     1     -41.142   7.493  -0.831  1.00 20.00    -0.012 C 
HETATM    6  C7  UNL     1     -42.455   6.698   0.784  1.00 20.00     0.009 C 
HETATM    7  C8  UNL     1     -42.027   5.423   0.027  1.00 20.00     0.088 C 
ENDROOT
BRANCH   7   8
HETATM    8  N9  UNL     1     -43.121   4.613  -0.427  1.00 20.00    -0.363 N 
HETATM    9  H23 UNL     1     -43.789   4.275   0.265  1.00 20.00     0.162 HD
BRANCH   8  10
HETATM   10  C1  UNL     1     -43.321   4.268  -1.750  1.00 20.00     0.348 C 
HETATM   11  O10 UNL     1     -43.043   3.207  -2.296  1.00 20.00    -0.284 OA
ENDBRANCH   8  10
ENDBRANCH   7   8
TORSDOF 2
ENDMDL
MODEL 7
REMARK VINA RESULT:      -4.1      2.393      3.077
REMARK  2 active torsions:
REMARK  status: ('A' for Active; 'I' for Inactive)
REMARK    1  A    between atoms: C1_1  and  N9_9 
REMARK    2  A    between atoms: C8_8  and  N9_9 
ROOT
HETATM    1  C2  UNL     1     -34.558  14.205  -3.906  1.00 20.00     0.005 C 
HETATM    2  C3  UNL     1     -33.179  14.843  -4.124  1.00 20.00     0.007 C 
HETATM    3  C4  UNL     1     -34.290  16.026  -2.395  1.00 20.00     0.011 C 
HETATM    4  C5  UNL     1     -35.667  16.411  -4.309  1.00 20.00     0.030 C 
HETATM    5  C6  UNL     1     -35.360  15.339  -3.246  1.00 20.00    -0.012 C 
HETATM    6  C7  UNL     1     -33.370  16.278  -3.592  1.00 20.00     0.009 C 
HETATM    7  C8  UNL     1     -34.304  17.098  -4.507  1.00 20.00     0.088 C 
ENDROOT
BRANCH   7   8
HETATM    8  N9  UNL     1     -33.888  17.146  -5.880  1.00 20.00    -0.363 N 
HETATM    9  H23 UNL     1     -33.031  17.649  -6.106  1.00 20.00     0.162 HD
BRANCH   8  10
HETATM   10  C1  UNL     1     -34.585  16.546  -6.913  1.00 20.00     0.348 C 
HETATM   11  O10 UNL     1     -34.340  15.478  -7.458  1.00 20.00    -0.284 OA
ENDBRANCH   8  10
ENDBRANCH   7   8
TORSDOF 2
ENDMDL
MODEL 8
REMARK VINA RESULT:      -4.1     11.362     12.674
REMARK  2 active torsions:
REMARK  status: ('A' for Active; 'I' for Inactive)
REMARK    1  A    between atoms: C1_1  and  N9_9 
REMARK    2  A    between atoms: C8_8  and  N9_9 
ROOT
HETATM    1  C2  UNL     1     -41.167   7.296   0.580  1.00 20.00     0.005 C 
HETATM    2  C3  UNL     1     -41.222   7.333  -0.953  1.00 20.00     0.007 C 
HETATM    3  C4  UNL     1     -43.417   7.650  -0.115  1.00 20.00     0.011 C 
HETATM    4  C5  UNL     1     -42.853   5.447   0.618  1.00 20.00     0.030 C 
HETATM    5  C6  UNL     1     -42.610   6.929   0.966  1.00 20.00    -0.012 C 
HETATM    6  C7  UNL     1     -42.683   6.948  -1.260  1.00 20.00     0.009 C 
HETATM    7  C8  UNL     1     -42.959   5.469  -0.918  1.00 20.00     0.088 C 
ENDROOT
BRANCH   7   8
HETATM    8  N9  UNL     1     -42.074   4.542  -1.560  1.00 20.00    -0.363 N 
HETATM    9  H23 UNL     1     -41.088   4.558  -1.301  1.00 20.00     0.162 HD
BRANCH   8  10
HETATM   10  C1  UNL     1     -42.483   3.625  -2.512  1.00 20.00     0.348 C 
HETATM   11  O10 UNL     1     -41.779   2.978  -3.276  1.00 20.00    -0.284 OA
ENDBRANCH   8  10
ENDBRANCH   7   8
TORSDOF 2
ENDMDL
MODEL 9
REMARK VINA RESULT:      -4.1     10.159     11.939
REMARK  2 active torsions:
REMARK  status: ('A' for Active; 'I' for Inactive)
REMARK    1  A    between atoms: C1_1  and  N9_9 
REMARK    2  A    between atoms: C8_8  and  N9_9 
ROOT
HETATM    1  C2  UNL     1     -41.574   5.422   0.550  1.00 20.00     0.005 C 
HETATM    2  C3  UNL     1     -43.002   5.951   0.742  1.00 20.00     0.007 C 
HETATM    3  C4  UNL     1     -42.752   5.261  -1.513  1.00 20.00     0.011 C 
HETATM    4  C5  UNL     1     -41.194   7.059  -1.303  1.00 20.00     0.030 C 
HETATM    5  C6  UNL     1     -41.356   5.565  -0.965  1.00 20.00    -0.012 C 
HETATM    6  C7  UNL     1     -43.417   6.363  -0.685  1.00 20.00     0.009 C 
HETATM    7  C8  UNL     1     -42.628   7.600  -1.164  1.00 20.00     0.088 C 
ENDROOT
BRANCH   7   8
HETATM    8  N9  UNL     1     -42.724   8.734  -0.290  1.00 20.00    -0.363 N 
HETATM    9  H23 UNL     1     -43.643   9.148  -0.137  1.00 20.00     0.162 HD
BRANCH   8  10
HETATM   10  C1  UNL     1     -41.639   9.295   0.358  1.00 20.00     0.348 C 
HETATM   11  O10 UNL     1     -41.316  10.475   0.388  1.00 20.00    -0.284 OA
ENDBRANCH   8  10
ENDBRANCH   7   8
TORSDOF 2
ENDMDL
