MODEL 1
REMARK VINA RESULT:      -6.2      0.000      0.000
REMARK  0 active torsions:
REMARK  status: ('A' for Active; 'I' for Inactive)
ROOT
HETATM    1  C1  UNL     1     -33.179   4.963   2.541  1.00 20.00    -0.023 C 
HETATM    2  C2  UNL     1     -33.146   6.296   2.661  1.00 20.00    -0.083 C 
HETATM    3  C3  UNL     1     -34.725   5.538   5.719  1.00 20.00     0.132 C 
HETATM    4  C4  UNL     1     -34.028   4.318   3.590  1.00 20.00     0.040 C 
HETATM    5  C5  UNL     1     -34.023   6.763   6.240  1.00 20.00     0.079 C 
HETATM    6  C6  UNL     1     -33.159   7.153   5.051  1.00 20.00     0.017 C 
HETATM    7  C7  UNL     1     -33.977   6.766   3.816  1.00 20.00     0.025 C 
HETATM    8  C8  UNL     1     -34.762   5.502   4.211  1.00 20.00     0.067 C 
HETATM    9  C9  UNL     1     -32.391   7.250   1.809  1.00 20.00     0.043 C 
HETATM   10  O10 UNL     1     -35.240   4.690   6.437  1.00 20.00    -0.298 OA
ENDROOT
TORSDOF 0
ENDMDL
MODEL 2
REMARK VINA RESULT:      -5.0      1.962      3.994
REMARK  0 active torsions:
REMARK  status: ('A' for Active; 'I' for Inactive)
ROOT
HETATM    1  C1  UNL     1     -33.683   6.724   6.033  1.00 20.00    -0.023 C 
HETATM    2  C2  UNL     1     -34.498   5.748   5.618  1.00 20.00    -0.083 C 
HETATM    3  C3  UNL     1     -32.957   6.484   2.535  1.00 20.00     0.132 C 
HETATM    4  C4  UNL     1     -33.036   7.448   4.896  1.00 20.00     0.040 C 
HETATM    5  C5  UNL     1     -33.160   5.025   2.229  1.00 20.00     0.079 C 
HETATM    6  C6  UNL     1     -33.709   4.505   3.549  1.00 20.00     0.017 C 
HETATM    7  C7  UNL     1     -34.535   5.659   4.122  1.00 20.00     0.025 C 
HETATM    8  C8  UNL     1     -33.817   6.949   3.685  1.00 20.00     0.067 C 
HETATM    9  C9  UNL     1     -35.284   4.818   6.470  1.00 20.00     0.043 C 
HETATM   10  O10 UNL     1     -32.209   7.216   1.899  1.00 20.00    -0.298 OA
ENDROOT
TORSDOF 0
ENDMDL
MODEL 3
REMARK VINA RESULT:      -4.9     15.913     16.717
REMARK  0 active torsions:
REMARK  status: ('A' for Active; 'I' for Inactive)
ROOT
HETATM    1  C1  UNL     1     -25.254  16.766  11.749  1.00 20.00    -0.023 C 
HETATM    2  C2  UNL     1     -25.329  18.076  11.483  1.00 20.00    -0.083 C 
HETATM    3  C3  UNL     1     -22.904  17.197   9.082  1.00 20.00     0.132 C 
HETATM    4  C4  UNL     1     -24.106  16.109  11.052  1.00 20.00     0.040 C 
HETATM    5  C5  UNL     1     -23.499  18.307   8.259  1.00 20.00     0.079 C 
HETATM    6  C6  UNL     1     -24.688  18.722   9.114  1.00 20.00     0.017 C 
HETATM    7  C7  UNL     1     -24.233  18.515  10.561  1.00 20.00     0.025 C 
HETATM    8  C8  UNL     1     -23.296  17.294  10.536  1.00 20.00     0.067 C 
HETATM    9  C9  UNL     1     -26.349  19.031  11.986  1.00 20.00     0.043 C 
HETATM   10  O10 UNL     1     -22.158  16.338   8.629  1.00 20.00    -0.298 OA
ENDROOT
TORSDOF 0
ENDMDL
MODEL 4
REMARK VINA RESULT:      -4.6     12.137     12.930
REMARK  0 active torsions:
REMARK  status: ('A' for Active; 'I' for Inactive)
ROOT
HETATM    1  C1  UNL     1     -36.316  17.167  -2.767  1.00 20.00    -0.023 C 
HETATM    2  C2  UNL     1     -35.249  16.806  -2.044  1.00 20.00    -0.083 C 
HETATM    3  C3  UNL     1     -34.819  14.588  -4.749  1.00 20.00     0.132 C 
HETATM    4  C4  UNL     1     -36.579  16.229  -3.902  1.00 20.00     0.040 C 
HETATM    5  C5  UNL     1     -33.347  14.735  -4.471  1.00 20.00     0.079 C 
HETATM    6  C6  UNL     1     -33.342  15.800  -3.385  1.00 20.00     0.017 C 
HETATM    7  C7  UNL     1     -34.619  15.555  -2.577  1.00 20.00     0.025 C 
HETATM    8  C8  UNL     1     -35.665  15.049  -3.587  1.00 20.00     0.067 C 
HETATM    9  C9  UNL     1     -34.690  17.514  -0.864  1.00 20.00     0.043 C 
HETATM   10  O10 UNL     1     -35.273  14.113  -5.782  1.00 20.00    -0.298 OA
ENDROOT
TORSDOF 0
ENDMDL
MODEL 5
REMARK VINA RESULT:      -4.6     12.044     13.225
REMARK  0 active torsions:
REMARK  status: ('A' for Active; 'I' for Inactive)
ROOT
HETATM    1  C1  UNL     1     -34.937  15.840  -2.253  1.00 20.00    -0.023 C 
HETATM    2  C2  UNL     1     -33.843  16.357  -2.826  1.00 20.00    -0.083 C 
HETATM    3  C3  UNL     1     -35.148  14.665  -5.629  1.00 20.00     0.132 C 
HETATM    4  C4  UNL     1     -35.616  14.834  -3.126  1.00 20.00     0.040 C 
HETATM    5  C5  UNL     1     -34.520  15.773  -6.431  1.00 20.00     0.079 C 
HETATM    6  C6  UNL     1     -34.013  16.699  -5.335  1.00 20.00     0.017 C 
HETATM    7  C7  UNL     1     -33.605  15.774  -4.186  1.00 20.00     0.025 C 
HETATM    8  C8  UNL     1     -34.590  14.591  -4.228  1.00 20.00     0.067 C 
HETATM    9  C9  UNL     1     -32.942  17.391  -2.256  1.00 20.00     0.043 C 
HETATM   10  O10 UNL     1     -35.985  13.891  -6.074  1.00 20.00    -0.298 OA
ENDROOT
TORSDOF 0
ENDMDL
MODEL 6
REMARK VINA RESULT:      -4.5     15.772     16.543
REMARK  0 active torsions:
REMARK  status: ('A' for Active; 'I' for Inactive)
ROOT
HETATM    1  C1  UNL     1     -24.245  18.923   8.816  1.00 20.00    -0.023 C 
HETATM    2  C2  UNL     1     -23.270  18.142   9.297  1.00 20.00    -0.083 C 
HETATM    3  C3  UNL     1     -25.650  17.624  11.843  1.00 20.00     0.132 C 
HETATM    4  C4  UNL     1     -25.348  19.129   9.805  1.00 20.00     0.040 C 
HETATM    5  C5  UNL     1     -25.043  16.252  11.958  1.00 20.00     0.079 C 
HETATM    6  C6  UNL     1     -24.056  16.254  10.800  1.00 20.00     0.017 C 
HETATM    7  C7  UNL     1     -23.558  17.698  10.698  1.00 20.00     0.025 C 
HETATM    8  C8  UNL     1     -24.753  18.583  11.099  1.00 20.00     0.067 C 
HETATM    9  C9  UNL     1     -22.038  17.713   8.585  1.00 20.00     0.043 C 
HETATM   10  O10 UNL     1     -26.729  17.935  12.332  1.00 20.00    -0.298 OA
ENDROOT
TORSDOF 0
ENDMDL
MODEL 7
REMARK VINA RESULT:      -4.5     11.639     12.818
REMARK  0 active torsions:
REMARK  status: ('A' for Active; 'I' for Inactive)
ROOT
HETATM    1  C1  UNL     1     -35.210  17.500  -3.796  1.00 20.00    -0.023 C 
HETATM    2  C2  UNL     1     -34.300  16.718  -3.203  1.00 20.00    -0.083 C 
HETATM    3  C3  UNL     1     -36.602  14.218  -4.135  1.00 20.00     0.132 C 
HETATM    4  C4  UNL     1     -36.476  16.766  -4.103  1.00 20.00     0.040 C 
HETATM    5  C5  UNL     1     -35.393  13.331  -4.263  1.00 20.00     0.079 C 
HETATM    6  C6  UNL     1     -34.259  14.316  -4.022  1.00 20.00     0.017 C 
HETATM    7  C7  UNL     1     -34.812  15.323  -3.010  1.00 20.00     0.025 C 
HETATM    8  C8  UNL     1     -36.311  15.461  -3.330  1.00 20.00     0.067 C 
HETATM    9  C9  UNL     1     -32.930  17.107  -2.778  1.00 20.00     0.043 C 
HETATM   10  O10 UNL     1     -37.702  13.943  -4.597  1.00 20.00    -0.298 OA
ENDROOT
TORSDOF 0
ENDMDL
MODEL 8
REMARK VINA RESULT:      -4.4     11.937     12.959
REMARK  0 active torsions:
REMARK  status: ('A' for Active; 'I' for Inactive)
ROOT
HETATM    1  C1  UNL     1     -33.384  16.073  -3.540  1.00 20.00    -0.023 C 
HETATM    2  C2  UNL     1     -34.350  16.890  -3.977  1.00 20.00    -0.083 C 
HETATM    3  C3  UNL     1     -35.974  13.815  -4.548  1.00 20.00     0.132 C 
HETATM    4  C4  UNL     1     -33.656  14.641  -3.874  1.00 20.00     0.040 C 
HETATM    5  C5  UNL     1     -37.241  14.575  -4.259  1.00 20.00     0.079 C 
HETATM    6  C6  UNL     1     -36.698  15.935  -3.844  1.00 20.00     0.017 C 
HETATM    7  C7  UNL     1     -35.434  16.135  -4.684  1.00 20.00     0.025 C 
HETATM    8  C8  UNL     1     -34.818  14.735  -4.858  1.00 20.00     0.067 C 
HETATM    9  C9  UNL     1     -34.417  18.364  -3.804  1.00 20.00     0.043 C 
HETATM   10  O10 UNL     1     -35.902  12.593  -4.567  1.00 20.00    -0.298 OA
ENDROOT
TORSDOF 0
ENDMDL
MODEL 9
REMARK VINA RESULT:      -4.3     12.066     13.038
REMARK  0 active torsions:
REMARK  status: ('A' for Active; 'I' for Inactive)
ROOT
HETATM    1  C1  UNL     1     -33.280  15.663  -3.535  1.00 20.00    -0.023 C 
HETATM    2  C2  UNL     1     -34.507  15.163  -3.345  1.00 20.00    -0.083 C 
HETATM    3  C3  UNL     1     -34.916  18.210  -1.622  1.00 20.00     0.132 C 
HETATM    4  C4  UNL     1     -33.026  16.879  -2.704  1.00 20.00     0.040 C 
HETATM    5  C5  UNL     1     -36.350  18.124  -2.068  1.00 20.00     0.079 C 
HETATM    6  C6  UNL     1     -36.321  16.898  -2.969  1.00 20.00     0.017 C 
HETATM    7  C7  UNL     1     -35.281  15.965  -2.344  1.00 20.00     0.025 C 
HETATM    8  C8  UNL     1     -34.205  16.883  -1.736  1.00 20.00     0.067 C 
HETATM    9  C9  UNL     1     -35.102  13.979  -4.016  1.00 20.00     0.043 C 
HETATM   10  O10 UNL     1     -34.398  19.229  -1.183  1.00 20.00    -0.298 OA
ENDROOT
TORSDOF 0
ENDMDL
