MODEL 1
REMARK VINA RESULT:      -4.7      0.000      0.000
REMARK  2 active torsions:
REMARK  status: ('A' for Active; 'I' for Inactive)
REMARK    1  A    between atoms: C7_7  and  C8_8 
REMARK    2  A    between atoms: C9_9  and  O10_10 
ROOT
HETATM    1  C1  UNL     1     -35.734  15.223  -3.190  1.00 20.00     0.003 C 
HETATM    2  C2  UNL     1     -35.012  16.021  -2.105  1.00 20.00     0.005 C 
HETATM    3  C5  UNL     1     -34.769  14.333  -3.966  1.00 20.00     0.032 C 
HETATM    4  C6  UNL     1     -32.881  15.930  -3.458  1.00 20.00     0.036 C 
HETATM    5  C8  UNL     1     -33.844  16.835  -2.680  1.00 20.00    -0.008 C 
HETATM    6  C9  UNL     1     -33.606  15.135  -4.544  1.00 20.00     0.118 C 
ENDROOT
BRANCH   5   7
HETATM    7  C7  UNL     1     -33.107  17.578  -1.568  1.00 20.00    -0.010 A 
HETATM    8  C3  UNL     1     -33.164  19.079  -1.493  1.00 20.00     0.005 A 
HETATM    9  C4  UNL     1     -33.878  18.248  -0.465  1.00 20.00     0.005 A 
ENDBRANCH   5   7
BRANCH   6  10
HETATM   10  O10 UNL     1     -32.696  14.232  -5.164  1.00 20.00    -0.396 OA
HETATM   11  H26 UNL     1     -32.884  13.353  -4.798  1.00 20.00     0.210 HD
ENDBRANCH   6  10
TORSDOF 2
ENDMDL
MODEL 2
REMARK VINA RESULT:      -4.6      1.430      2.377
REMARK  2 active torsions:
REMARK  status: ('A' for Active; 'I' for Inactive)
REMARK    1  A    between atoms: C7_7  and  C8_8 
REMARK    2  A    between atoms: C9_9  and  O10_10 
ROOT
HETATM    1  C1  UNL     1     -32.803  15.117  -4.027  1.00 20.00     0.003 C 
HETATM    2  C2  UNL     1     -33.410  16.293  -3.263  1.00 20.00     0.005 C 
HETATM    3  C5  UNL     1     -33.859  14.365  -4.830  1.00 20.00     0.032 C 
HETATM    4  C6  UNL     1     -35.633  15.095  -3.188  1.00 20.00     0.036 C 
HETATM    5  C8  UNL     1     -34.577  15.850  -2.371  1.00 20.00    -0.008 C 
HETATM    6  C9  UNL     1     -35.022  13.918  -3.949  1.00 20.00     0.118 C 
ENDROOT
BRANCH   5   7
HETATM    7  C7  UNL     1     -35.201  17.051  -1.663  1.00 20.00    -0.010 A 
HETATM    8  C3  UNL     1     -35.376  17.043  -0.170  1.00 20.00     0.005 A 
HETATM    9  C4  UNL     1     -34.353  17.945  -0.801  1.00 20.00     0.005 A 
ENDBRANCH   5   7
BRANCH   6  10
HETATM   10  O10 UNL     1     -36.013  13.317  -4.777  1.00 20.00    -0.396 OA
HETATM   11  H26 UNL     1     -36.714  13.978  -4.895  1.00 20.00     0.210 HD
ENDBRANCH   6  10
TORSDOF 2
ENDMDL
MODEL 3
REMARK VINA RESULT:      -4.5      1.497      2.030
REMARK  2 active torsions:
REMARK  status: ('A' for Active; 'I' for Inactive)
REMARK    1  A    between atoms: C7_7  and  C8_8 
REMARK    2  A    between atoms: C9_9  and  O10_10 
ROOT
HETATM    1  C1  UNL     1     -36.602  15.218  -5.367  1.00 20.00     0.003 C 
HETATM    2  C2  UNL     1     -36.151  15.293  -3.910  1.00 20.00     0.005 C 
HETATM    3  C5  UNL     1     -35.549  14.551  -6.246  1.00 20.00     0.032 C 
HETATM    4  C6  UNL     1     -33.739  15.309  -4.658  1.00 20.00     0.036 C 
HETATM    5  C8  UNL     1     -34.790  15.988  -3.771  1.00 20.00    -0.008 C 
HETATM    6  C9  UNL     1     -34.192  15.238  -6.117  1.00 20.00     0.118 C 
ENDROOT
BRANCH   5   7
HETATM    7  C7  UNL     1     -34.338  15.999  -2.312  1.00 20.00    -0.010 A 
HETATM    8  C3  UNL     1     -33.897  17.284  -1.666  1.00 20.00     0.005 A 
HETATM    9  C4  UNL     1     -35.195  16.646  -1.259  1.00 20.00     0.005 A 
ENDBRANCH   5   7
BRANCH   6  10
HETATM   10  O10 UNL     1     -33.239  14.505  -6.879  1.00 20.00    -0.396 OA
HETATM   11  H26 UNL     1     -32.478  14.350  -6.297  1.00 20.00     0.210 HD
ENDBRANCH   6  10
TORSDOF 2
ENDMDL
MODEL 4
REMARK VINA RESULT:      -4.5      1.681      2.185
REMARK  2 active torsions:
REMARK  status: ('A' for Active; 'I' for Inactive)
REMARK    1  A    between atoms: C7_7  and  C8_8 
REMARK    2  A    between atoms: C9_9  and  O10_10 
ROOT
HETATM    1  C1  UNL     1     -37.206  16.044  -4.136  1.00 20.00     0.003 C 
HETATM    2  C2  UNL     1     -36.170  16.500  -3.109  1.00 20.00     0.005 C 
HETATM    3  C5  UNL     1     -37.217  14.526  -4.285  1.00 20.00     0.032 C 
HETATM    4  C6  UNL     1     -34.793  14.436  -3.583  1.00 20.00     0.036 C 
HETATM    5  C8  UNL     1     -34.770  15.962  -3.436  1.00 20.00    -0.008 C 
HETATM    6  C9  UNL     1     -35.829  13.983  -4.613  1.00 20.00     0.118 C 
ENDROOT
BRANCH   5   7
HETATM    7  C7  UNL     1     -33.767  16.386  -2.365  1.00 20.00    -0.010 A 
HETATM    8  C3  UNL     1     -32.878  17.577  -2.589  1.00 20.00     0.005 A 
HETATM    9  C4  UNL     1     -33.988  17.648  -1.579  1.00 20.00     0.005 A 
ENDBRANCH   5   7
BRANCH   6  10
HETATM   10  O10 UNL     1     -35.892  12.561  -4.635  1.00 20.00    -0.396 OA
HETATM   11  H26 UNL     1     -36.642  12.324  -5.203  1.00 20.00     0.210 HD
ENDBRANCH   6  10
TORSDOF 2
ENDMDL
MODEL 5
REMARK VINA RESULT:      -4.4      2.154      4.171
REMARK  2 active torsions:
REMARK  status: ('A' for Active; 'I' for Inactive)
REMARK    1  A    between atoms: C7_7  and  C8_8 
REMARK    2  A    between atoms: C9_9  and  O10_10 
ROOT
HETATM    1  C1  UNL     1     -34.693  17.340  -0.439  1.00 20.00     0.003 C 
HETATM    2  C2  UNL     1     -35.034  16.649  -1.757  1.00 20.00     0.005 C 
HETATM    3  C5  UNL     1     -33.742  18.513  -0.651  1.00 20.00     0.032 C 
HETATM    4  C6  UNL     1     -32.824  17.398  -2.722  1.00 20.00     0.036 C 
HETATM    5  C8  UNL     1     -33.772  16.212  -2.514  1.00 20.00    -0.008 C 
HETATM    6  C9  UNL     1     -32.482  18.087  -1.400  1.00 20.00     0.118 C 
ENDROOT
BRANCH   5   7
HETATM    7  C7  UNL     1     -34.140  15.574  -3.852  1.00 20.00    -0.010 A 
HETATM    8  C3  UNL     1     -33.370  14.388  -4.363  1.00 20.00     0.005 A 
HETATM    9  C4  UNL     1     -34.786  14.217  -3.891  1.00 20.00     0.005 A 
ENDBRANCH   5   7
BRANCH   6  10
HETATM   10  O10 UNL     1     -31.691  19.244  -1.654  1.00 20.00    -0.396 OA
HETATM   11  H26 UNL     1     -31.037  19.296  -0.939  1.00 20.00     0.210 HD
ENDBRANCH   6  10
TORSDOF 2
ENDMDL
MODEL 6
REMARK VINA RESULT:      -4.3      1.581      2.325
REMARK  2 active torsions:
REMARK  status: ('A' for Active; 'I' for Inactive)
REMARK    1  A    between atoms: C7_7  and  C8_8 
REMARK    2  A    between atoms: C9_9  and  O10_10 
ROOT
HETATM    1  C1  UNL     1     -33.301  14.760  -4.172  1.00 20.00     0.003 C 
HETATM    2  C2  UNL     1     -33.085  16.151  -3.578  1.00 20.00     0.005 C 
HETATM    3  C5  UNL     1     -34.773  14.503  -4.475  1.00 20.00     0.032 C 
HETATM    4  C6  UNL     1     -35.435  16.120  -2.653  1.00 20.00     0.036 C 
HETATM    5  C8  UNL     1     -33.957  16.381  -2.337  1.00 20.00    -0.008 C 
HETATM    6  C9  UNL     1     -35.648  14.726  -3.244  1.00 20.00     0.118 C 
ENDROOT
BRANCH   5   7
HETATM    7  C7  UNL     1     -33.763  17.797  -1.797  1.00 20.00    -0.010 A 
HETATM    8  C3  UNL     1     -33.442  18.017  -0.345  1.00 20.00     0.005 A 
HETATM    9  C4  UNL     1     -32.395  18.271  -1.391  1.00 20.00     0.005 A 
ENDBRANCH   5   7
BRANCH   6  10
HETATM   10  O10 UNL     1     -37.012  14.571  -3.623  1.00 20.00    -0.396 OA
HETATM   11  H26 UNL     1     -37.544  14.788  -2.842  1.00 20.00     0.210 HD
ENDBRANCH   6  10
TORSDOF 2
ENDMDL
MODEL 7
REMARK VINA RESULT:      -4.3     16.321     16.946
REMARK  2 active torsions:
REMARK  status: ('A' for Active; 'I' for Inactive)
REMARK    1  A    between atoms: C7_7  and  C8_8 
REMARK    2  A    between atoms: C9_9  and  O10_10 
ROOT
HETATM    1  C1  UNL     1     -25.076  16.228  12.173  1.00 20.00     0.003 C 
HETATM    2  C2  UNL     1     -24.303  16.375  10.863  1.00 20.00     0.005 C 
HETATM    3  C5  UNL     1     -26.338  17.083  12.178  1.00 20.00     0.032 C 
HETATM    4  C6  UNL     1     -25.258  18.694  10.562  1.00 20.00     0.036 C 
HETATM    5  C8  UNL     1     -23.982  17.844  10.555  1.00 20.00    -0.008 C 
HETATM    6  C9  UNL     1     -26.027  18.546  11.875  1.00 20.00     0.118 C 
ENDROOT
BRANCH   5   7
HETATM    7  C7  UNL     1     -23.260  17.966   9.214  1.00 20.00    -0.010 A 
HETATM    8  C3  UNL     1     -21.842  18.465   9.161  1.00 20.00     0.005 A 
HETATM    9  C4  UNL     1     -22.142  17.022   8.868  1.00 20.00     0.005 A 
ENDBRANCH   5   7
BRANCH   6  10
HETATM   10  O10 UNL     1     -27.255  19.263  11.793  1.00 20.00    -0.396 OA
HETATM   11  H26 UNL     1     -27.960  18.635  12.018  1.00 20.00     0.210 HD
ENDBRANCH   6  10
TORSDOF 2
ENDMDL
MODEL 8
REMARK VINA RESULT:      -4.2     11.264     12.122
REMARK  2 active torsions:
REMARK  status: ('A' for Active; 'I' for Inactive)
REMARK    1  A    between atoms: C7_7  and  C8_8 
REMARK    2  A    between atoms: C9_9  and  O10_10 
ROOT
HETATM    1  C1  UNL     1     -34.059   6.838   5.656  1.00 20.00     0.003 C 
HETATM    2  C2  UNL     1     -33.058   7.404   4.651  1.00 20.00     0.005 C 
HETATM    3  C5  UNL     1     -34.170   5.321   5.544  1.00 20.00     0.032 C 
HETATM    4  C6  UNL     1     -33.498   5.449   3.114  1.00 20.00     0.036 C 
HETATM    5  C8  UNL     1     -33.390   6.975   3.215  1.00 20.00    -0.008 C 
HETATM    6  C9  UNL     1     -34.503   4.886   4.119  1.00 20.00     0.118 C 
ENDROOT
BRANCH   5   7
HETATM    7  C7  UNL     1     -32.342   7.507   2.238  1.00 20.00    -0.010 A 
HETATM    8  C3  UNL     1     -32.604   7.479   0.758  1.00 20.00     0.005 A 
HETATM    9  C4  UNL     1     -32.587   8.790   1.492  1.00 20.00     0.005 A 
ENDBRANCH   5   7
BRANCH   6  10
HETATM   10  O10 UNL     1     -34.488   3.463   4.065  1.00 20.00    -0.396 OA
HETATM   11  H26 UNL     1     -35.025   3.151   4.810  1.00 20.00     0.210 HD
ENDBRANCH   6  10
TORSDOF 2
ENDMDL
MODEL 9
REMARK VINA RESULT:      -4.2      1.761      3.980
REMARK  2 active torsions:
REMARK  status: ('A' for Active; 'I' for Inactive)
REMARK    1  A    between atoms: C7_7  and  C8_8 
REMARK    2  A    between atoms: C9_9  and  O10_10 
ROOT
HETATM    1  C1  UNL     1     -34.430  15.969  -2.419  1.00 20.00     0.003 C 
HETATM    2  C2  UNL     1     -35.783  16.237  -3.076  1.00 20.00     0.005 C 
HETATM    3  C5  UNL     1     -33.354  15.665  -3.457  1.00 20.00     0.032 C 
HETATM    4  C6  UNL     1     -35.119  14.787  -5.034  1.00 20.00     0.036 C 
HETATM    5  C8  UNL     1     -36.207  15.084  -3.995  1.00 20.00    -0.008 C 
HETATM    6  C9  UNL     1     -33.767  14.517  -4.374  1.00 20.00     0.118 C 
ENDROOT
BRANCH   5   7
HETATM    7  C7  UNL     1     -37.535  15.403  -4.680  1.00 20.00    -0.010 A 
HETATM    8  C3  UNL     1     -38.808  14.761  -4.201  1.00 20.00     0.005 A 
HETATM    9  C4  UNL     1     -38.573  16.227  -3.971  1.00 20.00     0.005 A 
ENDBRANCH   5   7
BRANCH   6  10
HETATM   10  O10 UNL     1     -32.769  14.357  -5.377  1.00 20.00    -0.396 OA
HETATM   11  H26 UNL     1     -33.218  14.443  -6.233  1.00 20.00     0.210 HD
ENDBRANCH   6  10
TORSDOF 2
ENDMDL
