MODEL 1
REMARK VINA RESULT:      -4.5      0.000      0.000
REMARK  1 active torsions:
REMARK  status: ('A' for Active; 'I' for Inactive)
REMARK    1  A    between atoms: C7_7  and  C8_8 
ROOT
HETATM    1  C1  UNL     1     -36.308  14.136  -4.761  1.00 20.00     0.131 C 
HETATM    2  C2  UNL     1     -35.819  14.314  -6.178  1.00 20.00     0.104 C 
HETATM    3  C3  UNL     1     -35.314  14.478  -3.677  1.00 20.00     0.110 C 
HETATM    4  C6  UNL     1     -35.121  15.658  -6.307  1.00 20.00     0.175 C 
HETATM    5  C8  UNL     1     -34.658  15.821  -3.992  1.00 20.00     0.132 C 
HETATM    6  O9  UNL     1     -37.403  13.637  -4.507  1.00 20.00    -0.298 OA
HETATM    7  O10 UNL     1     -34.103  15.796  -5.314  1.00 20.00    -0.385 OA
ENDROOT
BRANCH   5   8
HETATM    8  C7  UNL     1     -33.557  16.130  -3.019  1.00 20.00     0.015 A 
HETATM    9  C4  UNL     1     -33.015  17.527  -2.908  1.00 20.00     0.007 A 
HETATM   10  C5  UNL     1     -33.840  16.951  -1.792  1.00 20.00     0.007 A 
ENDBRANCH   5   8
TORSDOF 1
ENDMDL
MODEL 2
REMARK VINA RESULT:      -4.4     14.920     17.193
REMARK  1 active torsions:
REMARK  status: ('A' for Active; 'I' for Inactive)
REMARK    1  A    between atoms: C7_7  and  C8_8 
ROOT
HETATM    1  C1  UNL     1     -23.501  18.172  10.140  1.00 20.00     0.131 C 
HETATM    2  C2  UNL     1     -22.137  18.047   9.507  1.00 20.00     0.104 C 
HETATM    3  C3  UNL     1     -24.530  18.929   9.334  1.00 20.00     0.110 C 
HETATM    4  C6  UNL     1     -22.289  17.630   8.053  1.00 20.00     0.175 C 
HETATM    5  C8  UNL     1     -24.509  18.436   7.888  1.00 20.00     0.132 C 
HETATM    6  O9  UNL     1     -23.728  17.783  11.284  1.00 20.00    -0.298 OA
HETATM    7  O10 UNL     1     -23.176  18.515   7.365  1.00 20.00    -0.385 OA
ENDROOT
BRANCH   5   8
HETATM    8  C7  UNL     1     -25.410  19.263   7.019  1.00 20.00     0.015 A 
HETATM    9  C4  UNL     1     -26.170  18.623   5.890  1.00 20.00     0.007 A 
HETATM   10  C5  UNL     1     -26.903  19.105   7.110  1.00 20.00     0.007 A 
ENDBRANCH   5   8
TORSDOF 1
ENDMDL
MODEL 3
REMARK VINA RESULT:      -4.4     11.598     12.733
REMARK  1 active torsions:
REMARK  status: ('A' for Active; 'I' for Inactive)
REMARK    1  A    between atoms: C7_7  and  C8_8 
ROOT
HETATM    1  C1  UNL     1     -34.178   6.517   5.897  1.00 20.00     0.131 C 
HETATM    2  C2  UNL     1     -34.778   5.136   5.789  1.00 20.00     0.104 C 
HETATM    3  C3  UNL     1     -33.159   6.873   4.841  1.00 20.00     0.110 C 
HETATM    4  C6  UNL     1     -35.186   4.873   4.349  1.00 20.00     0.175 C 
HETATM    5  C8  UNL     1     -33.697   6.486   3.463  1.00 20.00     0.132 C 
HETATM    6  O9  UNL     1     -34.417   7.259   6.848  1.00 20.00    -0.298 OA
HETATM    7  O10 UNL     1     -34.089   5.106   3.463  1.00 20.00    -0.385 OA
ENDROOT
BRANCH   5   8
HETATM    8  C7  UNL     1     -32.657   6.685   2.399  1.00 20.00     0.015 A 
HETATM    9  C4  UNL     1     -32.769   7.837   1.438  1.00 20.00     0.007 A 
HETATM   10  C5  UNL     1     -31.694   7.835   2.488  1.00 20.00     0.007 A 
ENDBRANCH   5   8
TORSDOF 1
ENDMDL
MODEL 4
REMARK VINA RESULT:      -4.3      1.716      1.970
REMARK  1 active torsions:
REMARK  status: ('A' for Active; 'I' for Inactive)
REMARK    1  A    between atoms: C7_7  and  C8_8 
ROOT
HETATM    1  C1  UNL     1     -35.350  13.744  -4.077  1.00 20.00     0.131 C 
HETATM    2  C2  UNL     1     -36.627  14.120  -4.788  1.00 20.00     0.104 C 
HETATM    3  C3  UNL     1     -34.472  14.897  -3.651  1.00 20.00     0.110 C 
HETATM    4  C6  UNL     1     -37.316  15.244  -4.031  1.00 20.00     0.175 C 
HETATM    5  C8  UNL     1     -35.327  15.963  -2.967  1.00 20.00     0.132 C 
HETATM    6  O9  UNL     1     -34.993  12.574  -3.953  1.00 20.00    -0.298 OA
HETATM    7  O10 UNL     1     -36.418  16.336  -3.820  1.00 20.00    -0.385 OA
ENDROOT
BRANCH   5   8
HETATM    8  C7  UNL     1     -34.521  17.192  -2.661  1.00 20.00     0.015 A 
HETATM    9  C4  UNL     1     -34.097  17.486  -1.249  1.00 20.00     0.007 A 
HETATM   10  C5  UNL     1     -33.075  17.070  -2.269  1.00 20.00     0.007 A 
ENDBRANCH   5   8
TORSDOF 1
ENDMDL
MODEL 5
REMARK VINA RESULT:      -4.2      1.518      1.678
REMARK  1 active torsions:
REMARK  status: ('A' for Active; 'I' for Inactive)
REMARK    1  A    between atoms: C7_7  and  C8_8 
ROOT
HETATM    1  C1  UNL     1     -36.428  15.480  -6.369  1.00 20.00     0.131 C 
HETATM    2  C2  UNL     1     -35.518  14.746  -7.323  1.00 20.00     0.104 C 
HETATM    3  C3  UNL     1     -36.069  15.370  -4.906  1.00 20.00     0.110 C 
HETATM    4  C6  UNL     1     -34.069  15.035  -6.965  1.00 20.00     0.175 C 
HETATM    5  C8  UNL     1     -34.572  15.623  -4.728  1.00 20.00     0.132 C 
HETATM    6  O9  UNL     1     -37.458  16.035  -6.746  1.00 20.00    -0.298 OA
HETATM    7  O10 UNL     1     -33.824  14.751  -5.586  1.00 20.00    -0.385 OA
ENDROOT
BRANCH   5   8
HETATM    8  C7  UNL     1     -34.144  15.378  -3.311  1.00 20.00     0.015 A 
HETATM    9  C4  UNL     1     -33.544  16.491  -2.498  1.00 20.00     0.007 A 
HETATM   10  C5  UNL     1     -34.919  15.979  -2.172  1.00 20.00     0.007 A 
ENDBRANCH   5   8
TORSDOF 1
ENDMDL
MODEL 6
REMARK VINA RESULT:      -4.2      2.641      4.553
REMARK  1 active torsions:
REMARK  status: ('A' for Active; 'I' for Inactive)
REMARK    1  A    between atoms: C7_7  and  C8_8 
ROOT
HETATM    1  C1  UNL     1     -34.853  17.233  -0.420  1.00 20.00     0.131 C 
HETATM    2  C2  UNL     1     -33.880  18.382  -0.517  1.00 20.00     0.104 C 
HETATM    3  C3  UNL     1     -35.148  16.513  -1.714  1.00 20.00     0.110 C 
HETATM    4  C6  UNL     1     -32.673  17.955  -1.337  1.00 20.00     0.175 C 
HETATM    5  C8  UNL     1     -33.838  16.217  -2.443  1.00 20.00     0.132 C 
HETATM    6  O9  UNL     1     -35.453  16.974   0.621  1.00 20.00    -0.298 OA
HETATM    7  O10 UNL     1     -33.082  17.425  -2.600  1.00 20.00    -0.385 OA
ENDROOT
BRANCH   5   8
HETATM    8  C7  UNL     1     -34.092  15.634  -3.802  1.00 20.00     0.015 A 
HETATM    9  C4  UNL     1     -33.232  14.515  -4.319  1.00 20.00     0.007 A 
HETATM   10  C5  UNL     1     -34.661  14.249  -3.938  1.00 20.00     0.007 A 
ENDBRANCH   5   8
TORSDOF 1
ENDMDL
MODEL 7
REMARK VINA RESULT:      -4.1      1.681      2.637
REMARK  1 active torsions:
REMARK  status: ('A' for Active; 'I' for Inactive)
REMARK    1  A    between atoms: C7_7  and  C8_8 
ROOT
HETATM    1  C1  UNL     1     -34.014  14.568  -4.208  1.00 20.00     0.131 C 
HETATM    2  C2  UNL     1     -35.306  14.417  -4.975  1.00 20.00     0.104 C 
HETATM    3  C3  UNL     1     -33.926  15.775  -3.304  1.00 20.00     0.110 C 
HETATM    4  C6  UNL     1     -36.481  14.641  -4.036  1.00 20.00     0.175 C 
HETATM    5  C8  UNL     1     -35.208  15.891  -2.481  1.00 20.00     0.132 C 
HETATM    6  O9  UNL     1     -33.056  13.821  -4.393  1.00 20.00    -0.298 OA
HETATM    7  O10 UNL     1     -36.349  15.887  -3.350  1.00 20.00    -0.385 OA
ENDROOT
BRANCH   5   8
HETATM    8  C7  UNL     1     -35.225  17.158  -1.678  1.00 20.00     0.015 A 
HETATM    9  C4  UNL     1     -35.310  17.104  -0.178  1.00 20.00     0.007 A 
HETATM   10  C5  UNL     1     -34.035  17.541  -0.842  1.00 20.00     0.007 A 
ENDBRANCH   5   8
TORSDOF 1
ENDMDL
MODEL 8
REMARK VINA RESULT:      -4.1      1.670      1.924
REMARK  1 active torsions:
REMARK  status: ('A' for Active; 'I' for Inactive)
REMARK    1  A    between atoms: C7_7  and  C8_8 
ROOT
HETATM    1  C1  UNL     1     -35.565  15.018  -3.423  1.00 20.00     0.131 C 
HETATM    2  C2  UNL     1     -34.670  14.022  -4.120  1.00 20.00     0.104 C 
HETATM    3  C3  UNL     1     -34.881  15.934  -2.436  1.00 20.00     0.110 C 
HETATM    4  C6  UNL     1     -33.417  14.726  -4.615  1.00 20.00     0.175 C 
HETATM    5  C8  UNL     1     -33.611  16.505  -3.065  1.00 20.00     0.132 C 
HETATM    6  O9  UNL     1     -36.786  15.008  -3.565  1.00 20.00    -0.298 OA
HETATM    7  O10 UNL     1     -32.784  15.438  -3.550  1.00 20.00    -0.385 OA
ENDROOT
BRANCH   5   8
HETATM    8  C7  UNL     1     -32.822  17.303  -2.069  1.00 20.00     0.015 A 
HETATM    9  C4  UNL     1     -32.601  18.774  -2.282  1.00 20.00     0.007 A 
HETATM   10  C5  UNL     1     -33.512  18.303  -1.184  1.00 20.00     0.007 A 
ENDBRANCH   5   8
TORSDOF 1
ENDMDL
MODEL 9
REMARK VINA RESULT:      -4.0      2.799      5.314
REMARK  1 active torsions:
REMARK  status: ('A' for Active; 'I' for Inactive)
REMARK    1  A    between atoms: C7_7  and  C8_8 
ROOT
HETATM    1  C1  UNL     1     -32.569  18.473  -1.694  1.00 20.00     0.131 C 
HETATM    2  C2  UNL     1     -33.103  18.759  -0.312  1.00 20.00     0.104 C 
HETATM    3  C3  UNL     1     -32.958  17.138  -2.283  1.00 20.00     0.110 C 
HETATM    4  C6  UNL     1     -34.580  18.405  -0.255  1.00 20.00     0.175 C 
HETATM    5  C8  UNL     1     -34.456  16.910  -2.085  1.00 20.00     0.132 C 
HETATM    6  O9  UNL     1     -31.779  19.228  -2.257  1.00 20.00    -0.298 OA
HETATM    7  O10 UNL     1     -34.796  17.065  -0.701  1.00 20.00    -0.385 OA
ENDROOT
BRANCH   5   8
HETATM    8  C7  UNL     1     -34.858  15.531  -2.522  1.00 20.00     0.015 A 
HETATM    9  C4  UNL     1     -35.746  15.346  -3.722  1.00 20.00     0.007 A 
HETATM   10  C5  UNL     1     -34.299  14.946  -3.789  1.00 20.00     0.007 A 
ENDBRANCH   5   8
TORSDOF 1
ENDMDL
