MODEL 1
REMARK VINA RESULT:      -5.5      0.000      0.000
REMARK  1 active torsions:
REMARK  status: ('A' for Active; 'I' for Inactive)
REMARK    1  A    between atoms: C2_2  and  C9_9 
ROOT
HETATM    1  C1  UNL     1     -33.386   6.985   4.364  1.00 20.00     0.053 C 
HETATM    2  C2  UNL     1     -33.064   6.644   3.107  1.00 20.00    -0.072 C 
HETATM    3  C3  UNL     1     -34.279   6.121   5.177  1.00 20.00     0.149 C 
HETATM    4  C4  UNL     1     -33.517   5.357   2.466  1.00 20.00     0.035 C 
HETATM    5  C5  UNL     1     -34.889   4.901   4.526  1.00 20.00     0.083 C 
HETATM    6  C6  UNL     1     -33.946   4.310   3.491  1.00 20.00     0.012 C 
HETATM    7  O10 UNL     1     -34.554   6.443   6.332  1.00 20.00    -0.293 OA
ENDROOT
BRANCH   2   8
HETATM    8  C9  UNL     1     -32.221   7.541   2.248  1.00 20.00     0.014 A 
HETATM    9  C7  UNL     1     -32.377   7.440   0.771  1.00 20.00     0.010 A 
HETATM   10  C8  UNL     1     -32.902   8.637   1.505  1.00 20.00     0.010 A 
ENDBRANCH   2   8
TORSDOF 1
ENDMDL
MODEL 2
REMARK VINA RESULT:      -4.9     10.942     11.924
REMARK  1 active torsions:
REMARK  status: ('A' for Active; 'I' for Inactive)
REMARK    1  A    between atoms: C2_2  and  C9_9 
ROOT
HETATM    1  C1  UNL     1     -34.600  14.358  -3.805  1.00 20.00     0.053 C 
HETATM    2  C2  UNL     1     -34.562  15.647  -3.435  1.00 20.00    -0.072 C 
HETATM    3  C3  UNL     1     -35.867  13.743  -4.275  1.00 20.00     0.149 C 
HETATM    4  C4  UNL     1     -35.756  16.562  -3.531  1.00 20.00     0.035 C 
HETATM    5  C5  UNL     1     -37.128  14.574  -4.238  1.00 20.00     0.083 C 
HETATM    6  C6  UNL     1     -36.819  16.040  -4.495  1.00 20.00     0.012 C 
HETATM    7  O10 UNL     1     -35.880  12.563  -4.622  1.00 20.00    -0.293 OA
ENDROOT
BRANCH   2   8
HETATM    8  C9  UNL     1     -33.307  16.265  -2.890  1.00 20.00     0.014 A 
HETATM    9  C7  UNL     1     -33.011  17.679  -3.253  1.00 20.00     0.010 A 
HETATM   10  C8  UNL     1     -33.444  17.331  -1.861  1.00 20.00     0.010 A 
ENDBRANCH   2   8
TORSDOF 1
ENDMDL
MODEL 3
REMARK VINA RESULT:      -4.8      1.272      2.082
REMARK  1 active torsions:
REMARK  status: ('A' for Active; 'I' for Inactive)
REMARK    1  A    between atoms: C2_2  and  C9_9 
ROOT
HETATM    1  C1  UNL     1     -33.913   5.802   3.445  1.00 20.00     0.053 C 
HETATM    2  C2  UNL     1     -33.077   6.816   3.720  1.00 20.00    -0.072 C 
HETATM    3  C3  UNL     1     -34.700   5.157   4.526  1.00 20.00     0.149 C 
HETATM    4  C4  UNL     1     -32.930   7.404   5.100  1.00 20.00     0.035 C 
HETATM    5  C5  UNL     1     -34.468   5.604   5.951  1.00 20.00     0.083 C 
HETATM    6  C6  UNL     1     -34.115   7.081   6.005  1.00 20.00     0.012 C 
HETATM    7  O10 UNL     1     -35.470   4.238   4.254  1.00 20.00    -0.293 OA
ENDROOT
BRANCH   2   8
HETATM    8  C9  UNL     1     -32.221   7.432   2.651  1.00 20.00     0.014 A 
HETATM    9  C7  UNL     1     -32.484   7.044   1.238  1.00 20.00     0.010 A 
HETATM   10  C8  UNL     1     -32.858   8.410   1.727  1.00 20.00     0.010 A 
ENDBRANCH   2   8
TORSDOF 1
ENDMDL
MODEL 4
REMARK VINA RESULT:      -4.7     10.940     12.197
REMARK  1 active torsions:
REMARK  status: ('A' for Active; 'I' for Inactive)
REMARK    1  A    between atoms: C2_2  and  C9_9 
ROOT
HETATM    1  C1  UNL     1     -34.588  14.397  -3.737  1.00 20.00     0.053 C 
HETATM    2  C2  UNL     1     -34.055  15.605  -3.975  1.00 20.00    -0.072 C 
HETATM    3  C3  UNL     1     -35.530  13.781  -4.706  1.00 20.00     0.149 C 
HETATM    4  C4  UNL     1     -34.312  16.378  -5.244  1.00 20.00     0.035 C 
HETATM    5  C5  UNL     1     -35.945  14.585  -5.917  1.00 20.00     0.083 C 
HETATM    6  C6  UNL     1     -34.816  15.491  -6.379  1.00 20.00     0.012 C 
HETATM    7  O10 UNL     1     -36.000  12.668  -4.477  1.00 20.00    -0.293 OA
ENDROOT
BRANCH   2   8
HETATM    8  C9  UNL     1     -33.158  16.272  -2.973  1.00 20.00     0.014 A 
HETATM    9  C7  UNL     1     -33.027  17.754  -3.031  1.00 20.00     0.010 A 
HETATM   10  C8  UNL     1     -33.791  17.107  -1.916  1.00 20.00     0.010 A 
ENDBRANCH   2   8
TORSDOF 1
ENDMDL
MODEL 5
REMARK VINA RESULT:      -4.7     11.468     12.189
REMARK  1 active torsions:
REMARK  status: ('A' for Active; 'I' for Inactive)
REMARK    1  A    between atoms: C2_2  and  C9_9 
ROOT
HETATM    1  C1  UNL     1     -32.962  16.796  -2.725  1.00 20.00     0.053 C 
HETATM    2  C2  UNL     1     -34.083  16.058  -2.718  1.00 20.00    -0.072 C 
HETATM    3  C3  UNL     1     -32.838  17.994  -1.857  1.00 20.00     0.149 C 
HETATM    4  C4  UNL     1     -35.244  16.343  -1.801  1.00 20.00     0.035 C 
HETATM    5  C5  UNL     1     -34.037  18.415  -1.037  1.00 20.00     0.083 C 
HETATM    6  C6  UNL     1     -34.850  17.206  -0.605  1.00 20.00     0.012 C 
HETATM    7  O10 UNL     1     -31.799  18.651  -1.867  1.00 20.00    -0.293 OA
ENDROOT
BRANCH   2   8
HETATM    8  C9  UNL     1     -34.251  14.886  -3.641  1.00 20.00     0.014 A 
HETATM    9  C7  UNL     1     -34.207  15.142  -5.107  1.00 20.00     0.010 A 
HETATM   10  C8  UNL     1     -33.067  14.444  -4.429  1.00 20.00     0.010 A 
ENDBRANCH   2   8
TORSDOF 1
ENDMDL
MODEL 6
REMARK VINA RESULT:      -4.6     11.071     11.799
REMARK  1 active torsions:
REMARK  status: ('A' for Active; 'I' for Inactive)
REMARK    1  A    between atoms: C2_2  and  C9_9 
ROOT
HETATM    1  C1  UNL     1     -35.539  14.864  -3.056  1.00 20.00     0.053 C 
HETATM    2  C2  UNL     1     -34.700  15.809  -2.605  1.00 20.00    -0.072 C 
HETATM    3  C3  UNL     1     -35.230  14.108  -4.296  1.00 20.00     0.149 C 
HETATM    4  C4  UNL     1     -33.382  16.118  -3.267  1.00 20.00     0.035 C 
HETATM    5  C5  UNL     1     -33.999  14.491  -5.086  1.00 20.00     0.083 C 
HETATM    6  C6  UNL     1     -32.895  14.983  -4.164  1.00 20.00     0.012 C 
HETATM    7  O10 UNL     1     -36.004  13.236  -4.688  1.00 20.00    -0.293 OA
ENDROOT
BRANCH   2   8
HETATM    8  C9  UNL     1     -35.032  16.632  -1.393  1.00 20.00     0.014 A 
HETATM    9  C7  UNL     1     -34.066  17.687  -0.981  1.00 20.00     0.010 A 
HETATM   10  C8  UNL     1     -35.379  18.065  -1.597  1.00 20.00     0.010 A 
ENDBRANCH   2   8
TORSDOF 1
ENDMDL
MODEL 7
REMARK VINA RESULT:      -4.6     11.167     12.078
REMARK  1 active torsions:
REMARK  status: ('A' for Active; 'I' for Inactive)
REMARK    1  A    between atoms: C2_2  and  C9_9 
ROOT
HETATM    1  C1  UNL     1     -33.047  15.945  -3.552  1.00 20.00     0.053 C 
HETATM    2  C2  UNL     1     -33.635  16.534  -2.499  1.00 20.00    -0.072 C 
HETATM    3  C3  UNL     1     -33.731  14.851  -4.287  1.00 20.00     0.149 C 
HETATM    4  C4  UNL     1     -35.027  16.185  -2.038  1.00 20.00     0.035 C 
HETATM    5  C5  UNL     1     -35.060  14.354  -3.765  1.00 20.00     0.083 C 
HETATM    6  C6  UNL     1     -35.845  15.484  -3.120  1.00 20.00     0.012 C 
HETATM    7  O10 UNL     1     -33.182  14.331  -5.256  1.00 20.00    -0.293 OA
ENDROOT
BRANCH   2   8
HETATM    8  C9  UNL     1     -32.928  17.593  -1.703  1.00 20.00     0.014 A 
HETATM    9  C7  UNL     1     -33.500  18.967  -1.707  1.00 20.00     0.010 A 
HETATM   10  C8  UNL     1     -33.601  18.111  -0.481  1.00 20.00     0.010 A 
ENDBRANCH   2   8
TORSDOF 1
ENDMDL
MODEL 8
REMARK VINA RESULT:      -4.6     16.001     16.635
REMARK  1 active torsions:
REMARK  status: ('A' for Active; 'I' for Inactive)
REMARK    1  A    between atoms: C2_2  and  C9_9 
ROOT
HETATM    1  C1  UNL     1     -24.984  18.808   9.271  1.00 20.00     0.053 C 
HETATM    2  C2  UNL     1     -24.606  18.401  10.492  1.00 20.00    -0.072 C 
HETATM    3  C3  UNL     1     -24.136  18.529   8.084  1.00 20.00     0.149 C 
HETATM    4  C4  UNL     1     -23.359  17.590  10.735  1.00 20.00     0.035 C 
HETATM    5  C5  UNL     1     -22.797  17.860   8.297  1.00 20.00     0.083 C 
HETATM    6  C6  UNL     1     -22.853  16.898   9.472  1.00 20.00     0.012 C 
HETATM    7  O10 UNL     1     -24.504  18.899   6.971  1.00 20.00    -0.293 OA
ENDROOT
BRANCH   2   8
HETATM    8  C9  UNL     1     -25.416  18.737  11.711  1.00 20.00     0.014 A 
HETATM    9  C7  UNL     1     -26.882  18.933  11.542  1.00 20.00     0.010 A 
HETATM   10  C8  UNL     1     -26.358  17.707  12.227  1.00 20.00     0.010 A 
ENDBRANCH   2   8
TORSDOF 1
ENDMDL
MODEL 9
REMARK VINA RESULT:      -4.6     11.168     11.843
REMARK  1 active torsions:
REMARK  status: ('A' for Active; 'I' for Inactive)
REMARK    1  A    between atoms: C2_2  and  C9_9 
ROOT
HETATM    1  C1  UNL     1     -35.211  16.129  -1.830  1.00 20.00     0.053 C 
HETATM    2  C2  UNL     1     -34.217  15.919  -2.707  1.00 20.00    -0.072 C 
HETATM    3  C3  UNL     1     -35.085  17.171  -0.780  1.00 20.00     0.149 C 
HETATM    4  C4  UNL     1     -32.960  16.750  -2.734  1.00 20.00     0.035 C 
HETATM    5  C5  UNL     1     -33.779  17.923  -0.663  1.00 20.00     0.083 C 
HETATM    6  C6  UNL     1     -33.128  18.092  -2.026  1.00 20.00     0.012 C 
HETATM    7  O10 UNL     1     -36.011  17.358   0.008  1.00 20.00    -0.293 OA
ENDROOT
BRANCH   2   8
HETATM    8  C9  UNL     1     -34.299  14.823  -3.730  1.00 20.00     0.014 A 
HETATM    9  C7  UNL     1     -34.136  15.192  -5.163  1.00 20.00     0.010 A 
HETATM   10  C8  UNL     1     -33.051  14.445  -4.447  1.00 20.00     0.010 A 
ENDBRANCH   2   8
TORSDOF 1
ENDMDL
