MODEL 1
REMARK VINA RESULT:      -4.3      0.000      0.000
REMARK  2 active torsions:
REMARK  status: ('A' for Active; 'I' for Inactive)
REMARK    1  A    between atoms: C7_7  and  C8_8 
REMARK    2  A    between atoms: C9_9  and  O10_10 
ROOT
HETATM    1  C1  UNL     1     -35.327  13.987  -4.080  1.00 20.00     0.003 C 
HETATM    2  C2  UNL     1     -35.140  15.183  -3.151  1.00 20.00     0.005 C 
HETATM    3  C5  UNL     1     -35.524  14.426  -5.531  1.00 20.00     0.032 C 
HETATM    4  C6  UNL     1     -34.200  16.531  -5.071  1.00 20.00     0.036 C 
HETATM    5  C8  UNL     1     -33.992  16.089  -3.614  1.00 20.00    -0.008 C 
HETATM    6  C9  UNL     1     -34.401  15.342  -6.013  1.00 20.00     0.118 C 
ENDROOT
BRANCH   5   7
HETATM    7  C7  UNL     1     -33.860  17.304  -2.697  1.00 20.00    -0.010 A 
HETATM    8  C3  UNL     1     -32.603  17.518  -1.900  1.00 20.00     0.005 A 
HETATM    9  C4  UNL     1     -32.925  18.424  -3.054  1.00 20.00     0.005 A 
ENDBRANCH   5   7
BRANCH   6  10
HETATM   10  O10 UNL     1     -33.197  14.584  -6.100  1.00 20.00    -0.396 OA
HETATM   11  H26 UNL     1     -32.599  14.939  -5.425  1.00 20.00     0.210 HD
ENDBRANCH   6  10
TORSDOF 2
ENDMDL
MODEL 2
REMARK VINA RESULT:      -4.2     11.221     12.530
REMARK  2 active torsions:
REMARK  status: ('A' for Active; 'I' for Inactive)
REMARK    1  A    between atoms: C7_7  and  C8_8 
REMARK    2  A    between atoms: C9_9  and  O10_10 
ROOT
HETATM    1  C1  UNL     1     -33.847   3.917   3.109  1.00 20.00     0.003 C 
HETATM    2  C2  UNL     1     -32.897   4.971   2.547  1.00 20.00     0.005 C 
HETATM    3  C5  UNL     1     -34.199   4.196   4.570  1.00 20.00     0.032 C 
HETATM    4  C6  UNL     1     -33.805   6.666   4.189  1.00 20.00     0.036 C 
HETATM    5  C8  UNL     1     -33.458   6.390   2.718  1.00 20.00    -0.008 C 
HETATM    6  C9  UNL     1     -34.747   5.609   4.770  1.00 20.00     0.118 C 
ENDROOT
BRANCH   5   7
HETATM    7  C7  UNL     1     -32.467   7.427   2.194  1.00 20.00    -0.010 A 
HETATM    8  C3  UNL     1     -32.299   7.636   0.714  1.00 20.00     0.005 A 
HETATM    9  C4  UNL     1     -32.964   8.692   1.551  1.00 20.00     0.005 A 
ENDBRANCH   5   7
BRANCH   6  10
HETATM   10  O10 UNL     1     -36.023   5.699   4.140  1.00 20.00    -0.396 OA
HETATM   11  H26 UNL     1     -36.116   4.905   3.592  1.00 20.00     0.210 HD
ENDBRANCH   6  10
TORSDOF 2
ENDMDL
MODEL 3
REMARK VINA RESULT:      -4.1      1.663      2.317
REMARK  2 active torsions:
REMARK  status: ('A' for Active; 'I' for Inactive)
REMARK    1  A    between atoms: C7_7  and  C8_8 
REMARK    2  A    between atoms: C9_9  and  O10_10 
ROOT
HETATM    1  C1  UNL     1     -33.799  14.736  -4.745  1.00 20.00     0.003 C 
HETATM    2  C2  UNL     1     -32.918  15.497  -3.758  1.00 20.00     0.005 C 
HETATM    3  C5  UNL     1     -35.032  14.145  -4.060  1.00 20.00     0.032 C 
HETATM    4  C6  UNL     1     -34.942  15.979  -2.321  1.00 20.00     0.036 C 
HETATM    5  C8  UNL     1     -33.708  16.581  -3.011  1.00 20.00    -0.008 C 
HETATM    6  C9  UNL     1     -35.828  15.201  -3.296  1.00 20.00     0.118 C 
ENDROOT
BRANCH   5   7
HETATM    7  C7  UNL     1     -32.816  17.292  -1.994  1.00 20.00    -0.010 A 
HETATM    8  C3  UNL     1     -32.574  18.773  -2.104  1.00 20.00     0.005 A 
HETATM    9  C4  UNL     1     -33.418  18.230  -0.985  1.00 20.00     0.005 A 
ENDBRANCH   5   7
BRANCH   6  10
HETATM   10  O10 UNL     1     -36.418  16.098  -4.235  1.00 20.00    -0.396 OA
HETATM   11  H26 UNL     1     -37.290  16.331  -3.881  1.00 20.00     0.210 HD
ENDBRANCH   6  10
TORSDOF 2
ENDMDL
MODEL 4
REMARK VINA RESULT:      -4.0      2.290      4.260
REMARK  2 active torsions:
REMARK  status: ('A' for Active; 'I' for Inactive)
REMARK    1  A    between atoms: C7_7  and  C8_8 
REMARK    2  A    between atoms: C9_9  and  O10_10 
ROOT
HETATM    1  C1  UNL     1     -35.099  17.636  -0.842  1.00 20.00     0.003 C 
HETATM    2  C2  UNL     1     -35.128  16.285  -1.552  1.00 20.00     0.005 C 
HETATM    3  C5  UNL     1     -33.667  18.120  -0.609  1.00 20.00     0.032 C 
HETATM    4  C6  UNL     1     -32.896  16.798  -2.623  1.00 20.00     0.036 C 
HETATM    5  C8  UNL     1     -34.335  16.316  -2.866  1.00 20.00    -0.008 C 
HETATM    6  C9  UNL     1     -32.851  18.146  -1.900  1.00 20.00     0.118 C 
ENDROOT
BRANCH   5   7
HETATM    7  C7  UNL     1     -34.338  14.940  -3.529  1.00 20.00    -0.010 A 
HETATM    8  C3  UNL     1     -34.596  14.811  -5.005  1.00 20.00     0.005 A 
HETATM    9  C4  UNL     1     -33.223  14.545  -4.456  1.00 20.00     0.005 A 
ENDBRANCH   5   7
BRANCH   6  10
HETATM   10  O10 UNL     1     -33.369  19.168  -2.749  1.00 20.00    -0.396 OA
HETATM   11  H26 UNL     1     -33.884  19.761  -2.182  1.00 20.00     0.210 HD
ENDBRANCH   6  10
TORSDOF 2
ENDMDL
MODEL 5
REMARK VINA RESULT:      -4.0      1.940      2.642
REMARK  2 active torsions:
REMARK  status: ('A' for Active; 'I' for Inactive)
REMARK    1  A    between atoms: C7_7  and  C8_8 
REMARK    2  A    between atoms: C9_9  and  O10_10 
ROOT
HETATM    1  C1  UNL     1     -36.127  15.992  -5.827  1.00 20.00     0.003 C 
HETATM    2  C2  UNL     1     -35.249  16.479  -4.678  1.00 20.00     0.005 C 
HETATM    3  C5  UNL     1     -35.928  14.500  -6.095  1.00 20.00     0.032 C 
HETATM    4  C6  UNL     1     -35.265  14.158  -3.678  1.00 20.00     0.036 C 
HETATM    5  C8  UNL     1     -35.472  15.655  -3.403  1.00 20.00    -0.008 C 
HETATM    6  C9  UNL     1     -36.130  13.657  -4.837  1.00 20.00     0.118 C 
ENDROOT
BRANCH   5   7
HETATM    7  C7  UNL     1     -34.545  16.130  -2.285  1.00 20.00    -0.010 A 
HETATM    8  C3  UNL     1     -34.408  17.598  -1.988  1.00 20.00     0.005 A 
HETATM    9  C4  UNL     1     -35.118  16.699  -1.017  1.00 20.00     0.005 A 
ENDBRANCH   5   7
BRANCH   6  10
HETATM   10  O10 UNL     1     -37.507  13.705  -4.469  1.00 20.00    -0.396 OA
HETATM   11  H26 UNL     1     -37.531  13.866  -3.513  1.00 20.00     0.210 HD
ENDBRANCH   6  10
TORSDOF 2
ENDMDL
MODEL 6
REMARK VINA RESULT:      -3.9      2.429      4.517
REMARK  2 active torsions:
REMARK  status: ('A' for Active; 'I' for Inactive)
REMARK    1  A    between atoms: C7_7  and  C8_8 
REMARK    2  A    between atoms: C9_9  and  O10_10 
ROOT
HETATM    1  C1  UNL     1     -33.068  17.252  -1.976  1.00 20.00     0.003 C 
HETATM    2  C2  UNL     1     -33.310  16.308  -3.151  1.00 20.00     0.005 C 
HETATM    3  C5  UNL     1     -34.251  18.197  -1.759  1.00 20.00     0.032 C 
HETATM    4  C6  UNL     1     -35.804  16.480  -2.778  1.00 20.00     0.036 C 
HETATM    5  C8  UNL     1     -34.619  15.525  -2.990  1.00 20.00    -0.008 C 
HETATM    6  C9  UNL     1     -35.570  17.441  -1.611  1.00 20.00     0.118 C 
ENDROOT
BRANCH   5   7
HETATM    7  C7  UNL     1     -34.861  14.627  -4.202  1.00 20.00    -0.010 A 
HETATM    8  C3  UNL     1     -34.999  13.139  -4.028  1.00 20.00     0.005 A 
HETATM    9  C4  UNL     1     -36.197  13.966  -4.400  1.00 20.00     0.005 A 
ENDBRANCH   5   7
BRANCH   6  10
HETATM   10  O10 UNL     1     -35.549  16.716  -0.383  1.00 20.00    -0.396 OA
HETATM   11  H26 UNL     1     -35.010  15.926  -0.540  1.00 20.00     0.210 HD
ENDBRANCH   6  10
TORSDOF 2
ENDMDL
MODEL 7
REMARK VINA RESULT:      -3.9      3.003      5.068
REMARK  2 active torsions:
REMARK  status: ('A' for Active; 'I' for Inactive)
REMARK    1  A    between atoms: C7_7  and  C8_8 
REMARK    2  A    between atoms: C9_9  and  O10_10 
ROOT
HETATM    1  C1  UNL     1     -33.068  18.056  -0.489  1.00 20.00     0.003 C 
HETATM    2  C2  UNL     1     -33.275  17.457  -1.877  1.00 20.00     0.005 C 
HETATM    3  C5  UNL     1     -34.325  18.769   0.011  1.00 20.00     0.032 C 
HETATM    4  C6  UNL     1     -35.752  17.248  -1.421  1.00 20.00     0.036 C 
HETATM    5  C8  UNL     1     -34.492  16.524  -1.919  1.00 20.00    -0.008 C 
HETATM    6  C9  UNL     1     -35.555  17.865  -0.034  1.00 20.00     0.118 C 
ENDROOT
BRANCH   5   7
HETATM    7  C7  UNL     1     -34.706  15.980  -3.330  1.00 20.00    -0.010 A 
HETATM    8  C3  UNL     1     -34.467  14.525  -3.625  1.00 20.00     0.005 A 
HETATM    9  C4  UNL     1     -35.867  15.071  -3.623  1.00 20.00     0.005 A 
ENDBRANCH   5   7
BRANCH   6  10
HETATM   10  O10 UNL     1     -35.401  16.832   0.938  1.00 20.00    -0.396 OA
HETATM   11  H26 UNL     1     -34.582  17.026   1.417  1.00 20.00     0.210 HD
ENDBRANCH   6  10
TORSDOF 2
ENDMDL
MODEL 8
REMARK VINA RESULT:      -3.9      1.730      2.620
REMARK  2 active torsions:
REMARK  status: ('A' for Active; 'I' for Inactive)
REMARK    1  A    between atoms: C7_7  and  C8_8 
REMARK    2  A    between atoms: C9_9  and  O10_10 
ROOT
HETATM    1  C1  UNL     1     -35.156  15.867  -2.274  1.00 20.00     0.003 C 
HETATM    2  C2  UNL     1     -34.719  16.996  -1.345  1.00 20.00     0.005 C 
HETATM    3  C5  UNL     1     -34.962  16.239  -3.744  1.00 20.00     0.032 C 
HETATM    4  C6  UNL     1     -33.085  17.806  -3.095  1.00 20.00     0.036 C 
HETATM    5  C8  UNL     1     -33.272  17.428  -1.618  1.00 20.00    -0.008 C 
HETATM    6  C9  UNL     1     -33.532  16.688  -4.039  1.00 20.00     0.118 C 
ENDROOT
BRANCH   5   7
HETATM    7  C7  UNL     1     -32.878  18.592  -0.710  1.00 20.00    -0.010 A 
HETATM    8  C3  UNL     1     -32.221  18.329   0.617  1.00 20.00     0.005 A 
HETATM    9  C4  UNL     1     -31.429  18.935  -0.506  1.00 20.00     0.005 A 
ENDBRANCH   5   7
BRANCH   6  10
HETATM   10  O10 UNL     1     -32.662  15.566  -3.906  1.00 20.00    -0.396 OA
HETATM   11  H26 UNL     1     -32.605  15.157  -4.783  1.00 20.00     0.210 HD
ENDBRANCH   6  10
TORSDOF 2
ENDMDL
MODEL 9
REMARK VINA RESULT:      -3.8     11.508     12.763
REMARK  2 active torsions:
REMARK  status: ('A' for Active; 'I' for Inactive)
REMARK    1  A    between atoms: C7_7  and  C8_8 
REMARK    2  A    between atoms: C9_9  and  O10_10 
ROOT
HETATM    1  C1  UNL     1     -33.914   6.208   6.020  1.00 20.00     0.003 C 
HETATM    2  C2  UNL     1     -33.268   7.192   5.048  1.00 20.00     0.005 C 
HETATM    3  C5  UNL     1     -35.175   5.577   5.429  1.00 20.00     0.032 C 
HETATM    4  C6  UNL     1     -34.247   5.912   3.100  1.00 20.00     0.036 C 
HETATM    5  C8  UNL     1     -32.974   6.539   3.690  1.00 20.00    -0.008 C 
HETATM    6  C9  UNL     1     -34.913   4.933   4.069  1.00 20.00     0.118 C 
ENDROOT
BRANCH   5   7
HETATM    7  C7  UNL     1     -32.376   7.557   2.721  1.00 20.00    -0.010 A 
HETATM    8  C3  UNL     1     -32.125   7.181   1.287  1.00 20.00     0.005 A 
HETATM    9  C4  UNL     1     -33.222   8.149   1.628  1.00 20.00     0.005 A 
ENDBRANCH   5   7
BRANCH   6  10
HETATM   10  O10 UNL     1     -34.077   3.792   4.256  1.00 20.00    -0.396 OA
HETATM   11  H26 UNL     1     -33.721   3.857   5.155  1.00 20.00     0.210 HD
ENDBRANCH   6  10
TORSDOF 2
ENDMDL
