MODEL 1
REMARK VINA RESULT:      -4.6      0.000      0.000
REMARK  2 active torsions:
REMARK  status: ('A' for Active; 'I' for Inactive)
REMARK    1  A    between atoms: C4_4  and  O10_10 
REMARK    2  A    between atoms: C5_5  and  C8_8 
ROOT
HETATM    1  C1  UNL     1     -24.083  16.239  11.000  1.00 20.00     0.040 A 
HETATM    2  C2  UNL     1     -25.097  16.893  11.692  1.00 20.00     0.030 A 
HETATM    3  C3  UNL     1     -23.989  18.083   9.500  1.00 20.00     0.153 A 
HETATM    4  C4  UNL     1     -23.513  16.840   9.883  1.00 20.00     0.083 A 
HETATM    5  C5  UNL     1     -25.503  18.134  11.228  1.00 20.00     0.038 A 
HETATM    6  N9  UNL     1     -24.974  18.748  10.146  1.00 20.00    -0.262 NA
ENDROOT
BRANCH   5   7
HETATM    7  C8  UNL     1     -26.590  18.853  11.953  1.00 20.00     0.038 A 
HETATM    8  C6  UNL     1     -27.838  18.100  12.332  1.00 20.00     0.011 A 
HETATM    9  C7  UNL     1     -27.890  19.124  11.242  1.00 20.00     0.011 A 
ENDBRANCH   5   7
BRANCH   4  10
HETATM   10  O10 UNL     1     -22.522  16.227   9.190  1.00 20.00    -0.359 OA
HETATM   11  H19 UNL     1     -22.491  15.278   9.404  1.00 20.00     0.217 HD
ENDBRANCH   4  10
TORSDOF 2
ENDMDL
MODEL 2
REMARK VINA RESULT:      -4.5      0.883      1.545
REMARK  2 active torsions:
REMARK  status: ('A' for Active; 'I' for Inactive)
REMARK    1  A    between atoms: C4_4  and  O10_10 
REMARK    2  A    between atoms: C5_5  and  C8_8 
ROOT
HETATM    1  C1  UNL     1     -23.721  18.205   9.281  1.00 20.00     0.040 A 
HETATM    2  C2  UNL     1     -24.714  18.882   9.980  1.00 20.00     0.030 A 
HETATM    3  C3  UNL     1     -23.929  16.411  10.828  1.00 20.00     0.153 A 
HETATM    4  C4  UNL     1     -23.316  16.945   9.707  1.00 20.00     0.083 A 
HETATM    5  C5  UNL     1     -25.264  18.262  11.089  1.00 20.00     0.038 A 
HETATM    6  N9  UNL     1     -24.896  17.039  11.534  1.00 20.00    -0.262 NA
ENDROOT
BRANCH   5   7
HETATM    7  C8  UNL     1     -26.330  18.970  11.855  1.00 20.00     0.038 A 
HETATM    8  C6  UNL     1     -27.542  18.198  12.306  1.00 20.00     0.011 A 
HETATM    9  C7  UNL     1     -27.669  19.201  11.204  1.00 20.00     0.011 A 
ENDBRANCH   5   7
BRANCH   4  10
HETATM   10  O10 UNL     1     -22.351  16.260   9.044  1.00 20.00    -0.359 OA
HETATM   11  H19 UNL     1     -22.225  15.380   9.439  1.00 20.00     0.217 HD
ENDBRANCH   4  10
TORSDOF 2
ENDMDL
MODEL 3
REMARK VINA RESULT:      -4.5     16.073     16.475
REMARK  2 active torsions:
REMARK  status: ('A' for Active; 'I' for Inactive)
REMARK    1  A    between atoms: C4_4  and  O10_10 
REMARK    2  A    between atoms: C5_5  and  C8_8 
ROOT
HETATM    1  C1  UNL     1     -34.108   4.550   3.388  1.00 20.00     0.040 A 
HETATM    2  C2  UNL     1     -33.325   5.275   2.497  1.00 20.00     0.030 A 
HETATM    3  C3  UNL     1     -34.237   6.485   4.766  1.00 20.00     0.153 A 
HETATM    4  C4  UNL     1     -34.577   5.160   4.547  1.00 20.00     0.083 A 
HETATM    5  C5  UNL     1     -33.041   6.595   2.807  1.00 20.00     0.038 A 
HETATM    6  N9  UNL     1     -33.478   7.221   3.924  1.00 20.00    -0.262 NA
ENDROOT
BRANCH   5   7
HETATM    7  C8  UNL     1     -32.202   7.392   1.866  1.00 20.00     0.038 A 
HETATM    8  C6  UNL     1     -32.636   8.787   1.503  1.00 20.00     0.011 A 
HETATM    9  C7  UNL     1     -32.732   7.692   0.488  1.00 20.00     0.011 A 
ENDBRANCH   5   7
BRANCH   4  10
HETATM   10  O10 UNL     1     -35.344   4.478   5.434  1.00 20.00    -0.359 OA
HETATM   11  H19 UNL     1     -36.284   4.692   5.306  1.00 20.00     0.217 HD
ENDBRANCH   4  10
TORSDOF 2
ENDMDL
MODEL 4
REMARK VINA RESULT:      -4.5      1.342      1.908
REMARK  2 active torsions:
REMARK  status: ('A' for Active; 'I' for Inactive)
REMARK    1  A    between atoms: C4_4  and  O10_10 
REMARK    2  A    between atoms: C5_5  and  C8_8 
ROOT
HETATM    1  C1  UNL     1     -22.687  16.964   9.238  1.00 20.00     0.040 A 
HETATM    2  C2  UNL     1     -23.365  17.027  10.451  1.00 20.00     0.030 A 
HETATM    3  C3  UNL     1     -23.880  18.898   8.533  1.00 20.00     0.153 A 
HETATM    4  C4  UNL     1     -22.945  17.915   8.256  1.00 20.00     0.083 A 
HETATM    5  C5  UNL     1     -24.282  18.050  10.630  1.00 20.00     0.038 A 
HETATM    6  N9  UNL     1     -24.559  18.990   9.698  1.00 20.00    -0.262 NA
ENDROOT
BRANCH   5   7
HETATM    7  C8  UNL     1     -25.021  18.135  11.922  1.00 20.00     0.038 A 
HETATM    8  C6  UNL     1     -25.912  16.993  12.332  1.00 20.00     0.011 A 
HETATM    9  C7  UNL     1     -26.519  18.290  11.900  1.00 20.00     0.011 A 
ENDBRANCH   5   7
BRANCH   4  10
HETATM   10  O10 UNL     1     -22.298  17.880   7.064  1.00 20.00    -0.359 OA
HETATM   11  H19 UNL     1     -21.356  18.093   7.180  1.00 20.00     0.217 HD
ENDBRANCH   4  10
TORSDOF 2
ENDMDL
MODEL 5
REMARK VINA RESULT:      -4.5     15.984     16.384
REMARK  2 active torsions:
REMARK  status: ('A' for Active; 'I' for Inactive)
REMARK    1  A    between atoms: C4_4  and  O10_10 
REMARK    2  A    between atoms: C5_5  and  C8_8 
ROOT
HETATM    1  C1  UNL     1     -34.187   6.516   5.051  1.00 20.00     0.040 A 
HETATM    2  C2  UNL     1     -33.386   7.262   4.192  1.00 20.00     0.030 A 
HETATM    3  C3  UNL     1     -34.192   4.765   3.442  1.00 20.00     0.153 A 
HETATM    4  C4  UNL     1     -34.601   5.243   4.676  1.00 20.00     0.083 A 
HETATM    5  C5  UNL     1     -33.031   6.694   2.980  1.00 20.00     0.038 A 
HETATM    6  N9  UNL     1     -33.415   5.460   2.580  1.00 20.00    -0.262 NA
ENDROOT
BRANCH   5   7
HETATM    7  C8  UNL     1     -32.174   7.475   2.042  1.00 20.00     0.038 A 
HETATM    8  C6  UNL     1     -32.687   8.784   1.502  1.00 20.00     0.011 A 
HETATM    9  C7  UNL     1     -32.589   7.596   0.599  1.00 20.00     0.011 A 
ENDBRANCH   5   7
BRANCH   4  10
HETATM   10  O10 UNL     1     -35.380   4.493   5.493  1.00 20.00    -0.359 OA
HETATM   11  H19 UNL     1     -35.813   3.780   4.993  1.00 20.00     0.217 HD
ENDBRANCH   4  10
TORSDOF 2
ENDMDL
MODEL 6
REMARK VINA RESULT:      -4.4     17.296     18.012
REMARK  2 active torsions:
REMARK  status: ('A' for Active; 'I' for Inactive)
REMARK    1  A    between atoms: C4_4  and  O10_10 
REMARK    2  A    between atoms: C5_5  and  C8_8 
ROOT
HETATM    1  C1  UNL     1     -35.772  13.691  -4.313  1.00 20.00     0.040 A 
HETATM    2  C2  UNL     1     -34.562  14.263  -3.936  1.00 20.00     0.030 A 
HETATM    3  C3  UNL     1     -36.867  15.692  -3.638  1.00 20.00     0.153 A 
HETATM    4  C4  UNL     1     -36.951  14.413  -4.164  1.00 20.00     0.083 A 
HETATM    5  C5  UNL     1     -34.585  15.548  -3.419  1.00 20.00     0.038 A 
HETATM    6  N9  UNL     1     -35.710  16.280  -3.259  1.00 20.00    -0.262 NA
ENDROOT
BRANCH   5   7
HETATM    7  C8  UNL     1     -33.298  16.181  -3.006  1.00 20.00     0.038 A 
HETATM    8  C6  UNL     1     -33.323  17.293  -1.992  1.00 20.00     0.011 A 
HETATM    9  C7  UNL     1     -33.014  17.600  -3.423  1.00 20.00     0.011 A 
ENDBRANCH   5   7
BRANCH   4  10
HETATM   10  O10 UNL     1     -38.145  13.882  -4.525  1.00 20.00    -0.359 OA
HETATM   11  H19 UNL     1     -38.773  13.918  -3.783  1.00 20.00     0.217 HD
ENDBRANCH   4  10
TORSDOF 2
ENDMDL
MODEL 7
REMARK VINA RESULT:      -4.4     16.649     17.318
REMARK  2 active torsions:
REMARK  status: ('A' for Active; 'I' for Inactive)
REMARK    1  A    between atoms: C4_4  and  O10_10 
REMARK    2  A    between atoms: C5_5  and  C8_8 
ROOT
HETATM    1  C1  UNL     1     -34.155  14.167  -4.042  1.00 20.00     0.040 A 
HETATM    2  C2  UNL     1     -33.696  15.364  -3.502  1.00 20.00     0.030 A 
HETATM    3  C3  UNL     1     -36.382  14.947  -3.743  1.00 20.00     0.153 A 
HETATM    4  C4  UNL     1     -35.522  13.948  -4.168  1.00 20.00     0.083 A 
HETATM    5  C5  UNL     1     -34.638  16.300  -3.106  1.00 20.00     0.038 A 
HETATM    6  N9  UNL     1     -35.974  16.122  -3.213  1.00 20.00    -0.262 NA
ENDROOT
BRANCH   5   7
HETATM    7  C8  UNL     1     -34.169  17.590  -2.524  1.00 20.00     0.038 A 
HETATM    8  C6  UNL     1     -32.787  17.664  -1.929  1.00 20.00     0.011 A 
HETATM    9  C7  UNL     1     -33.984  17.696  -1.032  1.00 20.00     0.011 A 
ENDBRANCH   5   7
BRANCH   4  10
HETATM   10  O10 UNL     1     -35.998  12.791  -4.692  1.00 20.00    -0.359 OA
HETATM   11  H19 UNL     1     -35.270  12.172  -4.871  1.00 20.00     0.217 HD
ENDBRANCH   4  10
TORSDOF 2
ENDMDL
MODEL 8
REMARK VINA RESULT:      -4.3     17.579     18.199
REMARK  2 active torsions:
REMARK  status: ('A' for Active; 'I' for Inactive)
REMARK    1  A    between atoms: C4_4  and  O10_10 
REMARK    2  A    between atoms: C5_5  and  C8_8 
ROOT
HETATM    1  C1  UNL     1     -36.289  14.276  -4.785  1.00 20.00     0.040 A 
HETATM    2  C2  UNL     1     -35.832  14.827  -3.593  1.00 20.00     0.030 A 
HETATM    3  C3  UNL     1     -34.344  15.123  -5.861  1.00 20.00     0.153 A 
HETATM    4  C4  UNL     1     -35.535  14.422  -5.945  1.00 20.00     0.083 A 
HETATM    5  C5  UNL     1     -34.627  15.511  -3.614  1.00 20.00     0.038 A 
HETATM    6  N9  UNL     1     -33.869  15.674  -4.722  1.00 20.00    -0.262 NA
ENDROOT
BRANCH   5   7
HETATM    7  C8  UNL     1     -34.118  16.112  -2.347  1.00 20.00     0.038 A 
HETATM    8  C6  UNL     1     -35.107  16.617  -1.330  1.00 20.00     0.011 A 
HETATM    9  C7  UNL     1     -34.289  17.591  -2.118  1.00 20.00     0.011 A 
ENDBRANCH   5   7
BRANCH   4  10
HETATM   10  O10 UNL     1     -35.955  13.893  -7.121  1.00 20.00    -0.359 OA
HETATM   11  H19 UNL     1     -36.316  14.588  -7.699  1.00 20.00     0.217 HD
ENDBRANCH   4  10
TORSDOF 2
ENDMDL
MODEL 9
REMARK VINA RESULT:      -4.3     16.478     17.123
REMARK  2 active torsions:
REMARK  status: ('A' for Active; 'I' for Inactive)
REMARK    1  A    between atoms: C4_4  and  O10_10 
REMARK    2  A    between atoms: C5_5  and  C8_8 
ROOT
HETATM    1  C1  UNL     1     -35.720  14.807  -3.173  1.00 20.00     0.040 A 
HETATM    2  C2  UNL     1     -34.989  15.862  -2.637  1.00 20.00     0.030 A 
HETATM    3  C3  UNL     1     -33.792  14.170  -4.411  1.00 20.00     0.153 A 
HETATM    4  C4  UNL     1     -35.116  13.941  -4.077  1.00 20.00     0.083 A 
HETATM    5  C5  UNL     1     -33.670  16.006  -3.035  1.00 20.00     0.038 A 
HETATM    6  N9  UNL     1     -33.050  15.184  -3.912  1.00 20.00    -0.262 NA
ENDROOT
BRANCH   5   7
HETATM    7  C8  UNL     1     -32.867  17.131  -2.474  1.00 20.00     0.038 A 
HETATM    8  C6  UNL     1     -33.584  18.307  -1.865  1.00 20.00     0.011 A 
HETATM    9  C7  UNL     1     -32.882  18.463  -3.177  1.00 20.00     0.011 A 
ENDBRANCH   5   7
BRANCH   4  10
HETATM   10  O10 UNL     1     -35.804  12.903  -4.615  1.00 20.00    -0.359 OA
HETATM   11  H19 UNL     1     -36.029  13.086  -5.543  1.00 20.00     0.217 HD
ENDBRANCH   4  10
TORSDOF 2
ENDMDL
