MODEL 1
REMARK VINA RESULT:      -4.5      0.000      0.000
REMARK  0 active torsions:
REMARK  status: ('A' for Active; 'I' for Inactive)
ROOT
HETATM    1  C1  UNL     1     -23.459  18.319  12.332  1.00 20.00     0.005 C 
HETATM    2  C2  UNL     1     -25.179  16.655  11.618  1.00 20.00     0.005 C 
HETATM    3  C3  UNL     1     -22.479  17.758  11.288  1.00 20.00     0.008 C 
HETATM    4  C4  UNL     1     -24.203  16.087  10.571  1.00 20.00     0.008 C 
HETATM    5  C5  UNL     1     -25.076  18.904  10.503  1.00 20.00     0.045 C 
HETATM    6  C6  UNL     1     -24.343  18.433   8.028  1.00 20.00     0.207 A 
HETATM    7  C7  UNL     1     -24.912  18.157  11.846  1.00 20.00    -0.012 C 
HETATM    8  C8  UNL     1     -23.252  17.195  10.081  1.00 20.00     0.022 C 
HETATM    9  C9  UNL     1     -24.109  18.304   9.514  1.00 20.00     0.086 A 
HETATM   10  O10 UNL     1     -23.398  19.262   8.717  1.00 20.00    -0.375 OA
ENDROOT
TORSDOF 0
ENDMDL
MODEL 2
REMARK VINA RESULT:      -4.4     16.976     18.349
REMARK  0 active torsions:
REMARK  status: ('A' for Active; 'I' for Inactive)
ROOT
HETATM    1  C1  UNL     1     -34.927  15.777  -2.430  1.00 20.00     0.005 C 
HETATM    2  C2  UNL     1     -33.297  17.391  -3.414  1.00 20.00     0.005 C 
HETATM    3  C3  UNL     1     -35.938  16.117  -3.538  1.00 20.00     0.008 C 
HETATM    4  C4  UNL     1     -34.303  17.739  -4.526  1.00 20.00     0.008 C 
HETATM    5  C5  UNL     1     -33.289  14.993  -4.162  1.00 20.00     0.045 C 
HETATM    6  C6  UNL     1     -34.052  15.033  -6.672  1.00 20.00     0.207 A 
HETATM    7  C7  UNL     1     -33.486  15.932  -2.950  1.00 20.00    -0.012 C 
HETATM    8  C8  UNL     1     -35.198  16.522  -4.827  1.00 20.00     0.022 C 
HETATM    9  C9  UNL     1     -34.287  15.382  -5.222  1.00 20.00     0.086 A 
HETATM   10  O10 UNL     1     -34.951  14.276  -5.851  1.00 20.00    -0.375 OA
ENDROOT
TORSDOF 0
ENDMDL
MODEL 3
REMARK VINA RESULT:      -4.4      1.362      2.294
REMARK  0 active torsions:
REMARK  status: ('A' for Active; 'I' for Inactive)
ROOT
HETATM    1  C1  UNL     1     -23.732  16.132  12.279  1.00 20.00     0.005 C 
HETATM    2  C2  UNL     1     -24.254  18.570  12.142  1.00 20.00     0.005 C 
HETATM    3  C3  UNL     1     -24.511  15.889  10.976  1.00 20.00     0.008 C 
HETATM    4  C4  UNL     1     -25.038  18.334  10.838  1.00 20.00     0.008 C 
HETATM    5  C5  UNL     1     -22.172  17.675  11.059  1.00 20.00     0.045 C 
HETATM    6  C6  UNL     1     -22.528  17.983   8.478  1.00 20.00     0.207 A 
HETATM    7  C7  UNL     1     -23.112  17.543  12.279  1.00 20.00    -0.012 C 
HETATM    8  C8  UNL     1     -24.444  17.136  10.075  1.00 20.00     0.022 C 
HETATM    9  C9  UNL     1     -22.988  17.447   9.814  1.00 20.00     0.086 A 
HETATM   10  O10 UNL     1     -22.362  16.604   8.835  1.00 20.00    -0.375 OA
ENDROOT
TORSDOF 0
ENDMDL
MODEL 4
REMARK VINA RESULT:      -4.3     16.729     18.350
REMARK  0 active torsions:
REMARK  status: ('A' for Active; 'I' for Inactive)
ROOT
HETATM    1  C1  UNL     1     -33.357  14.621  -4.187  1.00 20.00     0.005 C 
HETATM    2  C2  UNL     1     -33.640  16.420  -2.479  1.00 20.00     0.005 C 
HETATM    3  C3  UNL     1     -34.773  14.104  -3.882  1.00 20.00     0.008 C 
HETATM    4  C4  UNL     1     -35.058  15.907  -2.166  1.00 20.00     0.008 C 
HETATM    5  C5  UNL     1     -34.312  16.842  -4.862  1.00 20.00     0.045 C 
HETATM    6  C6  UNL     1     -36.921  17.113  -4.824  1.00 20.00     0.207 A 
HETATM    7  C7  UNL     1     -33.278  16.141  -3.951  1.00 20.00    -0.012 C 
HETATM    8  C8  UNL     1     -35.676  15.264  -3.422  1.00 20.00     0.022 C 
HETATM    9  C9  UNL     1     -35.679  16.315  -4.508  1.00 20.00     0.086 A 
HETATM   10  O10 UNL     1     -36.510  16.006  -5.637  1.00 20.00    -0.375 OA
ENDROOT
TORSDOF 0
ENDMDL
MODEL 5
REMARK VINA RESULT:      -4.2     16.303     17.776
REMARK  0 active torsions:
REMARK  status: ('A' for Active; 'I' for Inactive)
ROOT
HETATM    1  C1  UNL     1     -35.029  15.992  -1.937  1.00 20.00     0.005 C 
HETATM    2  C2  UNL     1     -34.559  14.391  -3.794  1.00 20.00     0.005 C 
HETATM    3  C3  UNL     1     -33.708  16.724  -2.228  1.00 20.00     0.008 C 
HETATM    4  C4  UNL     1     -33.234  15.117  -4.091  1.00 20.00     0.008 C 
HETATM    5  C5  UNL     1     -35.830  16.507  -4.259  1.00 20.00     0.045 C 
HETATM    6  C6  UNL     1     -34.267  17.947  -5.799  1.00 20.00     0.207 A 
HETATM    7  C7  UNL     1     -35.600  15.378  -3.229  1.00 20.00    -0.012 C 
HETATM    8  C8  UNL     1     -33.355  16.608  -3.723  1.00 20.00     0.022 C 
HETATM    9  C9  UNL     1     -34.505  17.176  -4.522  1.00 20.00     0.086 A 
HETATM   10  O10 UNL     1     -34.556  18.610  -4.561  1.00 20.00    -0.375 OA
ENDROOT
TORSDOF 0
ENDMDL
MODEL 6
REMARK VINA RESULT:      -4.2     22.851     23.783
REMARK  0 active torsions:
REMARK  status: ('A' for Active; 'I' for Inactive)
ROOT
HETATM    1  C1  UNL     1     -43.417   5.584  -0.686  1.00 20.00     0.005 C 
HETATM    2  C2  UNL     1     -40.931   5.575  -0.916  1.00 20.00     0.005 C 
HETATM    3  C3  UNL     1     -43.285   6.078   0.764  1.00 20.00     0.008 C 
HETATM    4  C4  UNL     1     -40.790   6.068   0.536  1.00 20.00     0.008 C 
HETATM    5  C5  UNL     1     -42.234   7.643  -1.498  1.00 20.00     0.045 C 
HETATM    6  C6  UNL     1     -41.544   9.439   0.286  1.00 20.00     0.207 A 
HETATM    7  C7  UNL     1     -42.242   6.097  -1.539  1.00 20.00    -0.012 C 
HETATM    8  C8  UNL     1     -42.009   6.926   0.923  1.00 20.00     0.022 C 
HETATM    9  C9  UNL     1     -42.083   8.071  -0.061  1.00 20.00     0.086 A 
HETATM   10  O10 UNL     1     -42.947   9.146   0.335  1.00 20.00    -0.375 OA
ENDROOT
TORSDOF 0
ENDMDL
MODEL 7
REMARK VINA RESULT:      -4.1     18.226     19.408
REMARK  0 active torsions:
REMARK  status: ('A' for Active; 'I' for Inactive)
ROOT
HETATM    1  C1  UNL     1     -33.909  14.765  -5.180  1.00 20.00     0.005 C 
HETATM    2  C2  UNL     1     -34.797  17.033  -4.629  1.00 20.00     0.005 C 
HETATM    3  C3  UNL     1     -34.435  14.230  -3.837  1.00 20.00     0.008 C 
HETATM    4  C4  UNL     1     -35.325  16.505  -3.282  1.00 20.00     0.008 C 
HETATM    5  C5  UNL     1     -36.247  15.386  -5.851  1.00 20.00     0.045 C 
HETATM    6  C6  UNL     1     -38.192  14.791  -4.194  1.00 20.00     0.207 A 
HETATM    7  C7  UNL     1     -34.803  15.912  -5.688  1.00 20.00    -0.012 C 
HETATM    8  C8  UNL     1     -35.689  15.014  -3.407  1.00 20.00     0.022 C 
HETATM    9  C9  UNL     1     -36.718  14.893  -4.507  1.00 20.00     0.086 A 
HETATM   10  O10 UNL     1     -37.413  13.638  -4.541  1.00 20.00    -0.375 OA
ENDROOT
TORSDOF 0
ENDMDL
MODEL 8
REMARK VINA RESULT:      -4.1     16.811     18.447
REMARK  0 active torsions:
REMARK  status: ('A' for Active; 'I' for Inactive)
ROOT
HETATM    1  C1  UNL     1     -33.334  16.841  -3.622  1.00 20.00     0.005 C 
HETATM    2  C2  UNL     1     -35.573  17.684  -4.335  1.00 20.00     0.005 C 
HETATM    3  C3  UNL     1     -33.999  15.991  -2.526  1.00 20.00     0.008 C 
HETATM    4  C4  UNL     1     -36.247  16.837  -3.240  1.00 20.00     0.008 C 
HETATM    5  C5  UNL     1     -34.632  15.601  -5.376  1.00 20.00     0.045 C 
HETATM    6  C6  UNL     1     -36.195  13.648  -4.587  1.00 20.00     0.207 A 
HETATM    7  C7  UNL     1     -34.280  17.003  -4.826  1.00 20.00    -0.012 C 
HETATM    8  C8  UNL     1     -35.414  15.571  -2.966  1.00 20.00     0.022 C 
HETATM    9  C9  UNL     1     -35.296  14.820  -4.272  1.00 20.00     0.086 A 
HETATM   10  O10 UNL     1     -34.844  13.464  -4.144  1.00 20.00    -0.375 OA
ENDROOT
TORSDOF 0
ENDMDL
MODEL 9
REMARK VINA RESULT:      -4.1     17.386     18.696
REMARK  0 active torsions:
REMARK  status: ('A' for Active; 'I' for Inactive)
ROOT
HETATM    1  C1  UNL     1     -35.370  16.169  -2.250  1.00 20.00     0.005 C 
HETATM    2  C2  UNL     1     -33.349  16.591  -3.654  1.00 20.00     0.005 C 
HETATM    3  C3  UNL     1     -36.254  16.835  -3.317  1.00 20.00     0.008 C 
HETATM    4  C4  UNL     1     -34.227  17.260  -4.727  1.00 20.00     0.008 C 
HETATM    5  C5  UNL     1     -34.636  14.451  -3.926  1.00 20.00     0.045 C 
HETATM    6  C6  UNL     1     -35.688  14.559  -6.327  1.00 20.00     0.207 A 
HETATM    7  C7  UNL     1     -34.145  15.503  -2.905  1.00 20.00    -0.012 C 
HETATM    8  C8  UNL     1     -35.637  16.641  -4.715  1.00 20.00     0.022 C 
HETATM    9  C9  UNL     1     -35.478  15.158  -4.956  1.00 20.00     0.086 A 
HETATM   10  O10 UNL     1     -36.691  14.475  -5.306  1.00 20.00    -0.375 OA
ENDROOT
TORSDOF 0
ENDMDL
