MODEL 1
REMARK VINA RESULT:      -4.7      0.000      0.000
REMARK  0 active torsions:
REMARK  status: ('A' for Active; 'I' for Inactive)
ROOT
HETATM    1  C1  UNL     1     -25.102  18.805   9.171  1.00 20.00     0.136 C 
HETATM    2  C2  UNL     1     -22.592  18.216   9.072  1.00 20.00     0.018 A 
HETATM    3  C3  UNL     1     -26.388  19.250  11.501  1.00 20.00     0.018 A 
HETATM    4  C4  UNL     1     -22.980  18.154  12.330  1.00 20.00     0.011 A 
HETATM    5  C5  UNL     1     -24.028  17.813   8.864  1.00 20.00     0.060 A 
HETATM    6  C6  UNL     1     -25.228  19.237  10.567  1.00 20.00     0.060 A 
HETATM    7  C7  UNL     1     -23.149  17.055   9.855  1.00 20.00     0.002 A 
HETATM    8  C8  UNL     1     -25.534  18.033  11.463  1.00 20.00     0.002 A 
HETATM    9  C9  UNL     1     -23.184  16.991  11.398  1.00 20.00    -0.005 A 
HETATM   10  C10 UNL     1     -24.345  17.525  12.241  1.00 20.00    -0.005 A 
HETATM   11  O11 UNL     1     -25.819  19.263   8.293  1.00 20.00    -0.297 OA
ENDROOT
TORSDOF 0
ENDMDL
MODEL 2
REMARK VINA RESULT:      -4.6     17.281     18.688
REMARK  0 active torsions:
REMARK  status: ('A' for Active; 'I' for Inactive)
ROOT
HETATM    1  C1  UNL     1     -35.688  13.906  -4.437  1.00 20.00     0.136 C 
HETATM    2  C2  UNL     1     -33.272  14.811  -4.477  1.00 20.00     0.018 A 
HETATM    3  C3  UNL     1     -37.833  15.503  -4.803  1.00 20.00     0.018 A 
HETATM    4  C4  UNL     1     -34.869  17.672  -4.677  1.00 20.00     0.011 A 
HETATM    5  C5  UNL     1     -34.413  14.195  -3.712  1.00 20.00     0.060 A 
HETATM    6  C6  UNL     1     -36.422  15.057  -4.974  1.00 20.00     0.060 A 
HETATM    7  C7  UNL     1     -33.860  15.558  -3.307  1.00 20.00     0.002 A 
HETATM    8  C8  UNL     1     -36.819  16.004  -3.837  1.00 20.00     0.002 A 
HETATM    9  C9  UNL     1     -34.476  16.971  -3.405  1.00 20.00    -0.005 A 
HETATM   10  C10 UNL     1     -35.949  17.233  -3.725  1.00 20.00    -0.005 A 
HETATM   11  O11 UNL     1     -36.083  12.761  -4.605  1.00 20.00    -0.297 OA
ENDROOT
TORSDOF 0
ENDMDL
MODEL 3
REMARK VINA RESULT:      -4.6     16.319     17.655
REMARK  0 active torsions:
REMARK  status: ('A' for Active; 'I' for Inactive)
ROOT
HETATM    1  C1  UNL     1     -36.193  14.983  -3.785  1.00 20.00     0.136 C 
HETATM    2  C2  UNL     1     -34.222  14.868  -5.447  1.00 20.00     0.018 A 
HETATM    3  C3  UNL     1     -36.415  16.943  -1.944  1.00 20.00     0.018 A 
HETATM    4  C4  UNL     1     -33.171  17.380  -3.615  1.00 20.00     0.011 A 
HETATM    5  C5  UNL     1     -34.965  14.285  -4.274  1.00 20.00     0.060 A 
HETATM    6  C6  UNL     1     -36.018  16.335  -3.244  1.00 20.00     0.060 A 
HETATM    7  C7  UNL     1     -33.514  14.737  -4.123  1.00 20.00     0.002 A 
HETATM    8  C8  UNL     1     -35.077  16.300  -2.037  1.00 20.00     0.002 A 
HETATM    9  C9  UNL     1     -32.899  15.924  -3.351  1.00 20.00    -0.005 A 
HETATM   10  C10 UNL     1     -33.673  16.767  -2.335  1.00 20.00    -0.005 A 
HETATM   11  O11 UNL     1     -37.298  14.464  -3.866  1.00 20.00    -0.297 OA
ENDROOT
TORSDOF 0
ENDMDL
MODEL 4
REMARK VINA RESULT:      -4.6     17.354     18.944
REMARK  0 active torsions:
REMARK  status: ('A' for Active; 'I' for Inactive)
ROOT
HETATM    1  C1  UNL     1     -35.059  13.993  -4.060  1.00 20.00     0.136 C 
HETATM    2  C2  UNL     1     -37.576  14.510  -4.299  1.00 20.00     0.018 A 
HETATM    3  C3  UNL     1     -33.273  15.856  -3.272  1.00 20.00     0.018 A 
HETATM    4  C4  UNL     1     -36.512  17.548  -3.660  1.00 20.00     0.011 A 
HETATM    5  C5  UNL     1     -36.260  14.152  -4.936  1.00 20.00     0.060 A 
HETATM    6  C6  UNL     1     -34.601  15.186  -3.339  1.00 20.00     0.060 A 
HETATM    7  C7  UNL     1     -36.973  15.447  -5.314  1.00 20.00     0.002 A 
HETATM    8  C8  UNL     1     -34.222  16.287  -4.333  1.00 20.00     0.002 A 
HETATM    9  C9  UNL     1     -36.616  16.921  -5.023  1.00 20.00    -0.005 A 
HETATM   10  C10 UNL     1     -35.260  17.373  -4.477  1.00 20.00    -0.005 A 
HETATM   11  O11 UNL     1     -34.507  12.911  -3.922  1.00 20.00    -0.297 OA
ENDROOT
TORSDOF 0
ENDMDL
MODEL 5
REMARK VINA RESULT:      -4.5     17.061     18.597
REMARK  0 active torsions:
REMARK  status: ('A' for Active; 'I' for Inactive)
ROOT
HETATM    1  C1  UNL     1     -35.729  14.671  -5.301  1.00 20.00     0.136 C 
HETATM    2  C2  UNL     1     -37.528  15.905  -3.923  1.00 20.00     0.018 A 
HETATM    3  C3  UNL     1     -33.278  14.127  -4.314  1.00 20.00     0.018 A 
HETATM    4  C4  UNL     1     -35.025  16.182  -1.818  1.00 20.00     0.011 A 
HETATM    5  C5  UNL     1     -36.580  15.882  -5.092  1.00 20.00     0.060 A 
HETATM    6  C6  UNL     1     -34.747  14.361  -4.257  1.00 20.00     0.060 A 
HETATM    7  C7  UNL     1     -36.439  16.944  -4.005  1.00 20.00     0.002 A 
HETATM    8  C8  UNL     1     -33.756  15.520  -4.108  1.00 20.00     0.002 A 
HETATM    9  C9  UNL     1     -35.356  17.147  -2.922  1.00 20.00    -0.005 A 
HETATM   10  C10 UNL     1     -34.017  16.406  -2.914  1.00 20.00    -0.005 A 
HETATM   11  O11 UNL     1     -35.871  13.952  -6.280  1.00 20.00    -0.297 OA
ENDROOT
TORSDOF 0
ENDMDL
MODEL 6
REMARK VINA RESULT:      -4.5     17.168     18.771
REMARK  0 active torsions:
REMARK  status: ('A' for Active; 'I' for Inactive)
ROOT
HETATM    1  C1  UNL     1     -34.610  14.294  -4.154  1.00 20.00     0.136 C 
HETATM    2  C2  UNL     1     -33.415  16.208  -2.901  1.00 20.00     0.018 A 
HETATM    3  C3  UNL     1     -35.669  14.621  -6.613  1.00 20.00     0.018 A 
HETATM    4  C4  UNL     1     -34.497  17.917  -5.485  1.00 20.00     0.011 A 
HETATM    5  C5  UNL     1     -34.575  15.254  -3.009  1.00 20.00     0.060 A 
HETATM    6  C6  UNL     1     -34.713  14.869  -5.499  1.00 20.00     0.060 A 
HETATM    7  C7  UNL     1     -34.809  16.762  -3.050  1.00 20.00     0.002 A 
HETATM    8  C8  UNL     1     -36.005  15.681  -5.626  1.00 20.00     0.002 A 
HETATM    9  C9  UNL     1     -35.252  17.687  -4.205  1.00 20.00    -0.005 A 
HETATM   10  C10 UNL     1     -35.806  17.175  -5.536  1.00 20.00    -0.005 A 
HETATM   11  O11 UNL     1     -34.520  13.087  -3.979  1.00 20.00    -0.297 OA
ENDROOT
TORSDOF 0
ENDMDL
MODEL 7
REMARK VINA RESULT:      -4.5     17.455     18.925
REMARK  0 active torsions:
REMARK  status: ('A' for Active; 'I' for Inactive)
ROOT
HETATM    1  C1  UNL     1     -35.601  14.760  -6.067  1.00 20.00     0.136 C 
HETATM    2  C2  UNL     1     -34.939  13.409  -3.970  1.00 20.00     0.018 A 
HETATM    3  C3  UNL     1     -34.418  17.098  -6.710  1.00 20.00     0.018 A 
HETATM    4  C4  UNL     1     -33.103  16.077  -3.434  1.00 20.00     0.011 A 
HETATM    5  C5  UNL     1     -35.959  14.226  -4.717  1.00 20.00     0.060 A 
HETATM    6  C6  UNL     1     -34.503  15.730  -6.128  1.00 20.00     0.060 A 
HETATM    7  C7  UNL     1     -35.437  14.695  -3.362  1.00 20.00     0.002 A 
HETATM    8  C8  UNL     1     -34.848  16.967  -5.293  1.00 20.00     0.002 A 
HETATM    9  C9  UNL     1     -34.525  15.883  -2.983  1.00 20.00    -0.005 A 
HETATM   10  C10 UNL     1     -34.164  17.014  -3.948  1.00 20.00    -0.005 A 
HETATM   11  O11 UNL     1     -36.174  14.378  -7.077  1.00 20.00    -0.297 OA
ENDROOT
TORSDOF 0
ENDMDL
MODEL 8
REMARK VINA RESULT:      -4.4     16.958     18.451
REMARK  0 active torsions:
REMARK  status: ('A' for Active; 'I' for Inactive)
ROOT
HETATM    1  C1  UNL     1     -34.237  15.195  -5.223  1.00 20.00     0.136 C 
HETATM    2  C2  UNL     1     -33.091  16.299  -3.192  1.00 20.00     0.018 A 
HETATM    3  C3  UNL     1     -36.608  16.053  -6.184  1.00 20.00     0.018 A 
HETATM    4  C4  UNL     1     -35.923  17.957  -3.116  1.00 20.00     0.011 A 
HETATM    5  C5  UNL     1     -33.773  15.105  -3.806  1.00 20.00     0.060 A 
HETATM    6  C6  UNL     1     -35.282  16.181  -5.519  1.00 20.00     0.060 A 
HETATM    7  C7  UNL     1     -34.374  15.793  -2.583  1.00 20.00     0.002 A 
HETATM    8  C8  UNL     1     -36.544  15.867  -4.710  1.00 20.00     0.002 A 
HETATM    9  C9  UNL     1     -35.652  16.647  -2.427  1.00 20.00    -0.005 A 
HETATM   10  C10 UNL     1     -36.738  16.751  -3.501  1.00 20.00    -0.005 A 
HETATM   11  O11 UNL     1     -33.743  14.504  -6.103  1.00 20.00    -0.297 OA
ENDROOT
TORSDOF 0
ENDMDL
MODEL 9
REMARK VINA RESULT:      -4.3     17.379     18.911
REMARK  0 active torsions:
REMARK  status: ('A' for Active; 'I' for Inactive)
ROOT
HETATM    1  C1  UNL     1     -34.313  17.156  -4.620  1.00 20.00     0.136 C 
HETATM    2  C2  UNL     1     -34.780  15.830  -2.456  1.00 20.00     0.018 A 
HETATM    3  C3  UNL     1     -35.777  16.819  -6.862  1.00 20.00     0.018 A 
HETATM    4  C4  UNL     1     -36.913  14.308  -4.432  1.00 20.00     0.011 A 
HETATM    5  C5  UNL     1     -33.875  16.135  -3.621  1.00 20.00     0.060 A 
HETATM    6  C6  UNL     1     -35.520  16.851  -5.395  1.00 20.00     0.060 A 
HETATM    7  C7  UNL     1     -34.430  14.727  -3.422  1.00 20.00     0.002 A 
HETATM    8  C8  UNL     1     -35.314  15.568  -6.205  1.00 20.00     0.002 A 
HETATM    9  C9  UNL     1     -35.472  13.926  -4.233  1.00 20.00    -0.005 A 
HETATM   10  C10 UNL     1     -35.981  14.350  -5.613  1.00 20.00    -0.005 A 
HETATM   11  O11 UNL     1     -33.713  18.212  -4.760  1.00 20.00    -0.297 OA
ENDROOT
TORSDOF 0
ENDMDL
