MODEL 1
REMARK VINA RESULT:      -5.1      0.000      0.000
REMARK  0 active torsions:
REMARK  status: ('A' for Active; 'I' for Inactive)
ROOT
HETATM    1  C1  UNL     1     -35.639  13.838  -4.372  1.00 20.00     0.132 C 
HETATM    2  C2  UNL     1     -36.542  15.021  -4.702  1.00 20.00     0.084 C 
HETATM    3  C3  UNL     1     -33.632  14.780  -5.341  1.00 20.00     0.013 C 
HETATM    4  C4  UNL     1     -34.476  16.021  -5.755  1.00 20.00     0.006 C 
HETATM    5  C5  UNL     1     -33.754  16.595  -2.638  1.00 20.00     0.011 A 
HETATM    6  C6  UNL     1     -34.974  15.967  -2.001  1.00 20.00     0.011 A 
HETATM    7  C7  UNL     1     -34.257  14.370  -3.994  1.00 20.00     0.064 C 
HETATM    8  C8  UNL     1     -35.500  16.171  -4.597  1.00 20.00     0.002 C 
HETATM    9  C9  UNL     1     -34.654  15.706  -3.445  1.00 20.00    -0.026 A 
HETATM   10  O10 UNL     1     -35.958  12.663  -4.431  1.00 20.00    -0.298 OA
ENDROOT
TORSDOF 0
ENDMDL
MODEL 2
REMARK VINA RESULT:      -4.6      1.018      2.716
REMARK  0 active torsions:
REMARK  status: ('A' for Active; 'I' for Inactive)
ROOT
HETATM    1  C1  UNL     1     -34.551  14.231  -3.974  1.00 20.00     0.132 C 
HETATM    2  C2  UNL     1     -33.147  14.759  -4.240  1.00 20.00     0.084 C 
HETATM    3  C3  UNL     1     -35.099  15.840  -2.252  1.00 20.00     0.013 C 
HETATM    4  C4  UNL     1     -33.670  16.431  -2.422  1.00 20.00     0.006 C 
HETATM    5  C5  UNL     1     -35.357  17.804  -4.838  1.00 20.00     0.011 A 
HETATM    6  C6  UNL     1     -35.074  16.786  -5.921  1.00 20.00     0.011 A 
HETATM    7  C7  UNL     1     -35.472  15.416  -3.685  1.00 20.00     0.064 C 
HETATM    8  C8  UNL     1     -33.383  16.266  -3.940  1.00 20.00     0.002 C 
HETATM    9  C9  UNL     1     -34.768  16.469  -4.486  1.00 20.00    -0.026 A 
HETATM   10  O10 UNL     1     -34.878  13.056  -3.962  1.00 20.00    -0.298 OA
ENDROOT
TORSDOF 0
ENDMDL
MODEL 3
REMARK VINA RESULT:      -4.5     10.858     12.295
REMARK  0 active torsions:
REMARK  status: ('A' for Active; 'I' for Inactive)
ROOT
HETATM    1  C1  UNL     1     -42.641   7.603  -1.167  1.00 20.00     0.132 C 
HETATM    2  C2  UNL     1     -41.396   7.896  -0.338  1.00 20.00     0.084 C 
HETATM    3  C3  UNL     1     -42.119   5.278  -1.587  1.00 20.00     0.013 C 
HETATM    4  C4  UNL     1     -40.801   5.483  -0.786  1.00 20.00     0.006 C 
HETATM    5  C5  UNL     1     -43.033   5.006   1.529  1.00 20.00     0.011 A 
HETATM    6  C6  UNL     1     -43.417   6.449   1.776  1.00 20.00     0.011 A 
HETATM    7  C7  UNL     1     -43.119   6.187  -0.847  1.00 20.00     0.064 C 
HETATM    8  C8  UNL     1     -41.197   6.500   0.319  1.00 20.00     0.002 C 
HETATM    9  C9  UNL     1     -42.618   6.076   0.561  1.00 20.00    -0.026 A 
HETATM   10  O10 UNL     1     -43.152   8.361  -1.974  1.00 20.00    -0.298 OA
ENDROOT
TORSDOF 0
ENDMDL
MODEL 4
REMARK VINA RESULT:      -4.4      1.095      2.735
REMARK  0 active torsions:
REMARK  status: ('A' for Active; 'I' for Inactive)
ROOT
HETATM    1  C1  UNL     1     -36.606  14.269  -4.339  1.00 20.00     0.132 C 
HETATM    2  C2  UNL     1     -35.254  13.619  -4.072  1.00 20.00     0.084 C 
HETATM    3  C3  UNL     1     -36.188  16.260  -3.029  1.00 20.00     0.013 C 
HETATM    4  C4  UNL     1     -34.795  15.666  -2.667  1.00 20.00     0.006 C 
HETATM    5  C5  UNL     1     -34.324  16.982  -5.601  1.00 20.00     0.011 A 
HETATM    6  C6  UNL     1     -34.631  15.767  -6.449  1.00 20.00     0.011 A 
HETATM    7  C7  UNL     1     -36.404  15.778  -4.476  1.00 20.00     0.064 C 
HETATM    8  C8  UNL     1     -34.378  14.899  -3.951  1.00 20.00     0.002 C 
HETATM    9  C9  UNL     1     -34.998  15.787  -4.993  1.00 20.00    -0.026 A 
HETATM   10  O10 UNL     1     -37.675  13.685  -4.401  1.00 20.00    -0.298 OA
ENDROOT
TORSDOF 0
ENDMDL
MODEL 5
REMARK VINA RESULT:      -4.4      1.532      2.681
REMARK  0 active torsions:
REMARK  status: ('A' for Active; 'I' for Inactive)
ROOT
HETATM    1  C1  UNL     1     -34.465  15.977  -5.651  1.00 20.00     0.132 C 
HETATM    2  C2  UNL     1     -33.710  14.715  -5.250  1.00 20.00     0.084 C 
HETATM    3  C3  UNL     1     -36.581  15.318  -4.680  1.00 20.00     0.013 C 
HETATM    4  C4  UNL     1     -35.911  13.979  -4.256  1.00 20.00     0.006 C 
HETATM    5  C5  UNL     1     -35.003  16.057  -1.927  1.00 20.00     0.011 A 
HETATM    6  C6  UNL     1     -33.700  16.527  -2.535  1.00 20.00     0.011 A 
HETATM    7  C7  UNL     1     -35.439  16.340  -4.530  1.00 20.00     0.064 C 
HETATM    8  C8  UNL     1     -34.451  14.389  -3.922  1.00 20.00     0.002 C 
HETATM    9  C9  UNL     1     -34.692  15.764  -3.366  1.00 20.00    -0.026 A 
HETATM   10  O10 UNL     1     -34.337  16.577  -6.705  1.00 20.00    -0.298 OA
ENDROOT
TORSDOF 0
ENDMDL
MODEL 6
REMARK VINA RESULT:      -4.3      1.469      2.337
REMARK  0 active torsions:
REMARK  status: ('A' for Active; 'I' for Inactive)
ROOT
HETATM    1  C1  UNL     1     -35.821  14.565  -5.845  1.00 20.00     0.132 C 
HETATM    2  C2  UNL     1     -36.112  13.756  -4.586  1.00 20.00     0.084 C 
HETATM    3  C3  UNL     1     -35.976  16.735  -4.786  1.00 20.00     0.013 C 
HETATM    4  C4  UNL     1     -36.316  16.004  -3.455  1.00 20.00     0.006 C 
HETATM    5  C5  UNL     1     -33.074  15.837  -3.609  1.00 20.00     0.011 A 
HETATM    6  C6  UNL     1     -32.947  14.506  -4.318  1.00 20.00     0.011 A 
HETATM    7  C7  UNL     1     -34.975  15.778  -5.460  1.00 20.00     0.064 C 
HETATM    8  C8  UNL     1     -35.475  14.700  -3.527  1.00 20.00     0.002 C 
HETATM    9  C9  UNL     1     -34.271  15.213  -4.265  1.00 20.00    -0.026 A 
HETATM   10  O10 UNL     1     -36.224  14.304  -6.966  1.00 20.00    -0.298 OA
ENDROOT
TORSDOF 0
ENDMDL
MODEL 7
REMARK VINA RESULT:      -4.3     17.028     18.803
REMARK  0 active torsions:
REMARK  status: ('A' for Active; 'I' for Inactive)
ROOT
HETATM    1  C1  UNL     1     -25.484  17.203  11.693  1.00 20.00     0.132 C 
HETATM    2  C2  UNL     1     -24.684  16.015  11.171  1.00 20.00     0.084 C 
HETATM    3  C3  UNL     1     -23.565  18.532  12.332  1.00 20.00     0.013 C 
HETATM    4  C4  UNL     1     -22.659  17.358  11.858  1.00 20.00     0.006 C 
HETATM    5  C5  UNL     1     -23.369  18.933   9.105  1.00 20.00     0.011 A 
HETATM    6  C6  UNL     1     -24.603  18.152   8.707  1.00 20.00     0.011 A 
HETATM    7  C7  UNL     1     -24.738  18.488  11.335  1.00 20.00     0.064 C 
HETATM    8  C8  UNL     1     -23.429  16.767  10.645  1.00 20.00     0.002 C 
HETATM    9  C9  UNL     1     -24.040  18.024  10.093  1.00 20.00    -0.026 A 
HETATM   10  O10 UNL     1     -26.527  17.136  12.320  1.00 20.00    -0.298 OA
ENDROOT
TORSDOF 0
ENDMDL
MODEL 8
REMARK VINA RESULT:      -4.2      1.256      1.966
REMARK  0 active torsions:
REMARK  status: ('A' for Active; 'I' for Inactive)
ROOT
HETATM    1  C1  UNL     1     -35.828  13.834  -4.586  1.00 20.00     0.132 C 
HETATM    2  C2  UNL     1     -35.775  14.605  -5.900  1.00 20.00     0.084 C 
HETATM    3  C3  UNL     1     -34.294  15.275  -3.392  1.00 20.00     0.013 C 
HETATM    4  C4  UNL     1     -34.143  16.109  -4.697  1.00 20.00     0.006 C 
HETATM    5  C5  UNL     1     -36.894  17.238  -3.385  1.00 20.00     0.011 A 
HETATM    6  C6  UNL     1     -37.873  16.316  -4.078  1.00 20.00     0.011 A 
HETATM    7  C7  UNL     1     -35.769  14.834  -3.431  1.00 20.00     0.064 C 
HETATM    8  C8  UNL     1     -35.553  16.039  -5.342  1.00 20.00     0.002 C 
HETATM    9  C9  UNL     1     -36.402  16.015  -4.102  1.00 20.00    -0.026 A 
HETATM   10  O10 UNL     1     -35.877  12.621  -4.475  1.00 20.00    -0.298 OA
ENDROOT
TORSDOF 0
ENDMDL
MODEL 9
REMARK VINA RESULT:      -4.2      1.930      3.165
REMARK  0 active torsions:
REMARK  status: ('A' for Active; 'I' for Inactive)
ROOT
HETATM    1  C1  UNL     1     -35.936  16.913  -3.053  1.00 20.00     0.132 C 
HETATM    2  C2  UNL     1     -35.183  16.495  -1.796  1.00 20.00     0.084 C 
HETATM    3  C3  UNL     1     -34.006  17.794  -4.217  1.00 20.00     0.013 C 
HETATM    4  C4  UNL     1     -33.153  17.437  -2.965  1.00 20.00     0.006 C 
HETATM    5  C5  UNL     1     -33.368  14.619  -4.571  1.00 20.00     0.011 A 
HETATM    6  C6  UNL     1     -34.604  14.065  -3.897  1.00 20.00     0.011 A 
HETATM    7  C7  UNL     1     -35.043  16.655  -4.266  1.00 20.00     0.064 C 
HETATM    8  C8  UNL     1     -33.810  16.135  -2.433  1.00 20.00     0.002 C 
HETATM    9  C9  UNL     1     -34.235  15.512  -3.732  1.00 20.00    -0.026 A 
HETATM   10  O10 UNL     1     -37.053  17.402  -3.083  1.00 20.00    -0.298 OA
ENDROOT
TORSDOF 0
ENDMDL
