MODEL 1
REMARK VINA RESULT:      -4.3      0.000      0.000
REMARK  1 active torsions:
REMARK  status: ('A' for Active; 'I' for Inactive)
REMARK    1  A    between atoms: C5_5  and  C9_9 
ROOT
HETATM    1  C1  UNL     1     -36.994  14.319  -4.373  1.00 20.00     0.133 C 
HETATM    2  C2  UNL     1     -36.008  13.688  -5.332  1.00 20.00     0.093 C 
HETATM    3  C3  UNL     1     -36.462  15.291  -3.325  1.00 20.00     0.065 C 
HETATM    4  C4  UNL     1     -35.155  14.716  -6.071  1.00 20.00     0.050 C 
HETATM    5  C5  UNL     1     -34.923  15.365  -3.336  1.00 20.00     0.058 C 
HETATM    6  C6  UNL     1     -37.175  16.638  -3.467  1.00 20.00     0.019 C 
HETATM    7  C7  UNL     1     -35.978  15.534  -7.066  1.00 20.00     0.022 C 
HETATM    8  O10 UNL     1     -38.191  14.026  -4.422  1.00 20.00    -0.298 OA
HETATM    9  S11 UNL     1     -34.245  15.857  -4.964  1.00 20.00    -0.159 SA
ENDROOT
BRANCH   5  10
HETATM   10  C9  UNL     1     -34.363  16.309  -2.272  1.00 20.00     0.011 C 
HETATM   11  C8  UNL     1     -33.051  16.889  -2.685  1.00 20.00     0.006 C 
ENDBRANCH   5  10
TORSDOF 1
ENDMDL
MODEL 2
REMARK VINA RESULT:      -4.3      2.004      2.397
REMARK  1 active torsions:
REMARK  status: ('A' for Active; 'I' for Inactive)
REMARK    1  A    between atoms: C5_5  and  C9_9 
ROOT
HETATM    1  C1  UNL     1     -34.239  14.596  -4.233  1.00 20.00     0.133 C 
HETATM    2  C2  UNL     1     -34.007  15.033  -5.663  1.00 20.00     0.093 C 
HETATM    3  C3  UNL     1     -33.901  15.576  -3.114  1.00 20.00     0.065 C 
HETATM    4  C4  UNL     1     -34.699  16.351  -6.002  1.00 20.00     0.050 C 
HETATM    5  C5  UNL     1     -33.226  16.852  -3.650  1.00 20.00     0.058 C 
HETATM    6  C6  UNL     1     -35.143  15.815  -2.251  1.00 20.00     0.019 C 
HETATM    7  C7  UNL     1     -36.221  16.208  -6.031  1.00 20.00     0.022 C 
HETATM    8  O10 UNL     1     -34.659  13.464  -3.983  1.00 20.00    -0.298 OA
HETATM    9  S11 UNL     1     -34.247  17.733  -4.889  1.00 20.00    -0.159 SA
ENDROOT
BRANCH   5  10
HETATM   10  C9  UNL     1     -32.848  17.837  -2.544  1.00 20.00     0.011 C 
HETATM   11  C8  UNL     1     -32.508  19.183  -3.096  1.00 20.00     0.006 C 
ENDBRANCH   5  10
TORSDOF 1
ENDMDL
MODEL 3
REMARK VINA RESULT:      -4.3      1.330      1.472
REMARK  1 active torsions:
REMARK  status: ('A' for Active; 'I' for Inactive)
REMARK    1  A    between atoms: C5_5  and  C9_9 
ROOT
HETATM    1  C1  UNL     1     -36.057  14.400  -3.817  1.00 20.00     0.133 C 
HETATM    2  C2  UNL     1     -34.757  13.664  -4.063  1.00 20.00     0.093 C 
HETATM    3  C3  UNL     1     -36.021  15.661  -2.959  1.00 20.00     0.065 C 
HETATM    4  C4  UNL     1     -33.664  14.562  -4.637  1.00 20.00     0.050 C 
HETATM    5  C5  UNL     1     -34.627  15.906  -2.352  1.00 20.00     0.058 C 
HETATM    6  C6  UNL     1     -36.597  16.836  -3.753  1.00 20.00     0.019 C 
HETATM    7  C7  UNL     1     -33.975  15.001  -6.068  1.00 20.00     0.022 C 
HETATM    8  O10 UNL     1     -37.118  13.969  -4.273  1.00 20.00    -0.298 OA
HETATM    9  S11 UNL     1     -33.312  16.043  -3.618  1.00 20.00    -0.159 SA
ENDROOT
BRANCH   5  10
HETATM   10  C9  UNL     1     -34.574  17.147  -1.461  1.00 20.00     0.011 C 
HETATM   11  C8  UNL     1     -33.217  17.769  -1.461  1.00 20.00     0.006 C 
ENDBRANCH   5  10
TORSDOF 1
ENDMDL
MODEL 4
REMARK VINA RESULT:      -4.0      1.815      3.254
REMARK  1 active torsions:
REMARK  status: ('A' for Active; 'I' for Inactive)
REMARK    1  A    between atoms: C5_5  and  C9_9 
ROOT
HETATM    1  C1  UNL     1     -35.824  14.059  -4.528  1.00 20.00     0.133 C 
HETATM    2  C2  UNL     1     -35.117  14.614  -3.310  1.00 20.00     0.093 C 
HETATM    3  C3  UNL     1     -36.325  15.040  -5.582  1.00 20.00     0.065 C 
HETATM    4  C4  UNL     1     -33.944  15.524  -3.666  1.00 20.00     0.050 C 
HETATM    5  C5  UNL     1     -36.137  16.504  -5.143  1.00 20.00     0.058 C 
HETATM    6  C6  UNL     1     -35.714  14.689  -6.941  1.00 20.00     0.019 C 
HETATM    7  C7  UNL     1     -32.785  14.746  -4.291  1.00 20.00     0.022 C 
HETATM    8  O10 UNL     1     -36.015  12.846  -4.643  1.00 20.00    -0.298 OA
HETATM    9  S11 UNL     1     -34.394  16.917  -4.766  1.00 20.00    -0.159 SA
ENDROOT
BRANCH   5  10
HETATM   10  C9  UNL     1     -36.662  17.508  -6.169  1.00 20.00     0.011 C 
HETATM   11  C8  UNL     1     -35.597  18.457  -6.608  1.00 20.00     0.006 C 
ENDBRANCH   5  10
TORSDOF 1
ENDMDL
MODEL 5
REMARK VINA RESULT:      -4.0      1.440      1.860
REMARK  1 active torsions:
REMARK  status: ('A' for Active; 'I' for Inactive)
REMARK    1  A    between atoms: C5_5  and  C9_9 
ROOT
HETATM    1  C1  UNL     1     -35.246  14.594  -5.680  1.00 20.00     0.133 C 
HETATM    2  C2  UNL     1     -34.373  15.375  -6.639  1.00 20.00     0.093 C 
HETATM    3  C3  UNL     1     -35.171  14.934  -4.195  1.00 20.00     0.065 C 
HETATM    4  C4  UNL     1     -34.559  16.886  -6.518  1.00 20.00     0.050 C 
HETATM    5  C5  UNL     1     -34.071  15.970  -3.896  1.00 20.00     0.058 C 
HETATM    6  C6  UNL     1     -36.565  15.305  -3.683  1.00 20.00     0.019 C 
HETATM    7  C7  UNL     1     -35.934  17.335  -7.013  1.00 20.00     0.022 C 
HETATM    8  O10 UNL     1     -35.973  13.687  -6.090  1.00 20.00    -0.298 OA
HETATM    9  S11 UNL     1     -34.290  17.532  -4.826  1.00 20.00    -0.159 SA
ENDROOT
BRANCH   5  10
HETATM   10  C9  UNL     1     -33.953  16.303  -2.409  1.00 20.00     0.011 C 
HETATM   11  C8  UNL     1     -32.922  17.353  -2.158  1.00 20.00     0.006 C 
ENDBRANCH   5  10
TORSDOF 1
ENDMDL
MODEL 6
REMARK VINA RESULT:      -4.0      1.744      2.619
REMARK  1 active torsions:
REMARK  status: ('A' for Active; 'I' for Inactive)
REMARK    1  A    between atoms: C5_5  and  C9_9 
ROOT
HETATM    1  C1  UNL     1     -35.712  14.955  -5.865  1.00 20.00     0.133 C 
HETATM    2  C2  UNL     1     -36.509  16.236  -5.982  1.00 20.00     0.093 C 
HETATM    3  C3  UNL     1     -34.586  14.896  -4.838  1.00 20.00     0.065 C 
HETATM    4  C4  UNL     1     -37.097  16.696  -4.650  1.00 20.00     0.050 C 
HETATM    5  C5  UNL     1     -34.355  16.258  -4.157  1.00 20.00     0.058 C 
HETATM    6  C6  UNL     1     -34.828  13.727  -3.879  1.00 20.00     0.019 C 
HETATM    7  C7  UNL     1     -38.202  15.761  -4.159  1.00 20.00     0.022 C 
HETATM    8  O10 UNL     1     -35.950  13.998  -6.605  1.00 20.00    -0.298 OA
HETATM    9  S11 UNL     1     -35.852  16.902  -3.323  1.00 20.00    -0.159 SA
ENDROOT
BRANCH   5  10
HETATM   10  C9  UNL     1     -33.209  16.234  -3.146  1.00 20.00     0.011 C 
HETATM   11  C8  UNL     1     -33.450  17.177  -2.014  1.00 20.00     0.006 C 
ENDBRANCH   5  10
TORSDOF 1
ENDMDL
MODEL 7
REMARK VINA RESULT:      -3.9      2.096      3.820
REMARK  1 active torsions:
REMARK  status: ('A' for Active; 'I' for Inactive)
REMARK    1  A    between atoms: C5_5  and  C9_9 
ROOT
HETATM    1  C1  UNL     1     -34.343  14.490  -4.073  1.00 20.00     0.133 C 
HETATM    2  C2  UNL     1     -34.196  15.530  -2.983  1.00 20.00     0.093 C 
HETATM    3  C3  UNL     1     -35.740  14.202  -4.613  1.00 20.00     0.065 C 
HETATM    4  C4  UNL     1     -34.815  16.875  -3.356  1.00 20.00     0.050 C 
HETATM    5  C5  UNL     1     -36.829  14.958  -3.828  1.00 20.00     0.058 C 
HETATM    6  C6  UNL     1     -35.760  14.428  -6.127  1.00 20.00     0.019 C 
HETATM    7  C7  UNL     1     -34.037  17.574  -4.471  1.00 20.00     0.022 C 
HETATM    8  O10 UNL     1     -33.359  13.872  -4.486  1.00 20.00    -0.298 OA
HETATM    9  S11 UNL     1     -36.581  16.772  -3.831  1.00 20.00    -0.159 SA
ENDROOT
BRANCH   5  10
HETATM   10  C9  UNL     1     -38.241  14.660  -4.330  1.00 20.00     0.011 C 
HETATM   11  C8  UNL     1     -38.987  15.912  -4.656  1.00 20.00     0.006 C 
ENDBRANCH   5  10
TORSDOF 1
ENDMDL
MODEL 8
REMARK VINA RESULT:      -3.8      1.549      3.647
REMARK  1 active torsions:
REMARK  status: ('A' for Active; 'I' for Inactive)
REMARK    1  A    between atoms: C5_5  and  C9_9 
ROOT
HETATM    1  C1  UNL     1     -36.128  13.995  -4.934  1.00 20.00     0.133 C 
HETATM    2  C2  UNL     1     -37.015  14.721  -3.945  1.00 20.00     0.093 C 
HETATM    3  C3  UNL     1     -35.659  14.750  -6.173  1.00 20.00     0.065 C 
HETATM    4  C4  UNL     1     -36.413  16.039  -3.462  1.00 20.00     0.050 C 
HETATM    5  C5  UNL     1     -36.307  16.144  -6.279  1.00 20.00     0.058 C 
HETATM    6  C6  UNL     1     -34.129  14.742  -6.230  1.00 20.00     0.019 C 
HETATM    7  C7  UNL     1     -35.185  15.819  -2.579  1.00 20.00     0.022 C 
HETATM    8  O10 UNL     1     -35.823  12.814  -4.754  1.00 20.00    -0.298 OA
HETATM    9  S11 UNL     1     -35.980  17.195  -4.816  1.00 20.00    -0.159 SA
ENDROOT
BRANCH   5  10
HETATM   10  C9  UNL     1     -35.877  16.909  -7.531  1.00 20.00     0.011 C 
HETATM   11  C8  UNL     1     -35.278  18.233  -7.190  1.00 20.00     0.006 C 
ENDBRANCH   5  10
TORSDOF 1
ENDMDL
MODEL 9
REMARK VINA RESULT:      -3.8      2.288      2.943
REMARK  1 active torsions:
REMARK  status: ('A' for Active; 'I' for Inactive)
REMARK    1  A    between atoms: C5_5  and  C9_9 
ROOT
HETATM    1  C1  UNL     1     -33.981  14.819  -4.799  1.00 20.00     0.133 C 
HETATM    2  C2  UNL     1     -35.015  14.770  -5.904  1.00 20.00     0.093 C 
HETATM    3  C3  UNL     1     -33.744  16.149  -4.091  1.00 20.00     0.065 C 
HETATM    4  C4  UNL     1     -36.381  15.291  -5.464  1.00 20.00     0.050 C 
HETATM    5  C5  UNL     1     -34.537  17.298  -4.741  1.00 20.00     0.058 C 
HETATM    6  C6  UNL     1     -33.971  15.976  -2.587  1.00 20.00     0.019 C 
HETATM    7  C7  UNL     1     -37.052  14.358  -4.456  1.00 20.00     0.022 C 
HETATM    8  O10 UNL     1     -33.329  13.815  -4.506  1.00 20.00    -0.298 OA
HETATM    9  S11 UNL     1     -36.341  16.988  -4.777  1.00 20.00    -0.159 SA
ENDROOT
BRANCH   5  10
HETATM   10  C9  UNL     1     -34.290  18.649  -4.068  1.00 20.00     0.011 C 
HETATM   11  C8  UNL     1     -32.892  19.125  -4.283  1.00 20.00     0.006 C 
ENDBRANCH   5  10
TORSDOF 1
ENDMDL
