MODEL 1
REMARK VINA RESULT:      -4.4      0.000      0.000
REMARK  0 active torsions:
REMARK  status: ('A' for Active; 'I' for Inactive)
ROOT
HETATM    1  C1  UNL     1     -35.427  13.890  -4.293  1.00 20.00     0.064 C 
HETATM    2  C2  UNL     1     -35.549  16.300  -4.817  1.00 20.00     0.045 C 
HETATM    3  C3  UNL     1     -34.944  15.535  -2.513  1.00 20.00     0.056 C 
HETATM    4  C4  UNL     1     -35.035  17.679  -4.434  1.00 20.00     0.170 C 
HETATM    5  C5  UNL     1     -34.842  15.211  -4.007  1.00 20.00     0.097 C 
HETATM    6  C6  UNL     1     -34.490  16.972  -2.188  1.00 20.00     0.055 C 
HETATM    7  C7  UNL     1     -34.908  17.320  -0.753  1.00 20.00     0.045 C 
HETATM    8  C8  UNL     1     -32.967  17.138  -2.297  1.00 20.00     0.045 C 
HETATM    9  N9  UNL     1     -35.887  12.849  -4.518  1.00 20.00    -0.197 NA
HETATM   10  O10 UNL     1     -35.167  17.915  -3.034  1.00 20.00    -0.381 OA
ENDROOT
TORSDOF 0
ENDMDL
MODEL 2
REMARK VINA RESULT:      -4.4      1.113      1.757
REMARK  0 active torsions:
REMARK  status: ('A' for Active; 'I' for Inactive)
ROOT
HETATM    1  C1  UNL     1     -35.496  13.753  -4.136  1.00 20.00     0.064 C 
HETATM    2  C2  UNL     1     -33.573  15.277  -3.866  1.00 20.00     0.045 C 
HETATM    3  C3  UNL     1     -35.872  16.013  -3.211  1.00 20.00     0.056 C 
HETATM    4  C4  UNL     1     -33.031  16.461  -3.080  1.00 20.00     0.170 C 
HETATM    5  C5  UNL     1     -34.918  14.817  -3.300  1.00 20.00     0.097 C 
HETATM    6  C6  UNL     1     -35.245  17.216  -2.478  1.00 20.00     0.055 C 
HETATM    7  C7  UNL     1     -36.125  18.455  -2.699  1.00 20.00     0.045 C 
HETATM    8  C8  UNL     1     -35.128  16.976  -0.966  1.00 20.00     0.045 C 
HETATM    9  N9  UNL     1     -35.953  12.913  -4.795  1.00 20.00    -0.197 NA
HETATM   10  O10 UNL     1     -33.966  17.536  -3.045  1.00 20.00    -0.381 OA
ENDROOT
TORSDOF 0
ENDMDL
MODEL 3
REMARK VINA RESULT:      -4.4      1.736      2.137
REMARK  0 active torsions:
REMARK  status: ('A' for Active; 'I' for Inactive)
ROOT
HETATM    1  C1  UNL     1     -37.373  14.390  -4.512  1.00 20.00     0.064 C 
HETATM    2  C2  UNL     1     -35.997  15.979  -5.807  1.00 20.00     0.045 C 
HETATM    3  C3  UNL     1     -35.283  15.258  -3.521  1.00 20.00     0.056 C 
HETATM    4  C4  UNL     1     -34.588  16.513  -6.018  1.00 20.00     0.170 C 
HETATM    5  C5  UNL     1     -35.997  14.823  -4.805  1.00 20.00     0.097 C 
HETATM    6  C6  UNL     1     -33.894  15.869  -3.795  1.00 20.00     0.055 C 
HETATM    7  C7  UNL     1     -33.384  16.554  -2.519  1.00 20.00     0.045 C 
HETATM    8  C8  UNL     1     -32.866  14.807  -4.213  1.00 20.00     0.045 C 
HETATM    9  N9  UNL     1     -38.458  14.048  -4.282  1.00 20.00    -0.197 NA
HETATM   10  O10 UNL     1     -33.989  16.904  -4.785  1.00 20.00    -0.381 OA
ENDROOT
TORSDOF 0
ENDMDL
MODEL 4
REMARK VINA RESULT:      -4.3      1.745      2.508
REMARK  0 active torsions:
REMARK  status: ('A' for Active; 'I' for Inactive)
ROOT
HETATM    1  C1  UNL     1     -33.754  14.990  -4.053  1.00 20.00     0.064 C 
HETATM    2  C2  UNL     1     -35.045  15.878  -2.146  1.00 20.00     0.045 C 
HETATM    3  C3  UNL     1     -32.791  16.814  -2.693  1.00 20.00     0.056 C 
HETATM    4  C4  UNL     1     -35.275  17.097  -1.265  1.00 20.00     0.170 C 
HETATM    5  C5  UNL     1     -34.068  16.201  -3.278  1.00 20.00     0.097 C 
HETATM    6  C6  UNL     1     -33.082  17.992  -1.743  1.00 20.00     0.055 C 
HETATM    7  C7  UNL     1     -31.804  18.344  -0.969  1.00 20.00     0.045 C 
HETATM    8  C8  UNL     1     -33.545  19.246  -2.499  1.00 20.00     0.045 C 
HETATM    9  N9  UNL     1     -33.507  14.035  -4.666  1.00 20.00    -0.197 NA
HETATM   10  O10 UNL     1     -34.048  17.609  -0.752  1.00 20.00    -0.381 OA
ENDROOT
TORSDOF 0
ENDMDL
MODEL 5
REMARK VINA RESULT:      -4.2      2.910      3.996
REMARK  0 active torsions:
REMARK  status: ('A' for Active; 'I' for Inactive)
ROOT
HETATM    1  C1  UNL     1     -37.519  14.457  -4.450  1.00 20.00     0.064 C 
HETATM    2  C2  UNL     1     -35.121  14.085  -3.992  1.00 20.00     0.045 C 
HETATM    3  C3  UNL     1     -35.852  15.109  -6.154  1.00 20.00     0.056 C 
HETATM    4  C4  UNL     1     -33.711  14.558  -4.309  1.00 20.00     0.170 C 
HETATM    5  C5  UNL     1     -36.162  14.988  -4.658  1.00 20.00     0.097 C 
HETATM    6  C6  UNL     1     -34.388  15.510  -6.424  1.00 20.00     0.055 C 
HETATM    7  C7  UNL     1     -34.077  15.309  -7.914  1.00 20.00     0.045 C 
HETATM    8  C8  UNL     1     -34.115  16.980  -6.072  1.00 20.00     0.045 C 
HETATM    9  N9  UNL     1     -38.589  14.040  -4.285  1.00 20.00    -0.197 NA
HETATM   10  O10 UNL     1     -33.492  14.641  -5.715  1.00 20.00    -0.381 OA
ENDROOT
TORSDOF 0
ENDMDL
MODEL 6
REMARK VINA RESULT:      -4.2      1.479      1.986
REMARK  0 active torsions:
REMARK  status: ('A' for Active; 'I' for Inactive)
ROOT
HETATM    1  C1  UNL     1     -36.674  14.391  -4.030  1.00 20.00     0.064 C 
HETATM    2  C2  UNL     1     -34.237  14.728  -4.234  1.00 20.00     0.045 C 
HETATM    3  C3  UNL     1     -35.708  16.585  -3.431  1.00 20.00     0.056 C 
HETATM    4  C4  UNL     1     -33.047  15.520  -3.713  1.00 20.00     0.170 C 
HETATM    5  C5  UNL     1     -35.504  15.066  -3.445  1.00 20.00     0.097 C 
HETATM    6  C6  UNL     1     -34.447  17.346  -2.975  1.00 20.00     0.055 C 
HETATM    7  C7  UNL     1     -34.622  18.840  -3.280  1.00 20.00     0.045 C 
HETATM    8  C8  UNL     1     -34.189  17.192  -1.469  1.00 20.00     0.045 C 
HETATM    9  N9  UNL     1     -37.597  13.858  -4.490  1.00 20.00    -0.197 NA
HETATM   10  O10 UNL     1     -33.304  16.922  -3.734  1.00 20.00    -0.381 OA
ENDROOT
TORSDOF 0
ENDMDL
MODEL 7
REMARK VINA RESULT:      -4.1      2.507      3.926
REMARK  0 active torsions:
REMARK  status: ('A' for Active; 'I' for Inactive)
ROOT
HETATM    1  C1  UNL     1     -35.352  17.248  -0.139  1.00 20.00     0.064 C 
HETATM    2  C2  UNL     1     -33.374  17.642  -1.563  1.00 20.00     0.045 C 
HETATM    3  C3  UNL     1     -35.035  15.871  -2.167  1.00 20.00     0.056 C 
HETATM    4  C4  UNL     1     -32.819  17.524  -2.974  1.00 20.00     0.170 C 
HETATM    5  C5  UNL     1     -34.853  17.251  -1.524  1.00 20.00     0.097 C 
HETATM    6  C6  UNL     1     -34.383  15.779  -3.561  1.00 20.00     0.055 C 
HETATM    7  C7  UNL     1     -34.335  14.308  -3.998  1.00 20.00     0.045 C 
HETATM    8  C8  UNL     1     -35.166  16.568  -4.621  1.00 20.00     0.045 C 
HETATM    9  N9  UNL     1     -35.747  17.246   0.952  1.00 20.00    -0.197 NA
HETATM   10  O10 UNL     1     -33.017  16.216  -3.506  1.00 20.00    -0.381 OA
ENDROOT
TORSDOF 0
ENDMDL
MODEL 8
REMARK VINA RESULT:      -4.0      2.919      4.336
REMARK  0 active torsions:
REMARK  status: ('A' for Active; 'I' for Inactive)
ROOT
HETATM    1  C1  UNL     1     -32.229  18.288  -1.769  1.00 20.00     0.064 C 
HETATM    2  C2  UNL     1     -34.345  17.033  -1.561  1.00 20.00     0.045 C 
HETATM    3  C3  UNL     1     -33.199  17.222  -3.776  1.00 20.00     0.056 C 
HETATM    4  C4  UNL     1     -35.184  15.911  -2.154  1.00 20.00     0.170 C 
HETATM    5  C5  UNL     1     -32.988  17.127  -2.261  1.00 20.00     0.097 C 
HETATM    6  C6  UNL     1     -34.123  16.113  -4.315  1.00 20.00     0.055 C 
HETATM    7  C7  UNL     1     -34.531  16.452  -5.756  1.00 20.00     0.045 C 
HETATM    8  C8  UNL     1     -33.437  14.739  -4.323  1.00 20.00     0.045 C 
HETATM    9  N9  UNL     1     -31.630  19.203  -1.380  1.00 20.00    -0.197 NA
HETATM   10  O10 UNL     1     -35.344  16.068  -3.562  1.00 20.00    -0.381 OA
ENDROOT
TORSDOF 0
ENDMDL
MODEL 9
REMARK VINA RESULT:      -3.9      3.000      4.183
REMARK  0 active torsions:
REMARK  status: ('A' for Active; 'I' for Inactive)
ROOT
HETATM    1  C1  UNL     1     -32.257  18.368  -1.724  1.00 20.00     0.064 C 
HETATM    2  C2  UNL     1     -33.755  18.622  -3.670  1.00 20.00     0.045 C 
HETATM    3  C3  UNL     1     -32.974  16.353  -2.962  1.00 20.00     0.056 C 
HETATM    4  C4  UNL     1     -34.812  17.932  -4.519  1.00 20.00     0.170 C 
HETATM    5  C5  UNL     1     -33.364  17.752  -2.473  1.00 20.00     0.097 C 
HETATM    6  C6  UNL     1     -34.041  15.732  -3.886  1.00 20.00     0.055 C 
HETATM    7  C7  UNL     1     -33.452  14.491  -4.572  1.00 20.00     0.045 C 
HETATM    8  C8  UNL     1     -35.296  15.301  -3.113  1.00 20.00     0.045 C 
HETATM    9  N9  UNL     1     -31.383  18.853  -1.133  1.00 20.00    -0.197 NA
HETATM   10  O10 UNL     1     -34.380  16.642  -4.943  1.00 20.00    -0.381 OA
ENDROOT
TORSDOF 0
ENDMDL
