MODEL 1
REMARK VINA RESULT:      -4.7      0.000      0.000
REMARK  2 active torsions:
REMARK  status: ('A' for Active; 'I' for Inactive)
REMARK    1  A    between atoms: C8_8  and  C9_9 
REMARK    2  A    between atoms: C9_9  and  N11_11 
ROOT
HETATM    1  C1  UNL     1     -36.326  14.026  -4.523  1.00 20.00     0.096 C 
HETATM    2  C9  UNL     1     -34.922  14.442  -4.633  1.00 20.00     0.332 C 
HETATM    3  N10 UNL     1     -37.435  13.694  -4.434  1.00 20.00    -0.195 NA
ENDROOT
BRANCH   2   4
HETATM    4  C8  UNL     1     -34.733  15.427  -5.778  1.00 20.00     0.033 A 
HETATM    5  C4  UNL     1     -33.929  15.038  -6.989  1.00 20.00     0.008 A 
HETATM    6  C5  UNL     1     -35.420  15.198  -7.095  1.00 20.00     0.008 A 
ENDBRANCH   2   4
BRANCH   2   7
HETATM    7  N11 UNL     1     -34.474  15.033  -3.366  1.00 20.00     0.106 N 
HETATM    8  C6  UNL     1     -33.313  15.898  -3.578  1.00 20.00     0.274 C 
HETATM    9  C2  UNL     1     -33.287  16.749  -2.317  1.00 20.00     0.032 C 
HETATM   10  C3  UNL     1     -34.726  16.756  -1.811  1.00 20.00     0.032 C 
HETATM   11  C7  UNL     1     -35.504  15.913  -2.811  1.00 20.00     0.274 C 
ENDBRANCH   2   7
TORSDOF 2
ENDMDL
MODEL 2
REMARK VINA RESULT:      -4.4      1.083      3.720
REMARK  2 active torsions:
REMARK  status: ('A' for Active; 'I' for Inactive)
REMARK    1  A    between atoms: C8_8  and  C9_9 
REMARK    2  A    between atoms: C9_9  and  N11_11 
ROOT
HETATM    1  C1  UNL     1     -36.678  14.698  -4.296  1.00 20.00     0.096 C 
HETATM    2  C9  UNL     1     -35.745  15.815  -4.100  1.00 20.00     0.332 C 
HETATM    3  N10 UNL     1     -37.418  13.818  -4.452  1.00 20.00    -0.195 NA
ENDROOT
BRANCH   2   4
HETATM    4  C8  UNL     1     -34.816  15.550  -2.923  1.00 20.00     0.033 A 
HETATM    5  C4  UNL     1     -33.863  16.615  -2.453  1.00 20.00     0.008 A 
HETATM    6  C5  UNL     1     -35.047  16.239  -1.607  1.00 20.00     0.008 A 
ENDBRANCH   2   4
BRANCH   2   7
HETATM    7  N11 UNL     1     -34.970  16.041  -5.326  1.00 20.00     0.106 N 
HETATM    8  C6  UNL     1     -34.191  14.853  -5.675  1.00 20.00     0.274 C 
HETATM    9  C2  UNL     1     -33.851  15.086  -7.140  1.00 20.00     0.032 C 
HETATM   10  C3  UNL     1     -34.946  16.012  -7.660  1.00 20.00     0.032 C 
HETATM   11  C7  UNL     1     -35.859  16.258  -6.469  1.00 20.00     0.274 C 
ENDBRANCH   2   7
TORSDOF 2
ENDMDL
MODEL 3
REMARK VINA RESULT:      -4.3      1.731      2.808
REMARK  2 active torsions:
REMARK  status: ('A' for Active; 'I' for Inactive)
REMARK    1  A    between atoms: C8_8  and  C9_9 
REMARK    2  A    between atoms: C9_9  and  N11_11 
ROOT
HETATM    1  C1  UNL     1     -36.122  13.884  -4.604  1.00 20.00     0.096 C 
HETATM    2  C9  UNL     1     -36.396  15.321  -4.742  1.00 20.00     0.332 C 
HETATM    3  N10 UNL     1     -35.903  12.749  -4.498  1.00 20.00    -0.195 NA
ENDROOT
BRANCH   2   4
HETATM    4  C8  UNL     1     -37.749  15.679  -4.142  1.00 20.00     0.033 A 
HETATM    5  C4  UNL     1     -38.892  16.079  -5.034  1.00 20.00     0.008 A 
HETATM    6  C5  UNL     1     -38.923  14.757  -4.319  1.00 20.00     0.008 A 
ENDBRANCH   2   4
BRANCH   2   7
HETATM    7  N11 UNL     1     -35.327  16.098  -4.103  1.00 20.00     0.106 N 
HETATM    8  C6  UNL     1     -35.374  15.946  -2.648  1.00 20.00     0.274 C 
HETATM    9  C2  UNL     1     -33.988  16.401  -2.213  1.00 20.00     0.032 C 
HETATM   10  C3  UNL     1     -33.094  16.170  -3.427  1.00 20.00     0.032 C 
HETATM   11  C7  UNL     1     -34.011  15.589  -4.493  1.00 20.00     0.274 C 
ENDBRANCH   2   7
TORSDOF 2
ENDMDL
MODEL 4
REMARK VINA RESULT:      -4.3      1.527      3.760
REMARK  2 active torsions:
REMARK  status: ('A' for Active; 'I' for Inactive)
REMARK    1  A    between atoms: C8_8  and  C9_9 
REMARK    2  A    between atoms: C9_9  and  N11_11 
ROOT
HETATM    1  C1  UNL     1     -37.020  14.737  -4.519  1.00 20.00     0.096 C 
HETATM    2  C9  UNL     1     -35.977  15.745  -4.754  1.00 20.00     0.332 C 
HETATM    3  N10 UNL     1     -37.846  13.943  -4.334  1.00 20.00    -0.195 NA
ENDROOT
BRANCH   2   4
HETATM    4  C8  UNL     1     -34.785  15.522  -3.834  1.00 20.00     0.033 A 
HETATM    5  C4  UNL     1     -34.114  16.690  -3.165  1.00 20.00     0.008 A 
HETATM    6  C5  UNL     1     -34.926  15.723  -2.351  1.00 20.00     0.008 A 
ENDBRANCH   2   4
BRANCH   2   7
HETATM    7  N11 UNL     1     -35.556  15.711  -6.160  1.00 20.00     0.106 N 
HETATM    8  C6  UNL     1     -35.158  17.044  -6.615  1.00 20.00     0.274 C 
HETATM    9  C2  UNL     1     -34.345  16.748  -7.867  1.00 20.00     0.032 C 
HETATM   10  C3  UNL     1     -33.823  15.327  -7.676  1.00 20.00     0.032 C 
HETATM   11  C7  UNL     1     -34.359  14.884  -6.324  1.00 20.00     0.274 C 
ENDBRANCH   2   7
TORSDOF 2
ENDMDL
MODEL 5
REMARK VINA RESULT:      -4.2      0.580      1.276
REMARK  2 active torsions:
REMARK  status: ('A' for Active; 'I' for Inactive)
REMARK    1  A    between atoms: C8_8  and  C9_9 
REMARK    2  A    between atoms: C9_9  and  N11_11 
ROOT
HETATM    1  C1  UNL     1     -36.363  14.372  -4.679  1.00 20.00     0.096 C 
HETATM    2  C9  UNL     1     -35.087  15.060  -4.912  1.00 20.00     0.332 C 
HETATM    3  N10 UNL     1     -37.370  13.825  -4.493  1.00 20.00    -0.195 NA
ENDROOT
BRANCH   2   4
HETATM    4  C8  UNL     1     -35.045  15.679  -6.303  1.00 20.00     0.033 A 
HETATM    5  C4  UNL     1     -34.058  15.184  -7.323  1.00 20.00     0.008 A 
HETATM    6  C5  UNL     1     -35.523  14.895  -7.493  1.00 20.00     0.008 A 
ENDBRANCH   2   4
BRANCH   2   7
HETATM    7  N11 UNL     1     -34.878  16.088  -3.885  1.00 20.00     0.106 N 
HETATM    8  C6  UNL     1     -35.322  15.610  -2.574  1.00 20.00     0.274 C 
HETATM    9  C2  UNL     1     -34.627  16.562  -1.611  1.00 20.00     0.032 C 
HETATM   10  C3  UNL     1     -33.401  17.066  -2.365  1.00 20.00     0.032 C 
HETATM   11  C7  UNL     1     -33.452  16.374  -3.718  1.00 20.00     0.274 C 
ENDBRANCH   2   7
TORSDOF 2
ENDMDL
MODEL 6
REMARK VINA RESULT:      -4.1      2.118      4.785
REMARK  2 active torsions:
REMARK  status: ('A' for Active; 'I' for Inactive)
REMARK    1  A    between atoms: C8_8  and  C9_9 
REMARK    2  A    between atoms: C9_9  and  N11_11 
ROOT
HETATM    1  C1  UNL     1     -34.971  17.203  -0.648  1.00 20.00     0.096 C 
HETATM    2  C9  UNL     1     -34.142  17.232  -1.860  1.00 20.00     0.332 C 
HETATM    3  N10 UNL     1     -35.629  17.180   0.308  1.00 20.00    -0.195 NA
ENDROOT
BRANCH   2   4
HETATM    4  C8  UNL     1     -32.748  17.765  -1.556  1.00 20.00     0.033 A 
HETATM    5  C4  UNL     1     -32.321  19.111  -2.072  1.00 20.00     0.008 A 
HETATM    6  C5  UNL     1     -32.568  18.913  -0.603  1.00 20.00     0.008 A 
ENDBRANCH   2   4
BRANCH   2   7
HETATM    7  N11 UNL     1     -34.064  15.889  -2.445  1.00 20.00     0.106 N 
HETATM    8  C6  UNL     1     -35.354  15.494  -3.013  1.00 20.00     0.274 C 
HETATM    9  C2  UNL     1     -34.981  14.349  -3.944  1.00 20.00     0.032 C 
HETATM   10  C3  UNL     1     -33.520  14.594  -4.310  1.00 20.00     0.032 C 
HETATM   11  C7  UNL     1     -33.133  15.868  -3.575  1.00 20.00     0.274 C 
ENDBRANCH   2   7
TORSDOF 2
ENDMDL
MODEL 7
REMARK VINA RESULT:      -4.0      2.153      2.639
REMARK  2 active torsions:
REMARK  status: ('A' for Active; 'I' for Inactive)
REMARK    1  A    between atoms: C8_8  and  C9_9 
REMARK    2  A    between atoms: C9_9  and  N11_11 
ROOT
HETATM    1  C1  UNL     1     -33.493  14.655  -4.212  1.00 20.00     0.096 C 
HETATM    2  C9  UNL     1     -34.549  15.515  -3.663  1.00 20.00     0.332 C 
HETATM    3  N10 UNL     1     -32.656  13.978  -4.646  1.00 20.00    -0.195 NA
ENDROOT
BRANCH   2   4
HETATM    4  C8  UNL     1     -35.862  14.753  -3.534  1.00 20.00     0.033 A 
HETATM    5  C4  UNL     1     -36.995  15.029  -4.483  1.00 20.00     0.008 A 
HETATM    6  C5  UNL     1     -36.246  13.729  -4.565  1.00 20.00     0.008 A 
ENDBRANCH   2   4
BRANCH   2   7
HETATM    7  N11 UNL     1     -34.134  16.050  -2.361  1.00 20.00     0.106 N 
HETATM    8  C6  UNL     1     -33.137  17.108  -2.528  1.00 20.00     0.274 C 
HETATM    9  C2  UNL     1     -33.179  17.831  -1.189  1.00 20.00     0.032 C 
HETATM   10  C3  UNL     1     -34.573  17.556  -0.632  1.00 20.00     0.032 C 
HETATM   11  C7  UNL     1     -35.259  16.695  -1.682  1.00 20.00     0.274 C 
ENDBRANCH   2   7
TORSDOF 2
ENDMDL
MODEL 8
REMARK VINA RESULT:      -4.0      2.028      3.628
REMARK  2 active torsions:
REMARK  status: ('A' for Active; 'I' for Inactive)
REMARK    1  A    between atoms: C8_8  and  C9_9 
REMARK    2  A    between atoms: C9_9  and  N11_11 
ROOT
HETATM    1  C1  UNL     1     -35.848  13.926  -4.267  1.00 20.00     0.096 C 
HETATM    2  C9  UNL     1     -35.785  15.310  -3.778  1.00 20.00     0.332 C 
HETATM    3  N10 UNL     1     -35.901  12.831  -4.650  1.00 20.00    -0.195 NA
ENDROOT
BRANCH   2   4
HETATM    4  C8  UNL     1     -34.426  15.931  -4.073  1.00 20.00     0.033 A 
HETATM    5  C4  UNL     1     -33.453  16.192  -2.957  1.00 20.00     0.008 A 
HETATM    6  C5  UNL     1     -33.176  15.105  -3.958  1.00 20.00     0.008 A 
ENDBRANCH   2   4
BRANCH   2   7
HETATM    7  N11 UNL     1     -36.858  16.105  -4.387  1.00 20.00     0.106 N 
HETATM    8  C6  UNL     1     -36.684  16.188  -5.838  1.00 20.00     0.274 C 
HETATM    9  C2  UNL     1     -38.062  16.613  -6.323  1.00 20.00     0.032 C 
HETATM   10  C3  UNL     1     -39.029  16.133  -5.245  1.00 20.00     0.032 C 
HETATM   11  C7  UNL     1     -38.156  15.454  -4.200  1.00 20.00     0.274 C 
ENDBRANCH   2   7
TORSDOF 2
ENDMDL
MODEL 9
REMARK VINA RESULT:      -4.0      2.135      3.426
REMARK  2 active torsions:
REMARK  status: ('A' for Active; 'I' for Inactive)
REMARK    1  A    between atoms: C8_8  and  C9_9 
REMARK    2  A    between atoms: C9_9  and  N11_11 
ROOT
HETATM    1  C1  UNL     1     -35.882  13.888  -4.178  1.00 20.00     0.096 C 
HETATM    2  C9  UNL     1     -35.855  15.225  -3.570  1.00 20.00     0.332 C 
HETATM    3  N10 UNL     1     -35.905  12.830  -4.655  1.00 20.00    -0.195 NA
ENDROOT
BRANCH   2   4
HETATM    4  C8  UNL     1     -34.565  15.957  -3.917  1.00 20.00     0.033 A 
HETATM    5  C4  UNL     1     -33.538  16.231  -2.853  1.00 20.00     0.008 A 
HETATM    6  C5  UNL     1     -33.256  15.218  -3.928  1.00 20.00     0.008 A 
ENDBRANCH   2   4
BRANCH   2   7
HETATM    7  N11 UNL     1     -37.021  15.999  -4.012  1.00 20.00     0.106 N 
HETATM    8  C6  UNL     1     -37.049  17.311  -3.362  1.00 20.00     0.274 C 
HETATM    9  C2  UNL     1     -37.996  18.109  -4.248  1.00 20.00     0.032 C 
HETATM   10  C3  UNL     1     -37.925  17.435  -5.615  1.00 20.00     0.032 C 
HETATM   11  C7  UNL     1     -36.939  16.290  -5.445  1.00 20.00     0.274 C 
ENDBRANCH   2   7
TORSDOF 2
ENDMDL
