MODEL 1
REMARK VINA RESULT:      -4.8      0.000      0.000
REMARK  1 active torsions:
REMARK  status: ('A' for Active; 'I' for Inactive)
REMARK    1  A    between atoms: C11_11  and  C12_12 
ROOT
HETATM    1  C1  UNL     1     -36.328  16.065  -4.378  1.00 20.00     0.009 C 
HETATM    2  C2  UNL     1     -34.917  14.039  -3.942  1.00 20.00     0.009 C 
HETATM    3  C3  UNL     1     -34.312  15.614  -5.798  1.00 20.00     0.009 C 
HETATM    4  C4  UNL     1     -34.906  15.948  -2.316  1.00 20.00     0.017 C 
HETATM    5  C5  UNL     1     -34.300  17.526  -4.176  1.00 20.00     0.017 C 
HETATM    6  C6  UNL     1     -32.885  15.496  -3.739  1.00 20.00     0.017 C 
HETATM    7  C8  UNL     1     -35.777  15.132  -3.288  1.00 20.00    -0.013 C 
HETATM    8  C9  UNL     1     -35.169  16.715  -5.153  1.00 20.00    -0.013 C 
HETATM    9  C10 UNL     1     -33.750  14.678  -4.714  1.00 20.00    -0.013 C 
HETATM   10  C12 UNL     1     -33.728  16.608  -3.070  1.00 20.00    -0.011 C 
ENDROOT
BRANCH  10  11
HETATM   11  C11 UNL     1     -32.874  17.409  -2.113  1.00 20.00     0.153 A 
HETATM   12  C7  UNL     1     -33.340  18.733  -1.576  1.00 20.00     0.201 A 
HETATM   13  O13 UNL     1     -32.384  18.643  -2.644  1.00 20.00    -0.380 OA
ENDBRANCH  10  11
TORSDOF 1
ENDMDL
MODEL 2
REMARK VINA RESULT:      -4.8      0.043      2.090
REMARK  1 active torsions:
REMARK  status: ('A' for Active; 'I' for Inactive)
REMARK    1  A    between atoms: C11_11  and  C12_12 
ROOT
HETATM    1  C1  UNL     1     -34.305  15.645  -5.775  1.00 20.00     0.009 C 
HETATM    2  C2  UNL     1     -36.316  16.095  -4.346  1.00 20.00     0.009 C 
HETATM    3  C3  UNL     1     -34.907  14.063  -3.925  1.00 20.00     0.009 C 
HETATM    4  C4  UNL     1     -34.283  17.549  -4.144  1.00 20.00     0.017 C 
HETATM    5  C5  UNL     1     -32.871  15.513  -3.722  1.00 20.00     0.017 C 
HETATM    6  C6  UNL     1     -34.886  15.964  -2.289  1.00 20.00     0.017 C 
HETATM    7  C8  UNL     1     -35.157  16.745  -5.121  1.00 20.00    -0.013 C 
HETATM    8  C9  UNL     1     -33.742  14.703  -4.697  1.00 20.00    -0.013 C 
HETATM    9  C10 UNL     1     -35.763  15.155  -3.261  1.00 20.00    -0.013 C 
HETATM   10  C12 UNL     1     -33.708  16.624  -3.045  1.00 20.00    -0.011 C 
ENDROOT
BRANCH  10  11
HETATM   11  C11 UNL     1     -32.850  17.418  -2.086  1.00 20.00     0.153 A 
HETATM   12  C7  UNL     1     -33.329  18.719  -1.506  1.00 20.00     0.201 A 
HETATM   13  O13 UNL     1     -32.395  18.674  -2.596  1.00 20.00    -0.380 OA
ENDBRANCH  10  11
TORSDOF 1
ENDMDL
MODEL 3
REMARK VINA RESULT:      -4.8      2.198      4.011
REMARK  1 active torsions:
REMARK  status: ('A' for Active; 'I' for Inactive)
REMARK    1  A    between atoms: C11_11  and  C12_12 
ROOT
HETATM    1  C1  UNL     1     -35.715  17.946  -3.429  1.00 20.00     0.009 C 
HETATM    2  C2  UNL     1     -33.245  17.551  -3.245  1.00 20.00     0.009 C 
HETATM    3  C3  UNL     1     -34.852  16.009  -2.090  1.00 20.00     0.009 C 
HETATM    4  C4  UNL     1     -34.421  17.148  -5.423  1.00 20.00     0.017 C 
HETATM    5  C5  UNL     1     -36.031  15.603  -4.266  1.00 20.00     0.017 C 
HETATM    6  C6  UNL     1     -33.556  15.207  -4.081  1.00 20.00     0.017 C 
HETATM    7  C8  UNL     1     -34.372  18.040  -4.170  1.00 20.00    -0.013 C 
HETATM    8  C9  UNL     1     -35.985  16.490  -3.010  1.00 20.00    -0.013 C 
HETATM    9  C10 UNL     1     -33.503  16.094  -2.825  1.00 20.00    -0.013 C 
HETATM   10  C12 UNL     1     -34.686  15.676  -5.028  1.00 20.00    -0.011 C 
ENDROOT
BRANCH  10  11
HETATM   11  C11 UNL     1     -34.734  14.802  -6.260  1.00 20.00     0.153 A 
HETATM   12  C7  UNL     1     -35.736  15.051  -7.353  1.00 20.00     0.201 A 
HETATM   13  O13 UNL     1     -35.919  14.009  -6.382  1.00 20.00    -0.380 OA
ENDBRANCH  10  11
TORSDOF 1
ENDMDL
MODEL 4
REMARK VINA RESULT:      -4.8      0.036      2.093
REMARK  1 active torsions:
REMARK  status: ('A' for Active; 'I' for Inactive)
REMARK    1  A    between atoms: C11_11  and  C12_12 
ROOT
HETATM    1  C1  UNL     1     -34.919  14.038  -3.990  1.00 20.00     0.009 C 
HETATM    2  C2  UNL     1     -34.294  15.637  -5.818  1.00 20.00     0.009 C 
HETATM    3  C3  UNL     1     -36.321  16.075  -4.406  1.00 20.00     0.009 C 
HETATM    4  C4  UNL     1     -32.884  15.483  -3.749  1.00 20.00     0.017 C 
HETATM    5  C5  UNL     1     -34.915  15.923  -2.335  1.00 20.00     0.017 C 
HETATM    6  C6  UNL     1     -34.289  17.525  -4.166  1.00 20.00     0.017 C 
HETATM    7  C8  UNL     1     -33.745  14.684  -4.743  1.00 20.00    -0.013 C 
HETATM    8  C9  UNL     1     -35.782  15.125  -3.325  1.00 20.00    -0.013 C 
HETATM    9  C10 UNL     1     -35.153  16.732  -5.163  1.00 20.00    -0.013 C 
HETATM   10  C12 UNL     1     -33.728  16.588  -3.071  1.00 20.00    -0.011 C 
ENDROOT
BRANCH  10  11
HETATM   11  C11 UNL     1     -32.880  17.372  -2.095  1.00 20.00     0.153 A 
HETATM   12  C7  UNL     1     -33.345  18.692  -1.545  1.00 20.00     0.201 A 
HETATM   13  O13 UNL     1     -32.378  18.611  -2.604  1.00 20.00    -0.380 OA
ENDBRANCH  10  11
TORSDOF 1
ENDMDL
MODEL 5
REMARK VINA RESULT:      -4.8      2.032      3.912
REMARK  1 active torsions:
REMARK  status: ('A' for Active; 'I' for Inactive)
REMARK    1  A    between atoms: C11_11  and  C12_12 
ROOT
HETATM    1  C1  UNL     1     -35.649  18.216  -2.829  1.00 20.00     0.009 C 
HETATM    2  C2  UNL     1     -33.274  18.296  -3.629  1.00 20.00     0.009 C 
HETATM    3  C3  UNL     1     -33.844  17.084  -1.508  1.00 20.00     0.009 C 
HETATM    4  C4  UNL     1     -34.969  16.926  -4.869  1.00 20.00     0.017 C 
HETATM    5  C5  UNL     1     -35.540  15.712  -2.744  1.00 20.00     0.017 C 
HETATM    6  C6  UNL     1     -33.159  15.791  -3.545  1.00 20.00     0.017 C 
HETATM    7  C8  UNL     1     -34.745  18.223  -4.072  1.00 20.00    -0.013 C 
HETATM    8  C9  UNL     1     -35.316  17.005  -1.941  1.00 20.00    -0.013 C 
HETATM    9  C10 UNL     1     -32.929  17.086  -2.745  1.00 20.00    -0.013 C 
HETATM   10  C12 UNL     1     -34.635  15.691  -3.998  1.00 20.00    -0.011 C 
ENDROOT
BRANCH  10  11
HETATM   11  C11 UNL     1     -34.856  14.419  -4.784  1.00 20.00     0.153 A 
HETATM   12  C7  UNL     1     -36.125  13.625  -4.638  1.00 20.00     0.201 A 
HETATM   13  O13 UNL     1     -34.906  13.230  -3.989  1.00 20.00    -0.380 OA
ENDBRANCH  10  11
TORSDOF 1
ENDMDL
MODEL 6
REMARK VINA RESULT:      -4.8      2.186      3.965
REMARK  1 active torsions:
REMARK  status: ('A' for Active; 'I' for Inactive)
REMARK    1  A    between atoms: C11_11  and  C12_12 
ROOT
HETATM    1  C1  UNL     1     -33.275  17.684  -3.269  1.00 20.00     0.009 C 
HETATM    2  C2  UNL     1     -34.802  16.128  -2.030  1.00 20.00     0.009 C 
HETATM    3  C3  UNL     1     -35.760  17.985  -3.417  1.00 20.00     0.009 C 
HETATM    4  C4  UNL     1     -33.516  15.303  -4.019  1.00 20.00     0.017 C 
HETATM    5  C5  UNL     1     -34.476  17.164  -5.409  1.00 20.00     0.017 C 
HETATM    6  C6  UNL     1     -36.007  15.605  -4.168  1.00 20.00     0.017 C 
HETATM    7  C8  UNL     1     -33.472  16.235  -2.795  1.00 20.00    -0.013 C 
HETATM    8  C9  UNL     1     -34.436  18.101  -4.189  1.00 20.00    -0.013 C 
HETATM    9  C10 UNL     1     -35.970  16.537  -2.943  1.00 20.00    -0.013 C 
HETATM   10  C12 UNL     1     -34.680  15.699  -4.958  1.00 20.00    -0.011 C 
ENDROOT
BRANCH  10  11
HETATM   11  C11 UNL     1     -34.720  14.782  -6.159  1.00 20.00     0.153 A 
HETATM   12  C7  UNL     1     -35.732  14.977  -7.254  1.00 20.00     0.201 A 
HETATM   13  O13 UNL     1     -35.893  13.966  -6.246  1.00 20.00    -0.380 OA
ENDBRANCH  10  11
TORSDOF 1
ENDMDL
MODEL 7
REMARK VINA RESULT:      -4.8      2.396      4.184
REMARK  1 active torsions:
REMARK  status: ('A' for Active; 'I' for Inactive)
REMARK    1  A    between atoms: C11_11  and  C12_12 
ROOT
HETATM    1  C1  UNL     1     -34.830  18.360  -3.512  1.00 20.00     0.009 C 
HETATM    2  C2  UNL     1     -33.412  16.300  -3.696  1.00 20.00     0.009 C 
HETATM    3  C3  UNL     1     -34.896  16.627  -1.701  1.00 20.00     0.009 C 
HETATM    4  C4  UNL     1     -35.384  16.605  -5.215  1.00 20.00     0.017 C 
HETATM    5  C5  UNL     1     -36.871  16.933  -3.216  1.00 20.00     0.017 C 
HETATM    6  C6  UNL     1     -35.450  14.868  -3.400  1.00 20.00     0.017 C 
HETATM    7  C8  UNL     1     -34.238  17.329  -4.486  1.00 20.00    -0.013 C 
HETATM    8  C9  UNL     1     -35.729  17.656  -2.480  1.00 20.00    -0.013 C 
HETATM    9  C10 UNL     1     -34.303  15.586  -2.667  1.00 20.00    -0.013 C 
HETATM   10  C12 UNL     1     -36.301  15.884  -4.199  1.00 20.00    -0.011 C 
ENDROOT
BRANCH  10  11
HETATM   11  C11 UNL     1     -37.426  15.174  -4.919  1.00 20.00     0.153 A 
HETATM   12  C7  UNL     1     -38.701  14.818  -4.208  1.00 20.00     0.201 A 
HETATM   13  O13 UNL     1     -37.678  13.842  -4.461  1.00 20.00    -0.380 OA
ENDBRANCH  10  11
TORSDOF 1
ENDMDL
MODEL 8
REMARK VINA RESULT:      -4.7      2.403      4.202
REMARK  1 active torsions:
REMARK  status: ('A' for Active; 'I' for Inactive)
REMARK    1  A    between atoms: C11_11  and  C12_12 
ROOT
HETATM    1  C1  UNL     1     -34.934  16.680  -1.701  1.00 20.00     0.009 C 
HETATM    2  C2  UNL     1     -34.876  18.392  -3.532  1.00 20.00     0.009 C 
HETATM    3  C3  UNL     1     -33.443  16.340  -3.688  1.00 20.00     0.009 C 
HETATM    4  C4  UNL     1     -36.907  16.953  -3.224  1.00 20.00     0.017 C 
HETATM    5  C5  UNL     1     -35.471  14.896  -3.381  1.00 20.00     0.017 C 
HETATM    6  C6  UNL     1     -35.413  16.612  -5.216  1.00 20.00     0.017 C 
HETATM    7  C8  UNL     1     -35.773  17.694  -2.496  1.00 20.00    -0.013 C 
HETATM    8  C9  UNL     1     -34.332  15.632  -2.653  1.00 20.00    -0.013 C 
HETATM    9  C10 UNL     1     -34.274  17.353  -4.494  1.00 20.00    -0.013 C 
HETATM   10  C12 UNL     1     -36.327  15.896  -4.194  1.00 20.00    -0.011 C 
ENDROOT
BRANCH  10  11
HETATM   11  C11 UNL     1     -37.444  15.169  -4.908  1.00 20.00     0.153 A 
HETATM   12  C7  UNL     1     -38.734  14.846  -4.208  1.00 20.00     0.201 A 
HETATM   13  O13 UNL     1     -37.713  13.856  -4.410  1.00 20.00    -0.380 OA
ENDBRANCH  10  11
TORSDOF 1
ENDMDL
MODEL 9
REMARK VINA RESULT:      -4.7      2.180      3.997
REMARK  1 active torsions:
REMARK  status: ('A' for Active; 'I' for Inactive)
REMARK    1  A    between atoms: C11_11  and  C12_12 
ROOT
HETATM    1  C1  UNL     1     -34.796  16.249  -1.932  1.00 20.00     0.009 C 
HETATM    2  C2  UNL     1     -35.743  18.043  -3.405  1.00 20.00     0.009 C 
HETATM    3  C3  UNL     1     -33.260  17.727  -3.251  1.00 20.00     0.009 C 
HETATM    4  C4  UNL     1     -36.014  15.631  -4.035  1.00 20.00     0.017 C 
HETATM    5  C5  UNL     1     -33.525  15.314  -3.881  1.00 20.00     0.017 C 
HETATM    6  C6  UNL     1     -34.474  17.112  -5.358  1.00 20.00     0.017 C 
HETATM    7  C8  UNL     1     -35.964  16.622  -2.859  1.00 20.00    -0.013 C 
HETATM    8  C9  UNL     1     -33.468  16.305  -2.705  1.00 20.00    -0.013 C 
HETATM    9  C10 UNL     1     -34.420  18.109  -4.186  1.00 20.00    -0.013 C 
HETATM   10  C12 UNL     1     -34.690  15.673  -4.834  1.00 20.00    -0.011 C 
ENDROOT
BRANCH  10  11
HETATM   11  C11 UNL     1     -34.742  14.697  -5.988  1.00 20.00     0.153 A 
HETATM   12  C7  UNL     1     -35.724  14.874  -7.112  1.00 20.00     0.201 A 
HETATM   13  O13 UNL     1     -35.942  13.923  -6.059  1.00 20.00    -0.380 OA
ENDBRANCH  10  11
TORSDOF 1
ENDMDL
