MODEL 1
REMARK VINA RESULT:      -4.6      0.000      0.000
REMARK  0 active torsions:
REMARK  status: ('A' for Active; 'I' for Inactive)
ROOT
HETATM    1  C1  UNL     1     -33.622  15.655  -3.349  1.00 20.00     0.000 C 
HETATM    2  C2  UNL     1     -34.790  16.631  -3.476  1.00 20.00     0.003 C 
HETATM    3  C3  UNL     1     -33.795  14.458  -4.281  1.00 20.00     0.003 C 
HETATM    4  C4  UNL     1     -36.135  15.936  -3.249  1.00 20.00     0.044 C 
HETATM    5  C5  UNL     1     -35.135  13.762  -4.047  1.00 20.00     0.044 C 
HETATM    6  C6  UNL     1     -39.008  15.896  -5.200  1.00 20.00     0.032 C 
HETATM    7  C7  UNL     1     -38.782  14.895  -4.100  1.00 20.00     0.112 C 
HETATM    8  C8  UNL     1     -37.648  16.044  -5.828  1.00 20.00     0.112 C 
HETATM    9  C9  UNL     1     -36.288  14.748  -4.177  1.00 20.00     0.095 A 
HETATM   10  N10 UNL     1     -37.591  14.131  -4.454  1.00 20.00    -0.223 NA
HETATM   11  N11 UNL     1     -36.894  14.838  -5.510  1.00 20.00    -0.223 NA
ENDROOT
TORSDOF 0
ENDMDL
MODEL 2
REMARK VINA RESULT:      -4.4      1.720      2.454
REMARK  0 active torsions:
REMARK  status: ('A' for Active; 'I' for Inactive)
ROOT
HETATM    1  C1  UNL     1     -33.585  17.431  -1.601  1.00 20.00     0.000 C 
HETATM    2  C2  UNL     1     -35.049  17.013  -1.720  1.00 20.00     0.003 C 
HETATM    3  C3  UNL     1     -32.859  17.293  -2.938  1.00 20.00     0.003 C 
HETATM    4  C4  UNL     1     -35.189  15.598  -2.288  1.00 20.00     0.044 C 
HETATM    5  C5  UNL     1     -32.993  15.878  -3.499  1.00 20.00     0.044 C 
HETATM    6  C6  UNL     1     -37.072  14.420  -4.960  1.00 20.00     0.032 C 
HETATM    7  C7  UNL     1     -35.947  13.616  -4.366  1.00 20.00     0.112 C 
HETATM    8  C8  UNL     1     -36.543  15.830  -4.947  1.00 20.00     0.112 C 
HETATM    9  C9  UNL     1     -34.459  15.477  -3.611  1.00 20.00     0.095 A 
HETATM   10  N10 UNL     1     -34.723  14.386  -4.556  1.00 20.00    -0.223 NA
HETATM   11  N11 UNL     1     -35.089  15.744  -4.908  1.00 20.00    -0.223 NA
ENDROOT
TORSDOF 0
ENDMDL
MODEL 3
REMARK VINA RESULT:      -4.3      2.169      2.627
REMARK  0 active torsions:
REMARK  status: ('A' for Active; 'I' for Inactive)
ROOT
HETATM    1  C1  UNL     1     -34.433  16.563  -1.824  1.00 20.00     0.000 C 
HETATM    2  C2  UNL     1     -35.706  16.632  -2.664  1.00 20.00     0.003 C 
HETATM    3  C3  UNL     1     -33.186  16.568  -2.707  1.00 20.00     0.003 C 
HETATM    4  C4  UNL     1     -35.757  15.513  -3.708  1.00 20.00     0.044 C 
HETATM    5  C5  UNL     1     -33.235  15.446  -3.743  1.00 20.00     0.044 C 
HETATM    6  C6  UNL     1     -36.287  15.656  -7.138  1.00 20.00     0.032 C 
HETATM    7  C7  UNL     1     -35.706  14.436  -6.475  1.00 20.00     0.112 C 
HETATM    8  C8  UNL     1     -35.636  16.800  -6.408  1.00 20.00     0.112 C 
HETATM    9  C9  UNL     1     -34.511  15.529  -4.571  1.00 20.00     0.095 A 
HETATM   10  N10 UNL     1     -34.444  14.841  -5.866  1.00 20.00    -0.223 NA
HETATM   11  N11 UNL     1     -34.404  16.289  -5.820  1.00 20.00    -0.223 NA
ENDROOT
TORSDOF 0
ENDMDL
MODEL 4
REMARK VINA RESULT:      -4.1      2.966      4.052
REMARK  0 active torsions:
REMARK  status: ('A' for Active; 'I' for Inactive)
ROOT
HETATM    1  C1  UNL     1     -34.700  18.019  -0.435  1.00 20.00     0.000 C 
HETATM    2  C2  UNL     1     -35.618  17.174  -1.315  1.00 20.00     0.003 C 
HETATM    3  C3  UNL     1     -33.493  18.529  -1.221  1.00 20.00     0.003 C 
HETATM    4  C4  UNL     1     -34.860  16.023  -1.983  1.00 20.00     0.044 C 
HETATM    5  C5  UNL     1     -32.734  17.378  -1.880  1.00 20.00     0.044 C 
HETATM    6  C6  UNL     1     -34.676  15.083  -5.322  1.00 20.00     0.032 C 
HETATM    7  C7  UNL     1     -33.690  14.583  -4.301  1.00 20.00     0.112 C 
HETATM    8  C8  UNL     1     -34.888  16.522  -4.933  1.00 20.00     0.112 C 
HETATM    9  C9  UNL     1     -33.663  16.545  -2.753  1.00 20.00     0.095 A 
HETATM   10  N10 UNL     1     -32.984  15.748  -3.781  1.00 20.00    -0.223 NA
HETATM   11  N11 UNL     1     -33.720  16.936  -4.165  1.00 20.00    -0.223 NA
ENDROOT
TORSDOF 0
ENDMDL
MODEL 5
REMARK VINA RESULT:      -4.1      2.800      4.659
REMARK  0 active torsions:
REMARK  status: ('A' for Active; 'I' for Inactive)
ROOT
HETATM    1  C1  UNL     1     -34.633  14.036  -3.950  1.00 20.00     0.000 C 
HETATM    2  C2  UNL     1     -33.465  14.867  -4.478  1.00 20.00     0.003 C 
HETATM    3  C3  UNL     1     -35.743  14.927  -3.397  1.00 20.00     0.003 C 
HETATM    4  C4  UNL     1     -32.930  15.831  -3.415  1.00 20.00     0.044 C 
HETATM    5  C5  UNL     1     -35.208  15.883  -2.331  1.00 20.00     0.044 C 
HETATM    6  C6  UNL     1     -32.379  19.258  -3.554  1.00 20.00     0.032 C 
HETATM    7  C7  UNL     1     -32.443  18.517  -2.247  1.00 20.00     0.112 C 
HETATM    8  C8  UNL     1     -33.462  18.613  -4.379  1.00 20.00     0.112 C 
HETATM    9  C9  UNL     1     -34.045  16.703  -2.874  1.00 20.00     0.095 A 
HETATM   10  N10 UNL     1     -33.782  17.948  -2.141  1.00 20.00    -0.223 NA
HETATM   11  N11 UNL     1     -34.405  18.003  -3.449  1.00 20.00    -0.223 NA
ENDROOT
TORSDOF 0
ENDMDL
MODEL 6
REMARK VINA RESULT:      -4.1      2.303      2.967
REMARK  0 active torsions:
REMARK  status: ('A' for Active; 'I' for Inactive)
ROOT
HETATM    1  C1  UNL     1     -33.518  17.653  -3.199  1.00 20.00     0.000 C 
HETATM    2  C2  UNL     1     -33.966  17.929  -4.634  1.00 20.00     0.003 C 
HETATM    3  C3  UNL     1     -33.051  16.209  -3.032  1.00 20.00     0.003 C 
HETATM    4  C4  UNL     1     -35.040  16.938  -5.091  1.00 20.00     0.044 C 
HETATM    5  C5  UNL     1     -34.128  15.222  -3.482  1.00 20.00     0.044 C 
HETATM    6  C6  UNL     1     -35.190  14.924  -7.917  1.00 20.00     0.032 C 
HETATM    7  C7  UNL     1     -36.075  14.684  -6.724  1.00 20.00     0.112 C 
HETATM    8  C8  UNL     1     -33.868  15.303  -7.306  1.00 20.00     0.112 C 
HETATM    9  C9  UNL     1     -34.563  15.510  -4.913  1.00 20.00     0.095 A 
HETATM   10  N10 UNL     1     -35.200  14.379  -5.597  1.00 20.00    -0.223 NA
HETATM   11  N11 UNL     1     -33.849  14.762  -5.952  1.00 20.00    -0.223 NA
ENDROOT
TORSDOF 0
ENDMDL
MODEL 7
REMARK VINA RESULT:      -4.0      2.428      4.075
REMARK  0 active torsions:
REMARK  status: ('A' for Active; 'I' for Inactive)
ROOT
HETATM    1  C1  UNL     1     -36.253  15.881  -6.727  1.00 20.00     0.000 C 
HETATM    2  C2  UNL     1     -36.406  16.840  -5.549  1.00 20.00     0.003 C 
HETATM    3  C3  UNL     1     -35.496  14.618  -6.320  1.00 20.00     0.003 C 
HETATM    4  C4  UNL     1     -35.054  17.180  -4.916  1.00 20.00     0.044 C 
HETATM    5  C5  UNL     1     -34.143  14.959  -5.696  1.00 20.00     0.044 C 
HETATM    6  C6  UNL     1     -34.006  17.001  -1.609  1.00 20.00     0.032 C 
HETATM    7  C7  UNL     1     -33.027  17.115  -2.746  1.00 20.00     0.112 C 
HETATM    8  C8  UNL     1     -35.057  16.063  -2.139  1.00 20.00     0.112 C 
HETATM    9  C9  UNL     1     -34.314  15.916  -4.523  1.00 20.00     0.095 A 
HETATM   10  N10 UNL     1     -33.194  15.926  -3.575  1.00 20.00    -0.223 NA
HETATM   11  N11 UNL     1     -34.439  15.284  -3.206  1.00 20.00    -0.223 NA
ENDROOT
TORSDOF 0
ENDMDL
MODEL 8
REMARK VINA RESULT:      -3.9      2.501      3.690
REMARK  0 active torsions:
REMARK  status: ('A' for Active; 'I' for Inactive)
ROOT
HETATM    1  C1  UNL     1     -33.847  17.819  -0.918  1.00 20.00     0.000 C 
HETATM    2  C2  UNL     1     -32.897  17.403  -2.040  1.00 20.00     0.003 C 
HETATM    3  C3  UNL     1     -35.087  16.930  -0.884  1.00 20.00     0.003 C 
HETATM    4  C4  UNL     1     -33.604  17.377  -3.398  1.00 20.00     0.044 C 
HETATM    5  C5  UNL     1     -35.795  16.911  -2.238  1.00 20.00     0.044 C 
HETATM    6  C6  UNL     1     -33.781  14.871  -5.797  1.00 20.00     0.032 C 
HETATM    7  C7  UNL     1     -34.727  16.041  -5.800  1.00 20.00     0.112 C 
HETATM    8  C8  UNL     1     -33.639  14.536  -4.336  1.00 20.00     0.112 C 
HETATM    9  C9  UNL     1     -34.835  16.495  -3.345  1.00 20.00     0.095 A 
HETATM   10  N10 UNL     1     -35.486  15.981  -4.556  1.00 20.00    -0.223 NA
HETATM   11  N11 UNL     1     -34.816  15.062  -3.658  1.00 20.00    -0.223 NA
ENDROOT
TORSDOF 0
ENDMDL
MODEL 9
REMARK VINA RESULT:      -3.9      2.335      4.126
REMARK  0 active torsions:
REMARK  status: ('A' for Active; 'I' for Inactive)
ROOT
HETATM    1  C1  UNL     1     -36.655  14.694  -5.347  1.00 20.00     0.000 C 
HETATM    2  C2  UNL     1     -36.618  16.150  -4.888  1.00 20.00     0.003 C 
HETATM    3  C3  UNL     1     -35.947  13.780  -4.349  1.00 20.00     0.003 C 
HETATM    4  C4  UNL     1     -35.187  16.622  -4.616  1.00 20.00     0.044 C 
HETATM    5  C5  UNL     1     -34.516  14.248  -4.086  1.00 20.00     0.044 C 
HETATM    6  C6  UNL     1     -33.812  18.153  -1.817  1.00 20.00     0.032 C 
HETATM    7  C7  UNL     1     -32.953  17.517  -2.876  1.00 20.00     0.112 C 
HETATM    8  C8  UNL     1     -34.975  17.205  -1.688  1.00 20.00     0.112 C 
HETATM    9  C9  UNL     1     -34.497  15.701  -3.629  1.00 20.00     0.095 A 
HETATM   10  N10 UNL     1     -33.286  16.097  -2.901  1.00 20.00    -0.223 NA
HETATM   11  N11 UNL     1     -34.527  15.907  -2.177  1.00 20.00    -0.223 NA
ENDROOT
TORSDOF 0
ENDMDL
