MODEL 1
REMARK VINA RESULT:      -5.1      0.000      0.000
REMARK  3 active torsions:
REMARK  status: ('A' for Active; 'I' for Inactive)
REMARK    1  A    between atoms: C6_6  and  C9_9 
REMARK    2  A    between atoms: C7_7  and  C9_9 
REMARK    3  A    between atoms: C8_8  and  O10_10 
ROOT
HETATM    1  C1  UNL     1     -34.323   4.362   3.415  1.00 20.00     0.003 C 
HETATM    2  C2  UNL     1     -33.369   5.208   2.571  1.00 20.00     0.007 C 
HETATM    3  C5  UNL     1     -34.654   5.193   4.654  1.00 20.00     0.032 C 
HETATM    4  C7  UNL     1     -32.835   6.265   3.533  1.00 20.00     0.015 C 
HETATM    5  C8  UNL     1     -34.059   6.572   4.392  1.00 20.00     0.122 C 
ENDROOT
BRANCH   4   6
HETATM    6  C9  UNL     1     -32.272   7.488   2.827  1.00 20.00     0.011 C 
BRANCH   6   7
HETATM    7  C6  UNL     1     -32.968   7.722   1.507  1.00 20.00    -0.014 A 
HETATM    8  C3  UNL     1     -33.061   9.108   0.934  1.00 20.00     0.005 A 
HETATM    9  C4  UNL     1     -32.171   8.086   0.285  1.00 20.00     0.005 A 
ENDBRANCH   6   7
ENDBRANCH   4   6
BRANCH   5  10
HETATM   10  O10 UNL     1     -33.691   7.217   5.595  1.00 20.00    -0.395 OA
HETATM   11  H26 UNL     1     -32.879   7.723   5.412  1.00 20.00     0.210 HD
ENDBRANCH   5  10
TORSDOF 3
ENDMDL
MODEL 2
REMARK VINA RESULT:      -4.9      1.484      1.994
REMARK  3 active torsions:
REMARK  status: ('A' for Active; 'I' for Inactive)
REMARK    1  A    between atoms: C6_6  and  C9_9 
REMARK    2  A    between atoms: C7_7  and  C9_9 
REMARK    3  A    between atoms: C8_8  and  O10_10 
ROOT
HETATM    1  C1  UNL     1     -34.611   5.783   5.852  1.00 20.00     0.003 C 
HETATM    2  C2  UNL     1     -33.724   6.878   5.260  1.00 20.00     0.007 C 
HETATM    3  C5  UNL     1     -34.713   4.690   4.789  1.00 20.00     0.032 C 
HETATM    4  C7  UNL     1     -33.723   6.606   3.758  1.00 20.00     0.015 C 
HETATM    5  C8  UNL     1     -33.716   5.081   3.705  1.00 20.00     0.122 C 
ENDROOT
BRANCH   4   6
HETATM    6  C9  UNL     1     -32.546   7.241   3.035  1.00 20.00     0.011 C 
BRANCH   6   7
HETATM    7  C6  UNL     1     -32.892   7.544   1.596  1.00 20.00    -0.014 A 
HETATM    8  C3  UNL     1     -32.925   8.966   1.108  1.00 20.00     0.005 A 
HETATM    9  C4  UNL     1     -31.832   8.040   0.651  1.00 20.00     0.005 A 
ENDBRANCH   6   7
ENDBRANCH   4   6
BRANCH   5  10
HETATM   10  O10 UNL     1     -34.119   4.612   2.433  1.00 20.00    -0.395 OA
HETATM   11  H26 UNL     1     -35.092   4.574   2.437  1.00 20.00     0.210 HD
ENDBRANCH   5  10
TORSDOF 3
ENDMDL
MODEL 3
REMARK VINA RESULT:      -4.3     10.804     11.774
REMARK  3 active torsions:
REMARK  status: ('A' for Active; 'I' for Inactive)
REMARK    1  A    between atoms: C6_6  and  C9_9 
REMARK    2  A    between atoms: C7_7  and  C9_9 
REMARK    3  A    between atoms: C8_8  and  O10_10 
ROOT
HETATM    1  C1  UNL     1     -33.690  16.362  -2.403  1.00 20.00     0.003 C 
HETATM    2  C2  UNL     1     -35.026  15.636  -2.554  1.00 20.00     0.007 C 
HETATM    3  C5  UNL     1     -32.892  16.066  -3.673  1.00 20.00     0.032 C 
HETATM    4  C7  UNL     1     -34.784  14.604  -3.652  1.00 20.00     0.015 C 
HETATM    5  C8  UNL     1     -33.865  15.358  -4.609  1.00 20.00     0.122 C 
ENDROOT
BRANCH   4   6
HETATM    6  C9  UNL     1     -36.067  14.115  -4.307  1.00 20.00     0.011 C 
BRANCH   6   7
HETATM    7  C6  UNL     1     -37.231  15.012  -3.958  1.00 20.00    -0.014 A 
HETATM    8  C3  UNL     1     -37.930  15.799  -5.032  1.00 20.00     0.005 A 
HETATM    9  C4  UNL     1     -38.626  14.638  -4.377  1.00 20.00     0.005 A 
ENDBRANCH   6   7
ENDBRANCH   4   6
BRANCH   5  10
HETATM   10  O10 UNL     1     -33.195  14.469  -5.482  1.00 20.00    -0.395 OA
HETATM   11  H26 UNL     1     -32.285  14.800  -5.582  1.00 20.00     0.210 HD
ENDBRANCH   5  10
TORSDOF 3
ENDMDL
MODEL 4
REMARK VINA RESULT:      -4.2     10.596     11.873
REMARK  3 active torsions:
REMARK  status: ('A' for Active; 'I' for Inactive)
REMARK    1  A    between atoms: C6_6  and  C9_9 
REMARK    2  A    between atoms: C7_7  and  C9_9 
REMARK    3  A    between atoms: C8_8  and  O10_10 
ROOT
HETATM    1  C1  UNL     1     -35.151  15.710  -6.705  1.00 20.00     0.003 C 
HETATM    2  C2  UNL     1     -34.534  16.087  -5.359  1.00 20.00     0.007 C 
HETATM    3  C5  UNL     1     -35.914  14.405  -6.479  1.00 20.00     0.032 C 
HETATM    4  C7  UNL     1     -34.570  14.798  -4.542  1.00 20.00     0.015 C 
HETATM    5  C8  UNL     1     -35.896  14.178  -4.972  1.00 20.00     0.122 C 
ENDROOT
BRANCH   4   6
HETATM    6  C9  UNL     1     -34.474  15.036  -3.043  1.00 20.00     0.011 C 
BRANCH   6   7
HETATM    7  C6  UNL     1     -34.609  16.505  -2.717  1.00 20.00    -0.014 A 
HETATM    8  C3  UNL     1     -34.889  16.945  -1.307  1.00 20.00     0.005 A 
HETATM    9  C4  UNL     1     -33.542  17.205  -1.921  1.00 20.00     0.005 A 
ENDBRANCH   6   7
ENDBRANCH   4   6
BRANCH   5  10
HETATM   10  O10 UNL     1     -35.945  12.801  -4.653  1.00 20.00    -0.395 OA
HETATM   11  H26 UNL     1     -35.074  12.425  -4.872  1.00 20.00     0.210 HD
ENDBRANCH   5  10
TORSDOF 3
ENDMDL
MODEL 5
REMARK VINA RESULT:      -4.1     10.998     11.653
REMARK  3 active torsions:
REMARK  status: ('A' for Active; 'I' for Inactive)
REMARK    1  A    between atoms: C6_6  and  C9_9 
REMARK    2  A    between atoms: C7_7  and  C9_9 
REMARK    3  A    between atoms: C8_8  and  O10_10 
ROOT
HETATM    1  C1  UNL     1     -36.301  14.798  -3.756  1.00 20.00     0.003 C 
HETATM    2  C2  UNL     1     -35.426  15.749  -2.940  1.00 20.00     0.007 C 
HETATM    3  C5  UNL     1     -35.366  14.083  -4.732  1.00 20.00     0.032 C 
HETATM    4  C7  UNL     1     -34.142  15.889  -3.753  1.00 20.00     0.015 C 
HETATM    5  C8  UNL     1     -33.956  14.480  -4.310  1.00 20.00     0.122 C 
ENDROOT
BRANCH   4   6
HETATM    6  C9  UNL     1     -32.959  16.372  -2.928  1.00 20.00     0.011 C 
BRANCH   6   7
HETATM    7  C6  UNL     1     -33.224  17.742  -2.350  1.00 20.00    -0.014 A 
HETATM    8  C3  UNL     1     -33.322  17.930  -0.861  1.00 20.00     0.005 A 
HETATM    9  C4  UNL     1     -32.139  18.474  -1.611  1.00 20.00     0.005 A 
ENDBRANCH   6   7
ENDBRANCH   4   6
BRANCH   5  10
HETATM   10  O10 UNL     1     -33.065  14.477  -5.409  1.00 20.00    -0.395 OA
HETATM   11  H26 UNL     1     -33.508  14.945  -6.138  1.00 20.00     0.210 HD
ENDBRANCH   5  10
TORSDOF 3
ENDMDL
MODEL 6
REMARK VINA RESULT:      -4.1     10.808     11.577
REMARK  3 active torsions:
REMARK  status: ('A' for Active; 'I' for Inactive)
REMARK    1  A    between atoms: C6_6  and  C9_9 
REMARK    2  A    between atoms: C7_7  and  C9_9 
REMARK    3  A    between atoms: C8_8  and  O10_10 
ROOT
HETATM    1  C1  UNL     1     -33.617  14.767  -4.616  1.00 20.00     0.003 C 
HETATM    2  C2  UNL     1     -33.522  15.672  -3.388  1.00 20.00     0.007 C 
HETATM    3  C5  UNL     1     -35.099  14.444  -4.801  1.00 20.00     0.032 C 
HETATM    4  C7  UNL     1     -34.847  15.472  -2.657  1.00 20.00     0.015 C 
HETATM    5  C8  UNL     1     -35.837  15.337  -3.810  1.00 20.00     0.122 C 
ENDROOT
BRANCH   4   6
HETATM    6  C9  UNL     1     -35.182  16.608  -1.703  1.00 20.00     0.011 C 
BRANCH   6   7
HETATM    7  C6  UNL     1     -33.960  17.444  -1.404  1.00 20.00    -0.014 A 
HETATM    8  C3  UNL     1     -34.059  18.944  -1.364  1.00 20.00     0.005 A 
HETATM    9  C4  UNL     1     -33.844  18.171  -0.092  1.00 20.00     0.005 A 
ENDBRANCH   6   7
ENDBRANCH   4   6
BRANCH   5  10
HETATM   10  O10 UNL     1     -37.048  14.747  -3.379  1.00 20.00    -0.395 OA
HETATM   11  H26 UNL     1     -37.441  14.303  -4.151  1.00 20.00     0.210 HD
ENDBRANCH   5  10
TORSDOF 3
ENDMDL
MODEL 7
REMARK VINA RESULT:      -4.1     10.906     11.903
REMARK  3 active torsions:
REMARK  status: ('A' for Active; 'I' for Inactive)
REMARK    1  A    between atoms: C6_6  and  C9_9 
REMARK    2  A    between atoms: C7_7  and  C9_9 
REMARK    3  A    between atoms: C8_8  and  O10_10 
ROOT
HETATM    1  C1  UNL     1     -34.597  16.379  -2.152  1.00 20.00     0.003 C 
HETATM    2  C2  UNL     1     -35.548  15.635  -3.089  1.00 20.00     0.007 C 
HETATM    3  C5  UNL     1     -33.194  16.204  -2.733  1.00 20.00     0.032 C 
HETATM    4  C7  UNL     1     -34.648  14.700  -3.891  1.00 20.00     0.015 C 
HETATM    5  C8  UNL     1     -33.396  15.550  -4.095  1.00 20.00     0.122 C 
ENDROOT
BRANCH   4   6
HETATM    6  C9  UNL     1     -35.279  14.234  -5.194  1.00 20.00     0.011 C 
BRANCH   6   7
HETATM    7  C6  UNL     1     -35.246  15.328  -6.235  1.00 20.00    -0.014 A 
HETATM    8  C3  UNL     1     -34.348  15.206  -7.435  1.00 20.00     0.005 A 
HETATM    9  C4  UNL     1     -35.839  15.094  -7.598  1.00 20.00     0.005 A 
ENDBRANCH   6   7
ENDBRANCH   4   6
BRANCH   5  10
HETATM   10  O10 UNL     1     -32.288  14.749  -4.458  1.00 20.00    -0.395 OA
HETATM   11  H26 UNL     1     -32.231  14.027  -3.807  1.00 20.00     0.210 HD
ENDBRANCH   5  10
TORSDOF 3
ENDMDL
MODEL 8
REMARK VINA RESULT:      -4.0     10.858     11.857
REMARK  3 active torsions:
REMARK  status: ('A' for Active; 'I' for Inactive)
REMARK    1  A    between atoms: C6_6  and  C9_9 
REMARK    2  A    between atoms: C7_7  and  C9_9 
REMARK    3  A    between atoms: C8_8  and  O10_10 
ROOT
HETATM    1  C1  UNL     1     -33.537  17.188  -1.904  1.00 20.00     0.003 C 
HETATM    2  C2  UNL     1     -32.984  16.481  -3.140  1.00 20.00     0.007 C 
HETATM    3  C5  UNL     1     -34.948  16.642  -1.690  1.00 20.00     0.032 C 
HETATM    4  C7  UNL     1     -34.213  15.915  -3.845  1.00 20.00     0.015 C 
HETATM    5  C8  UNL     1     -35.091  15.486  -2.673  1.00 20.00     0.122 C 
ENDROOT
BRANCH   4   6
HETATM    6  C9  UNL     1     -33.886  14.778  -4.801  1.00 20.00     0.011 C 
BRANCH   6   7
HETATM    7  C6  UNL     1     -34.574  14.973  -6.132  1.00 20.00    -0.014 A 
HETATM    8  C3  UNL     1     -34.542  16.313  -6.813  1.00 20.00     0.005 A 
HETATM    9  C4  UNL     1     -33.762  15.161  -7.383  1.00 20.00     0.005 A 
ENDBRANCH   6   7
ENDBRANCH   4   6
BRANCH   5  10
HETATM   10  O10 UNL     1     -36.435  15.311  -3.078  1.00 20.00    -0.395 OA
HETATM   11  H26 UNL     1     -36.883  16.167  -2.961  1.00 20.00     0.210 HD
ENDBRANCH   5  10
TORSDOF 3
ENDMDL
MODEL 9
REMARK VINA RESULT:      -4.0     10.884     11.668
REMARK  3 active torsions:
REMARK  status: ('A' for Active; 'I' for Inactive)
REMARK    1  A    between atoms: C6_6  and  C9_9 
REMARK    2  A    between atoms: C7_7  and  C9_9 
REMARK    3  A    between atoms: C8_8  and  O10_10 
ROOT
HETATM    1  C1  UNL     1     -35.013  14.392  -4.289  1.00 20.00     0.003 C 
HETATM    2  C2  UNL     1     -34.109  15.124  -3.297  1.00 20.00     0.007 C 
HETATM    3  C5  UNL     1     -36.381  15.069  -4.206  1.00 20.00     0.032 C 
HETATM    4  C7  UNL     1     -35.070  15.866  -2.372  1.00 20.00     0.015 C 
HETATM    5  C8  UNL     1     -36.174  16.301  -3.332  1.00 20.00     0.122 C 
ENDROOT
BRANCH   4   6
HETATM    6  C9  UNL     1     -34.418  17.026  -1.637  1.00 20.00     0.011 C 
BRANCH   6   7
HETATM    7  C6  UNL     1     -33.009  17.257  -2.129  1.00 20.00    -0.014 A 
HETATM    8  C3  UNL     1     -32.625  18.578  -2.738  1.00 20.00     0.005 A 
HETATM    9  C4  UNL     1     -32.091  18.190  -1.387  1.00 20.00     0.005 A 
ENDBRANCH   6   7
ENDBRANCH   4   6
BRANCH   5  10
HETATM   10  O10 UNL     1     -37.354  16.647  -2.632  1.00 20.00    -0.395 OA
HETATM   11  H26 UNL     1     -37.956  17.061  -3.275  1.00 20.00     0.210 HD
ENDBRANCH   5  10
TORSDOF 3
ENDMDL
