MODEL 1
REMARK VINA RESULT:      -3.0      0.000      0.000
REMARK  1 active torsions:
REMARK  status: ('A' for Active; 'I' for Inactive)
REMARK    1  A    between atoms: N5_5  and  N6_6 
ROOT
HETATM    1  C1  UNL     1     -33.680   6.846   5.514  1.00 20.00     0.130 C 
HETATM    2  C2  UNL     1     -35.183   5.295   4.426  1.00 20.00     0.130 C 
HETATM    3  N5  UNL     1     -34.190   6.349   4.239  1.00 20.00    -0.259 NA
ENDROOT
BRANCH   3   4
HETATM    4  N6  UNL     1     -33.073   5.992   3.380  1.00 20.00    -0.259 NA
HETATM    5  C3  UNL     1     -32.639   7.169   2.634  1.00 20.00     0.130 C 
HETATM    6  C4  UNL     1     -33.318   4.851   2.500  1.00 20.00     0.130 C 
ENDBRANCH   3   4
TORSDOF 1
ENDMDL
MODEL 2
REMARK VINA RESULT:      -3.0      0.029      2.513
REMARK  1 active torsions:
REMARK  status: ('A' for Active; 'I' for Inactive)
REMARK    1  A    between atoms: N5_5  and  N6_6 
ROOT
HETATM    1  C1  UNL     1     -32.625   7.167   2.678  1.00 20.00     0.130 C 
HETATM    2  C2  UNL     1     -33.339   4.864   2.491  1.00 20.00     0.130 C 
HETATM    3  N5  UNL     1     -33.084   5.981   3.396  1.00 20.00    -0.259 NA
ENDROOT
BRANCH   3   4
HETATM    4  N6  UNL     1     -34.200   6.339   4.256  1.00 20.00    -0.259 NA
HETATM    5  C3  UNL     1     -33.690   6.845   5.526  1.00 20.00     0.130 C 
HETATM    6  C4  UNL     1     -35.189   5.281   4.450  1.00 20.00     0.130 C 
ENDBRANCH   3   4
TORSDOF 1
ENDMDL
MODEL 3
REMARK VINA RESULT:      -2.9      0.478      1.461
REMARK  1 active torsions:
REMARK  status: ('A' for Active; 'I' for Inactive)
REMARK    1  A    between atoms: N5_5  and  N6_6 
ROOT
HETATM    1  C1  UNL     1     -33.655   6.814   5.440  1.00 20.00     0.130 C 
HETATM    2  C2  UNL     1     -34.819   4.829   4.696  1.00 20.00     0.130 C 
HETATM    3  N5  UNL     1     -34.380   6.176   4.344  1.00 20.00    -0.259 NA
ENDROOT
BRANCH   3   4
HETATM    4  N6  UNL     1     -33.590   6.264   3.128  1.00 20.00    -0.259 NA
HETATM    5  C3  UNL     1     -33.279   4.919   2.653  1.00 20.00     0.130 C 
HETATM    6  C4  UNL     1     -32.390   7.093   3.234  1.00 20.00     0.130 C 
ENDBRANCH   3   4
TORSDOF 1
ENDMDL
MODEL 4
REMARK VINA RESULT:      -2.9      0.487      2.741
REMARK  1 active torsions:
REMARK  status: ('A' for Active; 'I' for Inactive)
REMARK    1  A    between atoms: N5_5  and  N6_6 
ROOT
HETATM    1  C1  UNL     1     -33.291   5.045   2.600  1.00 20.00     0.130 C 
HETATM    2  C2  UNL     1     -32.311   7.133   3.327  1.00 20.00     0.130 C 
HETATM    3  N5  UNL     1     -33.546   6.375   3.149  1.00 20.00    -0.259 NA
ENDROOT
BRANCH   3   4
HETATM    4  N6  UNL     1     -34.367   6.255   4.341  1.00 20.00    -0.259 NA
HETATM    5  C3  UNL     1     -33.656   6.827   5.480  1.00 20.00     0.130 C 
HETATM    6  C4  UNL     1     -34.844   4.902   4.624  1.00 20.00     0.130 C 
ENDBRANCH   3   4
TORSDOF 1
ENDMDL
MODEL 5
REMARK VINA RESULT:      -2.8      0.704      2.196
REMARK  1 active torsions:
REMARK  status: ('A' for Active; 'I' for Inactive)
REMARK    1  A    between atoms: N5_5  and  N6_6 
ROOT
HETATM    1  C1  UNL     1     -32.560   7.060   3.299  1.00 20.00     0.130 C 
HETATM    2  C2  UNL     1     -33.664   6.831   5.439  1.00 20.00     0.130 C 
HETATM    3  N5  UNL     1     -33.806   6.734   3.989  1.00 20.00    -0.259 NA
ENDROOT
BRANCH   3   4
HETATM    4  N6  UNL     1     -34.304   5.456   3.507  1.00 20.00    -0.259 NA
HETATM    5  C3  UNL     1     -34.752   4.652   4.641  1.00 20.00     0.130 C 
HETATM    6  C4  UNL     1     -33.376   4.720   2.652  1.00 20.00     0.130 C 
ENDBRANCH   3   4
TORSDOF 1
ENDMDL
MODEL 6
REMARK VINA RESULT:      -2.8      0.743      2.186
REMARK  1 active torsions:
REMARK  status: ('A' for Active; 'I' for Inactive)
REMARK    1  A    between atoms: N5_5  and  N6_6 
ROOT
HETATM    1  C1  UNL     1     -34.758   4.704   4.849  1.00 20.00     0.130 C 
HETATM    2  C2  UNL     1     -33.534   4.706   2.762  1.00 20.00     0.130 C 
HETATM    3  N5  UNL     1     -34.381   5.477   3.667  1.00 20.00    -0.259 NA
ENDROOT
BRANCH   3   4
HETATM    4  N6  UNL     1     -33.828   6.755   4.084  1.00 20.00    -0.259 NA
HETATM    5  C3  UNL     1     -32.613   7.028   3.322  1.00 20.00     0.130 C 
HETATM    6  C4  UNL     1     -33.608   6.887   5.523  1.00 20.00     0.130 C 
ENDBRANCH   3   4
TORSDOF 1
ENDMDL
MODEL 7
REMARK VINA RESULT:      -2.8     15.778     16.642
REMARK  1 active torsions:
REMARK  status: ('A' for Active; 'I' for Inactive)
REMARK    1  A    between atoms: N5_5  and  N6_6 
ROOT
HETATM    1  C1  UNL     1     -22.556  16.972   9.142  1.00 20.00     0.130 C 
HETATM    2  C2  UNL     1     -24.467  18.310   9.780  1.00 20.00     0.130 C 
HETATM    3  N5  UNL     1     -23.787  17.025   9.925  1.00 20.00    -0.259 NA
ENDROOT
BRANCH   3   4
HETATM    4  N6  UNL     1     -23.504  16.634  11.296  1.00 20.00    -0.259 NA
HETATM    5  C3  UNL     1     -24.623  15.857  11.819  1.00 20.00     0.130 C 
HETATM    6  C4  UNL     1     -23.145  17.737  12.186  1.00 20.00     0.130 C 
ENDBRANCH   3   4
TORSDOF 1
ENDMDL
MODEL 8
REMARK VINA RESULT:      -2.7     15.983     16.919
REMARK  1 active torsions:
REMARK  status: ('A' for Active; 'I' for Inactive)
REMARK    1  A    between atoms: N5_5  and  N6_6 
ROOT
HETATM    1  C1  UNL     1     -22.524  17.762  12.186  1.00 20.00     0.130 C 
HETATM    2  C2  UNL     1     -22.496  18.208   9.809  1.00 20.00     0.130 C 
HETATM    3  N5  UNL     1     -22.904  17.281  10.860  1.00 20.00    -0.259 NA
ENDROOT
BRANCH   3   4
HETATM    4  N6  UNL     1     -24.316  16.937  10.859  1.00 20.00    -0.259 NA
HETATM    5  C3  UNL     1     -25.104  18.127  11.169  1.00 20.00     0.130 C 
HETATM    6  C4  UNL     1     -24.674  15.810  11.718  1.00 20.00     0.130 C 
ENDBRANCH   3   4
TORSDOF 1
ENDMDL
MODEL 9
REMARK VINA RESULT:      -2.7     16.120     16.972
REMARK  1 active torsions:
REMARK  status: ('A' for Active; 'I' for Inactive)
REMARK    1  A    between atoms: N5_5  and  N6_6 
ROOT
HETATM    1  C1  UNL     1     -25.458  18.361  11.260  1.00 20.00     0.130 C 
HETATM    2  C2  UNL     1     -24.581  16.112  11.416  1.00 20.00     0.130 C 
HETATM    3  N5  UNL     1     -24.417  17.435  10.820  1.00 20.00    -0.259 NA
ENDROOT
BRANCH   3   4
HETATM    4  N6  UNL     1     -23.113  18.042  11.028  1.00 20.00    -0.259 NA
HETATM    5  C3  UNL     1     -22.228  17.682   9.924  1.00 20.00     0.130 C 
HETATM    6  C4  UNL     1     -22.504  17.757  12.327  1.00 20.00     0.130 C 
ENDBRANCH   3   4
TORSDOF 1
ENDMDL
