MODEL 1
REMARK VINA RESULT:      -4.7      0.000      0.000
REMARK  0 active torsions:
REMARK  status: ('A' for Active; 'I' for Inactive)
ROOT
HETATM    1  C1  UNL     1     -34.864   5.409   5.962  1.00 20.00     0.032 C 
HETATM    2  C2  UNL     1     -32.730   6.423   2.336  1.00 20.00     0.032 C 
HETATM    3  C3  UNL     1     -34.620   4.538   4.746  1.00 20.00     0.109 C 
HETATM    4  C4  UNL     1     -33.894   6.550   5.736  1.00 20.00     0.109 C 
HETATM    5  C5  UNL     1     -33.406   5.114   2.689  1.00 20.00     0.109 C 
HETATM    6  C6  UNL     1     -32.684   7.128   3.677  1.00 20.00     0.109 C 
HETATM    7  N7  UNL     1     -34.402   5.514   3.679  1.00 20.00    -0.250 NA
HETATM    8  N8  UNL     1     -33.956   6.755   4.290  1.00 20.00    -0.250 NA
ENDROOT
TORSDOF 0
ENDMDL
MODEL 2
REMARK VINA RESULT:      -4.7      0.070      3.318
REMARK  0 active torsions:
REMARK  status: ('A' for Active; 'I' for Inactive)
ROOT
HETATM    1  C1  UNL     1     -32.746   6.479   2.371  1.00 20.00     0.032 C 
HETATM    2  C2  UNL     1     -34.858   5.460   6.008  1.00 20.00     0.032 C 
HETATM    3  C3  UNL     1     -32.679   7.172   3.717  1.00 20.00     0.109 C 
HETATM    4  C4  UNL     1     -33.433   5.175   2.720  1.00 20.00     0.109 C 
HETATM    5  C5  UNL     1     -33.877   6.592   5.782  1.00 20.00     0.109 C 
HETATM    6  C6  UNL     1     -34.636   4.597   4.783  1.00 20.00     0.109 C 
HETATM    7  N7  UNL     1     -33.950   6.808   4.340  1.00 20.00    -0.250 NA
HETATM    8  N8  UNL     1     -34.416   5.578   3.723  1.00 20.00    -0.250 NA
ENDROOT
TORSDOF 0
ENDMDL
MODEL 3
REMARK VINA RESULT:      -3.6     16.457     17.199
REMARK  0 active torsions:
REMARK  status: ('A' for Active; 'I' for Inactive)
ROOT
HETATM    1  C1  UNL     1     -22.904  18.139   8.211  1.00 20.00     0.032 C 
HETATM    2  C2  UNL     1     -24.160  17.732  12.332  1.00 20.00     0.032 C 
HETATM    3  C3  UNL     1     -24.259  18.455   8.811  1.00 20.00     0.109 C 
HETATM    4  C4  UNL     1     -22.036  17.999   9.444  1.00 20.00     0.109 C 
HETATM    5  C5  UNL     1     -24.971  18.226  11.151  1.00 20.00     0.109 C 
HETATM    6  C6  UNL     1     -22.748  17.764  11.783  1.00 20.00     0.109 C 
HETATM    7  N7  UNL     1     -24.293  17.619  10.009  1.00 20.00    -0.250 NA
HETATM    8  N8  UNL     1     -22.922  17.335  10.397  1.00 20.00    -0.250 NA
ENDROOT
TORSDOF 0
ENDMDL
MODEL 4
REMARK VINA RESULT:      -3.3     15.836     16.280
REMARK  0 active torsions:
REMARK  status: ('A' for Active; 'I' for Inactive)
ROOT
HETATM    1  C1  UNL     1     -24.937  16.147  12.126  1.00 20.00     0.032 C 
HETATM    2  C2  UNL     1     -24.821  19.263   9.125  1.00 20.00     0.032 C 
HETATM    3  C3  UNL     1     -25.859  17.341  11.981  1.00 20.00     0.109 C 
HETATM    4  C4  UNL     1     -24.225  16.132  10.789  1.00 20.00     0.109 C 
HETATM    5  C5  UNL     1     -25.793  19.108  10.276  1.00 20.00     0.109 C 
HETATM    6  C6  UNL     1     -24.155  17.902   9.086  1.00 20.00     0.109 C 
HETATM    7  N7  UNL     1     -25.046  18.297  11.233  1.00 20.00    -0.250 NA
HETATM    8  N8  UNL     1     -24.036  17.551  10.499  1.00 20.00    -0.250 NA
ENDROOT
TORSDOF 0
ENDMDL
MODEL 5
REMARK VINA RESULT:      -3.3      9.215      9.574
REMARK  0 active torsions:
REMARK  status: ('A' for Active; 'I' for Inactive)
ROOT
HETATM    1  C1  UNL     1     -43.307   4.982   0.743  1.00 20.00     0.032 C 
HETATM    2  C2  UNL     1     -41.176   8.522  -0.545  1.00 20.00     0.032 C 
HETATM    3  C3  UNL     1     -43.417   6.390   1.291  1.00 20.00     0.109 C 
HETATM    4  C4  UNL     1     -42.562   5.204  -0.557  1.00 20.00     0.109 C 
HETATM    5  C5  UNL     1     -42.208   8.400   0.557  1.00 20.00     0.109 C 
HETATM    6  C6  UNL     1     -41.349   7.212  -1.288  1.00 20.00     0.109 C 
HETATM    7  N7  UNL     1     -42.134   6.988   0.924  1.00 20.00    -0.250 NA
HETATM    8  N8  UNL     1     -41.606   6.254  -0.215  1.00 20.00    -0.250 NA
ENDROOT
TORSDOF 0
ENDMDL
MODEL 6
REMARK VINA RESULT:      -3.3      9.173      9.670
REMARK  0 active torsions:
REMARK  status: ('A' for Active; 'I' for Inactive)
ROOT
HETATM    1  C1  UNL     1     -41.203   8.753  -0.419  1.00 20.00     0.032 C 
HETATM    2  C2  UNL     1     -43.127   5.030   0.660  1.00 20.00     0.032 C 
HETATM    3  C3  UNL     1     -41.181   7.437  -1.170  1.00 20.00     0.109 C 
HETATM    4  C4  UNL     1     -42.327   8.534   0.573  1.00 20.00     0.109 C 
HETATM    5  C5  UNL     1     -42.275   5.324  -0.557  1.00 20.00     0.109 C 
HETATM    6  C6  UNL     1     -43.417   6.420   1.189  1.00 20.00     0.109 C 
HETATM    7  N7  UNL     1     -41.459   6.455  -0.124  1.00 20.00    -0.250 NA
HETATM    8  N8  UNL     1     -42.164   7.132   0.952  1.00 20.00    -0.250 NA
ENDROOT
TORSDOF 0
ENDMDL
MODEL 7
REMARK VINA RESULT:      -3.2      9.741     10.104
REMARK  0 active torsions:
REMARK  status: ('A' for Active; 'I' for Inactive)
ROOT
HETATM    1  C1  UNL     1     -42.223   9.021  -0.080  1.00 20.00     0.032 C 
HETATM    2  C2  UNL     1     -42.296   4.971  -1.602  1.00 20.00     0.032 C 
HETATM    3  C3  UNL     1     -43.375   8.291  -0.739  1.00 20.00     0.109 C 
HETATM    4  C4  UNL     1     -41.262   7.891   0.224  1.00 20.00     0.109 C 
HETATM    5  C5  UNL     1     -43.416   5.991  -1.601  1.00 20.00     0.109 C 
HETATM    6  C6  UNL     1     -41.300   5.592  -0.643  1.00 20.00     0.109 C 
HETATM    7  N7  UNL     1     -42.704   7.263  -1.533  1.00 20.00    -0.250 NA
HETATM    8  N8  UNL     1     -41.400   7.018  -0.940  1.00 20.00    -0.250 NA
ENDROOT
TORSDOF 0
ENDMDL
MODEL 8
REMARK VINA RESULT:      -3.2      9.751     10.193
REMARK  0 active torsions:
REMARK  status: ('A' for Active; 'I' for Inactive)
ROOT
HETATM    1  C1  UNL     1     -42.276   4.957  -1.613  1.00 20.00     0.032 C 
HETATM    2  C2  UNL     1     -42.275   8.998  -0.064  1.00 20.00     0.032 C 
HETATM    3  C3  UNL     1     -41.297   5.587  -0.643  1.00 20.00     0.109 C 
HETATM    4  C4  UNL     1     -43.413   5.959  -1.612  1.00 20.00     0.109 C 
HETATM    5  C5  UNL     1     -41.298   7.880   0.237  1.00 20.00     0.109 C 
HETATM    6  C6  UNL     1     -43.412   8.254  -0.736  1.00 20.00     0.109 C 
HETATM    7  N7  UNL     1     -41.416   7.014  -0.933  1.00 20.00    -0.250 NA
HETATM    8  N8  UNL     1     -42.721   7.243  -1.532  1.00 20.00    -0.250 NA
ENDROOT
TORSDOF 0
ENDMDL
MODEL 9
REMARK VINA RESULT:      -3.2      9.487      9.851
REMARK  0 active torsions:
REMARK  status: ('A' for Active; 'I' for Inactive)
ROOT
HETATM    1  C1  UNL     1     -43.417   4.803  -0.234  1.00 20.00     0.032 C 
HETATM    2  C2  UNL     1     -41.365   8.613  -0.308  1.00 20.00     0.032 C 
HETATM    3  C3  UNL     1     -43.158   5.703  -1.425  1.00 20.00     0.109 C 
HETATM    4  C4  UNL     1     -42.490   5.386   0.812  1.00 20.00     0.109 C 
HETATM    5  C5  UNL     1     -41.991   7.864  -1.467  1.00 20.00     0.109 C 
HETATM    6  C6  UNL     1     -41.327   7.551   0.773  1.00 20.00     0.109 C 
HETATM    7  N7  UNL     1     -42.987   7.020  -0.814  1.00 20.00    -0.250 NA
HETATM    8  N8  UNL     1     -42.577   6.824   0.566  1.00 20.00    -0.250 NA
ENDROOT
TORSDOF 0
ENDMDL
