MODEL 1
REMARK VINA RESULT:      -5.7      0.000      0.000
REMARK  0 active torsions:
REMARK  status: ('A' for Active; 'I' for Inactive)
ROOT
HETATM    1  C1  UNL     1     -34.310   5.555   6.090  1.00 20.00    -0.029 A 
HETATM    2  C2  UNL     1     -34.005   6.775   5.638  1.00 20.00    -0.018 A 
HETATM    3  C3  UNL     1     -32.955   6.622   3.363  1.00 20.00     0.135 A 
HETATM    4  C4  UNL     1     -34.789   4.618   5.023  1.00 20.00     0.033 A 
HETATM    5  C5  UNL     1     -33.462   5.276   2.821  1.00 20.00     0.084 A 
HETATM    6  C6  UNL     1     -34.231   6.853   4.188  1.00 20.00     0.082 A 
HETATM    7  C7  UNL     1     -34.713   5.443   3.731  1.00 20.00     0.011 A 
HETATM    8  O8  UNL     1     -31.930   7.253   3.202  1.00 20.00    -0.297 OA
ENDROOT
TORSDOF 0
ENDMDL
MODEL 2
REMARK VINA RESULT:      -5.1      1.831      3.216
REMARK  0 active torsions:
REMARK  status: ('A' for Active; 'I' for Inactive)
ROOT
HETATM    1  C1  UNL     1     -33.081   5.170   2.711  1.00 20.00    -0.029 A 
HETATM    2  C2  UNL     1     -34.166   4.631   3.276  1.00 20.00    -0.018 A 
HETATM    3  C3  UNL     1     -34.483   5.546   5.593  1.00 20.00     0.135 A 
HETATM    4  C4  UNL     1     -32.868   6.611   3.064  1.00 20.00     0.033 A 
HETATM    5  C5  UNL     1     -33.739   6.891   5.555  1.00 20.00     0.084 A 
HETATM    6  C6  UNL     1     -34.858   5.629   4.104  1.00 20.00     0.082 A 
HETATM    7  C7  UNL     1     -34.018   6.940   4.025  1.00 20.00     0.011 A 
HETATM    8  O8  UNL     1     -34.687   4.730   6.468  1.00 20.00    -0.297 OA
ENDROOT
TORSDOF 0
ENDMDL
MODEL 3
REMARK VINA RESULT:      -4.6      1.782      2.823
REMARK  0 active torsions:
REMARK  status: ('A' for Active; 'I' for Inactive)
ROOT
HETATM    1  C1  UNL     1     -32.890   7.295   4.666  1.00 20.00    -0.029 A 
HETATM    2  C2  UNL     1     -33.491   6.673   3.646  1.00 20.00    -0.018 A 
HETATM    3  C3  UNL     1     -34.445   4.479   4.409  1.00 20.00     0.135 A 
HETATM    4  C4  UNL     1     -33.586   7.111   5.981  1.00 20.00     0.033 A 
HETATM    5  C5  UNL     1     -34.628   4.671   5.923  1.00 20.00     0.084 A 
HETATM    6  C6  UNL     1     -34.692   5.968   4.116  1.00 20.00     0.082 A 
HETATM    7  C7  UNL     1     -34.776   6.197   5.655  1.00 20.00     0.011 A 
HETATM    8  O8  UNL     1     -34.193   3.515   3.714  1.00 20.00    -0.297 OA
ENDROOT
TORSDOF 0
ENDMDL
MODEL 4
REMARK VINA RESULT:      -4.3     11.973     12.651
REMARK  0 active torsions:
REMARK  status: ('A' for Active; 'I' for Inactive)
ROOT
HETATM    1  C1  UNL     1     -34.310  16.079  -2.683  1.00 20.00    -0.029 A 
HETATM    2  C2  UNL     1     -35.263  15.168  -2.904  1.00 20.00    -0.018 A 
HETATM    3  C3  UNL     1     -35.355  14.581  -5.343  1.00 20.00     0.135 A 
HETATM    4  C4  UNL     1     -33.090  15.895  -3.533  1.00 20.00     0.033 A 
HETATM    5  C5  UNL     1     -33.951  14.941  -5.855  1.00 20.00     0.084 A 
HETATM    6  C6  UNL     1     -34.832  14.222  -3.943  1.00 20.00     0.082 A 
HETATM    7  C7  UNL     1     -33.420  14.683  -4.415  1.00 20.00     0.011 A 
HETATM    8  O8  UNL     1     -36.456  14.588  -5.855  1.00 20.00    -0.297 OA
ENDROOT
TORSDOF 0
ENDMDL
MODEL 5
REMARK VINA RESULT:      -4.3     11.853     12.401
REMARK  0 active torsions:
REMARK  status: ('A' for Active; 'I' for Inactive)
ROOT
HETATM    1  C1  UNL     1     -34.404  15.873  -2.596  1.00 20.00    -0.029 A 
HETATM    2  C2  UNL     1     -34.010  15.031  -3.557  1.00 20.00    -0.018 A 
HETATM    3  C3  UNL     1     -35.978  13.755  -4.453  1.00 20.00     0.135 A 
HETATM    4  C4  UNL     1     -35.744  16.495  -2.850  1.00 20.00     0.033 A 
HETATM    5  C5  UNL     1     -37.177  14.657  -4.119  1.00 20.00     0.084 A 
HETATM    6  C6  UNL     1     -35.028  14.953  -4.615  1.00 20.00     0.082 A 
HETATM    7  C7  UNL     1     -36.207  15.873  -4.174  1.00 20.00     0.011 A 
HETATM    8  O8  UNL     1     -35.839  12.552  -4.546  1.00 20.00    -0.297 OA
ENDROOT
TORSDOF 0
ENDMDL
MODEL 6
REMARK VINA RESULT:      -4.2      8.756      9.568
REMARK  0 active torsions:
REMARK  status: ('A' for Active; 'I' for Inactive)
ROOT
HETATM    1  C1  UNL     1     -41.735   8.602  -0.297  1.00 20.00    -0.029 A 
HETATM    2  C2  UNL     1     -41.458   7.925   0.822  1.00 20.00    -0.018 A 
HETATM    3  C3  UNL     1     -42.334   5.577   0.656  1.00 20.00     0.135 A 
HETATM    4  C4  UNL     1     -41.642   7.773  -1.543  1.00 20.00     0.033 A 
HETATM    5  C5  UNL     1     -42.423   5.332  -0.859  1.00 20.00     0.084 A 
HETATM    6  C6  UNL     1     -41.134   6.527   0.505  1.00 20.00     0.082 A 
HETATM    7  C7  UNL     1     -41.278   6.370  -1.039  1.00 20.00     0.011 A 
HETATM    8  O8  UNL     1     -42.976   5.177   1.606  1.00 20.00    -0.297 OA
ENDROOT
TORSDOF 0
ENDMDL
MODEL 7
REMARK VINA RESULT:      -4.1     16.415     16.886
REMARK  0 active torsions:
REMARK  status: ('A' for Active; 'I' for Inactive)
ROOT
HETATM    1  C1  UNL     1     -25.799  19.262  10.512  1.00 20.00    -0.029 A 
HETATM    2  C2  UNL     1     -25.227  19.263   9.304  1.00 20.00    -0.018 A 
HETATM    3  C3  UNL     1     -22.823  18.560   9.481  1.00 20.00     0.135 A 
HETATM    4  C4  UNL     1     -25.327  18.153  11.403  1.00 20.00     0.033 A 
HETATM    5  C5  UNL     1     -22.778  17.751  10.787  1.00 20.00     0.084 A 
HETATM    6  C6  UNL     1     -24.276  18.148   9.190  1.00 20.00     0.082 A 
HETATM    7  C7  UNL     1     -24.280  17.410  10.563  1.00 20.00     0.011 A 
HETATM    8  O8  UNL     1     -22.016  19.263   8.907  1.00 20.00    -0.297 OA
ENDROOT
TORSDOF 0
ENDMDL
MODEL 8
REMARK VINA RESULT:      -4.1      9.010      9.776
REMARK  0 active torsions:
REMARK  status: ('A' for Active; 'I' for Inactive)
ROOT
HETATM    1  C1  UNL     1     -41.229   5.943  -0.769  1.00 20.00    -0.029 A 
HETATM    2  C2  UNL     1     -40.906   6.694   0.288  1.00 20.00    -0.018 A 
HETATM    3  C3  UNL     1     -42.123   8.888   0.199  1.00 20.00     0.135 A 
HETATM    4  C4  UNL     1     -42.662   6.074  -1.189  1.00 20.00     0.033 A 
HETATM    5  C5  UNL     1     -43.346   8.588  -0.682  1.00 20.00     0.084 A 
HETATM    6  C6  UNL     1     -42.076   7.453   0.750  1.00 20.00     0.082 A 
HETATM    7  C7  UNL     1     -43.249   7.106  -0.216  1.00 20.00     0.011 A 
HETATM    8  O8  UNL     1     -41.449   9.882   0.380  1.00 20.00    -0.297 OA
ENDROOT
TORSDOF 0
ENDMDL
MODEL 9
REMARK VINA RESULT:      -4.0     11.568     12.294
REMARK  0 active torsions:
REMARK  status: ('A' for Active; 'I' for Inactive)
ROOT
HETATM    1  C1  UNL     1     -33.824  16.767  -1.925  1.00 20.00    -0.029 A 
HETATM    2  C2  UNL     1     -33.112  16.661  -3.052  1.00 20.00    -0.018 A 
HETATM    3  C3  UNL     1     -33.670  14.518  -4.234  1.00 20.00     0.135 A 
HETATM    4  C4  UNL     1     -35.217  16.225  -2.038  1.00 20.00     0.033 A 
HETATM    5  C5  UNL     1     -35.071  14.169  -3.709  1.00 20.00     0.084 A 
HETATM    6  C6  UNL     1     -33.918  16.030  -4.106  1.00 20.00     0.082 A 
HETATM    7  C7  UNL     1     -35.302  15.690  -3.474  1.00 20.00     0.011 A 
HETATM    8  O8  UNL     1     -32.726  13.847  -4.601  1.00 20.00    -0.297 OA
ENDROOT
TORSDOF 0
ENDMDL
