MODEL 1
REMARK VINA RESULT:      -4.3      0.000      0.000
REMARK  2 active torsions:
REMARK  status: ('A' for Active; 'I' for Inactive)
REMARK    1  A    between atoms: C6_6  and  N9_9 
REMARK    2  A    between atoms: C7_7  and  N9_9 
ROOT
HETATM    1  C1  UNL     1     -21.807  17.145   7.727  1.00 20.00     0.100 C 
HETATM    2  C4  UNL     1     -21.293  18.640   9.616  1.00 20.00     0.065 C 
HETATM    3  C5  UNL     1     -23.626  18.487   8.695  1.00 20.00     0.065 C 
HETATM    4  C7  UNL     1     -22.335  17.715   8.980  1.00 20.00     0.237 C 
HETATM    5  N8  UNL     1     -21.390  16.697   6.741  1.00 20.00    -0.195 NA
ENDROOT
BRANCH   4   6
HETATM    6  N9  UNL     1     -22.627  16.643   9.914  1.00 20.00     0.110 N 
HETATM    7  H23 UNL     1     -23.026  15.850   9.408  1.00 20.00     0.318 HD
BRANCH   6   8
HETATM    8  C6  UNL     1     -23.571  17.078  10.937  1.00 20.00     0.214 C 
HETATM    9  C2  UNL     1     -22.805  17.438  12.201  1.00 20.00     0.042 C 
HETATM   10  C3  UNL     1     -24.576  15.962  11.186  1.00 20.00     0.042 C 
ENDBRANCH   6   8
ENDBRANCH   4   6
TORSDOF 2
ENDMDL
MODEL 2
REMARK VINA RESULT:      -4.2      1.935      4.221
REMARK  2 active torsions:
REMARK  status: ('A' for Active; 'I' for Inactive)
REMARK    1  A    between atoms: C6_6  and  N9_9 
REMARK    2  A    between atoms: C7_7  and  N9_9 
ROOT
HETATM    1  C1  UNL     1     -25.360  18.222  11.686  1.00 20.00     0.100 C 
HETATM    2  C4  UNL     1     -22.966  17.660  11.828  1.00 20.00     0.065 C 
HETATM    3  C5  UNL     1     -24.713  15.855  11.862  1.00 20.00     0.065 C 
HETATM    4  C7  UNL     1     -24.338  17.230  11.303  1.00 20.00     0.237 C 
HETATM    5  N8  UNL     1     -26.163  19.002  11.989  1.00 20.00    -0.195 NA
ENDROOT
BRANCH   4   6
HETATM    6  N9  UNL     1     -24.269  17.143   9.855  1.00 20.00     0.110 N 
HETATM    7  H23 UNL     1     -24.012  16.192   9.583  1.00 20.00     0.318 HD
BRANCH   6   8
HETATM    8  C6  UNL     1     -23.282  18.073   9.319  1.00 20.00     0.214 C 
HETATM    9  C2  UNL     1     -24.002  19.197   8.588  1.00 20.00     0.042 C 
HETATM   10  C3  UNL     1     -22.341  17.314   8.394  1.00 20.00     0.042 C 
ENDBRANCH   6   8
ENDBRANCH   4   6
TORSDOF 2
ENDMDL
MODEL 3
REMARK VINA RESULT:      -4.2      1.935      3.950
REMARK  2 active torsions:
REMARK  status: ('A' for Active; 'I' for Inactive)
REMARK    1  A    between atoms: C6_6  and  N9_9 
REMARK    2  A    between atoms: C7_7  and  N9_9 
ROOT
HETATM    1  C1  UNL     1     -23.063  17.533  11.973  1.00 20.00     0.100 C 
HETATM    2  C4  UNL     1     -24.871  15.861  12.014  1.00 20.00     0.065 C 
HETATM    3  C5  UNL     1     -25.393  18.318  12.040  1.00 20.00     0.065 C 
HETATM    4  C7  UNL     1     -24.436  17.242  11.520  1.00 20.00     0.237 C 
HETATM    5  N8  UNL     1     -21.983  17.761  12.332  1.00 20.00    -0.195 NA
ENDROOT
BRANCH   4   6
HETATM    6  N9  UNL     1     -24.476  17.244  10.069  1.00 20.00     0.110 N 
HETATM    7  H23 UNL     1     -24.333  16.294   9.722  1.00 20.00     0.318 HD
BRANCH   6   8
HETATM    8  C6  UNL     1     -23.442  18.111   9.515  1.00 20.00     0.214 C 
HETATM    9  C2  UNL     1     -24.101  19.261   8.770  1.00 20.00     0.042 C 
HETATM   10  C3  UNL     1     -22.546  17.287   8.601  1.00 20.00     0.042 C 
ENDBRANCH   6   8
ENDBRANCH   4   6
TORSDOF 2
ENDMDL
MODEL 4
REMARK VINA RESULT:      -4.1     17.371     18.526
REMARK  2 active torsions:
REMARK  status: ('A' for Active; 'I' for Inactive)
REMARK    1  A    between atoms: C6_6  and  N9_9 
REMARK    2  A    between atoms: C7_7  and  N9_9 
ROOT
HETATM    1  C1  UNL     1     -36.083  14.197  -4.656  1.00 20.00     0.100 C 
HETATM    2  C4  UNL     1     -33.658  14.044  -4.261  1.00 20.00     0.065 C 
HETATM    3  C5  UNL     1     -34.556  15.168  -6.320  1.00 20.00     0.065 C 
HETATM    4  C7  UNL     1     -34.795  14.892  -4.834  1.00 20.00     0.237 C 
HETATM    5  N8  UNL     1     -37.097  13.649  -4.517  1.00 20.00    -0.195 NA
ENDROOT
BRANCH   4   6
HETATM    6  N9  UNL     1     -34.827  16.158  -4.123  1.00 20.00     0.110 N 
HETATM    7  H23 UNL     1     -34.388  16.881  -4.694  1.00 20.00     0.318 HD
BRANCH   6   8
HETATM    8  C6  UNL     1     -34.122  16.064  -2.849  1.00 20.00     0.214 C 
HETATM    9  C2  UNL     1     -35.118  16.242  -1.713  1.00 20.00     0.042 C 
HETATM   10  C3  UNL     1     -33.030  17.124  -2.812  1.00 20.00     0.042 C 
ENDBRANCH   6   8
ENDBRANCH   4   6
TORSDOF 2
ENDMDL
MODEL 5
REMARK VINA RESULT:      -4.0      1.909      2.497
REMARK  2 active torsions:
REMARK  status: ('A' for Active; 'I' for Inactive)
REMARK    1  A    between atoms: C6_6  and  N9_9 
REMARK    2  A    between atoms: C7_7  and  N9_9 
ROOT
HETATM    1  C1  UNL     1     -23.648  18.563   7.812  1.00 20.00     0.100 C 
HETATM    2  C4  UNL     1     -23.451  16.651   9.351  1.00 20.00     0.065 C 
HETATM    3  C5  UNL     1     -21.667  18.419   9.263  1.00 20.00     0.065 C 
HETATM    4  C7  UNL     1     -23.168  18.141   9.140  1.00 20.00     0.237 C 
HETATM    5  N8  UNL     1     -24.025  18.894   6.765  1.00 20.00    -0.195 NA
ENDROOT
BRANCH   4   6
HETATM    6  N9  UNL     1     -23.868  18.891  10.167  1.00 20.00     0.110 N 
HETATM    7  H23 UNL     1     -23.209  19.503  10.651  1.00 20.00     0.318 HD
BRANCH   6   8
HETATM    8  C6  UNL     1     -24.489  17.998  11.140  1.00 20.00     0.214 C 
HETATM    9  C2  UNL     1     -25.837  18.570  11.552  1.00 20.00     0.042 C 
HETATM   10  C3  UNL     1     -23.555  17.843  12.332  1.00 20.00     0.042 C 
ENDBRANCH   6   8
ENDBRANCH   4   6
TORSDOF 2
ENDMDL
MODEL 6
REMARK VINA RESULT:      -3.9     17.313     18.447
REMARK  2 active torsions:
REMARK  status: ('A' for Active; 'I' for Inactive)
REMARK    1  A    between atoms: C6_6  and  N9_9 
REMARK    2  A    between atoms: C7_7  and  N9_9 
ROOT
HETATM    1  C1  UNL     1     -36.603  14.457  -4.379  1.00 20.00     0.100 C 
HETATM    2  C4  UNL     1     -34.370  14.881  -5.327  1.00 20.00     0.065 C 
HETATM    3  C5  UNL     1     -35.850  16.785  -4.620  1.00 20.00     0.065 C 
HETATM    4  C7  UNL     1     -35.427  15.344  -4.321  1.00 20.00     0.237 C 
HETATM    5  N8  UNL     1     -37.529  13.758  -4.426  1.00 20.00    -0.195 NA
ENDROOT
BRANCH   4   6
HETATM    6  N9  UNL     1     -34.849  15.293  -2.991  1.00 20.00     0.110 N 
HETATM    7  H23 UNL     1     -35.494  14.819  -2.357  1.00 20.00     0.318 HD
BRANCH   6   8
HETATM    8  C6  UNL     1     -34.581  16.633  -2.482  1.00 20.00     0.214 C 
HETATM    9  C2  UNL     1     -33.079  16.871  -2.467  1.00 20.00     0.042 C 
HETATM   10  C3  UNL     1     -35.184  16.760  -1.090  1.00 20.00     0.042 C 
ENDBRANCH   6   8
ENDBRANCH   4   6
TORSDOF 2
ENDMDL
MODEL 7
REMARK VINA RESULT:      -3.9      2.297      3.633
REMARK  2 active torsions:
REMARK  status: ('A' for Active; 'I' for Inactive)
REMARK    1  A    between atoms: C6_6  and  N9_9 
REMARK    2  A    between atoms: C7_7  and  N9_9 
ROOT
HETATM    1  C1  UNL     1     -24.156  16.469  11.364  1.00 20.00     0.100 C 
HETATM    2  C4  UNL     1     -22.093  17.674  11.959  1.00 20.00     0.065 C 
HETATM    3  C5  UNL     1     -22.607  17.112   9.565  1.00 20.00     0.065 C 
HETATM    4  C7  UNL     1     -23.203  17.503  10.920  1.00 20.00     0.237 C 
HETATM    5  N8  UNL     1     -24.905  15.654  11.714  1.00 20.00    -0.195 NA
ENDROOT
BRANCH   4   6
HETATM    6  N9  UNL     1     -23.897  18.770  10.777  1.00 20.00     0.110 N 
HETATM    7  H23 UNL     1     -23.979  19.219  11.691  1.00 20.00     0.318 HD
BRANCH   6   8
HETATM    8  C6  UNL     1     -25.232  18.579  10.222  1.00 20.00     0.214 C 
HETATM    9  C2  UNL     1     -25.310  19.262   8.865  1.00 20.00     0.042 C 
HETATM   10  C3  UNL     1     -26.256  19.143  11.196  1.00 20.00     0.042 C 
ENDBRANCH   6   8
ENDBRANCH   4   6
TORSDOF 2
ENDMDL
MODEL 8
REMARK VINA RESULT:      -3.9     18.253     19.534
REMARK  2 active torsions:
REMARK  status: ('A' for Active; 'I' for Inactive)
REMARK    1  A    between atoms: C6_6  and  N9_9 
REMARK    2  A    between atoms: C7_7  and  N9_9 
ROOT
HETATM    1  C1  UNL     1     -35.289  13.739  -4.318  1.00 20.00     0.100 C 
HETATM    2  C4  UNL     1     -34.637  15.593  -2.833  1.00 20.00     0.065 C 
HETATM    3  C5  UNL     1     -32.944  14.479  -4.319  1.00 20.00     0.065 C 
HETATM    4  C7  UNL     1     -34.406  14.913  -4.185  1.00 20.00     0.237 C 
HETATM    5  N8  UNL     1     -35.984  12.816  -4.420  1.00 20.00    -0.195 NA
ENDROOT
BRANCH   4   6
HETATM    6  N9  UNL     1     -34.709  15.866  -5.236  1.00 20.00     0.110 N 
HETATM    7  H23 UNL     1     -35.478  16.469  -4.939  1.00 20.00     0.318 HD
BRANCH   6   8
HETATM    8  C6  UNL     1     -35.089  15.187  -6.470  1.00 20.00     0.214 C 
HETATM    9  C2  UNL     1     -33.965  15.331  -7.485  1.00 20.00     0.042 C 
HETATM   10  C3  UNL     1     -36.390  15.787  -6.982  1.00 20.00     0.042 C 
ENDBRANCH   6   8
ENDBRANCH   4   6
TORSDOF 2
ENDMDL
MODEL 9
REMARK VINA RESULT:      -3.8     18.226     19.373
REMARK  2 active torsions:
REMARK  status: ('A' for Active; 'I' for Inactive)
REMARK    1  A    between atoms: C6_6  and  N9_9 
REMARK    2  A    between atoms: C7_7  and  N9_9 
ROOT
HETATM    1  C1  UNL     1     -36.389  13.793  -4.450  1.00 20.00     0.100 C 
HETATM    2  C4  UNL     1     -36.668  16.044  -5.410  1.00 20.00     0.065 C 
HETATM    3  C5  UNL     1     -38.582  14.890  -4.262  1.00 20.00     0.065 C 
HETATM    4  C7  UNL     1     -37.065  15.093  -4.278  1.00 20.00     0.237 C 
HETATM    5  N8  UNL     1     -35.857  12.771  -4.586  1.00 20.00    -0.195 NA
ENDROOT
BRANCH   4   6
HETATM    6  N9  UNL     1     -36.659  15.685  -3.017  1.00 20.00     0.110 N 
HETATM    7  H23 UNL     1     -37.436  16.220  -2.626  1.00 20.00     0.318 HD
BRANCH   6   8
HETATM    8  C6  UNL     1     -35.515  16.572  -3.196  1.00 20.00     0.214 C 
HETATM    9  C2  UNL     1     -34.287  15.935  -2.563  1.00 20.00     0.042 C 
HETATM   10  C3  UNL     1     -35.835  17.922  -2.570  1.00 20.00     0.042 C 
ENDBRANCH   6   8
ENDBRANCH   4   6
TORSDOF 2
ENDMDL
