MODEL 1
REMARK VINA RESULT:      -5.0      0.000      0.000
REMARK  0 active torsions:
REMARK  status: ('A' for Active; 'I' for Inactive)
ROOT
HETATM    1  C1  UNL     1     -32.500   6.488   2.133  1.00 20.00     0.086 C 
HETATM    2  C2  UNL     1     -33.563   5.430   2.233  1.00 20.00     0.055 C 
HETATM    3  C3  UNL     1     -34.820   5.122   5.897  1.00 20.00     0.030 C 
HETATM    4  C4  UNL     1     -34.935   4.902   4.382  1.00 20.00     0.010 C 
HETATM    5  C5  UNL     1     -34.379   6.551   6.254  1.00 20.00     0.272 C 
HETATM    6  C6  UNL     1     -33.653   5.396   3.740  1.00 20.00     0.045 C 
HETATM    7  C7  UNL     1     -33.427   6.867   4.078  1.00 20.00     0.345 C 
HETATM    8  N8  UNL     1     -32.343   7.278   3.155  1.00 20.00    -0.270 NA
HETATM    9  N9  UNL     1     -33.184   6.991   5.514  1.00 20.00     0.108 N 
HETATM   10  H21 UNL     1     -32.991   7.966   5.741  1.00 20.00     0.318 HD
ENDROOT
TORSDOF 0
ENDMDL
MODEL 2
REMARK VINA RESULT:      -4.7      1.511      2.087
REMARK  0 active torsions:
REMARK  status: ('A' for Active; 'I' for Inactive)
ROOT
HETATM    1  C1  UNL     1     -32.941   5.992   1.957  1.00 20.00     0.086 C 
HETATM    2  C2  UNL     1     -32.520   6.989   2.999  1.00 20.00     0.055 C 
HETATM    3  C3  UNL     1     -34.549   6.461   6.271  1.00 20.00     0.030 C 
HETATM    4  C4  UNL     1     -33.366   7.011   5.462  1.00 20.00     0.010 C 
HETATM    5  C5  UNL     1     -34.861   4.993   5.936  1.00 20.00     0.272 C 
HETATM    6  C6  UNL     1     -33.609   6.687   4.000  1.00 20.00     0.045 C 
HETATM    7  C7  UNL     1     -33.765   5.180   3.814  1.00 20.00     0.345 C 
HETATM    8  N8  UNL     1     -33.683   4.996   2.346  1.00 20.00    -0.270 NA
HETATM    9  N9  UNL     1     -34.985   4.743   4.490  1.00 20.00     0.108 N 
HETATM   10  H21 UNL     1     -35.117   3.743   4.334  1.00 20.00     0.318 HD
ENDROOT
TORSDOF 0
ENDMDL
MODEL 3
REMARK VINA RESULT:      -4.5     15.494     16.071
REMARK  0 active torsions:
REMARK  status: ('A' for Active; 'I' for Inactive)
ROOT
HETATM    1  C1  UNL     1     -22.670  17.819   8.371  1.00 20.00     0.086 C 
HETATM    2  C2  UNL     1     -23.490  18.878   9.051  1.00 20.00     0.055 C 
HETATM    3  C3  UNL     1     -25.694  17.300  11.834  1.00 20.00     0.030 C 
HETATM    4  C4  UNL     1     -25.005  18.477  11.130  1.00 20.00     0.010 C 
HETATM    5  C5  UNL     1     -24.769  16.082  11.989  1.00 20.00     0.272 C 
HETATM    6  C6  UNL     1     -24.362  17.950   9.861  1.00 20.00     0.045 C 
HETATM    7  C7  UNL     1     -23.371  16.838  10.196  1.00 20.00     0.345 C 
HETATM    8  N8  UNL     1     -22.616  16.648   8.935  1.00 20.00    -0.270 NA
HETATM    9  N9  UNL     1     -24.106  15.694  10.731  1.00 20.00     0.108 N 
HETATM   10  H21 UNL     1     -23.455  14.932  10.918  1.00 20.00     0.318 HD
ENDROOT
TORSDOF 0
ENDMDL
MODEL 4
REMARK VINA RESULT:      -4.4      1.473      3.707
REMARK  0 active torsions:
REMARK  status: ('A' for Active; 'I' for Inactive)
ROOT
HETATM    1  C1  UNL     1     -34.962   5.222   5.974  1.00 20.00     0.086 C 
HETATM    2  C2  UNL     1     -34.242   6.537   6.072  1.00 20.00     0.055 C 
HETATM    3  C3  UNL     1     -32.126   7.159   2.873  1.00 20.00     0.030 C 
HETATM    4  C4  UNL     1     -32.833   7.605   4.161  1.00 20.00     0.010 C 
HETATM    5  C5  UNL     1     -32.993   6.219   2.019  1.00 20.00     0.272 C 
HETATM    6  C6  UNL     1     -33.371   6.367   4.851  1.00 20.00     0.045 C 
HETATM    7  C7  UNL     1     -34.319   5.615   3.921  1.00 20.00     0.345 C 
HETATM    8  N8  UNL     1     -34.986   4.637   4.812  1.00 20.00    -0.270 NA
HETATM    9  N9  UNL     1     -33.557   5.096   2.786  1.00 20.00     0.108 N 
HETATM   10  H21 UNL     1     -34.178   4.557   2.182  1.00 20.00     0.318 HD
ENDROOT
TORSDOF 0
ENDMDL
MODEL 5
REMARK VINA RESULT:      -4.3     15.718     16.446
REMARK  0 active torsions:
REMARK  status: ('A' for Active; 'I' for Inactive)
ROOT
HETATM    1  C1  UNL     1     -25.432  16.715  12.228  1.00 20.00     0.086 C 
HETATM    2  C2  UNL     1     -24.310  15.970  11.561  1.00 20.00     0.055 C 
HETATM    3  C3  UNL     1     -23.066  17.919   8.438  1.00 20.00     0.030 C 
HETATM    4  C4  UNL     1     -22.926  16.865   9.545  1.00 20.00     0.010 C 
HETATM    5  C5  UNL     1     -23.593  19.263   8.967  1.00 20.00     0.272 C 
HETATM    6  C6  UNL     1     -24.230  16.824  10.319  1.00 20.00     0.045 C 
HETATM    7  C7  UNL     1     -24.545  18.203  10.892  1.00 20.00     0.345 C 
HETATM    8  N8  UNL     1     -25.644  17.942  11.852  1.00 20.00    -0.270 NA
HETATM    9  N9  UNL     1     -24.807  19.126   9.790  1.00 20.00     0.108 N 
HETATM   10  H21 UNL     1     -25.059  20.039  10.167  1.00 20.00     0.318 HD
ENDROOT
TORSDOF 0
ENDMDL
MODEL 6
REMARK VINA RESULT:      -4.3      0.895      3.146
REMARK  0 active torsions:
REMARK  status: ('A' for Active; 'I' for Inactive)
ROOT
HETATM    1  C1  UNL     1     -34.966   5.557   6.023  1.00 20.00     0.086 C 
HETATM    2  C2  UNL     1     -34.931   4.749   4.756  1.00 20.00     0.055 C 
HETATM    3  C3  UNL     1     -32.777   6.547   2.069  1.00 20.00     0.030 C 
HETATM    4  C4  UNL     1     -33.489   5.326   2.667  1.00 20.00     0.010 C 
HETATM    5  C5  UNL     1     -31.983   7.340   3.119  1.00 20.00     0.272 C 
HETATM    6  C6  UNL     1     -34.257   5.786   3.891  1.00 20.00     0.045 C 
HETATM    7  C7  UNL     1     -33.308   6.432   4.896  1.00 20.00     0.345 C 
HETATM    8  N8  UNL     1     -34.122   6.541   6.130  1.00 20.00    -0.270 NA
HETATM    9  N9  UNL     1     -32.772   7.663   4.320  1.00 20.00     0.108 N 
HETATM   10  H21 UNL     1     -32.169   8.121   5.003  1.00 20.00     0.318 HD
ENDROOT
TORSDOF 0
ENDMDL
MODEL 7
REMARK VINA RESULT:      -4.2     12.162     12.619
REMARK  0 active torsions:
REMARK  status: ('A' for Active; 'I' for Inactive)
ROOT
HETATM    1  C1  UNL     1     -35.923  13.969  -5.287  1.00 20.00     0.086 C 
HETATM    2  C2  UNL     1     -36.511  14.493  -4.007  1.00 20.00     0.055 C 
HETATM    3  C3  UNL     1     -33.883  16.609  -2.082  1.00 20.00     0.030 C 
HETATM    4  C4  UNL     1     -35.312  16.142  -2.388  1.00 20.00     0.010 C 
HETATM    5  C5  UNL     1     -33.076  16.914  -3.355  1.00 20.00     0.272 C 
HETATM    6  C6  UNL     1     -35.230  15.033  -3.419  1.00 20.00     0.045 C 
HETATM    7  C7  UNL     1     -34.521  15.532  -4.675  1.00 20.00     0.345 C 
HETATM    8  N8  UNL     1     -34.788  14.472  -5.675  1.00 20.00    -0.270 NA
HETATM    9  N9  UNL     1     -33.127  15.826  -4.347  1.00 20.00     0.108 N 
HETATM   10  H21 UNL     1     -32.638  16.121  -5.191  1.00 20.00     0.318 HD
ENDROOT
TORSDOF 0
ENDMDL
MODEL 8
REMARK VINA RESULT:      -4.0     11.880     12.483
REMARK  0 active torsions:
REMARK  status: ('A' for Active; 'I' for Inactive)
ROOT
HETATM    1  C1  UNL     1     -34.559  17.289  -1.905  1.00 20.00     0.086 C 
HETATM    2  C2  UNL     1     -33.685  16.274  -2.585  1.00 20.00     0.055 C 
HETATM    3  C3  UNL     1     -35.863  13.589  -4.359  1.00 20.00     0.030 C 
HETATM    4  C4  UNL     1     -34.553  14.349  -4.109  1.00 20.00     0.010 C 
HETATM    5  C5  UNL     1     -37.078  14.526  -4.460  1.00 20.00     0.272 C 
HETATM    6  C6  UNL     1     -34.777  15.296  -2.946  1.00 20.00     0.045 C 
HETATM    7  C7  UNL     1     -35.929  16.248  -3.256  1.00 20.00     0.345 C 
HETATM    8  N8  UNL     1     -35.826  17.282  -2.199  1.00 20.00    -0.270 NA
HETATM    9  N9  UNL     1     -37.169  15.480  -3.342  1.00 20.00     0.108 N 
HETATM   10  H21 UNL     1     -37.949  16.116  -3.508  1.00 20.00     0.318 HD
ENDROOT
TORSDOF 0
ENDMDL
MODEL 9
REMARK VINA RESULT:      -4.0     11.902     12.560
REMARK  0 active torsions:
REMARK  status: ('A' for Active; 'I' for Inactive)
ROOT
HETATM    1  C1  UNL     1     -33.966  17.650  -1.264  1.00 20.00     0.086 C 
HETATM    2  C2  UNL     1     -35.133  16.709  -1.354  1.00 20.00     0.055 C 
HETATM    3  C3  UNL     1     -34.853  14.515  -4.549  1.00 20.00     0.030 C 
HETATM    4  C4  UNL     1     -35.404  14.849  -3.156  1.00 20.00     0.010 C 
HETATM    5  C5  UNL     1     -33.329  14.699  -4.640  1.00 20.00     0.272 C 
HETATM    6  C6  UNL     1     -34.861  16.206  -2.751  1.00 20.00     0.045 C 
HETATM    7  C7  UNL     1     -33.335  16.186  -2.762  1.00 20.00     0.345 C 
HETATM    8  N8  UNL     1     -32.962  17.440  -2.064  1.00 20.00    -0.270 NA
HETATM    9  N9  UNL     1     -32.873  16.006  -4.136  1.00 20.00     0.108 N 
HETATM   10  H21 UNL     1     -31.853  16.034  -4.156  1.00 20.00     0.318 HD
ENDROOT
TORSDOF 0
ENDMDL
