MODEL 1
REMARK VINA RESULT:      -4.4      0.000      0.000
REMARK  5 active torsions:
REMARK  status: ('A' for Active; 'I' for Inactive)
REMARK    1  A    between atoms: C5_5  and  C7_7 
REMARK    2  A    between atoms: C6_6  and  C8_8 
REMARK    3  A    between atoms: C6_6  and  C9_9 
REMARK    4  A    between atoms: C7_7  and  O11_11 
REMARK    5  A    between atoms: C9_9  and  O11_11 
ROOT
HETATM    1  C1  UNL     1     -25.558  19.019   5.458  1.00 20.00     0.061 C 
HETATM    2  C5  UNL     1     -25.922  18.982   6.882  1.00 20.00     0.150 C 
HETATM    3  N10 UNL     1     -25.271  19.048   4.335  1.00 20.00    -0.197 NA
ENDROOT
BRANCH   2   4
HETATM    4  C7  UNL     1     -24.719  19.259   7.773  1.00 20.00     0.182 C 
BRANCH   4   5
HETATM    5  O11 UNL     1     -23.590  18.556   7.280  1.00 20.00    -0.385 OA
BRANCH   5   6
HETATM    6  C9  UNL     1     -22.993  17.754   8.302  1.00 20.00     0.117 C 
HETATM    7  C4  UNL     1     -21.613  17.319   7.830  1.00 20.00     0.039 C 
BRANCH   6   8
HETATM    8  C6  UNL     1     -22.962  18.598   9.582  1.00 20.00     0.035 C 
BRANCH   8   9
HETATM    9  C8  UNL     1     -23.506  17.916  10.850  1.00 20.00    -0.020 C 
HETATM   10  C2  UNL     1     -24.164  16.569  10.551  1.00 20.00     0.009 C 
HETATM   11  C3  UNL     1     -22.370  17.724  11.860  1.00 20.00     0.009 C 
ENDBRANCH   8   9
ENDBRANCH   6   8
ENDBRANCH   5   6
ENDBRANCH   4   5
ENDBRANCH   2   4
TORSDOF 5
ENDMDL
MODEL 2
REMARK VINA RESULT:      -4.0     15.920     17.551
REMARK  5 active torsions:
REMARK  status: ('A' for Active; 'I' for Inactive)
REMARK    1  A    between atoms: C5_5  and  C7_7 
REMARK    2  A    between atoms: C6_6  and  C8_8 
REMARK    3  A    between atoms: C6_6  and  C9_9 
REMARK    4  A    between atoms: C7_7  and  O11_11 
REMARK    5  A    between atoms: C9_9  and  O11_11 
ROOT
HETATM    1  C1  UNL     1     -36.533  13.792  -4.602  1.00 20.00     0.061 C 
HETATM    2  C5  UNL     1     -37.307  15.041  -4.644  1.00 20.00     0.150 C 
HETATM    3  N10 UNL     1     -35.922  12.807  -4.568  1.00 20.00    -0.197 NA
ENDROOT
BRANCH   2   4
HETATM    4  C7  UNL     1     -36.843  15.948  -5.775  1.00 20.00     0.182 C 
BRANCH   4   5
HETATM    5  O11 UNL     1     -36.106  17.035  -5.241  1.00 20.00    -0.385 OA
BRANCH   5   6
HETATM    6  C9  UNL     1     -34.712  16.905  -5.525  1.00 20.00     0.117 C 
HETATM    7  C4  UNL     1     -34.400  17.693  -6.789  1.00 20.00     0.039 C 
BRANCH   6   8
HETATM    8  C6  UNL     1     -33.947  17.402  -4.292  1.00 20.00     0.035 C 
BRANCH   8   9
HETATM    9  C8  UNL     1     -33.492  16.317  -3.300  1.00 20.00    -0.020 C 
HETATM   10  C2  UNL     1     -34.571  15.980  -2.270  1.00 20.00     0.009 C 
HETATM   11  C3  UNL     1     -33.095  15.051  -4.065  1.00 20.00     0.009 C 
ENDBRANCH   8   9
ENDBRANCH   6   8
ENDBRANCH   5   6
ENDBRANCH   4   5
ENDBRANCH   2   4
TORSDOF 5
ENDMDL
MODEL 3
REMARK VINA RESULT:      -4.0     14.180     16.472
REMARK  5 active torsions:
REMARK  status: ('A' for Active; 'I' for Inactive)
REMARK    1  A    between atoms: C5_5  and  C7_7 
REMARK    2  A    between atoms: C6_6  and  C8_8 
REMARK    3  A    between atoms: C6_6  and  C9_9 
REMARK    4  A    between atoms: C7_7  and  O11_11 
REMARK    5  A    between atoms: C9_9  and  O11_11 
ROOT
HETATM    1  C1  UNL     1     -37.517  14.922  -4.439  1.00 20.00     0.061 C 
HETATM    2  C5  UNL     1     -36.695  16.137  -4.536  1.00 20.00     0.150 C 
HETATM    3  N10 UNL     1     -38.165  13.963  -4.361  1.00 20.00    -0.197 NA
ENDROOT
BRANCH   2   4
HETATM    4  C7  UNL     1     -35.537  15.951  -5.506  1.00 20.00     0.182 C 
BRANCH   4   5
HETATM    5  O11 UNL     1     -34.346  16.460  -4.928  1.00 20.00    -0.385 OA
BRANCH   5   6
HETATM    6  C9  UNL     1     -33.910  15.644  -3.838  1.00 20.00     0.117 C 
HETATM    7  C4  UNL     1     -33.090  14.490  -4.396  1.00 20.00     0.039 C 
BRANCH   6   8
HETATM    8  C6  UNL     1     -33.120  16.547  -2.882  1.00 20.00     0.035 C 
BRANCH   8   9
HETATM    9  C8  UNL     1     -33.960  17.424  -1.937  1.00 20.00    -0.020 C 
HETATM   10  C2  UNL     1     -35.090  16.642  -1.267  1.00 20.00     0.009 C 
HETATM   11  C3  UNL     1     -33.056  18.044  -0.867  1.00 20.00     0.009 C 
ENDBRANCH   8   9
ENDBRANCH   6   8
ENDBRANCH   5   6
ENDBRANCH   4   5
ENDBRANCH   2   4
TORSDOF 5
ENDMDL
MODEL 4
REMARK VINA RESULT:      -4.0     13.786     15.925
REMARK  5 active torsions:
REMARK  status: ('A' for Active; 'I' for Inactive)
REMARK    1  A    between atoms: C5_5  and  C7_7 
REMARK    2  A    between atoms: C6_6  and  C8_8 
REMARK    3  A    between atoms: C6_6  and  C9_9 
REMARK    4  A    between atoms: C7_7  and  O11_11 
REMARK    5  A    between atoms: C9_9  and  O11_11 
ROOT
HETATM    1  C1  UNL     1     -36.399  13.845  -4.475  1.00 20.00     0.061 C 
HETATM    2  C5  UNL     1     -37.023  15.169  -4.349  1.00 20.00     0.150 C 
HETATM    3  N10 UNL     1     -35.906  12.799  -4.574  1.00 20.00    -0.197 NA
ENDROOT
BRANCH   2   4
HETATM    4  C7  UNL     1     -36.129  16.139  -3.589  1.00 20.00     0.182 C 
BRANCH   4   5
HETATM    5  O11 UNL     1     -35.300  15.417  -2.692  1.00 20.00    -0.385 OA
BRANCH   5   6
HETATM    6  C9  UNL     1     -33.992  15.988  -2.624  1.00 20.00     0.117 C 
HETATM    7  C4  UNL     1     -33.158  15.425  -3.766  1.00 20.00     0.039 C 
BRANCH   6   8
HETATM    8  C6  UNL     1     -34.157  17.512  -2.684  1.00 20.00     0.035 C 
BRANCH   8   9
HETATM    9  C8  UNL     1     -33.673  18.290  -1.447  1.00 20.00    -0.020 C 
HETATM   10  C2  UNL     1     -34.330  17.800  -0.157  1.00 20.00     0.009 C 
HETATM   11  C3  UNL     1     -32.150  18.175  -1.328  1.00 20.00     0.009 C 
ENDBRANCH   8   9
ENDBRANCH   6   8
ENDBRANCH   5   6
ENDBRANCH   4   5
ENDBRANCH   2   4
TORSDOF 5
ENDMDL
MODEL 5
REMARK VINA RESULT:      -3.9     12.895     15.316
REMARK  5 active torsions:
REMARK  status: ('A' for Active; 'I' for Inactive)
REMARK    1  A    between atoms: C5_5  and  C7_7 
REMARK    2  A    between atoms: C6_6  and  C8_8 
REMARK    3  A    between atoms: C6_6  and  C9_9 
REMARK    4  A    between atoms: C7_7  and  O11_11 
REMARK    5  A    between atoms: C9_9  and  O11_11 
ROOT
HETATM    1  C1  UNL     1     -35.279  13.699  -4.097  1.00 20.00     0.061 C 
HETATM    2  C5  UNL     1     -34.544  14.859  -3.574  1.00 20.00     0.150 C 
HETATM    3  N10 UNL     1     -35.859  12.784  -4.511  1.00 20.00    -0.197 NA
ENDROOT
BRANCH   2   4
HETATM    4  C7  UNL     1     -35.484  15.884  -2.956  1.00 20.00     0.182 C 
BRANCH   4   5
HETATM    5  O11 UNL     1     -35.096  16.140  -1.616  1.00 20.00    -0.385 OA
BRANCH   5   6
HETATM    6  C9  UNL     1     -35.148  17.537  -1.319  1.00 20.00     0.117 C 
HETATM    7  C4  UNL     1     -36.390  17.808  -0.484  1.00 20.00     0.039 C 
BRANCH   6   8
HETATM    8  C6  UNL     1     -33.840  17.898  -0.603  1.00 20.00     0.035 C 
BRANCH   8   9
HETATM    9  C8  UNL     1     -32.562  17.821  -1.458  1.00 20.00    -0.020 C 
HETATM   10  C2  UNL     1     -32.688  18.601  -2.766  1.00 20.00     0.009 C 
HETATM   11  C3  UNL     1     -31.370  18.350  -0.654  1.00 20.00     0.009 C 
ENDBRANCH   8   9
ENDBRANCH   6   8
ENDBRANCH   5   6
ENDBRANCH   4   5
ENDBRANCH   2   4
TORSDOF 5
ENDMDL
MODEL 6
REMARK VINA RESULT:      -3.9     15.532     16.899
REMARK  5 active torsions:
REMARK  status: ('A' for Active; 'I' for Inactive)
REMARK    1  A    between atoms: C5_5  and  C7_7 
REMARK    2  A    between atoms: C6_6  and  C8_8 
REMARK    3  A    between atoms: C6_6  and  C9_9 
REMARK    4  A    between atoms: C7_7  and  O11_11 
REMARK    5  A    between atoms: C9_9  and  O11_11 
ROOT
HETATM    1  C1  UNL     1     -36.574  13.769  -4.604  1.00 20.00     0.061 C 
HETATM    2  C5  UNL     1     -37.493  14.917  -4.603  1.00 20.00     0.150 C 
HETATM    3  N10 UNL     1     -35.850  12.863  -4.605  1.00 20.00    -0.197 NA
ENDROOT
BRANCH   2   4
HETATM    4  C7  UNL     1     -36.747  16.228  -4.399  1.00 20.00     0.182 C 
BRANCH   4   5
HETATM    5  O11 UNL     1     -36.920  16.670  -3.062  1.00 20.00    -0.385 OA
BRANCH   5   6
HETATM    6  C9  UNL     1     -35.731  17.287  -2.563  1.00 20.00     0.117 C 
HETATM    7  C4  UNL     1     -36.105  18.178  -1.388  1.00 20.00     0.039 C 
BRANCH   6   8
HETATM    8  C6  UNL     1     -34.758  16.161  -2.189  1.00 20.00     0.035 C 
BRANCH   8   9
HETATM    9  C8  UNL     1     -33.363  16.238  -2.833  1.00 20.00    -0.020 C 
HETATM   10  C2  UNL     1     -33.183  15.219  -3.959  1.00 20.00     0.009 C 
HETATM   11  C3  UNL     1     -33.119  17.651  -3.372  1.00 20.00     0.009 C 
ENDBRANCH   8   9
ENDBRANCH   6   8
ENDBRANCH   5   6
ENDBRANCH   4   5
ENDBRANCH   2   4
TORSDOF 5
ENDMDL
MODEL 7
REMARK VINA RESULT:      -3.9     13.351     15.456
REMARK  5 active torsions:
REMARK  status: ('A' for Active; 'I' for Inactive)
REMARK    1  A    between atoms: C5_5  and  C7_7 
REMARK    2  A    between atoms: C6_6  and  C8_8 
REMARK    3  A    between atoms: C6_6  and  C9_9 
REMARK    4  A    between atoms: C7_7  and  O11_11 
REMARK    5  A    between atoms: C9_9  and  O11_11 
ROOT
HETATM    1  C1  UNL     1     -36.541  14.005  -4.279  1.00 20.00     0.061 C 
HETATM    2  C5  UNL     1     -35.083  14.093  -4.109  1.00 20.00     0.150 C 
HETATM    3  N10 UNL     1     -37.691  13.935  -4.414  1.00 20.00    -0.197 NA
ENDROOT
BRANCH   2   4
HETATM    4  C7  UNL     1     -34.704  15.167  -3.099  1.00 20.00     0.182 C 
BRANCH   4   5
HETATM    5  O11 UNL     1     -33.393  15.635  -3.372  1.00 20.00    -0.385 OA
BRANCH   5   6
HETATM    6  C9  UNL     1     -33.163  16.911  -2.770  1.00 20.00     0.117 C 
HETATM    7  C4  UNL     1     -33.298  17.983  -3.841  1.00 20.00     0.039 C 
BRANCH   6   8
HETATM    8  C6  UNL     1     -34.173  17.062  -1.625  1.00 20.00     0.035 C 
BRANCH   8   9
HETATM    9  C8  UNL     1     -33.873  18.175  -0.606  1.00 20.00    -0.020 C 
HETATM   10  C2  UNL     1     -34.546  17.927   0.744  1.00 20.00     0.009 C 
HETATM   11  C3  UNL     1     -32.359  18.305  -0.413  1.00 20.00     0.009 C 
ENDBRANCH   8   9
ENDBRANCH   6   8
ENDBRANCH   5   6
ENDBRANCH   4   5
ENDBRANCH   2   4
TORSDOF 5
ENDMDL
MODEL 8
REMARK VINA RESULT:      -3.9     14.646     16.187
REMARK  5 active torsions:
REMARK  status: ('A' for Active; 'I' for Inactive)
REMARK    1  A    between atoms: C5_5  and  C7_7 
REMARK    2  A    between atoms: C6_6  and  C8_8 
REMARK    3  A    between atoms: C6_6  and  C9_9 
REMARK    4  A    between atoms: C7_7  and  O11_11 
REMARK    5  A    between atoms: C9_9  and  O11_11 
ROOT
HETATM    1  C1  UNL     1     -36.683  13.993  -4.363  1.00 20.00     0.061 C 
HETATM    2  C5  UNL     1     -35.215  14.039  -4.294  1.00 20.00     0.150 C 
HETATM    3  N10 UNL     1     -37.841  13.956  -4.417  1.00 20.00    -0.197 NA
ENDROOT
BRANCH   2   4
HETATM    4  C7  UNL     1     -34.671  15.348  -4.850  1.00 20.00     0.182 C 
BRANCH   4   5
HETATM    5  O11 UNL     1     -34.846  16.380  -3.893  1.00 20.00    -0.385 OA
BRANCH   5   6
HETATM    6  C9  UNL     1     -34.152  16.085  -2.679  1.00 20.00     0.117 C 
HETATM    7  C4  UNL     1     -32.939  16.999  -2.580  1.00 20.00     0.039 C 
BRANCH   6   8
HETATM    8  C6  UNL     1     -35.149  16.267  -1.528  1.00 20.00     0.035 C 
BRANCH   8   9
HETATM    9  C8  UNL     1     -35.085  17.616  -0.791  1.00 20.00    -0.020 C 
HETATM   10  C2  UNL     1     -36.130  18.609  -1.301  1.00 20.00     0.009 C 
HETATM   11  C3  UNL     1     -35.275  17.393   0.713  1.00 20.00     0.009 C 
ENDBRANCH   8   9
ENDBRANCH   6   8
ENDBRANCH   5   6
ENDBRANCH   4   5
ENDBRANCH   2   4
TORSDOF 5
ENDMDL
MODEL 9
REMARK VINA RESULT:      -3.9     12.631     15.809
REMARK  5 active torsions:
REMARK  status: ('A' for Active; 'I' for Inactive)
REMARK    1  A    between atoms: C5_5  and  C7_7 
REMARK    2  A    between atoms: C6_6  and  C8_8 
REMARK    3  A    between atoms: C6_6  and  C9_9 
REMARK    4  A    between atoms: C7_7  and  O11_11 
REMARK    5  A    between atoms: C9_9  and  O11_11 
ROOT
HETATM    1  C1  UNL     1     -31.735  18.245  -0.779  1.00 20.00     0.061 C 
HETATM    2  C5  UNL     1     -33.114  17.969  -1.207  1.00 20.00     0.150 C 
HETATM    3  N10 UNL     1     -30.647  18.463  -0.442  1.00 20.00    -0.197 NA
ENDROOT
BRANCH   2   4
HETATM    4  C7  UNL     1     -33.184  17.646  -2.693  1.00 20.00     0.182 C 
BRANCH   4   5
HETATM    5  O11 UNL     1     -32.853  16.282  -2.899  1.00 20.00    -0.385 OA
BRANCH   5   6
HETATM    6  C9  UNL     1     -33.762  15.662  -3.811  1.00 20.00     0.117 C 
HETATM    7  C4  UNL     1     -33.061  14.477  -4.461  1.00 20.00     0.039 C 
BRANCH   6   8
HETATM    8  C6  UNL     1     -35.010  15.268  -3.011  1.00 20.00     0.035 C 
BRANCH   8   9
HETATM    9  C8  UNL     1     -36.357  15.453  -3.731  1.00 20.00    -0.020 C 
HETATM   10  C2  UNL     1     -36.326  16.603  -4.738  1.00 20.00     0.009 C 
HETATM   11  C3  UNL     1     -36.746  14.154  -4.443  1.00 20.00     0.009 C 
ENDBRANCH   8   9
ENDBRANCH   6   8
ENDBRANCH   5   6
ENDBRANCH   4   5
ENDBRANCH   2   4
TORSDOF 5
ENDMDL
