MODEL 1
REMARK VINA RESULT:      -4.5      0.000      0.000
REMARK  2 active torsions:
REMARK  status: ('A' for Active; 'I' for Inactive)
REMARK    1  A    between atoms: C2_2  and  C3_3 
REMARK    2  A    between atoms: C2_2  and  N4_4 
ROOT
HETATM    1  C1  UNL     1     -32.859   6.863   2.372  1.00 20.00     0.157 C 
HETATM    2  N4  UNL     1     -33.160   5.998   3.110  1.00 20.00    -0.267 NA
HETATM    3  S8  UNL     1     -32.440   8.017   1.358  1.00 20.00    -0.055 SA
ENDROOT
BRANCH   2   4
HETATM    4  C2  UNL     1     -33.926   6.423   4.280  1.00 20.00     0.267 C 
BRANCH   4   5
HETATM    5  C3  UNL     1     -34.873   5.321   4.682  1.00 20.00     0.405 C 
HETATM    6  F5  UNL     1     -36.077   5.493   4.093  1.00 20.00    -0.169 F 
HETATM    7  F6  UNL     1     -35.068   5.301   6.017  1.00 20.00    -0.169 F 
HETATM    8  F7  UNL     1     -34.405   4.110   4.308  1.00 20.00    -0.169 F 
ENDBRANCH   4   5
ENDBRANCH   2   4
TORSDOF 2
ENDMDL
MODEL 2
REMARK VINA RESULT:      -4.1      1.581      1.735
REMARK  2 active torsions:
REMARK  status: ('A' for Active; 'I' for Inactive)
REMARK    1  A    between atoms: C2_2  and  C3_3 
REMARK    2  A    between atoms: C2_2  and  N4_4 
ROOT
HETATM    1  C1  UNL     1     -33.425   5.839   3.065  1.00 20.00     0.157 C 
HETATM    2  N4  UNL     1     -34.076   4.969   3.516  1.00 20.00    -0.267 NA
HETATM    3  S8  UNL     1     -32.530   6.998   2.441  1.00 20.00    -0.055 SA
ENDROOT
BRANCH   2   4
HETATM    4  C2  UNL     1     -35.156   5.401   4.401  1.00 20.00     0.267 C 
BRANCH   4   5
HETATM    5  C3  UNL     1     -34.626   5.535   5.805  1.00 20.00     0.405 C 
HETATM    6  F5  UNL     1     -35.644   5.603   6.692  1.00 20.00    -0.169 F 
HETATM    7  F6  UNL     1     -33.884   6.654   5.948  1.00 20.00    -0.169 F 
HETATM    8  F7  UNL     1     -33.858   4.477   6.145  1.00 20.00    -0.169 F 
ENDBRANCH   4   5
ENDBRANCH   2   4
TORSDOF 2
ENDMDL
MODEL 3
REMARK VINA RESULT:      -4.1      1.542      1.913
REMARK  2 active torsions:
REMARK  status: ('A' for Active; 'I' for Inactive)
REMARK    1  A    between atoms: C2_2  and  C3_3 
REMARK    2  A    between atoms: C2_2  and  N4_4 
ROOT
HETATM    1  C1  UNL     1     -33.401   5.894   3.029  1.00 20.00     0.157 C 
HETATM    2  N4  UNL     1     -34.068   5.031   3.469  1.00 20.00    -0.267 NA
HETATM    3  S8  UNL     1     -32.485   7.045   2.421  1.00 20.00    -0.055 SA
ENDROOT
BRANCH   2   4
HETATM    4  C2  UNL     1     -35.139   5.471   4.361  1.00 20.00     0.267 C 
BRANCH   4   5
HETATM    5  C3  UNL     1     -34.616   5.528   5.774  1.00 20.00     0.405 C 
HETATM    6  F5  UNL     1     -33.869   4.435   6.047  1.00 20.00    -0.169 F 
HETATM    7  F6  UNL     1     -35.624   5.569   6.671  1.00 20.00    -0.169 F 
HETATM    8  F7  UNL     1     -33.837   6.614   5.968  1.00 20.00    -0.169 F 
ENDBRANCH   4   5
ENDBRANCH   2   4
TORSDOF 2
ENDMDL
MODEL 4
REMARK VINA RESULT:      -3.7      1.782      2.055
REMARK  2 active torsions:
REMARK  status: ('A' for Active; 'I' for Inactive)
REMARK    1  A    between atoms: C2_2  and  C3_3 
REMARK    2  A    between atoms: C2_2  and  N4_4 
ROOT
HETATM    1  C1  UNL     1     -32.519   7.813   1.747  1.00 20.00     0.157 C 
HETATM    2  N4  UNL     1     -32.216   7.097   2.629  1.00 20.00    -0.267 NA
HETATM    3  S8  UNL     1     -32.906   8.787   0.549  1.00 20.00    -0.055 SA
ENDROOT
BRANCH   2   4
HETATM    4  C2  UNL     1     -33.336   6.514   3.365  1.00 20.00     0.267 C 
BRANCH   4   5
HETATM    5  C3  UNL     1     -33.593   5.118   2.857  1.00 20.00     0.405 C 
HETATM    6  F5  UNL     1     -34.328   5.156   1.723  1.00 20.00    -0.169 F 
HETATM    7  F6  UNL     1     -34.271   4.381   3.761  1.00 20.00    -0.169 F 
HETATM    8  F7  UNL     1     -32.438   4.477   2.574  1.00 20.00    -0.169 F 
ENDBRANCH   4   5
ENDBRANCH   2   4
TORSDOF 2
ENDMDL
MODEL 5
REMARK VINA RESULT:      -3.6     11.469     12.123
REMARK  2 active torsions:
REMARK  status: ('A' for Active; 'I' for Inactive)
REMARK    1  A    between atoms: C2_2  and  C3_3 
REMARK    2  A    between atoms: C2_2  and  N4_4 
ROOT
HETATM    1  C1  UNL     1     -38.071  14.493  -4.320  1.00 20.00     0.157 C 
HETATM    2  N4  UNL     1     -37.149  13.783  -4.486  1.00 20.00    -0.267 NA
HETATM    3  S8  UNL     1     -39.334  15.435  -4.089  1.00 20.00    -0.055 SA
ENDROOT
BRANCH   2   4
HETATM    4  C2  UNL     1     -35.937  14.445  -4.965  1.00 20.00     0.267 C 
BRANCH   4   5
HETATM    5  C3  UNL     1     -34.790  14.110  -4.045  1.00 20.00     0.405 C 
HETATM    6  F5  UNL     1     -34.838  12.809  -3.684  1.00 20.00    -0.169 F 
HETATM    7  F6  UNL     1     -34.830  14.851  -2.918  1.00 20.00    -0.169 F 
HETATM    8  F7  UNL     1     -33.599  14.324  -4.646  1.00 20.00    -0.169 F 
ENDBRANCH   4   5
ENDBRANCH   2   4
TORSDOF 2
ENDMDL
MODEL 6
REMARK VINA RESULT:      -3.5      3.984      4.688
REMARK  2 active torsions:
REMARK  status: ('A' for Active; 'I' for Inactive)
REMARK    1  A    between atoms: C2_2  and  C3_3 
REMARK    2  A    between atoms: C2_2  and  N4_4 
ROOT
HETATM    1  C1  UNL     1     -33.664   5.742   3.143  1.00 20.00     0.157 C 
HETATM    2  N4  UNL     1     -32.896   6.110   2.332  1.00 20.00    -0.267 NA
HETATM    3  S8  UNL     1     -34.704   5.221   4.230  1.00 20.00    -0.055 SA
ENDROOT
BRANCH   2   4
HETATM    4  C2  UNL     1     -32.540   7.526   2.415  1.00 20.00     0.267 C 
BRANCH   4   5
HETATM    5  C3  UNL     1     -32.583   8.131   1.035  1.00 20.00     0.405 C 
HETATM    6  F5  UNL     1     -33.645   7.660   0.344  1.00 20.00    -0.169 F 
HETATM    7  F6  UNL     1     -31.471   7.833   0.331  1.00 20.00    -0.169 F 
HETATM    8  F7  UNL     1     -32.697   9.476   1.091  1.00 20.00    -0.169 F 
ENDBRANCH   4   5
ENDBRANCH   2   4
TORSDOF 2
ENDMDL
MODEL 7
REMARK VINA RESULT:      -3.5      4.161      4.941
REMARK  2 active torsions:
REMARK  status: ('A' for Active; 'I' for Inactive)
REMARK    1  A    between atoms: C2_2  and  C3_3 
REMARK    2  A    between atoms: C2_2  and  N4_4 
ROOT
HETATM    1  C1  UNL     1     -32.985   6.378   2.604  1.00 20.00     0.157 C 
HETATM    2  N4  UNL     1     -32.643   7.497   2.485  1.00 20.00    -0.267 NA
HETATM    3  S8  UNL     1     -33.453   4.868   2.790  1.00 20.00    -0.055 SA
ENDROOT
BRANCH   2   4
HETATM    4  C2  UNL     1     -32.152   7.855   1.155  1.00 20.00     0.267 C 
BRANCH   4   5
HETATM    5  C3  UNL     1     -33.041   8.922   0.568  1.00 20.00     0.405 C 
HETATM    6  F5  UNL     1     -32.307   9.986   0.175  1.00 20.00    -0.169 F 
HETATM    7  F6  UNL     1     -33.948   9.359   1.467  1.00 20.00    -0.169 F 
HETATM    8  F7  UNL     1     -33.709   8.465  -0.514  1.00 20.00    -0.169 F 
ENDBRANCH   4   5
ENDBRANCH   2   4
TORSDOF 2
ENDMDL
MODEL 8
REMARK VINA RESULT:      -3.5      8.874      9.405
REMARK  2 active torsions:
REMARK  status: ('A' for Active; 'I' for Inactive)
REMARK    1  A    between atoms: C2_2  and  C3_3 
REMARK    2  A    between atoms: C2_2  and  N4_4 
ROOT
HETATM    1  C1  UNL     1     -42.134   5.740  -1.098  1.00 20.00     0.157 C 
HETATM    2  N4  UNL     1     -41.216   6.462  -0.960  1.00 20.00    -0.267 NA
HETATM    3  S8  UNL     1     -43.362   4.742  -1.281  1.00 20.00    -0.055 SA
ENDROOT
BRANCH   2   4
HETATM    4  C2  UNL     1     -41.518   7.883  -1.120  1.00 20.00     0.267 C 
BRANCH   4   5
HETATM    5  C3  UNL     1     -41.626   8.525   0.239  1.00 20.00     0.405 C 
HETATM    6  F5  UNL     1     -42.920   8.619   0.617  1.00 20.00    -0.169 F 
HETATM    7  F6  UNL     1     -41.108   9.771   0.239  1.00 20.00    -0.169 F 
HETATM    8  F7  UNL     1     -40.978   7.802   1.178  1.00 20.00    -0.169 F 
ENDBRANCH   4   5
ENDBRANCH   2   4
TORSDOF 2
ENDMDL
MODEL 9
REMARK VINA RESULT:      -3.5      3.368      3.932
REMARK  2 active torsions:
REMARK  status: ('A' for Active; 'I' for Inactive)
REMARK    1  A    between atoms: C2_2  and  C3_3 
REMARK    2  A    between atoms: C2_2  and  N4_4 
ROOT
HETATM    1  C1  UNL     1     -34.450   5.319   4.310  1.00 20.00     0.157 C 
HETATM    2  N4  UNL     1     -34.284   5.291   3.145  1.00 20.00    -0.267 NA
HETATM    3  S8  UNL     1     -34.699   5.355   5.882  1.00 20.00    -0.055 SA
ENDROOT
BRANCH   2   4
HETATM    4  C2  UNL     1     -32.903   5.494   2.713  1.00 20.00     0.267 C 
BRANCH   4   5
HETATM    5  C3  UNL     1     -32.623   6.972   2.623  1.00 20.00     0.405 C 
HETATM    6  F5  UNL     1     -31.767   7.352   3.598  1.00 20.00    -0.169 F 
HETATM    7  F6  UNL     1     -33.752   7.698   2.764  1.00 20.00    -0.169 F 
HETATM    8  F7  UNL     1     -32.061   7.296   1.438  1.00 20.00    -0.169 F 
ENDBRANCH   4   5
ENDBRANCH   2   4
TORSDOF 2
ENDMDL
