MODEL 1
REMARK VINA RESULT:      -5.4      0.000      0.000
REMARK  0 active torsions:
REMARK  status: ('A' for Active; 'I' for Inactive)
ROOT
HETATM    1  C1  UNL     1     -22.924  17.745   9.379  1.00 20.00     0.061 A 
HETATM    2  C2  UNL     1     -25.222  19.203   8.603  1.00 20.00     0.053 A 
HETATM    3  C3  UNL     1     -23.908  18.103  10.282  1.00 20.00     0.019 A 
HETATM    4  C4  UNL     1     -25.043  18.820   9.922  1.00 20.00    -0.041 A 
HETATM    5  C5  UNL     1     -23.103  18.131   8.051  1.00 20.00     0.155 A 
HETATM    6  C6  UNL     1     -24.245  18.855   7.665  1.00 20.00     0.155 A 
HETATM    7  C7  UNL     1     -23.975  17.834  11.710  1.00 20.00     0.160 A 
HETATM    8  C8  UNL     1     -25.954  19.084  11.078  1.00 20.00     0.047 A 
HETATM    9  C9  UNL     1     -25.243  18.429  12.274  1.00 20.00     0.088 A 
HETATM   10  O10 UNL     1     -23.126  17.223  12.332  1.00 20.00    -0.292 OA
HETATM   11  F11 UNL     1     -22.182  17.809   7.134  1.00 20.00    -0.203 F 
HETATM   12  F12 UNL     1     -24.397  19.215   6.384  1.00 20.00    -0.203 F 
ENDROOT
TORSDOF 0
ENDMDL
MODEL 2
REMARK VINA RESULT:      -5.3     14.949     16.148
REMARK  0 active torsions:
REMARK  status: ('A' for Active; 'I' for Inactive)
ROOT
HETATM    1  C1  UNL     1     -32.924  16.043  -3.555  1.00 20.00     0.061 A 
HETATM    2  C2  UNL     1     -35.506  15.226  -2.732  1.00 20.00     0.053 A 
HETATM    3  C3  UNL     1     -33.563  16.609  -2.467  1.00 20.00     0.019 A 
HETATM    4  C4  UNL     1     -34.830  16.223  -2.048  1.00 20.00    -0.041 A 
HETATM    5  C5  UNL     1     -33.603  15.040  -4.246  1.00 20.00     0.155 A 
HETATM    6  C6  UNL     1     -34.885  14.633  -3.837  1.00 20.00     0.155 A 
HETATM    7  C7  UNL     1     -33.092  17.660  -1.580  1.00 20.00     0.160 A 
HETATM    8  C8  UNL     1     -35.303  16.984  -0.851  1.00 20.00     0.047 A 
HETATM    9  C9  UNL     1     -34.145  17.946  -0.536  1.00 20.00     0.088 A 
HETATM   10  O10 UNL     1     -32.011  18.211  -1.684  1.00 20.00    -0.292 OA
HETATM   11  F11 UNL     1     -33.030  14.457  -5.307  1.00 20.00    -0.203 F 
HETATM   12  F12 UNL     1     -35.518  13.667  -4.515  1.00 20.00    -0.203 F 
ENDROOT
TORSDOF 0
ENDMDL
MODEL 3
REMARK VINA RESULT:      -5.2     16.659     17.136
REMARK  0 active torsions:
REMARK  status: ('A' for Active; 'I' for Inactive)
ROOT
HETATM    1  C1  UNL     1     -33.533   7.202   4.876  1.00 20.00     0.061 A 
HETATM    2  C2  UNL     1     -34.685   4.629   4.627  1.00 20.00     0.053 A 
HETATM    3  C3  UNL     1     -33.411   6.449   3.722  1.00 20.00     0.019 A 
HETATM    4  C4  UNL     1     -33.968   5.184   3.581  1.00 20.00    -0.041 A 
HETATM    5  C5  UNL     1     -34.254   6.645   5.931  1.00 20.00     0.155 A 
HETATM    6  C6  UNL     1     -34.827   5.367   5.808  1.00 20.00     0.155 A 
HETATM    7  C7  UNL     1     -32.722   6.783   2.486  1.00 20.00     0.160 A 
HETATM    8  C8  UNL     1     -33.696   4.577   2.243  1.00 20.00     0.047 A 
HETATM    9  C9  UNL     1     -32.862   5.641   1.509  1.00 20.00     0.088 A 
HETATM   10  O10 UNL     1     -32.129   7.829   2.294  1.00 20.00    -0.292 OA
HETATM   11  F11 UNL     1     -34.404   7.330   7.072  1.00 20.00    -0.203 F 
HETATM   12  F12 UNL     1     -35.517   4.851   6.834  1.00 20.00    -0.203 F 
ENDROOT
TORSDOF 0
ENDMDL
MODEL 4
REMARK VINA RESULT:      -5.2     14.919     16.195
REMARK  0 active torsions:
REMARK  status: ('A' for Active; 'I' for Inactive)
ROOT
HETATM    1  C1  UNL     1     -35.429  15.467  -2.544  1.00 20.00     0.061 A 
HETATM    2  C2  UNL     1     -32.847  16.052  -3.546  1.00 20.00     0.053 A 
HETATM    3  C3  UNL     1     -34.616  16.427  -1.969  1.00 20.00     0.019 A 
HETATM    4  C4  UNL     1     -33.346  16.728  -2.446  1.00 20.00    -0.041 A 
HETATM    5  C5  UNL     1     -34.928  14.785  -3.652  1.00 20.00     0.155 A 
HETATM    6  C6  UNL     1     -33.646  15.075  -4.150  1.00 20.00     0.155 A 
HETATM    7  C7  UNL     1     -34.884  17.277  -0.820  1.00 20.00     0.160 A 
HETATM    8  C8  UNL     1     -32.668  17.800  -1.653  1.00 20.00     0.047 A 
HETATM    9  C9  UNL     1     -33.692  18.168  -0.566  1.00 20.00     0.088 A 
HETATM   10  O10 UNL     1     -35.917  17.253  -0.177  1.00 20.00    -0.292 OA
HETATM   11  F11 UNL     1     -35.673  13.845  -4.248  1.00 20.00    -0.203 F 
HETATM   12  F12 UNL     1     -33.185  14.408  -5.217  1.00 20.00    -0.203 F 
ENDROOT
TORSDOF 0
ENDMDL
MODEL 5
REMARK VINA RESULT:      -5.2      3.536      4.693
REMARK  0 active torsions:
REMARK  status: ('A' for Active; 'I' for Inactive)
ROOT
HETATM    1  C1  UNL     1     -24.613  19.223   4.783  1.00 20.00     0.061 A 
HETATM    2  C2  UNL     1     -27.435  19.262   4.997  1.00 20.00     0.053 A 
HETATM    3  C3  UNL     1     -25.258  19.233   6.006  1.00 20.00     0.019 A 
HETATM    4  C4  UNL     1     -26.642  19.253   6.132  1.00 20.00    -0.041 A 
HETATM    5  C5  UNL     1     -25.410  19.232   3.638  1.00 20.00     0.155 A 
HETATM    6  C6  UNL     1     -26.812  19.251   3.744  1.00 20.00     0.155 A 
HETATM    7  C7  UNL     1     -24.680  19.228   7.340  1.00 20.00     0.160 A 
HETATM    8  C8  UNL     1     -27.094  19.262   7.557  1.00 20.00     0.047 A 
HETATM    9  C9  UNL     1     -25.787  19.247   8.367  1.00 20.00     0.088 A 
HETATM   10  O10 UNL     1     -23.485  19.211   7.568  1.00 20.00    -0.292 OA
HETATM   11  F11 UNL     1     -24.837  19.222   2.427  1.00 20.00    -0.203 F 
HETATM   12  F12 UNL     1     -27.558  19.258   2.632  1.00 20.00    -0.203 F 
ENDROOT
TORSDOF 0
ENDMDL
MODEL 6
REMARK VINA RESULT:      -5.1     15.659     17.008
REMARK  0 active torsions:
REMARK  status: ('A' for Active; 'I' for Inactive)
ROOT
HETATM    1  C1  UNL     1     -33.094  16.202  -3.505  1.00 20.00     0.061 A 
HETATM    2  C2  UNL     1     -35.487  16.238  -1.995  1.00 20.00     0.053 A 
HETATM    3  C3  UNL     1     -34.235  15.541  -3.919  1.00 20.00     0.019 A 
HETATM    4  C4  UNL     1     -35.419  15.545  -3.192  1.00 20.00    -0.041 A 
HETATM    5  C5  UNL     1     -33.160  16.900  -2.299  1.00 20.00     0.155 A 
HETATM    6  C6  UNL     1     -34.349  16.919  -1.549  1.00 20.00     0.155 A 
HETATM    7  C7  UNL     1     -34.442  14.746  -5.119  1.00 20.00     0.160 A 
HETATM    8  C8  UNL     1     -36.507  14.757  -3.848  1.00 20.00     0.047 A 
HETATM    9  C9  UNL     1     -35.857  14.220  -5.136  1.00 20.00     0.088 A 
HETATM   10  O10 UNL     1     -33.590  14.550  -5.965  1.00 20.00    -0.292 OA
HETATM   11  F11 UNL     1     -32.084  17.559  -1.851  1.00 20.00    -0.203 F 
HETATM   12  F12 UNL     1     -34.390  17.597  -0.395  1.00 20.00    -0.203 F 
ENDROOT
TORSDOF 0
ENDMDL
MODEL 7
REMARK VINA RESULT:      -5.1     13.985     15.214
REMARK  0 active torsions:
REMARK  status: ('A' for Active; 'I' for Inactive)
ROOT
HETATM    1  C1  UNL     1     -32.809  16.717  -2.820  1.00 20.00     0.061 A 
HETATM    2  C2  UNL     1     -35.317  16.458  -1.534  1.00 20.00     0.053 A 
HETATM    3  C3  UNL     1     -33.140  17.453  -1.697  1.00 20.00     0.019 A 
HETATM    4  C4  UNL     1     -34.366  17.341  -1.052  1.00 20.00    -0.041 A 
HETATM    5  C5  UNL     1     -33.766  15.827  -3.307  1.00 20.00     0.155 A 
HETATM    6  C6  UNL     1     -35.011  15.698  -2.669  1.00 20.00     0.155 A 
HETATM    7  C7  UNL     1     -32.342  18.439  -0.987  1.00 20.00     0.160 A 
HETATM    8  C8  UNL     1     -34.481  18.241   0.136  1.00 20.00     0.047 A 
HETATM    9  C9  UNL     1     -33.132  18.978   0.182  1.00 20.00     0.088 A 
HETATM   10  O10 UNL     1     -31.213  18.765  -1.306  1.00 20.00    -0.292 OA
HETATM   11  F11 UNL     1     -33.497  15.089  -4.392  1.00 20.00    -0.203 F 
HETATM   12  F12 UNL     1     -35.916  14.837  -3.154  1.00 20.00    -0.203 F 
ENDROOT
TORSDOF 0
ENDMDL
MODEL 8
REMARK VINA RESULT:      -5.0     16.354     17.799
REMARK  0 active torsions:
REMARK  status: ('A' for Active; 'I' for Inactive)
ROOT
HETATM    1  C1  UNL     1     -35.751  15.505  -2.693  1.00 20.00     0.061 A 
HETATM    2  C2  UNL     1     -33.305  16.178  -3.946  1.00 20.00     0.053 A 
HETATM    3  C3  UNL     1     -35.481  15.170  -4.007  1.00 20.00     0.019 A 
HETATM    4  C4  UNL     1     -34.287  15.492  -4.641  1.00 20.00    -0.041 A 
HETATM    5  C5  UNL     1     -34.763  16.196  -1.992  1.00 20.00     0.155 A 
HETATM    6  C6  UNL     1     -33.547  16.530  -2.614  1.00 20.00     0.155 A 
HETATM    7  C7  UNL     1     -36.322  14.459  -4.956  1.00 20.00     0.160 A 
HETATM    8  C8  UNL     1     -34.238  15.022  -6.059  1.00 20.00     0.047 A 
HETATM    9  C9  UNL     1     -35.596  14.333  -6.274  1.00 20.00     0.088 A 
HETATM   10  O10 UNL     1     -37.437  14.041  -4.704  1.00 20.00    -0.292 OA
HETATM   11  F11 UNL     1     -34.971  16.544  -0.716  1.00 20.00    -0.203 F 
HETATM   12  F12 UNL     1     -32.612  17.193  -1.922  1.00 20.00    -0.203 F 
ENDROOT
TORSDOF 0
ENDMDL
MODEL 9
REMARK VINA RESULT:      -4.8     16.994     18.199
REMARK  0 active torsions:
REMARK  status: ('A' for Active; 'I' for Inactive)
ROOT
HETATM    1  C1  UNL     1     -35.444  14.076  -4.176  1.00 20.00     0.061 A 
HETATM    2  C2  UNL     1     -34.870  16.681  -3.229  1.00 20.00     0.053 A 
HETATM    3  C3  UNL     1     -36.436  15.015  -3.958  1.00 20.00     0.019 A 
HETATM    4  C4  UNL     1     -36.174  16.298  -3.493  1.00 20.00    -0.041 A 
HETATM    5  C5  UNL     1     -34.130  14.459  -3.911  1.00 20.00     0.155 A 
HETATM    6  C6  UNL     1     -33.844  15.753  -3.441  1.00 20.00     0.155 A 
HETATM    7  C7  UNL     1     -37.871  14.885  -4.150  1.00 20.00     0.160 A 
HETATM    8  C8  UNL     1     -37.412  17.122  -3.339  1.00 20.00     0.047 A 
HETATM    9  C9  UNL     1     -38.548  16.181  -3.775  1.00 20.00     0.088 A 
HETATM   10  O10 UNL     1     -38.419  13.874  -4.551  1.00 20.00    -0.292 OA
HETATM   11  F11 UNL     1     -33.130  13.589  -4.104  1.00 20.00    -0.203 F 
HETATM   12  F12 UNL     1     -32.574  16.100  -3.193  1.00 20.00    -0.203 F 
ENDROOT
TORSDOF 0
ENDMDL
