MODEL 1
REMARK VINA RESULT:      -5.0      0.000      0.000
REMARK  0 active torsions:
REMARK  status: ('A' for Active; 'I' for Inactive)
ROOT
HETATM    1  C1  UNL     1     -32.876  16.671  -3.188  1.00 20.00     0.009 A 
HETATM    2  C2  UNL     1     -33.178  17.304  -1.983  1.00 20.00     0.019 A 
HETATM    3  C3  UNL     1     -35.332  16.174  -1.877  1.00 20.00     0.029 A 
HETATM    4  C4  UNL     1     -33.810  15.798  -3.722  1.00 20.00    -0.047 A 
HETATM    5  C5  UNL     1     -35.038  15.542  -3.077  1.00 20.00    -0.019 A 
HETATM    6  C6  UNL     1     -34.397  17.058  -1.332  1.00 20.00     0.011 A 
HETATM    7  C7  UNL     1     -33.688  15.005  -5.005  1.00 20.00     0.074 A 
HETATM    8  C8  UNL     1     -35.847  14.563  -3.859  1.00 20.00     0.185 A 
HETATM    9  C9  UNL     1     -35.016  14.281  -5.100  1.00 20.00     0.160 A 
HETATM   10  O10 UNL     1     -35.269  13.273  -4.119  1.00 20.00    -0.370 OA
HETATM   11 BR11 UNL     1     -34.776  17.930   0.303  1.00 20.00    -0.051 Br
ENDROOT
TORSDOF 0
ENDMDL
MODEL 2
REMARK VINA RESULT:      -5.0      1.438      2.319
REMARK  0 active torsions:
REMARK  status: ('A' for Active; 'I' for Inactive)
ROOT
HETATM    1  C1  UNL     1     -35.262  16.645  -1.415  1.00 20.00     0.009 A 
HETATM    2  C2  UNL     1     -34.454  17.632  -0.850  1.00 20.00     0.019 A 
HETATM    3  C3  UNL     1     -32.658  17.117  -2.410  1.00 20.00     0.029 A 
HETATM    4  C4  UNL     1     -34.753  15.907  -2.471  1.00 20.00    -0.047 A 
HETATM    5  C5  UNL     1     -33.456  16.134  -2.976  1.00 20.00    -0.019 A 
HETATM    6  C6  UNL     1     -33.162  17.866  -1.343  1.00 20.00     0.011 A 
HETATM    7  C7  UNL     1     -35.453  14.801  -3.231  1.00 20.00     0.074 A 
HETATM    8  C8  UNL     1     -33.166  15.211  -4.111  1.00 20.00     0.185 A 
HETATM    9  C9  UNL     1     -34.404  14.335  -4.222  1.00 20.00     0.160 A 
HETATM   10  O10 UNL     1     -34.039  15.257  -5.251  1.00 20.00    -0.370 OA
HETATM   11 BR11 UNL     1     -32.091  19.213  -0.557  1.00 20.00    -0.051 Br
ENDROOT
TORSDOF 0
ENDMDL
MODEL 3
REMARK VINA RESULT:      -4.9      2.898      4.155
REMARK  0 active torsions:
REMARK  status: ('A' for Active; 'I' for Inactive)
ROOT
HETATM    1  C1  UNL     1     -32.845  16.067  -3.474  1.00 20.00     0.009 A 
HETATM    2  C2  UNL     1     -33.712  15.171  -4.098  1.00 20.00     0.019 A 
HETATM    3  C3  UNL     1     -35.484  15.717  -2.520  1.00 20.00     0.029 A 
HETATM    4  C4  UNL     1     -33.311  16.774  -2.378  1.00 20.00    -0.047 A 
HETATM    5  C5  UNL     1     -34.626  16.609  -1.894  1.00 20.00    -0.019 A 
HETATM    6  C6  UNL     1     -35.022  14.997  -3.625  1.00 20.00     0.011 A 
HETATM    7  C7  UNL     1     -32.549  17.794  -1.559  1.00 20.00     0.074 A 
HETATM    8  C8  UNL     1     -34.866  17.492  -0.717  1.00 20.00     0.185 A 
HETATM    9  C9  UNL     1     -33.535  18.186  -0.476  1.00 20.00     0.160 A 
HETATM   10  O10 UNL     1     -34.694  18.908  -0.896  1.00 20.00    -0.370 OA
HETATM   11 BR11 UNL     1     -36.176  13.777  -4.496  1.00 20.00    -0.051 Br
ENDROOT
TORSDOF 0
ENDMDL
MODEL 4
REMARK VINA RESULT:      -4.9      3.203      4.998
REMARK  0 active torsions:
REMARK  status: ('A' for Active; 'I' for Inactive)
ROOT
HETATM    1  C1  UNL     1     -35.157  16.763  -1.163  1.00 20.00     0.009 A 
HETATM    2  C2  UNL     1     -35.104  15.883  -2.244  1.00 20.00     0.019 A 
HETATM    3  C3  UNL     1     -32.894  16.699  -2.857  1.00 20.00     0.029 A 
HETATM    4  C4  UNL     1     -34.076  17.600  -0.946  1.00 20.00    -0.047 A 
HETATM    5  C5  UNL     1     -32.941  17.577  -1.784  1.00 20.00    -0.019 A 
HETATM    6  C6  UNL     1     -33.982  15.851  -3.085  1.00 20.00     0.011 A 
HETATM    7  C7  UNL     1     -33.920  18.620   0.161  1.00 20.00     0.074 A 
HETATM    8  C8  UNL     1     -31.928  18.569  -1.323  1.00 20.00     0.185 A 
HETATM    9  C9  UNL     1     -32.579  19.263  -0.137  1.00 20.00     0.160 A 
HETATM   10  O10 UNL     1     -31.423  18.437   0.017  1.00 20.00    -0.370 OA
HETATM   11 BR11 UNL     1     -33.939  14.645  -4.541  1.00 20.00    -0.051 Br
ENDROOT
TORSDOF 0
ENDMDL
MODEL 5
REMARK VINA RESULT:      -4.8      1.128      1.184
REMARK  0 active torsions:
REMARK  status: ('A' for Active; 'I' for Inactive)
ROOT
HETATM    1  C1  UNL     1     -33.139  15.979  -3.635  1.00 20.00     0.009 A 
HETATM    2  C2  UNL     1     -33.520  16.476  -2.388  1.00 20.00     0.019 A 
HETATM    3  C3  UNL     1     -35.864  16.043  -2.883  1.00 20.00     0.029 A 
HETATM    4  C4  UNL     1     -34.129  15.523  -4.489  1.00 20.00    -0.047 A 
HETATM    5  C5  UNL     1     -35.492  15.549  -4.125  1.00 20.00    -0.019 A 
HETATM    6  C6  UNL     1     -34.872  16.508  -2.015  1.00 20.00     0.011 A 
HETATM    7  C7  UNL     1     -33.942  14.943  -5.874  1.00 20.00     0.074 A 
HETATM    8  C8  UNL     1     -36.338  14.996  -5.220  1.00 20.00     0.185 A 
HETATM    9  C9  UNL     1     -35.361  14.676  -6.339  1.00 20.00     0.160 A 
HETATM   10  O10 UNL     1     -36.079  13.649  -5.652  1.00 20.00    -0.370 OA
HETATM   11 BR11 UNL     1     -35.357  17.185  -0.317  1.00 20.00    -0.051 Br
ENDROOT
TORSDOF 0
ENDMDL
MODEL 6
REMARK VINA RESULT:      -4.7      1.662      1.975
REMARK  0 active torsions:
REMARK  status: ('A' for Active; 'I' for Inactive)
ROOT
HETATM    1  C1  UNL     1     -34.498  15.858  -2.338  1.00 20.00     0.009 A 
HETATM    2  C2  UNL     1     -34.920  17.051  -1.752  1.00 20.00     0.019 A 
HETATM    3  C3  UNL     1     -36.943  17.053  -3.106  1.00 20.00     0.029 A 
HETATM    4  C4  UNL     1     -35.306  15.280  -3.303  1.00 20.00    -0.047 A 
HETATM    5  C5  UNL     1     -36.528  15.866  -3.694  1.00 20.00    -0.019 A 
HETATM    6  C6  UNL     1     -36.133  17.645  -2.133  1.00 20.00     0.011 A 
HETATM    7  C7  UNL     1     -35.047  13.994  -4.058  1.00 20.00     0.074 A 
HETATM    8  C8  UNL     1     -37.197  15.038  -4.737  1.00 20.00     0.185 A 
HETATM    9  C9  UNL     1     -36.228  13.897  -5.004  1.00 20.00     0.160 A 
HETATM   10  O10 UNL     1     -37.509  13.674  -4.411  1.00 20.00    -0.370 OA
HETATM   11 BR11 UNL     1     -36.679  19.262  -1.318  1.00 20.00    -0.051 Br
ENDROOT
TORSDOF 0
ENDMDL
MODEL 7
REMARK VINA RESULT:      -4.6      1.074      1.516
REMARK  0 active torsions:
REMARK  status: ('A' for Active; 'I' for Inactive)
ROOT
HETATM    1  C1  UNL     1     -32.740  17.651  -1.691  1.00 20.00     0.009 A 
HETATM    2  C2  UNL     1     -33.271  18.099  -0.482  1.00 20.00     0.019 A 
HETATM    3  C3  UNL     1     -35.328  16.857  -0.875  1.00 20.00     0.029 A 
HETATM    4  C4  UNL     1     -33.514  16.813  -2.477  1.00 20.00    -0.047 A 
HETATM    5  C5  UNL     1     -34.806  16.410  -2.079  1.00 20.00    -0.019 A 
HETATM    6  C6  UNL     1     -34.555  17.706  -0.076  1.00 20.00     0.011 A 
HETATM    7  C7  UNL     1     -33.136  16.209  -3.812  1.00 20.00     0.074 A 
HETATM    8  C8  UNL     1     -35.410  15.507  -3.100  1.00 20.00     0.185 A 
HETATM    9  C9  UNL     1     -34.378  15.438  -4.214  1.00 20.00     0.160 A 
HETATM   10  O10 UNL     1     -34.708  14.295  -3.423  1.00 20.00    -0.370 OA
HETATM   11 BR11 UNL     1     -35.247  18.327   1.571  1.00 20.00    -0.051 Br
ENDROOT
TORSDOF 0
ENDMDL
MODEL 8
REMARK VINA RESULT:      -4.3      3.577      5.498
REMARK  0 active torsions:
REMARK  status: ('A' for Active; 'I' for Inactive)
ROOT
HETATM    1  C1  UNL     1     -34.592  17.720   0.453  1.00 20.00     0.009 A 
HETATM    2  C2  UNL     1     -35.149  17.038  -0.628  1.00 20.00     0.019 A 
HETATM    3  C3  UNL     1     -33.107  17.331  -1.922  1.00 20.00     0.029 A 
HETATM    4  C4  UNL     1     -33.299  18.199   0.330  1.00 20.00    -0.047 A 
HETATM    5  C5  UNL     1     -32.548  18.011  -0.849  1.00 20.00    -0.019 A 
HETATM    6  C6  UNL     1     -34.413  16.846  -1.807  1.00 20.00     0.011 A 
HETATM    7  C7  UNL     1     -32.503  18.955   1.372  1.00 20.00     0.074 A 
HETATM    8  C8  UNL     1     -31.193  18.617  -0.711  1.00 20.00     0.185 A 
HETATM    9  C9  UNL     1     -31.197  19.262   0.666  1.00 20.00     0.160 A 
HETATM   10  O10 UNL     1     -30.356  18.148   0.360  1.00 20.00    -0.370 OA
HETATM   11 BR11 UNL     1     -35.195  15.915  -3.256  1.00 20.00    -0.051 Br
ENDROOT
TORSDOF 0
ENDMDL
MODEL 9
REMARK VINA RESULT:      -4.2     11.765     12.382
REMARK  0 active torsions:
REMARK  status: ('A' for Active; 'I' for Inactive)
ROOT
HETATM    1  C1  UNL     1     -33.681   4.794   2.589  1.00 20.00     0.009 A 
HETATM    2  C2  UNL     1     -33.071   5.658   1.680  1.00 20.00     0.019 A 
HETATM    3  C3  UNL     1     -33.121   7.473   3.302  1.00 20.00     0.029 A 
HETATM    4  C4  UNL     1     -34.004   5.284   3.843  1.00 20.00    -0.047 A 
HETATM    5  C5  UNL     1     -33.729   6.618   4.211  1.00 20.00    -0.019 A 
HETATM    6  C6  UNL     1     -32.794   6.987   2.033  1.00 20.00     0.011 A 
HETATM    7  C7  UNL     1     -34.660   4.526   4.977  1.00 20.00     0.074 A 
HETATM    8  C8  UNL     1     -34.171   6.878   5.611  1.00 20.00     0.185 A 
HETATM    9  C9  UNL     1     -34.811   5.575   6.062  1.00 20.00     0.160 A 
HETATM   10  O10 UNL     1     -33.606   6.065   6.653  1.00 20.00    -0.370 OA
HETATM   11 BR11 UNL     1     -31.963   8.134   0.779  1.00 20.00    -0.051 Br
ENDROOT
TORSDOF 0
ENDMDL
