MODEL 1
REMARK VINA RESULT:      -5.2      0.000      0.000
REMARK  0 active torsions:
REMARK  status: ('A' for Active; 'I' for Inactive)
ROOT
HETATM    1  C1  UNL     1     -35.297  16.558  -1.713  1.00 20.00     0.009 A 
HETATM    2  C2  UNL     1     -34.297  17.412  -1.249  1.00 20.00     0.024 A 
HETATM    3  C3  UNL     1     -32.750  16.590  -2.940  1.00 20.00     0.034 A 
HETATM    4  C4  UNL     1     -35.008  15.732  -2.789  1.00 20.00    -0.047 A 
HETATM    5  C5  UNL     1     -33.741  15.739  -3.408  1.00 20.00    -0.019 A 
HETATM    6  C6  UNL     1     -33.032  17.427  -1.858  1.00 20.00     0.034 A 
HETATM    7  C7  UNL     1     -35.935  14.733  -3.445  1.00 20.00     0.074 A 
HETATM    8  C8  UNL     1     -33.700  14.757  -4.529  1.00 20.00     0.185 A 
HETATM    9  C9  UNL     1     -35.103  14.175  -4.583  1.00 20.00     0.160 A 
HETATM   10  O10 UNL     1     -33.973  13.380  -4.221  1.00 20.00    -0.370 OA
HETATM   11 CL11 UNL     1     -31.815  18.491  -1.262  1.00 20.00    -0.084 Cl
ENDROOT
TORSDOF 0
ENDMDL
MODEL 2
REMARK VINA RESULT:      -4.8      2.933      4.474
REMARK  0 active torsions:
REMARK  status: ('A' for Active; 'I' for Inactive)
ROOT
HETATM    1  C1  UNL     1     -32.929  15.874  -3.426  1.00 20.00     0.009 A 
HETATM    2  C2  UNL     1     -33.714  14.902  -4.048  1.00 20.00     0.024 A 
HETATM    3  C3  UNL     1     -35.649  15.553  -2.721  1.00 20.00     0.034 A 
HETATM    4  C4  UNL     1     -33.519  16.673  -2.460  1.00 20.00    -0.047 A 
HETATM    5  C5  UNL     1     -34.875  16.522  -2.100  1.00 20.00    -0.019 A 
HETATM    6  C6  UNL     1     -35.064  14.743  -3.698  1.00 20.00     0.034 A 
HETATM    7  C7  UNL     1     -32.858  17.775  -1.662  1.00 20.00     0.074 A 
HETATM    8  C8  UNL     1     -35.247  17.501  -1.038  1.00 20.00     0.185 A 
HETATM    9  C9  UNL     1     -33.990  18.325  -0.814  1.00 20.00     0.160 A 
HETATM   10  O10 UNL     1     -34.512  17.461   0.196  1.00 20.00    -0.370 OA
HETATM   11 CL11 UNL     1     -36.009  13.534  -4.482  1.00 20.00    -0.084 Cl
ENDROOT
TORSDOF 0
ENDMDL
MODEL 3
REMARK VINA RESULT:      -4.8     15.114     16.699
REMARK  0 active torsions:
REMARK  status: ('A' for Active; 'I' for Inactive)
ROOT
HETATM    1  C1  UNL     1     -22.420  17.695   9.083  1.00 20.00     0.009 A 
HETATM    2  C2  UNL     1     -22.856  18.139   7.835  1.00 20.00     0.024 A 
HETATM    3  C3  UNL     1     -24.979  18.860   8.784  1.00 20.00     0.034 A 
HETATM    4  C4  UNL     1     -23.273  17.843  10.166  1.00 20.00    -0.047 A 
HETATM    5  C5  UNL     1     -24.551  18.422  10.029  1.00 20.00    -0.019 A 
HETATM    6  C6  UNL     1     -24.126  18.717   7.686  1.00 20.00     0.034 A 
HETATM    7  C7  UNL     1     -23.008  17.429  11.597  1.00 20.00     0.074 A 
HETATM    8  C8  UNL     1     -25.256  18.454  11.342  1.00 20.00     0.185 A 
HETATM    9  C9  UNL     1     -24.254  17.884  12.332  1.00 20.00     0.160 A 
HETATM   10  O10 UNL     1     -25.469  17.203  12.017  1.00 20.00    -0.370 OA
HETATM   11 CL11 UNL     1     -24.638  19.255   6.131  1.00 20.00    -0.084 Cl
ENDROOT
TORSDOF 0
ENDMDL
MODEL 4
REMARK VINA RESULT:      -4.8      1.602      2.471
REMARK  0 active torsions:
REMARK  status: ('A' for Active; 'I' for Inactive)
ROOT
HETATM    1  C1  UNL     1     -32.720  17.441  -1.998  1.00 20.00     0.009 A 
HETATM    2  C2  UNL     1     -33.278  18.095  -0.900  1.00 20.00     0.024 A 
HETATM    3  C3  UNL     1     -35.318  16.780  -1.097  1.00 20.00     0.034 A 
HETATM    4  C4  UNL     1     -33.471  16.461  -2.629  1.00 20.00    -0.047 A 
HETATM    5  C5  UNL     1     -34.768  16.124  -2.188  1.00 20.00    -0.019 A 
HETATM    6  C6  UNL     1     -34.568  17.768  -0.453  1.00 20.00     0.034 A 
HETATM    7  C7  UNL     1     -33.067  15.636  -3.830  1.00 20.00     0.074 A 
HETATM    8  C8  UNL     1     -35.349  15.049  -3.044  1.00 20.00     0.185 A 
HETATM    9  C9  UNL     1     -34.249  14.707  -4.034  1.00 20.00     0.160 A 
HETATM   10  O10 UNL     1     -35.474  15.310  -4.451  1.00 20.00    -0.370 OA
HETATM   11 CL11 UNL     1     -35.232  18.594   0.905  1.00 20.00    -0.084 Cl
ENDROOT
TORSDOF 0
ENDMDL
MODEL 5
REMARK VINA RESULT:      -4.7      1.061      1.316
REMARK  0 active torsions:
REMARK  status: ('A' for Active; 'I' for Inactive)
ROOT
HETATM    1  C1  UNL     1     -35.180  16.908  -0.875  1.00 20.00     0.009 A 
HETATM    2  C2  UNL     1     -34.358  17.795  -0.180  1.00 20.00     0.024 A 
HETATM    3  C3  UNL     1     -32.661  17.655  -1.920  1.00 20.00     0.034 A 
HETATM    4  C4  UNL     1     -34.729  16.408  -2.086  1.00 20.00    -0.047 A 
HETATM    5  C5  UNL     1     -33.474  16.773  -2.617  1.00 20.00    -0.019 A 
HETATM    6  C6  UNL     1     -33.108  18.166  -0.698  1.00 20.00     0.034 A 
HETATM    7  C7  UNL     1     -35.449  15.437  -2.995  1.00 20.00     0.074 A 
HETATM    8  C8  UNL     1     -33.239  16.090  -3.921  1.00 20.00     0.185 A 
HETATM    9  C9  UNL     1     -34.511  15.301  -4.180  1.00 20.00     0.160 A 
HETATM   10  O10 UNL     1     -33.262  14.653  -3.937  1.00 20.00    -0.370 OA
HETATM   11 CL11 UNL     1     -32.113  19.263   0.183  1.00 20.00    -0.084 Cl
ENDROOT
TORSDOF 0
ENDMDL
MODEL 6
REMARK VINA RESULT:      -4.6     11.654     12.038
REMARK  0 active torsions:
REMARK  status: ('A' for Active; 'I' for Inactive)
ROOT
HETATM    1  C1  UNL     1     -32.424   7.742   4.595  1.00 20.00     0.009 A 
HETATM    2  C2  UNL     1     -31.966   7.987   3.300  1.00 20.00     0.024 A 
HETATM    3  C3  UNL     1     -33.475   6.302   2.400  1.00 20.00     0.034 A 
HETATM    4  C4  UNL     1     -33.405   6.779   4.772  1.00 20.00    -0.047 A 
HETATM    5  C5  UNL     1     -33.936   6.054   3.684  1.00 20.00    -0.019 A 
HETATM    6  C6  UNL     1     -32.487   7.272   2.211  1.00 20.00     0.034 A 
HETATM    7  C7  UNL     1     -34.037   6.352   6.078  1.00 20.00     0.074 A 
HETATM    8  C8  UNL     1     -34.966   5.084   4.155  1.00 20.00     0.185 A 
HETATM    9  C9  UNL     1     -35.066   5.322   5.652  1.00 20.00     0.160 A 
HETATM   10  O10 UNL     1     -34.564   4.096   5.118  1.00 20.00    -0.370 OA
HETATM   11 CL11 UNL     1     -31.902   7.595   0.623  1.00 20.00    -0.084 Cl
ENDROOT
TORSDOF 0
ENDMDL
MODEL 7
REMARK VINA RESULT:      -4.6      1.438      2.311
REMARK  0 active torsions:
REMARK  status: ('A' for Active; 'I' for Inactive)
ROOT
HETATM    1  C1  UNL     1     -32.991  16.323  -3.421  1.00 20.00     0.009 A 
HETATM    2  C2  UNL     1     -33.071  17.033  -2.223  1.00 20.00     0.024 A 
HETATM    3  C3  UNL     1     -35.382  16.334  -1.911  1.00 20.00     0.034 A 
HETATM    4  C4  UNL     1     -34.111  15.625  -3.845  1.00 20.00    -0.047 A 
HETATM    5  C5  UNL     1     -35.309  15.624  -3.100  1.00 20.00    -0.019 A 
HETATM    6  C6  UNL     1     -34.257  17.039  -1.473  1.00 20.00     0.034 A 
HETATM    7  C7  UNL     1     -34.247  14.800  -5.105  1.00 20.00     0.074 A 
HETATM    8  C8  UNL     1     -36.350  14.804  -3.783  1.00 20.00     0.185 A 
HETATM    9  C9  UNL     1     -35.653  14.240  -5.010  1.00 20.00     0.160 A 
HETATM   10  O10 UNL     1     -36.726  15.177  -5.119  1.00 20.00    -0.370 OA
HETATM   11 CL11 UNL     1     -34.327  17.927   0.002  1.00 20.00    -0.084 Cl
ENDROOT
TORSDOF 0
ENDMDL
MODEL 8
REMARK VINA RESULT:      -4.4      1.299      1.586
REMARK  0 active torsions:
REMARK  status: ('A' for Active; 'I' for Inactive)
ROOT
HETATM    1  C1  UNL     1     -36.677  16.761  -2.939  1.00 20.00     0.009 A 
HETATM    2  C2  UNL     1     -35.723  17.390  -2.140  1.00 20.00     0.024 A 
HETATM    3  C3  UNL     1     -34.034  15.768  -2.804  1.00 20.00     0.034 A 
HETATM    4  C4  UNL     1     -36.293  15.643  -3.663  1.00 20.00    -0.047 A 
HETATM    5  C5  UNL     1     -34.977  15.138  -3.602  1.00 20.00    -0.019 A 
HETATM    6  C6  UNL     1     -34.411  16.897  -2.072  1.00 20.00     0.034 A 
HETATM    7  C7  UNL     1     -37.160  14.811  -4.581  1.00 20.00     0.074 A 
HETATM    8  C8  UNL     1     -34.839  13.933  -4.469  1.00 20.00     0.185 A 
HETATM    9  C9  UNL     1     -36.199  13.772  -5.127  1.00 20.00     0.160 A 
HETATM   10  O10 UNL     1     -35.696  12.812  -4.197  1.00 20.00    -0.370 OA
HETATM   11 CL11 UNL     1     -33.253  17.693  -1.075  1.00 20.00    -0.084 Cl
ENDROOT
TORSDOF 0
ENDMDL
MODEL 9
REMARK VINA RESULT:      -4.4      1.722      2.255
REMARK  0 active torsions:
REMARK  status: ('A' for Active; 'I' for Inactive)
ROOT
HETATM    1  C1  UNL     1     -34.570  17.241  -5.157  1.00 20.00     0.009 A 
HETATM    2  C2  UNL     1     -33.806  17.755  -4.109  1.00 20.00     0.024 A 
HETATM    3  C3  UNL     1     -34.074  15.691  -2.845  1.00 20.00     0.034 A 
HETATM    4  C4  UNL     1     -35.074  15.956  -5.033  1.00 20.00    -0.047 A 
HETATM    5  C5  UNL     1     -34.833  15.174  -3.884  1.00 20.00    -0.019 A 
HETATM    6  C6  UNL     1     -33.559  16.986  -2.961  1.00 20.00     0.034 A 
HETATM    7  C7  UNL     1     -35.925  15.210  -6.037  1.00 20.00     0.074 A 
HETATM    8  C8  UNL     1     -35.491  13.842  -4.010  1.00 20.00     0.185 A 
HETATM    9  C9  UNL     1     -36.123  13.852  -5.392  1.00 20.00     0.160 A 
HETATM   10  O10 UNL     1     -36.915  13.815  -4.204  1.00 20.00    -0.370 OA
HETATM   11 CL11 UNL     1     -32.613  17.647  -1.682  1.00 20.00    -0.084 Cl
ENDROOT
TORSDOF 0
ENDMDL
