MODEL 1
REMARK VINA RESULT:      -5.5      0.000      0.000
REMARK  0 active torsions:
REMARK  status: ('A' for Active; 'I' for Inactive)
ROOT
HETATM    1  C1  UNL     1     -32.529  17.168  -2.681  1.00 20.00     0.012 A 
HETATM    2  C2  UNL     1     -33.407  16.198  -3.167  1.00 20.00     0.024 A 
HETATM    3  C3  UNL     1     -34.964  16.725  -1.404  1.00 20.00     0.031 A 
HETATM    4  C4  UNL     1     -32.845  17.938  -1.548  1.00 20.00    -0.021 A 
HETATM    5  C5  UNL     1     -34.090  17.707  -0.912  1.00 20.00    -0.048 A 
HETATM    6  C6  UNL     1     -34.621  15.976  -2.527  1.00 20.00     0.034 A 
HETATM    7  C7  UNL     1     -34.479  18.521   0.301  1.00 20.00     0.039 C 
HETATM    8  C8  UNL     1     -33.683  18.195   1.574  1.00 20.00     0.007 C 
HETATM    9  C9  UNL     1     -32.170  18.029   1.396  1.00 20.00     0.035 C 
HETATM   10  C10 UNL     1     -31.875  18.972  -1.027  1.00 20.00     0.184 A 
HETATM   11  C11 UNL     1     -31.585  19.038   0.461  1.00 20.00     0.156 A 
HETATM   12  O12 UNL     1     -30.634  18.508  -0.465  1.00 20.00    -0.370 OA
HETATM   13 CL13 UNL     1     -35.702  14.777  -3.124  1.00 20.00    -0.084 Cl
ENDROOT
TORSDOF 0
ENDMDL
MODEL 2
REMARK VINA RESULT:      -5.4      1.251      1.487
REMARK  0 active torsions:
REMARK  status: ('A' for Active; 'I' for Inactive)
ROOT
HETATM    1  C1  UNL     1     -32.812  17.291  -2.440  1.00 20.00     0.012 A 
HETATM    2  C2  UNL     1     -33.095  16.139  -3.174  1.00 20.00     0.024 A 
HETATM    3  C3  UNL     1     -35.239  15.973  -2.086  1.00 20.00     0.031 A 
HETATM    4  C4  UNL     1     -33.732  17.812  -1.514  1.00 20.00    -0.021 A 
HETATM    5  C5  UNL     1     -34.966  17.135  -1.347  1.00 20.00    -0.048 A 
HETATM    6  C6  UNL     1     -34.306  15.479  -2.995  1.00 20.00     0.034 A 
HETATM    7  C7  UNL     1     -35.992  17.666  -0.373  1.00 20.00     0.039 C 
HETATM    8  C8  UNL     1     -35.616  17.500   1.107  1.00 20.00     0.007 C 
HETATM    9  C9  UNL     1     -34.169  17.848   1.476  1.00 20.00     0.035 C 
HETATM   10  C10 UNL     1     -33.401  19.051  -0.716  1.00 20.00     0.184 A 
HETATM   11  C11 UNL     1     -33.674  19.072   0.776  1.00 20.00     0.156 A 
HETATM   12  O12 UNL     1     -32.346  18.963   0.259  1.00 20.00    -0.370 OA
HETATM   13 CL13 UNL     1     -34.653  14.056  -3.897  1.00 20.00    -0.084 Cl
ENDROOT
TORSDOF 0
ENDMDL
MODEL 3
REMARK VINA RESULT:      -5.2      3.257      5.557
REMARK  0 active torsions:
REMARK  status: ('A' for Active; 'I' for Inactive)
ROOT
HETATM    1  C1  UNL     1     -32.998  16.259  -3.534  1.00 20.00     0.012 A 
HETATM    2  C2  UNL     1     -33.095  16.963  -2.333  1.00 20.00     0.024 A 
HETATM    3  C3  UNL     1     -35.357  16.180  -2.057  1.00 20.00     0.031 A 
HETATM    4  C4  UNL     1     -34.075  15.501  -4.025  1.00 20.00    -0.021 A 
HETATM    5  C5  UNL     1     -35.267  15.463  -3.261  1.00 20.00    -0.048 A 
HETATM    6  C6  UNL     1     -34.274  16.925  -1.597  1.00 20.00     0.034 A 
HETATM    7  C7  UNL     1     -36.446  14.649  -3.742  1.00 20.00     0.039 C 
HETATM    8  C8  UNL     1     -37.164  15.226  -4.972  1.00 20.00     0.007 C 
HETATM    9  C9  UNL     1     -36.260  15.738  -6.099  1.00 20.00     0.035 C 
HETATM   10  C10 UNL     1     -33.957  14.759  -5.336  1.00 20.00     0.184 A 
HETATM   11  C11 UNL     1     -35.085  14.847  -6.346  1.00 20.00     0.156 A 
HETATM   12  O12 UNL     1     -33.849  15.536  -6.543  1.00 20.00    -0.370 OA
HETATM   13 CL13 UNL     1     -34.395  17.796  -0.118  1.00 20.00    -0.084 Cl
ENDROOT
TORSDOF 0
ENDMDL
MODEL 4
REMARK VINA RESULT:      -4.9      2.974      4.827
REMARK  0 active torsions:
REMARK  status: ('A' for Active; 'I' for Inactive)
ROOT
HETATM    1  C1  UNL     1     -33.504  18.322   1.373  1.00 20.00     0.012 A 
HETATM    2  C2  UNL     1     -32.257  18.525   1.965  1.00 20.00     0.024 A 
HETATM    3  C3  UNL     1     -31.250  18.700  -0.218  1.00 20.00     0.031 A 
HETATM    4  C4  UNL     1     -33.655  18.303  -0.025  1.00 20.00    -0.021 A 
HETATM    5  C5  UNL     1     -32.501  18.503  -0.822  1.00 20.00    -0.048 A 
HETATM    6  C6  UNL     1     -31.131  18.711   1.170  1.00 20.00     0.034 A 
HETATM    7  C7  UNL     1     -32.618  18.506  -2.329  1.00 20.00     0.039 C 
HETATM    8  C8  UNL     1     -32.901  17.130  -2.952  1.00 20.00     0.007 C 
HETATM    9  C9  UNL     1     -33.964  16.279  -2.248  1.00 20.00     0.035 C 
HETATM   10  C10 UNL     1     -35.011  18.065  -0.648  1.00 20.00     0.184 A 
HETATM   11  C11 UNL     1     -35.141  17.083  -1.797  1.00 20.00     0.156 A 
HETATM   12  O12 UNL     1     -35.608  16.766  -0.484  1.00 20.00    -0.370 OA
HETATM   13 CL13 UNL     1     -29.592  18.958   1.900  1.00 20.00    -0.084 Cl
ENDROOT
TORSDOF 0
ENDMDL
MODEL 5
REMARK VINA RESULT:      -4.9      3.982      6.386
REMARK  0 active torsions:
REMARK  status: ('A' for Active; 'I' for Inactive)
ROOT
HETATM    1  C1  UNL     1     -35.228  15.312  -3.325  1.00 20.00     0.012 A 
HETATM    2  C2  UNL     1     -34.371  15.903  -2.396  1.00 20.00     0.024 A 
HETATM    3  C3  UNL     1     -33.732  17.550  -4.035  1.00 20.00     0.031 A 
HETATM    4  C4  UNL     1     -35.358  15.823  -4.628  1.00 20.00    -0.021 A 
HETATM    5  C5  UNL     1     -34.596  16.966  -4.974  1.00 20.00    -0.048 A 
HETATM    6  C6  UNL     1     -33.622  17.019  -2.752  1.00 20.00     0.034 A 
HETATM    7  C7  UNL     1     -34.714  17.559  -6.359  1.00 20.00     0.039 C 
HETATM    8  C8  UNL     1     -34.087  16.710  -7.475  1.00 20.00     0.007 C 
HETATM    9  C9  UNL     1     -34.373  15.205  -7.417  1.00 20.00     0.035 C 
HETATM   10  C10 UNL     1     -36.279  15.159  -5.625  1.00 20.00     0.184 A 
HETATM   11  C11 UNL     1     -35.787  14.902  -7.037  1.00 20.00     0.156 A 
HETATM   12  O12 UNL     1     -35.931  13.842  -6.089  1.00 20.00    -0.370 OA
HETATM   13 CL13 UNL     1     -32.562  17.746  -1.607  1.00 20.00    -0.084 Cl
ENDROOT
TORSDOF 0
ENDMDL
MODEL 6
REMARK VINA RESULT:      -4.8      3.886      5.839
REMARK  0 active torsions:
REMARK  status: ('A' for Active; 'I' for Inactive)
ROOT
HETATM    1  C1  UNL     1     -36.891  17.489  -3.089  1.00 20.00     0.012 A 
HETATM    2  C2  UNL     1     -36.686  17.831  -1.752  1.00 20.00     0.024 A 
HETATM    3  C3  UNL     1     -34.811  16.320  -1.655  1.00 20.00     0.031 A 
HETATM    4  C4  UNL     1     -36.065  16.558  -3.741  1.00 20.00    -0.021 A 
HETATM    5  C5  UNL     1     -35.006  15.975  -3.002  1.00 20.00    -0.048 A 
HETATM    6  C6  UNL     1     -35.648  17.244  -1.035  1.00 20.00     0.034 A 
HETATM    7  C7  UNL     1     -34.082  14.980  -3.665  1.00 20.00     0.039 C 
HETATM    8  C8  UNL     1     -34.721  13.616  -3.968  1.00 20.00     0.007 C 
HETATM    9  C9  UNL     1     -36.131  13.653  -4.569  1.00 20.00     0.035 C 
HETATM   10  C10 UNL     1     -36.313  16.189  -5.185  1.00 20.00     0.184 A 
HETATM   11  C11 UNL     1     -36.293  14.729  -5.595  1.00 20.00     0.156 A 
HETATM   12  O12 UNL     1     -37.515  15.462  -5.496  1.00 20.00    -0.370 OA
HETATM   13 CL13 UNL     1     -35.397  17.662   0.615  1.00 20.00    -0.084 Cl
ENDROOT
TORSDOF 0
ENDMDL
MODEL 7
REMARK VINA RESULT:      -4.7      3.209      5.409
REMARK  0 active torsions:
REMARK  status: ('A' for Active; 'I' for Inactive)
ROOT
HETATM    1  C1  UNL     1     -36.003  17.055  -1.709  1.00 20.00     0.012 A 
HETATM    2  C2  UNL     1     -35.216  17.648  -0.721  1.00 20.00     0.024 A 
HETATM    3  C3  UNL     1     -33.235  17.141  -1.998  1.00 20.00     0.031 A 
HETATM    4  C4  UNL     1     -35.429  16.492  -2.861  1.00 20.00    -0.021 A 
HETATM    5  C5  UNL     1     -34.020  16.548  -2.999  1.00 20.00    -0.048 A 
HETATM    6  C6  UNL     1     -33.833  17.689  -0.865  1.00 20.00     0.034 A 
HETATM    7  C7  UNL     1     -33.359  15.968  -4.229  1.00 20.00     0.039 C 
HETATM    8  C8  UNL     1     -33.381  14.434  -4.305  1.00 20.00     0.007 C 
HETATM    9  C9  UNL     1     -34.708  13.761  -3.936  1.00 20.00     0.035 C 
HETATM   10  C10 UNL     1     -36.297  15.839  -3.912  1.00 20.00     0.184 A 
HETATM   11  C11 UNL     1     -35.895  14.491  -4.478  1.00 20.00     0.156 A 
HETATM   12  O12 UNL     1     -36.981  14.623  -3.559  1.00 20.00    -0.370 OA
HETATM   13 CL13 UNL     1     -32.861  18.417   0.354  1.00 20.00    -0.084 Cl
ENDROOT
TORSDOF 0
ENDMDL
MODEL 8
REMARK VINA RESULT:      -4.7      3.489      5.739
REMARK  0 active torsions:
REMARK  status: ('A' for Active; 'I' for Inactive)
ROOT
HETATM    1  C1  UNL     1     -33.690  17.517  -4.411  1.00 20.00     0.012 A 
HETATM    2  C2  UNL     1     -33.668  18.031  -3.114  1.00 20.00     0.024 A 
HETATM    3  C3  UNL     1     -34.458  15.919  -2.265  1.00 20.00     0.031 A 
HETATM    4  C4  UNL     1     -34.095  16.196  -4.667  1.00 20.00    -0.021 A 
HETATM    5  C5  UNL     1     -34.478  15.391  -3.565  1.00 20.00    -0.048 A 
HETATM    6  C6  UNL     1     -34.054  17.233  -2.043  1.00 20.00     0.034 A 
HETATM    7  C7  UNL     1     -34.907  13.960  -3.791  1.00 20.00     0.039 C 
HETATM    8  C8  UNL     1     -36.273  13.801  -4.477  1.00 20.00     0.007 C 
HETATM    9  C9  UNL     1     -36.536  14.725  -5.671  1.00 20.00     0.035 C 
HETATM   10  C10 UNL     1     -34.128  15.663  -6.080  1.00 20.00     0.184 A 
HETATM   11  C11 UNL     1     -35.340  14.882  -6.554  1.00 20.00     0.156 A 
HETATM   12  O12 UNL     1     -35.095  16.222  -6.988  1.00 20.00    -0.370 OA
HETATM   13 CL13 UNL     1     -34.031  17.868  -0.443  1.00 20.00    -0.084 Cl
ENDROOT
TORSDOF 0
ENDMDL
MODEL 9
REMARK VINA RESULT:      -4.6      2.429      3.454
REMARK  0 active torsions:
REMARK  status: ('A' for Active; 'I' for Inactive)
ROOT
HETATM    1  C1  UNL     1     -35.691  15.505  -2.788  1.00 20.00     0.012 A 
HETATM    2  C2  UNL     1     -35.304  15.023  -4.040  1.00 20.00     0.024 A 
HETATM    3  C3  UNL     1     -33.198  16.176  -3.832  1.00 20.00     0.031 A 
HETATM    4  C4  UNL     1     -34.843  16.330  -2.030  1.00 20.00    -0.021 A 
HETATM    5  C5  UNL     1     -33.575  16.659  -2.569  1.00 20.00    -0.048 A 
HETATM    6  C6  UNL     1     -34.060  15.361  -4.562  1.00 20.00     0.034 A 
HETATM    7  C7  UNL     1     -32.625  17.533  -1.783  1.00 20.00     0.039 C 
HETATM    8  C8  UNL     1     -33.046  19.006  -1.679  1.00 20.00     0.007 C 
HETATM    9  C9  UNL     1     -34.525  19.263  -1.371  1.00 20.00     0.035 C 
HETATM   10  C10 UNL     1     -35.285  16.855  -0.684  1.00 20.00     0.184 A 
HETATM   11  C11 UNL     1     -35.073  18.319  -0.348  1.00 20.00     0.156 A 
HETATM   12  O12 UNL     1     -36.370  17.802  -0.653  1.00 20.00    -0.370 OA
HETATM   13 CL13 UNL     1     -33.585  14.771  -6.107  1.00 20.00    -0.084 Cl
ENDROOT
TORSDOF 0
ENDMDL
