MODEL 1
REMARK VINA RESULT:      -4.7      0.000      0.000
REMARK  1 active torsions:
REMARK  status: ('A' for Active; 'I' for Inactive)
REMARK    1  A    between atoms: C3_3  and  C8_8 
ROOT
HETATM    1  C1  UNL     1     -33.126   5.278   2.192  1.00 20.00     0.058 A 
HETATM    2  C2  UNL     1     -33.563   6.445   4.123  1.00 20.00    -0.037 A 
HETATM    3  C3  UNL     1     -32.906   6.464   2.877  1.00 20.00    -0.031 A 
HETATM    4  C4  UNL     1     -34.242   5.275   4.333  1.00 20.00    -0.011 A 
HETATM    5  C5  UNL     1     -33.716   7.368   5.272  1.00 20.00     0.040 C 
HETATM    6  C6  UNL     1     -34.949   5.214   5.634  1.00 20.00     0.047 C 
HETATM    7  C7  UNL     1     -34.311   6.432   6.372  1.00 20.00     0.010 C 
HETATM    8  S9  UNL     1     -34.125   4.177   3.078  1.00 20.00    -0.105 SA
ENDROOT
BRANCH   3   9
HETATM    9  C8  UNL     1     -32.094   7.589   2.363  1.00 20.00     0.154 C 
HETATM   10 CL10 UNL     1     -32.827   8.293   0.899  1.00 20.00    -0.126 Cl
ENDBRANCH   3   9
TORSDOF 1
ENDMDL
MODEL 2
REMARK VINA RESULT:      -4.3     16.105     16.499
REMARK  1 active torsions:
REMARK  status: ('A' for Active; 'I' for Inactive)
REMARK    1  A    between atoms: C3_3  and  C8_8 
ROOT
HETATM    1  C1  UNL     1     -23.152  18.144   7.952  1.00 20.00     0.058 A 
HETATM    2  C2  UNL     1     -24.247  18.227   9.971  1.00 20.00    -0.037 A 
HETATM    3  C3  UNL     1     -24.303  18.563   8.603  1.00 20.00    -0.031 A 
HETATM    4  C4  UNL     1     -23.087  17.581  10.299  1.00 20.00    -0.011 A 
HETATM    5  C5  UNL     1     -25.126  18.388  11.153  1.00 20.00     0.040 C 
HETATM    6  C6  UNL     1     -22.989  17.209  11.730  1.00 20.00     0.047 C 
HETATM    7  C7  UNL     1     -24.159  18.047  12.332  1.00 20.00     0.010 C 
HETATM    8  S9  UNL     1     -22.039  17.354   9.017  1.00 20.00    -0.105 SA
ENDROOT
BRANCH   3   9
HETATM    9  C8  UNL     1     -25.428  19.263   7.946  1.00 20.00     0.154 C 
HETATM   10 CL10 UNL     1     -25.246  19.247   6.173  1.00 20.00    -0.126 Cl
ENDBRANCH   3   9
TORSDOF 1
ENDMDL
MODEL 3
REMARK VINA RESULT:      -4.3     11.786     12.554
REMARK  1 active torsions:
REMARK  status: ('A' for Active; 'I' for Inactive)
REMARK    1  A    between atoms: C3_3  and  C8_8 
ROOT
HETATM    1  C1  UNL     1     -34.139  18.247  -0.239  1.00 20.00     0.058 A 
HETATM    2  C2  UNL     1     -33.541  16.984  -2.064  1.00 20.00    -0.037 A 
HETATM    3  C3  UNL     1     -33.140  17.996  -1.168  1.00 20.00    -0.031 A 
HETATM    4  C4  UNL     1     -34.796  16.515  -1.788  1.00 20.00    -0.011 A 
HETATM    5  C5  UNL     1     -32.951  16.288  -3.231  1.00 20.00     0.040 C 
HETATM    6  C6  UNL     1     -35.255  15.447  -2.707  1.00 20.00     0.047 C 
HETATM    7  C7  UNL     1     -34.190  15.560  -3.842  1.00 20.00     0.010 C 
HETATM    8  S9  UNL     1     -35.532  17.247  -0.478  1.00 20.00    -0.105 SA
ENDROOT
BRANCH   3   9
HETATM    9  C8  UNL     1     -31.838  18.697  -1.207  1.00 20.00     0.154 C 
HETATM   10 CL10 UNL     1     -30.776  18.150   0.117  1.00 20.00    -0.126 Cl
ENDBRANCH   3   9
TORSDOF 1
ENDMDL
MODEL 4
REMARK VINA RESULT:      -4.2     16.364     16.974
REMARK  1 active torsions:
REMARK  status: ('A' for Active; 'I' for Inactive)
REMARK    1  A    between atoms: C3_3  and  C8_8 
ROOT
HETATM    1  C1  UNL     1     -25.779  19.263   9.353  1.00 20.00     0.058 A 
HETATM    2  C2  UNL     1     -24.550  18.383  11.083  1.00 20.00    -0.037 A 
HETATM    3  C3  UNL     1     -25.780  18.959  10.706  1.00 20.00    -0.031 A 
HETATM    4  C4  UNL     1     -23.684  18.272  10.029  1.00 20.00    -0.011 A 
HETATM    5  C5  UNL     1     -23.947  17.858  12.332  1.00 20.00     0.040 C 
HETATM    6  C6  UNL     1     -22.378  17.669  10.383  1.00 20.00     0.047 C 
HETATM    7  C7  UNL     1     -22.440  17.730  11.942  1.00 20.00     0.010 C 
HETATM    8  S9  UNL     1     -24.291  18.838   8.579  1.00 20.00    -0.105 SA
ENDROOT
BRANCH   3   9
HETATM    9  C8  UNL     1     -26.916  19.208  11.620  1.00 20.00     0.154 C 
HETATM   10 CL10 UNL     1     -27.513  17.686  12.329  1.00 20.00    -0.126 Cl
ENDBRANCH   3   9
TORSDOF 1
ENDMDL
MODEL 5
REMARK VINA RESULT:      -4.2     16.170     16.851
REMARK  1 active torsions:
REMARK  status: ('A' for Active; 'I' for Inactive)
REMARK    1  A    between atoms: C3_3  and  C8_8 
ROOT
HETATM    1  C1  UNL     1     -22.302  17.411  10.253  1.00 20.00     0.058 A 
HETATM    2  C2  UNL     1     -24.227  18.534   9.693  1.00 20.00    -0.037 A 
HETATM    3  C3  UNL     1     -23.491  17.938  10.736  1.00 20.00    -0.031 A 
HETATM    4  C4  UNL     1     -23.586  18.442   8.487  1.00 20.00    -0.011 A 
HETATM    5  C5  UNL     1     -25.521  19.245   9.561  1.00 20.00     0.040 C 
HETATM    6  C6  UNL     1     -24.327  19.059   7.363  1.00 20.00     0.047 C 
HETATM    7  C7  UNL     1     -25.731  19.263   8.013  1.00 20.00     0.010 C 
HETATM    8  S9  UNL     1     -22.112  17.657   8.550  1.00 20.00    -0.105 SA
ENDROOT
BRANCH   3   9
HETATM    9  C8  UNL     1     -23.919  17.878  12.151  1.00 20.00     0.154 C 
HETATM   10 CL10 UNL     1     -25.399  16.902  12.332  1.00 20.00    -0.126 Cl
ENDBRANCH   3   9
TORSDOF 1
ENDMDL
MODEL 6
REMARK VINA RESULT:      -4.2     16.416     16.689
REMARK  1 active torsions:
REMARK  status: ('A' for Active; 'I' for Inactive)
REMARK    1  A    between atoms: C3_3  and  C8_8 
ROOT
HETATM    1  C1  UNL     1     -23.970  18.806   8.075  1.00 20.00     0.058 A 
HETATM    2  C2  UNL     1     -23.963  18.335  10.324  1.00 20.00    -0.037 A 
HETATM    3  C3  UNL     1     -23.212  18.324   9.132  1.00 20.00    -0.031 A 
HETATM    4  C4  UNL     1     -25.231  18.815  10.135  1.00 20.00    -0.011 A 
HETATM    5  C5  UNL     1     -23.736  17.965  11.741  1.00 20.00     0.040 C 
HETATM    6  C6  UNL     1     -26.054  18.846  11.366  1.00 20.00     0.047 C 
HETATM    7  C7  UNL     1     -25.186  17.967  12.320  1.00 20.00     0.010 C 
HETATM    8  S9  UNL     1     -25.568  19.262   8.560  1.00 20.00    -0.105 SA
ENDROOT
BRANCH   3   9
HETATM    9  C8  UNL     1     -21.812  17.863   9.015  1.00 20.00     0.154 C 
HETATM   10 CL10 UNL     1     -21.483  17.217   7.387  1.00 20.00    -0.126 Cl
ENDBRANCH   3   9
TORSDOF 1
ENDMDL
MODEL 7
REMARK VINA RESULT:      -4.1     11.970     12.657
REMARK  1 active torsions:
REMARK  status: ('A' for Active; 'I' for Inactive)
REMARK    1  A    between atoms: C3_3  and  C8_8 
ROOT
HETATM    1  C1  UNL     1     -33.540  18.321  -0.242  1.00 20.00     0.058 A 
HETATM    2  C2  UNL     1     -34.477  16.762  -1.647  1.00 20.00    -0.037 A 
HETATM    3  C3  UNL     1     -34.635  17.497  -0.454  1.00 20.00    -0.031 A 
HETATM    4  C4  UNL     1     -33.299  17.050  -2.281  1.00 20.00    -0.011 A 
HETATM    5  C5  UNL     1     -35.262  15.756  -2.401  1.00 20.00     0.040 C 
HETATM    6  C6  UNL     1     -33.095  16.300  -3.542  1.00 20.00     0.047 C 
HETATM    7  C7  UNL     1     -34.210  15.215  -3.421  1.00 20.00     0.010 C 
HETATM    8  S9  UNL     1     -32.355  18.184  -1.496  1.00 20.00    -0.105 SA
ENDROOT
BRANCH   3   9
HETATM    9  C8  UNL     1     -35.802  17.406   0.450  1.00 20.00     0.154 C 
HETATM   10 CL10 UNL     1     -37.265  18.068  -0.324  1.00 20.00    -0.126 Cl
ENDBRANCH   3   9
TORSDOF 1
ENDMDL
MODEL 8
REMARK VINA RESULT:      -4.0     11.829     12.476
REMARK  1 active torsions:
REMARK  status: ('A' for Active; 'I' for Inactive)
REMARK    1  A    between atoms: C3_3  and  C8_8 
ROOT
HETATM    1  C1  UNL     1     -35.116  16.398  -1.771  1.00 20.00     0.058 A 
HETATM    2  C2  UNL     1     -33.202  17.613  -1.396  1.00 20.00    -0.037 A 
HETATM    3  C3  UNL     1     -33.836  16.671  -2.231  1.00 20.00    -0.031 A 
HETATM    4  C4  UNL     1     -34.003  18.012  -0.361  1.00 20.00    -0.011 A 
HETATM    5  C5  UNL     1     -31.886  18.293  -1.349  1.00 20.00     0.040 C 
HETATM    6  C6  UNL     1     -33.374  19.005   0.541  1.00 20.00     0.047 C 
HETATM    7  C7  UNL     1     -31.884  18.911   0.086  1.00 20.00     0.010 C 
HETATM    8  S9  UNL     1     -35.513  17.294  -0.344  1.00 20.00    -0.105 SA
ENDROOT
BRANCH   3   9
HETATM    9  C8  UNL     1     -33.228  16.056  -3.431  1.00 20.00     0.154 C 
HETATM   10 CL10 UNL     1     -34.094  14.568  -3.896  1.00 20.00    -0.126 Cl
ENDBRANCH   3   9
TORSDOF 1
ENDMDL
MODEL 9
REMARK VINA RESULT:      -4.0     11.954     12.549
REMARK  1 active torsions:
REMARK  status: ('A' for Active; 'I' for Inactive)
REMARK    1  A    between atoms: C3_3  and  C8_8 
ROOT
HETATM    1  C1  UNL     1     -35.785  14.588  -5.902  1.00 20.00     0.058 A 
HETATM    2  C2  UNL     1     -35.319  15.333  -3.778  1.00 20.00    -0.037 A 
HETATM    3  C3  UNL     1     -36.312  14.826  -4.641  1.00 20.00    -0.031 A 
HETATM    4  C4  UNL     1     -34.106  15.456  -4.400  1.00 20.00    -0.011 A 
HETATM    5  C5  UNL     1     -35.244  15.766  -2.363  1.00 20.00     0.040 C 
HETATM    6  C6  UNL     1     -33.032  15.985  -3.526  1.00 20.00     0.047 C 
HETATM    7  C7  UNL     1     -33.869  16.506  -2.316  1.00 20.00     0.010 C 
HETATM    8  S9  UNL     1     -34.102  14.981  -6.002  1.00 20.00    -0.105 SA
ENDROOT
BRANCH   3   9
HETATM    9  C8  UNL     1     -37.720  14.581  -4.262  1.00 20.00     0.154 C 
HETATM   10 CL10 UNL     1     -38.572  16.112  -3.935  1.00 20.00    -0.126 Cl
ENDBRANCH   3   9
TORSDOF 1
ENDMDL
