MODEL 1
REMARK VINA RESULT:      -5.7      0.000      0.000
REMARK  0 active torsions:
REMARK  status: ('A' for Active; 'I' for Inactive)
ROOT
HETATM    1  C1  UNL     1     -35.356  16.218  -1.947  1.00 20.00     0.012 A 
HETATM    2  C2  UNL     1     -34.406  17.081  -1.403  1.00 20.00     0.024 A 
HETATM    3  C3  UNL     1     -32.841  16.479  -3.147  1.00 20.00     0.031 A 
HETATM    4  C4  UNL     1     -35.065  15.476  -3.097  1.00 20.00    -0.021 A 
HETATM    5  C5  UNL     1     -33.784  15.608  -3.708  1.00 20.00    -0.048 A 
HETATM    6  C6  UNL     1     -33.153  17.213  -2.003  1.00 20.00     0.034 A 
HETATM    7  C7  UNL     1     -33.416  14.768  -4.934  1.00 20.00     0.039 C 
HETATM    8  C8  UNL     1     -34.241  14.982  -6.232  1.00 20.00     0.007 C 
HETATM    9  C9  UNL     1     -35.715  14.505  -6.195  1.00 20.00     0.035 C 
HETATM   10  C10 UNL     1     -36.044  14.557  -3.750  1.00 20.00     0.184 A 
HETATM   11  C11 UNL     1     -36.393  15.225  -5.097  1.00 20.00     0.156 A 
HETATM   12  O12 UNL     1     -37.379  14.754  -4.212  1.00 20.00    -0.370 OA
HETATM   13 CL13 UNL     1     -31.986  18.281  -1.323  1.00 20.00    -0.084 Cl
ENDROOT
TORSDOF 0
ENDMDL
MODEL 2
REMARK VINA RESULT:      -5.6      3.239      5.472
REMARK  0 active torsions:
REMARK  status: ('A' for Active; 'I' for Inactive)
ROOT
HETATM    1  C1  UNL     1     -35.239  16.863  -1.073  1.00 20.00     0.012 A 
HETATM    2  C2  UNL     1     -35.154  15.926  -2.102  1.00 20.00     0.024 A 
HETATM    3  C3  UNL     1     -32.943  16.728  -2.667  1.00 20.00     0.031 A 
HETATM    4  C4  UNL     1     -34.180  17.743  -0.825  1.00 20.00    -0.021 A 
HETATM    5  C5  UNL     1     -33.011  17.675  -1.637  1.00 20.00    -0.048 A 
HETATM    6  C6  UNL     1     -34.008  15.857  -2.895  1.00 20.00     0.034 A 
HETATM    7  C7  UNL     1     -31.858  18.662  -1.428  1.00 20.00     0.039 C 
HETATM    8  C8  UNL     1     -31.115  18.626  -0.065  1.00 20.00     0.007 C 
HETATM    9  C9  UNL     1     -31.918  19.112   1.169  1.00 20.00     0.035 C 
HETATM   10  C10 UNL     1     -34.190  18.750   0.278  1.00 20.00     0.184 A 
HETATM   11  C11 UNL     1     -33.123  18.265   1.282  1.00 20.00     0.156 A 
HETATM   12  O12 UNL     1     -34.422  18.630   1.680  1.00 20.00    -0.370 OA
HETATM   13 CL13 UNL     1     -33.913  14.697  -4.163  1.00 20.00    -0.084 Cl
ENDROOT
TORSDOF 0
ENDMDL
MODEL 3
REMARK VINA RESULT:      -5.4      3.008      5.054
REMARK  0 active torsions:
REMARK  status: ('A' for Active; 'I' for Inactive)
ROOT
HETATM    1  C1  UNL     1     -32.940  15.838  -3.748  1.00 20.00     0.012 A 
HETATM    2  C2  UNL     1     -33.779  14.948  -4.417  1.00 20.00     0.024 A 
HETATM    3  C3  UNL     1     -35.533  15.368  -2.806  1.00 20.00     0.031 A 
HETATM    4  C4  UNL     1     -33.385  16.506  -2.602  1.00 20.00    -0.021 A 
HETATM    5  C5  UNL     1     -34.704  16.267  -2.121  1.00 20.00    -0.048 A 
HETATM    6  C6  UNL     1     -35.072  14.716  -3.949  1.00 20.00     0.034 A 
HETATM    7  C7  UNL     1     -35.200  16.940  -0.838  1.00 20.00     0.039 C 
HETATM    8  C8  UNL     1     -35.298  18.489  -0.825  1.00 20.00     0.007 C 
HETATM    9  C9  UNL     1     -33.955  19.263  -0.858  1.00 20.00     0.035 C 
HETATM   10  C10 UNL     1     -32.552  17.494  -1.853  1.00 20.00     0.184 A 
HETATM   11  C11 UNL     1     -33.234  18.859  -2.084  1.00 20.00     0.156 A 
HETATM   12  O12 UNL     1     -31.854  18.667  -2.270  1.00 20.00    -0.370 OA
HETATM   13 CL13 UNL     1     -36.101  13.615  -4.782  1.00 20.00    -0.084 Cl
ENDROOT
TORSDOF 0
ENDMDL
MODEL 4
REMARK VINA RESULT:      -5.1     14.525     16.778
REMARK  0 active torsions:
REMARK  status: ('A' for Active; 'I' for Inactive)
ROOT
HETATM    1  C1  UNL     1     -26.563  19.204   8.795  1.00 20.00     0.012 A 
HETATM    2  C2  UNL     1     -26.651  19.263   7.404  1.00 20.00     0.024 A 
HETATM    3  C3  UNL     1     -24.248  19.047   7.230  1.00 20.00     0.031 A 
HETATM    4  C4  UNL     1     -25.320  19.063   9.422  1.00 20.00    -0.021 A 
HETATM    5  C5  UNL     1     -24.141  18.984   8.625  1.00 20.00    -0.048 A 
HETATM    6  C6  UNL     1     -25.497  19.182   6.625  1.00 20.00     0.034 A 
HETATM    7  C7  UNL     1     -22.761  18.887   9.283  1.00 20.00     0.039 C 
HETATM    8  C8  UNL     1     -22.460  17.634  10.149  1.00 20.00     0.007 C 
HETATM    9  C9  UNL     1     -23.240  17.518  11.484  1.00 20.00     0.035 C 
HETATM   10  C10 UNL     1     -25.154  18.963  10.902  1.00 20.00     0.184 A 
HETATM   11  C11 UNL     1     -24.683  17.516  11.162  1.00 20.00     0.156 A 
HETATM   12  O12 UNL     1     -25.745  18.102  11.874  1.00 20.00    -0.370 OA
HETATM   13 CL13 UNL     1     -25.616  19.257   4.909  1.00 20.00    -0.084 Cl
ENDROOT
TORSDOF 0
ENDMDL
MODEL 5
REMARK VINA RESULT:      -4.9      3.074      4.820
REMARK  0 active torsions:
REMARK  status: ('A' for Active; 'I' for Inactive)
ROOT
HETATM    1  C1  UNL     1     -31.223  18.322  -0.650  1.00 20.00     0.012 A 
HETATM    2  C2  UNL     1     -30.820  18.531   0.669  1.00 20.00     0.024 A 
HETATM    3  C3  UNL     1     -33.126  18.463   1.398  1.00 20.00     0.031 A 
HETATM    4  C4  UNL     1     -32.579  18.177  -0.963  1.00 20.00    -0.021 A 
HETATM    5  C5  UNL     1     -33.548  18.251   0.079  1.00 20.00    -0.048 A 
HETATM    6  C6  UNL     1     -31.769  18.599   1.689  1.00 20.00     0.034 A 
HETATM    7  C7  UNL     1     -35.043  18.154  -0.239  1.00 20.00     0.039 C 
HETATM    8  C8  UNL     1     -35.566  16.829  -0.859  1.00 20.00     0.007 C 
HETATM    9  C9  UNL     1     -35.112  16.523  -2.309  1.00 20.00     0.035 C 
HETATM   10  C10 UNL     1     -33.079  17.921  -2.346  1.00 20.00     0.184 A 
HETATM   11  C11 UNL     1     -33.635  16.481  -2.318  1.00 20.00     0.156 A 
HETATM   12  O12 UNL     1     -32.747  16.926  -3.314  1.00 20.00    -0.370 OA
HETATM   13 CL13 UNL     1     -31.262  18.859   3.314  1.00 20.00    -0.084 Cl
ENDROOT
TORSDOF 0
ENDMDL
MODEL 6
REMARK VINA RESULT:      -4.9      1.826      2.703
REMARK  0 active torsions:
REMARK  status: ('A' for Active; 'I' for Inactive)
ROOT
HETATM    1  C1  UNL     1     -33.258  16.580  -2.568  1.00 20.00     0.012 A 
HETATM    2  C2  UNL     1     -33.512  17.482  -1.536  1.00 20.00     0.024 A 
HETATM    3  C3  UNL     1     -35.865  17.482  -2.096  1.00 20.00     0.031 A 
HETATM    4  C4  UNL     1     -34.302  16.115  -3.376  1.00 20.00    -0.021 A 
HETATM    5  C5  UNL     1     -35.629  16.575  -3.137  1.00 20.00    -0.048 A 
HETATM    6  C6  UNL     1     -34.812  17.929  -1.299  1.00 20.00     0.034 A 
HETATM    7  C7  UNL     1     -36.783  16.128  -4.040  1.00 20.00     0.039 C 
HETATM    8  C8  UNL     1     -37.134  14.616  -4.069  1.00 20.00     0.007 C 
HETATM    9  C9  UNL     1     -36.090  13.681  -4.733  1.00 20.00     0.035 C 
HETATM   10  C10 UNL     1     -34.108  15.127  -4.479  1.00 20.00     0.184 A 
HETATM   11  C11 UNL     1     -34.816  13.841  -4.002  1.00 20.00     0.156 A 
HETATM   12  O12 UNL     1     -33.504  13.834  -4.509  1.00 20.00    -0.370 OA
HETATM   13 CL13 UNL     1     -35.115  19.043  -0.022  1.00 20.00    -0.084 Cl
ENDROOT
TORSDOF 0
ENDMDL
MODEL 7
REMARK VINA RESULT:      -4.8      1.881      2.567
REMARK  0 active torsions:
REMARK  status: ('A' for Active; 'I' for Inactive)
ROOT
HETATM    1  C1  UNL     1     -33.345  18.711  -4.241  1.00 20.00     0.012 A 
HETATM    2  C2  UNL     1     -32.517  19.084  -3.184  1.00 20.00     0.024 A 
HETATM    3  C3  UNL     1     -33.228  17.144  -1.926  1.00 20.00     0.031 A 
HETATM    4  C4  UNL     1     -34.123  17.551  -4.159  1.00 20.00    -0.021 A 
HETATM    5  C5  UNL     1     -34.065  16.754  -2.979  1.00 20.00    -0.048 A 
HETATM    6  C6  UNL     1     -32.457  18.301  -2.031  1.00 20.00     0.034 A 
HETATM    7  C7  UNL     1     -34.947  15.510  -2.835  1.00 20.00     0.039 C 
HETATM    8  C8  UNL     1     -34.721  14.343  -3.835  1.00 20.00     0.007 C 
HETATM    9  C9  UNL     1     -35.127  14.612  -5.307  1.00 20.00     0.035 C 
HETATM   10  C10 UNL     1     -35.009  17.076  -5.263  1.00 20.00     0.184 A 
HETATM   11  C11 UNL     1     -34.353  15.779  -5.781  1.00 20.00     0.156 A 
HETATM   12  O12 UNL     1     -34.758  16.813  -6.643  1.00 20.00    -0.370 OA
HETATM   13 CL13 UNL     1     -31.432  18.770  -0.729  1.00 20.00    -0.084 Cl
ENDROOT
TORSDOF 0
ENDMDL
MODEL 8
REMARK VINA RESULT:      -4.7      2.487      3.498
REMARK  0 active torsions:
REMARK  status: ('A' for Active; 'I' for Inactive)
ROOT
HETATM    1  C1  UNL     1     -37.813  15.736  -4.214  1.00 20.00     0.012 A 
HETATM    2  C2  UNL     1     -38.431  16.894  -3.744  1.00 20.00     0.024 A 
HETATM    3  C3  UNL     1     -36.458  17.440  -2.455  1.00 20.00     0.031 A 
HETATM    4  C4  UNL     1     -36.510  15.415  -3.816  1.00 20.00    -0.021 A 
HETATM    5  C5  UNL     1     -35.821  16.282  -2.919  1.00 20.00    -0.048 A 
HETATM    6  C6  UNL     1     -37.755  17.744  -2.869  1.00 20.00     0.034 A 
HETATM    7  C7  UNL     1     -34.417  15.929  -2.419  1.00 20.00     0.039 C 
HETATM    8  C8  UNL     1     -33.277  15.838  -3.470  1.00 20.00     0.007 C 
HETATM    9  C9  UNL     1     -33.355  14.652  -4.466  1.00 20.00     0.035 C 
HETATM   10  C10 UNL     1     -35.776  14.209  -4.303  1.00 20.00     0.184 A 
HETATM   11  C11 UNL     1     -34.638  14.757  -5.190  1.00 20.00     0.156 A 
HETATM   12  O12 UNL     1     -35.496  13.727  -5.616  1.00 20.00    -0.370 OA
HETATM   13 CL13 UNL     1     -38.527  19.171  -2.293  1.00 20.00    -0.084 Cl
ENDROOT
TORSDOF 0
ENDMDL
MODEL 9
REMARK VINA RESULT:      -4.6      1.210      1.377
REMARK  0 active torsions:
REMARK  status: ('A' for Active; 'I' for Inactive)
ROOT
HETATM    1  C1  UNL     1     -36.724  16.865  -2.701  1.00 20.00     0.012 A 
HETATM    2  C2  UNL     1     -35.998  17.517  -1.705  1.00 20.00     0.024 A 
HETATM    3  C3  UNL     1     -34.008  16.296  -2.339  1.00 20.00     0.031 A 
HETATM    4  C4  UNL     1     -36.105  15.924  -3.530  1.00 20.00    -0.021 A 
HETATM    5  C5  UNL     1     -34.722  15.633  -3.345  1.00 20.00    -0.048 A 
HETATM    6  C6  UNL     1     -34.644  17.234  -1.527  1.00 20.00     0.034 A 
HETATM    7  C7  UNL     1     -34.030  14.566  -4.199  1.00 20.00     0.039 C 
HETATM    8  C8  UNL     1     -33.944  14.808  -5.730  1.00 20.00     0.007 C 
HETATM    9  C9  UNL     1     -35.282  14.742  -6.512  1.00 20.00     0.035 C 
HETATM   10  C10 UNL     1     -36.813  15.211  -4.635  1.00 20.00     0.184 A 
HETATM   11  C11 UNL     1     -36.189  15.757  -5.937  1.00 20.00     0.156 A 
HETATM   12  O12 UNL     1     -37.580  15.684  -5.741  1.00 20.00    -0.370 OA
HETATM   13 CL13 UNL     1     -33.755  18.044  -0.294  1.00 20.00    -0.084 Cl
ENDROOT
TORSDOF 0
ENDMDL
