MODEL 1
REMARK VINA RESULT:      -4.1      0.000      0.000
REMARK  1 active torsions:
REMARK  status: ('A' for Active; 'I' for Inactive)
REMARK    1  A    between atoms: C1_1  and  C8_8 
ROOT
HETATM    1  C1  UNL     1     -23.873  18.080  10.203  1.00 20.00     0.014 C 
HETATM    2  C2  UNL     1     -22.550  18.030   9.506  1.00 20.00     0.057 C 
HETATM    3  C3  UNL     1     -23.027  18.139   8.078  1.00 20.00     0.027 C 
HETATM    4  C4  UNL     1     -24.315  18.931   8.215  1.00 20.00     0.149 C 
HETATM    5  N9  UNL     1     -24.874  18.563   9.532  1.00 20.00    -0.298 NA
ENDROOT
BRANCH   1   6
HETATM    6  C8  UNL     1     -24.003  17.628  11.620  1.00 20.00    -0.011 C 
HETATM    7  C5  UNL     1     -25.043  18.501  12.332  1.00 20.00     0.021 C 
HETATM    8  C6  UNL     1     -22.647  17.761  12.328  1.00 20.00     0.021 C 
HETATM    9  C7  UNL     1     -24.452  16.160  11.653  1.00 20.00     0.021 C 
ENDBRANCH   1   6
TORSDOF 1
ENDMDL
MODEL 2
REMARK VINA RESULT:      -4.1     15.893     16.889
REMARK  1 active torsions:
REMARK  status: ('A' for Active; 'I' for Inactive)
REMARK    1  A    between atoms: C1_1  and  C8_8 
ROOT
HETATM    1  C1  UNL     1     -33.543   6.208   3.866  1.00 20.00     0.014 C 
HETATM    2  C2  UNL     1     -33.072   5.928   2.473  1.00 20.00     0.057 C 
HETATM    3  C3  UNL     1     -32.415   7.253   2.170  1.00 20.00     0.027 C 
HETATM    4  C4  UNL     1     -31.976   7.730   3.543  1.00 20.00     0.149 C 
HETATM    5  N9  UNL     1     -32.972   7.192   4.492  1.00 20.00    -0.298 NA
ENDROOT
BRANCH   1   6
HETATM    6  C8  UNL     1     -34.591   5.356   4.500  1.00 20.00    -0.011 C 
HETATM    7  C5  UNL     1     -34.266   3.880   4.236  1.00 20.00     0.021 C 
HETATM    8  C6  UNL     1     -35.963   5.697   3.901  1.00 20.00     0.021 C 
HETATM    9  C7  UNL     1     -34.619   5.615   6.013  1.00 20.00     0.021 C 
ENDBRANCH   1   6
TORSDOF 1
ENDMDL
MODEL 3
REMARK VINA RESULT:      -3.8     15.877     17.525
REMARK  1 active torsions:
REMARK  status: ('A' for Active; 'I' for Inactive)
REMARK    1  A    between atoms: C1_1  and  C8_8 
ROOT
HETATM    1  C1  UNL     1     -34.318  15.911  -2.981  1.00 20.00     0.014 C 
HETATM    2  C2  UNL     1     -33.122  16.716  -2.579  1.00 20.00     0.057 C 
HETATM    3  C3  UNL     1     -33.790  17.674  -1.622  1.00 20.00     0.027 C 
HETATM    4  C4  UNL     1     -34.958  16.861  -1.094  1.00 20.00     0.149 C 
HETATM    5  N9  UNL     1     -35.353  15.962  -2.199  1.00 20.00    -0.298 NA
ENDROOT
BRANCH   1   6
HETATM    6  C8  UNL     1     -34.284  15.061  -4.209  1.00 20.00    -0.011 C 
HETATM    7  C5  UNL     1     -35.313  13.933  -4.066  1.00 20.00     0.021 C 
HETATM    8  C6  UNL     1     -32.881  14.462  -4.380  1.00 20.00     0.021 C 
HETATM    9  C7  UNL     1     -34.625  15.918  -5.436  1.00 20.00     0.021 C 
ENDBRANCH   1   6
TORSDOF 1
ENDMDL
MODEL 4
REMARK VINA RESULT:      -3.8     15.876     17.541
REMARK  1 active torsions:
REMARK  status: ('A' for Active; 'I' for Inactive)
REMARK    1  A    between atoms: C1_1  and  C8_8 
ROOT
HETATM    1  C1  UNL     1     -34.323  15.906  -2.982  1.00 20.00     0.014 C 
HETATM    2  C2  UNL     1     -33.124  16.707  -2.579  1.00 20.00     0.057 C 
HETATM    3  C3  UNL     1     -33.788  17.667  -1.621  1.00 20.00     0.027 C 
HETATM    4  C4  UNL     1     -34.958  16.857  -1.093  1.00 20.00     0.149 C 
HETATM    5  N9  UNL     1     -35.357  15.960  -2.198  1.00 20.00    -0.298 NA
ENDROOT
BRANCH   1   6
HETATM    6  C8  UNL     1     -34.292  15.057  -4.209  1.00 20.00    -0.011 C 
HETATM    7  C5  UNL     1     -32.887  14.465  -4.375  1.00 20.00     0.021 C 
HETATM    8  C6  UNL     1     -34.638  15.915  -5.436  1.00 20.00     0.021 C 
HETATM    9  C7  UNL     1     -35.318  13.923  -4.076  1.00 20.00     0.021 C 
ENDBRANCH   1   6
TORSDOF 1
ENDMDL
MODEL 5
REMARK VINA RESULT:      -3.8     15.895     17.544
REMARK  1 active torsions:
REMARK  status: ('A' for Active; 'I' for Inactive)
REMARK    1  A    between atoms: C1_1  and  C8_8 
ROOT
HETATM    1  C1  UNL     1     -34.309  15.901  -2.999  1.00 20.00     0.014 C 
HETATM    2  C2  UNL     1     -33.118  16.712  -2.594  1.00 20.00     0.057 C 
HETATM    3  C3  UNL     1     -33.793  17.671  -1.644  1.00 20.00     0.027 C 
HETATM    4  C4  UNL     1     -34.961  16.855  -1.118  1.00 20.00     0.149 C 
HETATM    5  N9  UNL     1     -35.347  15.951  -2.220  1.00 20.00    -0.298 NA
ENDROOT
BRANCH   1   6
HETATM    6  C8  UNL     1     -34.266  15.047  -4.223  1.00 20.00    -0.011 C 
HETATM    7  C5  UNL     1     -34.604  15.907  -5.447  1.00 20.00     0.021 C 
HETATM    8  C6  UNL     1     -35.290  13.910  -4.092  1.00 20.00     0.021 C 
HETATM    9  C7  UNL     1     -32.861  14.450  -4.384  1.00 20.00     0.021 C 
ENDBRANCH   1   6
TORSDOF 1
ENDMDL
MODEL 6
REMARK VINA RESULT:      -3.7     15.636     17.538
REMARK  1 active torsions:
REMARK  status: ('A' for Active; 'I' for Inactive)
REMARK    1  A    between atoms: C1_1  and  C8_8 
ROOT
HETATM    1  C1  UNL     1     -34.149  15.979  -3.108  1.00 20.00     0.014 C 
HETATM    2  C2  UNL     1     -35.419  16.258  -2.367  1.00 20.00     0.057 C 
HETATM    3  C3  UNL     1     -34.836  16.883  -1.122  1.00 20.00     0.027 C 
HETATM    4  C4  UNL     1     -33.548  17.504  -1.630  1.00 20.00     0.149 C 
HETATM    5  N9  UNL     1     -33.093  16.637  -2.736  1.00 20.00    -0.298 NA
ENDROOT
BRANCH   1   6
HETATM    6  C8  UNL     1     -34.132  15.015  -4.248  1.00 20.00    -0.011 C 
HETATM    7  C5  UNL     1     -35.177  13.921  -3.997  1.00 20.00     0.021 C 
HETATM    8  C6  UNL     1     -32.738  14.379  -4.363  1.00 20.00     0.021 C 
HETATM    9  C7  UNL     1     -34.462  15.754  -5.552  1.00 20.00     0.021 C 
ENDBRANCH   1   6
TORSDOF 1
ENDMDL
MODEL 7
REMARK VINA RESULT:      -3.7      1.689      3.094
REMARK  1 active torsions:
REMARK  status: ('A' for Active; 'I' for Inactive)
REMARK    1  A    between atoms: C1_1  and  C8_8 
ROOT
HETATM    1  C1  UNL     1     -24.755  18.389  10.926  1.00 20.00     0.014 C 
HETATM    2  C2  UNL     1     -25.422  19.201   9.860  1.00 20.00     0.057 C 
HETATM    3  C3  UNL     1     -26.814  19.263  10.442  1.00 20.00     0.027 C 
HETATM    4  C4  UNL     1     -26.557  19.170  11.936  1.00 20.00     0.149 C 
HETATM    5  N9  UNL     1     -25.344  18.339  12.083  1.00 20.00    -0.298 NA
ENDROOT
BRANCH   1   6
HETATM    6  C8  UNL     1     -23.452  17.712  10.662  1.00 20.00    -0.011 C 
HETATM    7  C5  UNL     1     -22.705  18.474   9.560  1.00 20.00     0.021 C 
HETATM    8  C6  UNL     1     -23.705  16.267  10.209  1.00 20.00     0.021 C 
HETATM    9  C7  UNL     1     -22.608  17.702  11.944  1.00 20.00     0.021 C 
ENDBRANCH   1   6
TORSDOF 1
ENDMDL
MODEL 8
REMARK VINA RESULT:      -3.7     15.217     16.969
REMARK  1 active torsions:
REMARK  status: ('A' for Active; 'I' for Inactive)
REMARK    1  A    between atoms: C1_1  and  C8_8 
ROOT
HETATM    1  C1  UNL     1     -34.053  16.156  -2.878  1.00 20.00     0.014 C 
HETATM    2  C2  UNL     1     -35.137  15.134  -3.018  1.00 20.00     0.057 C 
HETATM    3  C3  UNL     1     -34.676  14.468  -4.293  1.00 20.00     0.027 C 
HETATM    4  C4  UNL     1     -33.171  14.665  -4.247  1.00 20.00     0.149 C 
HETATM    5  N9  UNL     1     -32.955  15.943  -3.537  1.00 20.00    -0.298 NA
ENDROOT
BRANCH   1   6
HETATM    6  C8  UNL     1     -34.232  17.335  -1.980  1.00 20.00    -0.011 C 
HETATM    7  C5  UNL     1     -32.860  17.786  -1.464  1.00 20.00     0.021 C 
HETATM    8  C6  UNL     1     -35.128  16.948  -0.795  1.00 20.00     0.021 C 
HETATM    9  C7  UNL     1     -34.890  18.481  -2.763  1.00 20.00     0.021 C 
ENDBRANCH   1   6
TORSDOF 1
ENDMDL
MODEL 9
REMARK VINA RESULT:      -3.6     16.623     18.133
REMARK  1 active torsions:
REMARK  status: ('A' for Active; 'I' for Inactive)
REMARK    1  A    between atoms: C1_1  and  C8_8 
ROOT
HETATM    1  C1  UNL     1     -35.348  15.523  -3.497  1.00 20.00     0.014 C 
HETATM    2  C2  UNL     1     -34.541  14.380  -4.027  1.00 20.00     0.057 C 
HETATM    3  C3  UNL     1     -35.654  13.385  -4.254  1.00 20.00     0.027 C 
HETATM    4  C4  UNL     1     -36.850  14.279  -4.532  1.00 20.00     0.149 C 
HETATM    5  N9  UNL     1     -36.623  15.509  -3.746  1.00 20.00    -0.298 NA
ENDROOT
BRANCH   1   6
HETATM    6  C8  UNL     1     -34.689  16.639  -2.756  1.00 20.00    -0.011 C 
HETATM    7  C5  UNL     1     -35.110  17.974  -3.382  1.00 20.00     0.021 C 
HETATM    8  C6  UNL     1     -33.164  16.485  -2.844  1.00 20.00     0.021 C 
HETATM    9  C7  UNL     1     -35.120  16.602  -1.282  1.00 20.00     0.021 C 
ENDBRANCH   1   6
TORSDOF 1
ENDMDL
