MODEL 1
REMARK VINA RESULT:      -4.9      0.000      0.000
REMARK  3 active torsions:
REMARK  status: ('A' for Active; 'I' for Inactive)
REMARK    1  A    between atoms: C5_5  and  C8_8 
REMARK    2  A    between atoms: C7_7  and  N9_9 
REMARK    3  A    between atoms: C8_8  and  N9_9 
ROOT
HETATM    1  C1  UNL     1     -32.974   9.127   0.534  1.00 20.00     0.013 C 
HETATM    2  C2  UNL     1     -32.688   8.191   1.229  1.00 20.00    -0.087 C 
HETATM    3  C7  UNL     1     -32.335   7.046   2.072  1.00 20.00     0.362 C 
ENDROOT
BRANCH   3   4
HETATM    4  N9  UNL     1     -33.032   7.110   3.339  1.00 20.00     0.098 N 
HETATM    5  H22 UNL     1     -32.372   7.133   4.105  1.00 20.00     0.317 HD
BRANCH   4   6
HETATM    6  C8  UNL     1     -33.884   5.907   3.509  1.00 20.00     0.221 C 
HETATM    7  C6  UNL     1     -33.377   4.810   2.584  1.00 20.00     0.043 C 
BRANCH   6   8
HETATM    8  C5  UNL     1     -33.850   5.475   4.968  1.00 20.00     0.018 A 
HETATM    9  C3  UNL     1     -34.182   6.458   6.056  1.00 20.00     0.007 A 
HETATM   10  C4  UNL     1     -35.129   5.333   5.745  1.00 20.00     0.007 A 
ENDBRANCH   6   8
ENDBRANCH   4   6
ENDBRANCH   3   4
TORSDOF 3
ENDMDL
MODEL 2
REMARK VINA RESULT:      -4.3      1.195      1.629
REMARK  3 active torsions:
REMARK  status: ('A' for Active; 'I' for Inactive)
REMARK    1  A    between atoms: C5_5  and  C8_8 
REMARK    2  A    between atoms: C7_7  and  N9_9 
REMARK    3  A    between atoms: C8_8  and  N9_9 
ROOT
HETATM    1  C1  UNL     1     -33.244   8.783  -0.061  1.00 20.00     0.013 C 
HETATM    2  C2  UNL     1     -32.782   8.224   0.896  1.00 20.00    -0.087 C 
HETATM    3  C7  UNL     1     -32.214   7.546   2.063  1.00 20.00     0.362 C 
ENDROOT
BRANCH   3   4
HETATM    4  N9  UNL     1     -33.105   6.508   2.535  1.00 20.00     0.098 N 
HETATM    5  H22 UNL     1     -34.056   6.701   2.249  1.00 20.00     0.317 HD
BRANCH   4   6
HETATM    6  C8  UNL     1     -33.080   6.454   4.017  1.00 20.00     0.221 C 
HETATM    7  C6  UNL     1     -32.497   7.755   4.548  1.00 20.00     0.043 C 
BRANCH   6   8
HETATM    8  C5  UNL     1     -34.493   6.219   4.531  1.00 20.00     0.018 A 
HETATM    9  C3  UNL     1     -35.119   4.855   4.430  1.00 20.00     0.007 A 
HETATM   10  C4  UNL     1     -34.721   5.401   5.772  1.00 20.00     0.007 A 
ENDBRANCH   6   8
ENDBRANCH   4   6
ENDBRANCH   3   4
TORSDOF 3
ENDMDL
MODEL 3
REMARK VINA RESULT:      -4.1      1.086      4.568
REMARK  3 active torsions:
REMARK  status: ('A' for Active; 'I' for Inactive)
REMARK    1  A    between atoms: C5_5  and  C8_8 
REMARK    2  A    between atoms: C7_7  and  N9_9 
REMARK    3  A    between atoms: C8_8  and  N9_9 
ROOT
HETATM    1  C1  UNL     1     -34.821   5.359   5.181  1.00 20.00     0.013 C 
HETATM    2  C2  UNL     1     -34.469   5.296   4.034  1.00 20.00    -0.087 C 
HETATM    3  C7  UNL     1     -34.044   5.218   2.635  1.00 20.00     0.362 C 
ENDROOT
BRANCH   3   4
HETATM    4  N9  UNL     1     -32.715   5.770   2.473  1.00 20.00     0.098 N 
HETATM    5  H22 UNL     1     -32.097   5.418   3.192  1.00 20.00     0.317 HD
BRANCH   4   6
HETATM    6  C8  UNL     1     -32.762   7.248   2.598  1.00 20.00     0.221 C 
HETATM    7  C6  UNL     1     -31.883   7.671   3.766  1.00 20.00     0.043 C 
BRANCH   6   8
HETATM    8  C5  UNL     1     -32.299   7.873   1.290  1.00 20.00     0.018 A 
HETATM    9  C3  UNL     1     -33.228   7.932   0.109  1.00 20.00     0.007 A 
HETATM   10  C4  UNL     1     -32.863   9.193   0.841  1.00 20.00     0.007 A 
ENDBRANCH   6   8
ENDBRANCH   4   6
ENDBRANCH   3   4
TORSDOF 3
ENDMDL
MODEL 4
REMARK VINA RESULT:      -4.0     15.505     16.262
REMARK  3 active torsions:
REMARK  status: ('A' for Active; 'I' for Inactive)
REMARK    1  A    between atoms: C5_5  and  C8_8 
REMARK    2  A    between atoms: C7_7  and  N9_9 
REMARK    3  A    between atoms: C8_8  and  N9_9 
ROOT
HETATM    1  C1  UNL     1     -22.252  17.442   8.147  1.00 20.00     0.013 C 
HETATM    2  C2  UNL     1     -23.209  18.109   8.435  1.00 20.00    -0.087 C 
HETATM    3  C7  UNL     1     -24.373  18.926   8.782  1.00 20.00     0.362 C 
ENDROOT
BRANCH   3   4
HETATM    4  N9  UNL     1     -25.285  18.184   9.626  1.00 20.00     0.098 N 
HETATM    5  H22 UNL     1     -26.243  18.382   9.370  1.00 20.00     0.317 HD
BRANCH   4   6
HETATM    6  C8  UNL     1     -25.102  18.584  11.043  1.00 20.00     0.221 C 
HETATM    7  C6  UNL     1     -26.376  19.259  11.532  1.00 20.00     0.043 C 
BRANCH   6   8
HETATM    8  C5  UNL     1     -24.765  17.351  11.869  1.00 20.00     0.018 A 
HETATM    9  C3  UNL     1     -24.421  16.055  11.189  1.00 20.00     0.007 A 
HETATM   10  C4  UNL     1     -23.355  16.831  11.911  1.00 20.00     0.007 A 
ENDBRANCH   6   8
ENDBRANCH   4   6
ENDBRANCH   3   4
TORSDOF 3
ENDMDL
MODEL 5
REMARK VINA RESULT:      -4.0     16.037     16.635
REMARK  3 active torsions:
REMARK  status: ('A' for Active; 'I' for Inactive)
REMARK    1  A    between atoms: C5_5  and  C8_8 
REMARK    2  A    between atoms: C7_7  and  N9_9 
REMARK    3  A    between atoms: C8_8  and  N9_9 
ROOT
HETATM    1  C1  UNL     1     -21.797  16.968   8.397  1.00 20.00     0.013 C 
HETATM    2  C2  UNL     1     -22.829  17.517   8.671  1.00 20.00    -0.087 C 
HETATM    3  C7  UNL     1     -24.091  18.184   8.999  1.00 20.00     0.362 C 
ENDROOT
BRANCH   3   4
HETATM    4  N9  UNL     1     -23.985  18.886  10.261  1.00 20.00     0.098 N 
HETATM    5  H22 UNL     1     -23.061  19.286  10.366  1.00 20.00     0.317 HD
BRANCH   4   6
HETATM    6  C8  UNL     1     -24.201  17.942  11.385  1.00 20.00     0.221 C 
HETATM    7  C6  UNL     1     -22.882  17.739  12.118  1.00 20.00     0.043 C 
BRANCH   6   8
HETATM    8  C5  UNL     1     -25.276  18.502  12.305  1.00 20.00     0.018 A 
HETATM    9  C3  UNL     1     -26.451  19.246  11.732  1.00 20.00     0.007 A 
HETATM   10  C4  UNL     1     -26.646  17.882  12.332  1.00 20.00     0.007 A 
ENDBRANCH   6   8
ENDBRANCH   4   6
ENDBRANCH   3   4
TORSDOF 3
ENDMDL
MODEL 6
REMARK VINA RESULT:      -3.9     11.129     12.049
REMARK  3 active torsions:
REMARK  status: ('A' for Active; 'I' for Inactive)
REMARK    1  A    between atoms: C5_5  and  C8_8 
REMARK    2  A    between atoms: C7_7  and  N9_9 
REMARK    3  A    between atoms: C8_8  and  N9_9 
ROOT
HETATM    1  C1  UNL     1     -34.840  16.248  -1.941  1.00 20.00     0.013 C 
HETATM    2  C2  UNL     1     -34.041  15.928  -2.779  1.00 20.00    -0.087 C 
HETATM    3  C7  UNL     1     -33.063  15.542  -3.798  1.00 20.00     0.362 C 
ENDROOT
BRANCH   3   4
HETATM    4  N9  UNL     1     -33.613  14.535  -4.679  1.00 20.00     0.098 N 
HETATM    5  H22 UNL     1     -32.874  14.069  -5.189  1.00 20.00     0.317 HD
BRANCH   4   6
HETATM    6  C8  UNL     1     -34.517  15.169  -5.671  1.00 20.00     0.221 C 
HETATM    7  C6  UNL     1     -33.839  15.158  -7.034  1.00 20.00     0.043 C 
BRANCH   6   8
HETATM    8  C5  UNL     1     -35.839  14.416  -5.693  1.00 20.00     0.018 A 
HETATM    9  C3  UNL     1     -36.271  13.609  -4.500  1.00 20.00     0.007 A 
HETATM   10  C4  UNL     1     -36.990  14.883  -4.846  1.00 20.00     0.007 A 
ENDBRANCH   6   8
ENDBRANCH   4   6
ENDBRANCH   3   4
TORSDOF 3
ENDMDL
MODEL 7
REMARK VINA RESULT:      -3.9      9.604     10.308
REMARK  3 active torsions:
REMARK  status: ('A' for Active; 'I' for Inactive)
REMARK    1  A    between atoms: C5_5  and  C8_8 
REMARK    2  A    between atoms: C7_7  and  N9_9 
REMARK    3  A    between atoms: C8_8  and  N9_9 
ROOT
HETATM    1  C1  UNL     1     -42.096   2.766  -3.451  1.00 20.00     0.013 C 
HETATM    2  C2  UNL     1     -42.524   3.560  -2.658  1.00 20.00    -0.087 C 
HETATM    3  C7  UNL     1     -43.051   4.528  -1.693  1.00 20.00     0.362 C 
ENDROOT
BRANCH   3   4
HETATM    4  N9  UNL     1     -41.998   5.011  -0.826  1.00 20.00     0.098 N 
HETATM    5  H22 UNL     1     -41.593   4.246  -0.303  1.00 20.00     0.317 HD
BRANCH   4   6
HETATM    6  C8  UNL     1     -42.550   5.985   0.147  1.00 20.00     0.221 C 
HETATM    7  C6  UNL     1     -42.855   5.260   1.450  1.00 20.00     0.043 C 
BRANCH   6   8
HETATM    8  C5  UNL     1     -41.546   7.110   0.351  1.00 20.00     0.018 A 
HETATM    9  C3  UNL     1     -41.169   8.004  -0.798  1.00 20.00     0.007 A 
HETATM   10  C4  UNL     1     -42.002   8.543   0.331  1.00 20.00     0.007 A 
ENDBRANCH   6   8
ENDBRANCH   4   6
ENDBRANCH   3   4
TORSDOF 3
ENDMDL
MODEL 8
REMARK VINA RESULT:      -3.7     11.146     11.751
REMARK  3 active torsions:
REMARK  status: ('A' for Active; 'I' for Inactive)
REMARK    1  A    between atoms: C5_5  and  C8_8 
REMARK    2  A    between atoms: C7_7  and  N9_9 
REMARK    3  A    between atoms: C8_8  and  N9_9 
ROOT
HETATM    1  C1  UNL     1     -38.470  14.820  -4.143  1.00 20.00     0.013 C 
HETATM    2  C2  UNL     1     -37.426  14.368  -4.528  1.00 20.00    -0.087 C 
HETATM    3  C7  UNL     1     -36.155  13.817  -5.004  1.00 20.00     0.362 C 
ENDROOT
BRANCH   3   4
HETATM    4  N9  UNL     1     -35.176  13.798  -3.938  1.00 20.00     0.098 N 
HETATM    5  H22 UNL     1     -35.603  14.069  -3.062  1.00 20.00     0.317 HD
BRANCH   4   6
HETATM    6  C8  UNL     1     -34.090  14.766  -4.231  1.00 20.00     0.221 C 
HETATM    7  C6  UNL     1     -33.982  14.943  -5.739  1.00 20.00     0.043 C 
BRANCH   6   8
HETATM    8  C5  UNL     1     -34.393  16.082  -3.529  1.00 20.00     0.018 A 
HETATM    9  C3  UNL     1     -34.862  16.087  -2.101  1.00 20.00     0.007 A 
HETATM   10  C4  UNL     1     -33.485  16.585  -2.441  1.00 20.00     0.007 A 
ENDBRANCH   6   8
ENDBRANCH   4   6
ENDBRANCH   3   4
TORSDOF 3
ENDMDL
MODEL 9
REMARK VINA RESULT:      -3.7     10.877     12.034
REMARK  3 active torsions:
REMARK  status: ('A' for Active; 'I' for Inactive)
REMARK    1  A    between atoms: C5_5  and  C8_8 
REMARK    2  A    between atoms: C7_7  and  N9_9 
REMARK    3  A    between atoms: C8_8  and  N9_9 
ROOT
HETATM    1  C1  UNL     1     -30.924  18.332   0.026  1.00 20.00     0.013 C 
HETATM    2  C2  UNL     1     -31.852  18.290  -0.735  1.00 20.00    -0.087 C 
HETATM    3  C7  UNL     1     -32.986  18.244  -1.661  1.00 20.00     0.362 C 
ENDROOT
BRANCH   3   4
HETATM    4  N9  UNL     1     -32.843  17.143  -2.590  1.00 20.00     0.098 N 
HETATM    5  H22 UNL     1     -32.904  17.476  -3.543  1.00 20.00     0.317 HD
BRANCH   4   6
HETATM    6  C8  UNL     1     -33.935  16.160  -2.383  1.00 20.00     0.221 C 
HETATM    7  C6  UNL     1     -35.108  16.861  -1.712  1.00 20.00     0.043 C 
BRANCH   6   8
HETATM    8  C5  UNL     1     -34.329  15.562  -3.725  1.00 20.00     0.018 A 
HETATM    9  C3  UNL     1     -33.368  14.677  -4.470  1.00 20.00     0.007 A 
HETATM   10  C4  UNL     1     -34.603  14.089  -3.847  1.00 20.00     0.007 A 
ENDBRANCH   6   8
ENDBRANCH   4   6
ENDBRANCH   3   4
TORSDOF 3
ENDMDL
