MODEL 1
REMARK VINA RESULT:      -4.0      0.000      0.000
REMARK  3 active torsions:
REMARK  status: ('A' for Active; 'I' for Inactive)
REMARK    1  A    between atoms: C2_2  and  C6_6 
REMARK    2  A    between atoms: C6_6  and  S9_9 
REMARK    3  A    between atoms: C7_7  and  S9_9 
ROOT
HETATM    1  S9  UNL     1     -24.199  17.906   9.877  1.00 20.00    -0.158 SA
ENDROOT
BRANCH   1   2
HETATM    2  C6  UNL     1     -22.670  17.019   9.512  1.00 20.00     0.108 C 
BRANCH   2   3
HETATM    3  C2  UNL     1     -21.825  17.798   8.521  1.00 20.00     0.154 A 
HETATM    4  C1  UNL     1     -21.293  17.151   7.274  1.00 20.00     0.201 A 
HETATM    5  O8  UNL     1     -22.444  18.009   7.248  1.00 20.00    -0.380 OA
ENDBRANCH   2   3
ENDBRANCH   1   2
BRANCH   1   6
HETATM    6  C7  UNL     1     -24.294  17.507  11.665  1.00 20.00    -0.003 C 
HETATM    7  C3  UNL     1     -24.703  16.040  11.820  1.00 20.00     0.026 C 
HETATM    8  C4  UNL     1     -22.915  17.743  12.287  1.00 20.00     0.026 C 
HETATM    9  C5  UNL     1     -25.335  18.422  12.317  1.00 20.00     0.026 C 
ENDBRANCH   1   6
TORSDOF 3
ENDMDL
MODEL 2
REMARK VINA RESULT:      -3.6     17.992     18.742
REMARK  3 active torsions:
REMARK  status: ('A' for Active; 'I' for Inactive)
REMARK    1  A    between atoms: C2_2  and  C6_6 
REMARK    2  A    between atoms: C6_6  and  S9_9 
REMARK    3  A    between atoms: C7_7  and  S9_9 
ROOT
HETATM    1  S9  UNL     1     -35.337  17.126  -4.443  1.00 20.00    -0.158 SA
ENDROOT
BRANCH   1   2
HETATM    2  C6  UNL     1     -36.702  16.062  -3.933  1.00 20.00     0.108 C 
BRANCH   2   3
HETATM    3  C2  UNL     1     -36.868  14.907  -4.903  1.00 20.00     0.154 A 
HETATM    4  C1  UNL     1     -36.304  13.548  -4.599  1.00 20.00     0.201 A 
HETATM    5  O8  UNL     1     -37.699  13.843  -4.426  1.00 20.00    -0.380 OA
ENDBRANCH   2   3
ENDBRANCH   1   2
BRANCH   1   6
HETATM    6  C7  UNL     1     -34.121  16.591  -3.176  1.00 20.00    -0.003 C 
HETATM    7  C3  UNL     1     -34.882  16.097  -1.943  1.00 20.00     0.026 C 
HETATM    8  C4  UNL     1     -33.274  15.460  -3.767  1.00 20.00     0.026 C 
HETATM    9  C5  UNL     1     -33.234  17.786  -2.813  1.00 20.00     0.026 C 
ENDBRANCH   1   6
TORSDOF 3
ENDMDL
MODEL 3
REMARK VINA RESULT:      -3.6     17.960     18.752
REMARK  3 active torsions:
REMARK  status: ('A' for Active; 'I' for Inactive)
REMARK    1  A    between atoms: C2_2  and  C6_6 
REMARK    2  A    between atoms: C6_6  and  S9_9 
REMARK    3  A    between atoms: C7_7  and  S9_9 
ROOT
HETATM    1  S9  UNL     1     -35.330  17.142  -4.401  1.00 20.00    -0.158 SA
ENDROOT
BRANCH   1   2
HETATM    2  C6  UNL     1     -36.672  16.043  -3.903  1.00 20.00     0.108 C 
BRANCH   2   3
HETATM    3  C2  UNL     1     -36.817  14.898  -4.889  1.00 20.00     0.154 A 
HETATM    4  C1  UNL     1     -36.285  13.529  -4.575  1.00 20.00     0.201 A 
HETATM    5  O8  UNL     1     -37.681  13.844  -4.453  1.00 20.00    -0.380 OA
ENDBRANCH   2   3
ENDBRANCH   1   2
BRANCH   1   6
HETATM    6  C7  UNL     1     -34.096  16.606  -3.153  1.00 20.00    -0.003 C 
HETATM    7  C3  UNL     1     -33.204  17.800  -2.801  1.00 20.00     0.026 C 
HETATM    8  C4  UNL     1     -34.847  16.119  -1.910  1.00 20.00     0.026 C 
HETATM    9  C5  UNL     1     -33.258  15.471  -3.747  1.00 20.00     0.026 C 
ENDBRANCH   1   6
TORSDOF 3
ENDMDL
MODEL 4
REMARK VINA RESULT:      -3.6     17.983     18.718
REMARK  3 active torsions:
REMARK  status: ('A' for Active; 'I' for Inactive)
REMARK    1  A    between atoms: C2_2  and  C6_6 
REMARK    2  A    between atoms: C6_6  and  S9_9 
REMARK    3  A    between atoms: C7_7  and  S9_9 
ROOT
HETATM    1  S9  UNL     1     -35.359  17.137  -4.406  1.00 20.00    -0.158 SA
ENDROOT
BRANCH   1   2
HETATM    2  C6  UNL     1     -36.706  16.044  -3.908  1.00 20.00     0.108 C 
BRANCH   2   3
HETATM    3  C2  UNL     1     -36.856  14.900  -4.893  1.00 20.00     0.154 A 
HETATM    4  C1  UNL     1     -36.293  13.539  -4.597  1.00 20.00     0.201 A 
HETATM    5  O8  UNL     1     -37.691  13.830  -4.440  1.00 20.00    -0.380 OA
ENDBRANCH   2   3
ENDBRANCH   1   2
BRANCH   1   6
HETATM    6  C7  UNL     1     -34.132  16.607  -3.149  1.00 20.00    -0.003 C 
HETATM    7  C3  UNL     1     -33.273  15.488  -3.743  1.00 20.00     0.026 C 
HETATM    8  C4  UNL     1     -33.260  17.813  -2.787  1.00 20.00     0.026 C 
HETATM    9  C5  UNL     1     -34.883  16.104  -1.913  1.00 20.00     0.026 C 
ENDBRANCH   1   6
TORSDOF 3
ENDMDL
MODEL 5
REMARK VINA RESULT:      -3.3     18.277     19.064
REMARK  3 active torsions:
REMARK  status: ('A' for Active; 'I' for Inactive)
REMARK    1  A    between atoms: C2_2  and  C6_6 
REMARK    2  A    between atoms: C6_6  and  S9_9 
REMARK    3  A    between atoms: C7_7  and  S9_9 
ROOT
HETATM    1  S9  UNL     1     -35.501  16.976  -4.486  1.00 20.00    -0.158 SA
ENDROOT
BRANCH   1   2
HETATM    2  C6  UNL     1     -36.117  15.337  -4.921  1.00 20.00     0.108 C 
BRANCH   2   3
HETATM    3  C2  UNL     1     -37.232  14.919  -3.981  1.00 20.00     0.154 A 
HETATM    4  C1  UNL     1     -38.672  14.981  -4.405  1.00 20.00     0.201 A 
HETATM    5  O8  UNL     1     -37.943  13.744  -4.384  1.00 20.00    -0.380 OA
ENDBRANCH   2   3
ENDBRANCH   1   2
BRANCH   1   6
HETATM    6  C7  UNL     1     -34.126  16.441  -3.395  1.00 20.00    -0.003 C 
HETATM    7  C3  UNL     1     -34.675  16.224  -1.983  1.00 20.00     0.026 C 
HETATM    8  C4  UNL     1     -33.551  15.134  -3.949  1.00 20.00     0.026 C 
HETATM    9  C5  UNL     1     -33.052  17.533  -3.387  1.00 20.00     0.026 C 
ENDBRANCH   1   6
TORSDOF 3
ENDMDL
MODEL 6
REMARK VINA RESULT:      -3.3     15.101     15.999
REMARK  3 active torsions:
REMARK  status: ('A' for Active; 'I' for Inactive)
REMARK    1  A    between atoms: C2_2  and  C6_6 
REMARK    2  A    between atoms: C6_6  and  S9_9 
REMARK    3  A    between atoms: C7_7  and  S9_9 
ROOT
HETATM    1  S9  UNL     1     -33.203  18.113  -3.040  1.00 20.00    -0.158 SA
ENDROOT
BRANCH   1   2
HETATM    2  C6  UNL     1     -32.868  17.901  -1.280  1.00 20.00     0.108 C 
BRANCH   2   3
HETATM    3  C2  UNL     1     -31.767  18.844  -0.830  1.00 20.00     0.154 A 
HETATM    4  C1  UNL     1     -31.179  18.751   0.550  1.00 20.00     0.201 A 
HETATM    5  O8  UNL     1     -30.502  18.214  -0.598  1.00 20.00    -0.380 OA
ENDBRANCH   2   3
ENDBRANCH   1   2
BRANCH   1   6
HETATM    6  C7  UNL     1     -34.192  16.587  -3.288  1.00 20.00    -0.003 C 
HETATM    7  C3  UNL     1     -34.835  16.196  -1.955  1.00 20.00     0.026 C 
HETATM    8  C4  UNL     1     -35.272  16.877  -4.335  1.00 20.00     0.026 C 
HETATM    9  C5  UNL     1     -33.262  15.473  -3.779  1.00 20.00     0.026 C 
ENDBRANCH   1   6
TORSDOF 3
ENDMDL
MODEL 7
REMARK VINA RESULT:      -3.3     18.158     18.983
REMARK  3 active torsions:
REMARK  status: ('A' for Active; 'I' for Inactive)
REMARK    1  A    between atoms: C2_2  and  C6_6 
REMARK    2  A    between atoms: C6_6  and  S9_9 
REMARK    3  A    between atoms: C7_7  and  S9_9 
ROOT
HETATM    1  S9  UNL     1     -34.703  17.275  -4.634  1.00 20.00    -0.158 SA
ENDROOT
BRANCH   1   2
HETATM    2  C6  UNL     1     -34.467  16.101  -5.984  1.00 20.00     0.108 C 
BRANCH   2   3
HETATM    3  C2  UNL     1     -35.804  15.578  -6.476  1.00 20.00     0.154 A 
HETATM    4  C1  UNL     1     -35.937  14.929  -7.824  1.00 20.00     0.201 A 
HETATM    5  O8  UNL     1     -35.871  14.155  -6.616  1.00 20.00    -0.380 OA
ENDBRANCH   2   3
ENDBRANCH   1   2
BRANCH   1   6
HETATM    6  C7  UNL     1     -33.924  16.280  -3.303  1.00 20.00    -0.003 C 
HETATM    7  C3  UNL     1     -35.024  15.743  -2.384  1.00 20.00     0.026 C 
HETATM    8  C4  UNL     1     -33.159  15.122  -3.951  1.00 20.00     0.026 C 
HETATM    9  C5  UNL     1     -32.964  17.178  -2.517  1.00 20.00     0.026 C 
ENDBRANCH   1   6
TORSDOF 3
ENDMDL
MODEL 8
REMARK VINA RESULT:      -3.2     18.116     18.984
REMARK  3 active torsions:
REMARK  status: ('A' for Active; 'I' for Inactive)
REMARK    1  A    between atoms: C2_2  and  C6_6 
REMARK    2  A    between atoms: C6_6  and  S9_9 
REMARK    3  A    between atoms: C7_7  and  S9_9 
ROOT
HETATM    1  S9  UNL     1     -34.647  17.297  -4.622  1.00 20.00    -0.158 SA
ENDROOT
BRANCH   1   2
HETATM    2  C6  UNL     1     -34.427  16.114  -5.967  1.00 20.00     0.108 C 
BRANCH   2   3
HETATM    3  C2  UNL     1     -35.770  15.596  -6.447  1.00 20.00     0.154 A 
HETATM    4  C1  UNL     1     -35.915  14.930  -7.786  1.00 20.00     0.201 A 
HETATM    5  O8  UNL     1     -35.850  14.171  -6.568  1.00 20.00    -0.380 OA
ENDBRANCH   2   3
ENDBRANCH   1   2
BRANCH   1   6
HETATM    6  C7  UNL     1     -33.884  16.297  -3.286  1.00 20.00    -0.003 C 
HETATM    7  C3  UNL     1     -32.947  17.195  -2.475  1.00 20.00     0.026 C 
HETATM    8  C4  UNL     1     -35.002  15.750  -2.394  1.00 20.00     0.026 C 
HETATM    9  C5  UNL     1     -33.100  15.145  -3.923  1.00 20.00     0.026 C 
ENDBRANCH   1   6
TORSDOF 3
ENDMDL
MODEL 9
REMARK VINA RESULT:      -3.2     18.870     19.708
REMARK  3 active torsions:
REMARK  status: ('A' for Active; 'I' for Inactive)
REMARK    1  A    between atoms: C2_2  and  C6_6 
REMARK    2  A    between atoms: C6_6  and  S9_9 
REMARK    3  A    between atoms: C7_7  and  S9_9 
ROOT
HETATM    1  S9  UNL     1     -35.426  13.967  -4.247  1.00 20.00    -0.158 SA
ENDROOT
BRANCH   1   2
HETATM    2  C6  UNL     1     -36.722  14.960  -5.016  1.00 20.00     0.108 C 
BRANCH   2   3
HETATM    3  C2  UNL     1     -37.947  15.022  -4.122  1.00 20.00     0.154 A 
HETATM    4  C1  UNL     1     -39.297  15.381  -4.675  1.00 20.00     0.201 A 
HETATM    5  O8  UNL     1     -38.933  14.021  -4.393  1.00 20.00    -0.380 OA
ENDBRANCH   2   3
ENDBRANCH   1   2
BRANCH   1   6
HETATM    6  C7  UNL     1     -34.181  15.300  -4.045  1.00 20.00    -0.003 C 
HETATM    7  C3  UNL     1     -34.274  15.846  -2.618  1.00 20.00     0.026 C 
HETATM    8  C4  UNL     1     -32.793  14.706  -4.299  1.00 20.00     0.026 C 
HETATM    9  C5  UNL     1     -34.479  16.407  -5.061  1.00 20.00     0.026 C 
ENDBRANCH   1   6
TORSDOF 3
ENDMDL
