MODEL 1
REMARK VINA RESULT:      -4.4      0.000      0.000
REMARK  5 active torsions:
REMARK  status: ('A' for Active; 'I' for Inactive)
REMARK    1  A    between atoms: C3_3  and  C5_5 
REMARK    2  A    between atoms: C4_4  and  C6_6 
REMARK    3  A    between atoms: C5_5  and  C7_7 
REMARK    4  A    between atoms: C6_6  and  S9_9 
REMARK    5  A    between atoms: C7_7  and  S9_9 
ROOT
HETATM    1  C1  UNL     1     -32.647   8.243   1.148  1.00 20.00     0.059 C 
HETATM    2  C3  UNL     1     -32.206   7.342   2.222  1.00 20.00     0.124 C 
HETATM    3  N8  UNL     1     -32.993   8.955   0.300  1.00 20.00    -0.197 NA
ENDROOT
BRANCH   2   4
HETATM    4  C5  UNL     1     -33.385   6.557   2.800  1.00 20.00     0.024 C 
BRANCH   4   5
HETATM    5  C7  UNL     1     -33.258   5.069   2.483  1.00 20.00     0.075 C 
BRANCH   5   6
HETATM    6  S9  UNL     1     -34.088   4.068   3.750  1.00 20.00    -0.169 SA
BRANCH   6   7
HETATM    7  C6  UNL     1     -35.100   5.371   4.491  1.00 20.00     0.073 C 
BRANCH   7   8
HETATM    8  C4  UNL     1     -34.729   5.567   5.956  1.00 20.00     0.006 C 
HETATM    9  C2  UNL     1     -33.948   6.857   6.156  1.00 20.00     0.006 C 
ENDBRANCH   7   8
ENDBRANCH   6   7
ENDBRANCH   5   6
ENDBRANCH   4   5
ENDBRANCH   2   4
TORSDOF 5
ENDMDL
MODEL 2
REMARK VINA RESULT:      -4.0      2.259      4.566
REMARK  5 active torsions:
REMARK  status: ('A' for Active; 'I' for Inactive)
REMARK    1  A    between atoms: C3_3  and  C5_5 
REMARK    2  A    between atoms: C4_4  and  C6_6 
REMARK    3  A    between atoms: C5_5  and  C7_7 
REMARK    4  A    between atoms: C6_6  and  S9_9 
REMARK    5  A    between atoms: C7_7  and  S9_9 
ROOT
HETATM    1  C1  UNL     1     -34.074   6.431   5.981  1.00 20.00     0.059 C 
HETATM    2  C3  UNL     1     -34.813   5.163   5.921  1.00 20.00     0.124 C 
HETATM    3  N8  UNL     1     -33.491   7.433   6.029  1.00 20.00    -0.197 NA
ENDROOT
BRANCH   2   4
HETATM    4  C5  UNL     1     -34.794   4.580   4.507  1.00 20.00     0.024 C 
BRANCH   4   5
HETATM    5  C7  UNL     1     -34.608   5.680   3.466  1.00 20.00     0.075 C 
BRANCH   5   6
HETATM    6  S9  UNL     1     -33.034   5.471   2.584  1.00 20.00    -0.169 SA
BRANCH   6   7
HETATM    7  C6  UNL     1     -32.562   7.213   2.475  1.00 20.00     0.073 C 
BRANCH   7   8
HETATM    8  C4  UNL     1     -32.467   7.650   1.018  1.00 20.00     0.006 C 
HETATM    9  C2  UNL     1     -32.926   9.090   0.847  1.00 20.00     0.006 C 
ENDBRANCH   7   8
ENDBRANCH   6   7
ENDBRANCH   5   6
ENDBRANCH   4   5
ENDBRANCH   2   4
TORSDOF 5
ENDMDL
MODEL 3
REMARK VINA RESULT:      -3.9      2.744      5.008
REMARK  5 active torsions:
REMARK  status: ('A' for Active; 'I' for Inactive)
REMARK    1  A    between atoms: C3_3  and  C5_5 
REMARK    2  A    between atoms: C4_4  and  C6_6 
REMARK    3  A    between atoms: C5_5  and  C7_7 
REMARK    4  A    between atoms: C6_6  and  S9_9 
REMARK    5  A    between atoms: C7_7  and  S9_9 
ROOT
HETATM    1  C1  UNL     1     -34.529   4.624   4.878  1.00 20.00     0.059 C 
HETATM    2  C3  UNL     1     -34.609   5.613   5.961  1.00 20.00     0.124 C 
HETATM    3  N8  UNL     1     -34.467   3.842   4.023  1.00 20.00    -0.197 NA
ENDROOT
BRANCH   2   4
HETATM    4  C5  UNL     1     -33.771   6.852   5.638  1.00 20.00     0.024 C 
BRANCH   4   5
HETATM    5  C7  UNL     1     -33.801   7.157   4.142  1.00 20.00     0.075 C 
BRANCH   5   6
HETATM    6  S9  UNL     1     -32.121   7.422   3.506  1.00 20.00    -0.169 SA
BRANCH   6   7
HETATM    7  C6  UNL     1     -32.491   7.319   1.740  1.00 20.00     0.073 C 
BRANCH   7   8
HETATM    8  C4  UNL     1     -32.662   8.714   1.148  1.00 20.00     0.006 C 
HETATM    9  C2  UNL     1     -33.366   8.655  -0.199  1.00 20.00     0.006 C 
ENDBRANCH   7   8
ENDBRANCH   6   7
ENDBRANCH   5   6
ENDBRANCH   4   5
ENDBRANCH   2   4
TORSDOF 5
ENDMDL
MODEL 4
REMARK VINA RESULT:      -3.8      1.547      2.114
REMARK  5 active torsions:
REMARK  status: ('A' for Active; 'I' for Inactive)
REMARK    1  A    between atoms: C3_3  and  C5_5 
REMARK    2  A    between atoms: C4_4  and  C6_6 
REMARK    3  A    between atoms: C5_5  and  C7_7 
REMARK    4  A    between atoms: C6_6  and  S9_9 
REMARK    5  A    between atoms: C7_7  and  S9_9 
ROOT
HETATM    1  C1  UNL     1     -32.707   8.234   1.235  1.00 20.00     0.059 C 
HETATM    2  C3  UNL     1     -32.334   7.030   1.989  1.00 20.00     0.124 C 
HETATM    3  N8  UNL     1     -33.001   9.184   0.637  1.00 20.00    -0.197 NA
ENDROOT
BRANCH   2   4
HETATM    4  C5  UNL     1     -32.329   7.302   3.494  1.00 20.00     0.024 C 
BRANCH   4   5
HETATM    5  C7  UNL     1     -33.734   7.168   4.078  1.00 20.00     0.075 C 
BRANCH   5   6
HETATM    6  S9  UNL     1     -33.660   6.814   5.857  1.00 20.00    -0.169 SA
BRANCH   6   7
HETATM    7  C6  UNL     1     -34.738   5.364   5.880  1.00 20.00     0.073 C 
BRANCH   7   8
HETATM    8  C4  UNL     1     -35.153   4.984   4.463  1.00 20.00     0.006 C 
HETATM    9  C2  UNL     1     -34.179   3.985   3.856  1.00 20.00     0.006 C 
ENDBRANCH   7   8
ENDBRANCH   6   7
ENDBRANCH   5   6
ENDBRANCH   4   5
ENDBRANCH   2   4
TORSDOF 5
ENDMDL
MODEL 5
REMARK VINA RESULT:      -3.7     11.646     12.642
REMARK  5 active torsions:
REMARK  status: ('A' for Active; 'I' for Inactive)
REMARK    1  A    between atoms: C3_3  and  C5_5 
REMARK    2  A    between atoms: C4_4  and  C6_6 
REMARK    3  A    between atoms: C5_5  and  C7_7 
REMARK    4  A    between atoms: C6_6  and  S9_9 
REMARK    5  A    between atoms: C7_7  and  S9_9 
ROOT
HETATM    1  C1  UNL     1     -36.218  13.759  -4.811  1.00 20.00     0.059 C 
HETATM    2  C3  UNL     1     -36.706  15.078  -5.234  1.00 20.00     0.124 C 
HETATM    3  N8  UNL     1     -35.834  12.717  -4.476  1.00 20.00    -0.197 NA
ENDROOT
BRANCH   2   4
HETATM    4  C5  UNL     1     -35.900  15.609  -6.421  1.00 20.00     0.024 C 
BRANCH   4   5
HETATM    5  C7  UNL     1     -34.522  16.091  -5.973  1.00 20.00     0.075 C 
BRANCH   5   6
HETATM    6  S9  UNL     1     -34.663  17.600  -4.973  1.00 20.00    -0.169 SA
BRANCH   6   7
HETATM    7  C6  UNL     1     -33.421  17.202  -3.721  1.00 20.00     0.073 C 
BRANCH   7   8
HETATM    8  C4  UNL     1     -33.758  15.883  -3.036  1.00 20.00     0.006 C 
HETATM    9  C2  UNL     1     -34.919  16.050  -2.067  1.00 20.00     0.006 C 
ENDBRANCH   7   8
ENDBRANCH   6   7
ENDBRANCH   5   6
ENDBRANCH   4   5
ENDBRANCH   2   4
TORSDOF 5
ENDMDL
MODEL 6
REMARK VINA RESULT:      -3.7     15.826     16.465
REMARK  5 active torsions:
REMARK  status: ('A' for Active; 'I' for Inactive)
REMARK    1  A    between atoms: C3_3  and  C5_5 
REMARK    2  A    between atoms: C4_4  and  C6_6 
REMARK    3  A    between atoms: C5_5  and  C7_7 
REMARK    4  A    between atoms: C6_6  and  S9_9 
REMARK    5  A    between atoms: C7_7  and  S9_9 
ROOT
HETATM    1  C1  UNL     1     -22.046  17.364   7.966  1.00 20.00     0.059 C 
HETATM    2  C3  UNL     1     -22.534  17.165   9.337  1.00 20.00     0.124 C 
HETATM    3  N8  UNL     1     -21.660  17.519   6.883  1.00 20.00    -0.197 NA
ENDROOT
BRANCH   2   4
HETATM    4  C5  UNL     1     -23.188  18.438   9.879  1.00 20.00     0.024 C 
BRANCH   4   5
HETATM    5  C7  UNL     1     -24.600  18.604   9.321  1.00 20.00     0.075 C 
BRANCH   5   6
HETATM    6  S9  UNL     1     -25.766  19.038  10.643  1.00 20.00    -0.169 SA
BRANCH   6   7
HETATM    7  C6  UNL     1     -24.937  18.196  12.011  1.00 20.00     0.073 C 
BRANCH   7   8
HETATM    8  C4  UNL     1     -25.611  16.860  12.302  1.00 20.00     0.006 C 
HETATM    9  C2  UNL     1     -24.731  15.697  11.871  1.00 20.00     0.006 C 
ENDBRANCH   7   8
ENDBRANCH   6   7
ENDBRANCH   5   6
ENDBRANCH   4   5
ENDBRANCH   2   4
TORSDOF 5
ENDMDL
MODEL 7
REMARK VINA RESULT:      -3.7     11.368     12.029
REMARK  5 active torsions:
REMARK  status: ('A' for Active; 'I' for Inactive)
REMARK    1  A    between atoms: C3_3  and  C5_5 
REMARK    2  A    between atoms: C4_4  and  C6_6 
REMARK    3  A    between atoms: C5_5  and  C7_7 
REMARK    4  A    between atoms: C6_6  and  S9_9 
REMARK    5  A    between atoms: C7_7  and  S9_9 
ROOT
HETATM    1  C1  UNL     1     -35.863  13.932  -4.217  1.00 20.00     0.059 C 
HETATM    2  C3  UNL     1     -35.895  15.310  -3.709  1.00 20.00     0.124 C 
HETATM    3  N8  UNL     1     -35.838  12.844  -4.618  1.00 20.00    -0.197 NA
ENDROOT
BRANCH   2   4
HETATM    4  C5  UNL     1     -34.799  15.539  -2.667  1.00 20.00     0.024 C 
BRANCH   4   5
HETATM    5  C7  UNL     1     -33.481  15.919  -3.337  1.00 20.00     0.075 C 
BRANCH   5   6
HETATM    6  S9  UNL     1     -33.004  17.616  -2.901  1.00 20.00    -0.169 SA
BRANCH   6   7
HETATM    7  C6  UNL     1     -33.862  17.730  -1.314  1.00 20.00     0.073 C 
BRANCH   7   8
HETATM    8  C4  UNL     1     -32.945  18.331  -0.254  1.00 20.00     0.006 C 
HETATM    9  C2  UNL     1     -31.499  18.343  -0.724  1.00 20.00     0.006 C 
ENDBRANCH   7   8
ENDBRANCH   6   7
ENDBRANCH   5   6
ENDBRANCH   4   5
ENDBRANCH   2   4
TORSDOF 5
ENDMDL
MODEL 8
REMARK VINA RESULT:      -3.6     11.456     12.063
REMARK  5 active torsions:
REMARK  status: ('A' for Active; 'I' for Inactive)
REMARK    1  A    between atoms: C3_3  and  C5_5 
REMARK    2  A    between atoms: C4_4  and  C6_6 
REMARK    3  A    between atoms: C5_5  and  C7_7 
REMARK    4  A    between atoms: C6_6  and  S9_9 
REMARK    5  A    between atoms: C7_7  and  S9_9 
ROOT
HETATM    1  C1  UNL     1     -36.410  13.959  -4.315  1.00 20.00     0.059 C 
HETATM    2  C3  UNL     1     -34.964  14.106  -4.105  1.00 20.00     0.124 C 
HETATM    3  N8  UNL     1     -37.552  13.842  -4.483  1.00 20.00    -0.197 NA
ENDROOT
BRANCH   2   4
HETATM    4  C5  UNL     1     -34.660  15.268  -3.157  1.00 20.00     0.024 C 
BRANCH   4   5
HETATM    5  C7  UNL     1     -33.288  15.869  -3.454  1.00 20.00     0.075 C 
BRANCH   5   6
HETATM    6  S9  UNL     1     -33.331  17.677  -3.297  1.00 20.00    -0.169 SA
BRANCH   6   7
HETATM    7  C6  UNL     1     -32.538  17.818  -1.678  1.00 20.00     0.073 C 
BRANCH   7   8
HETATM    8  C4  UNL     1     -33.463  18.520  -0.690  1.00 20.00     0.006 C 
HETATM    9  C2  UNL     1     -34.642  17.634  -0.318  1.00 20.00     0.006 C 
ENDBRANCH   7   8
ENDBRANCH   6   7
ENDBRANCH   5   6
ENDBRANCH   4   5
ENDBRANCH   2   4
TORSDOF 5
ENDMDL
MODEL 9
REMARK VINA RESULT:      -3.6     16.340     16.772
REMARK  5 active torsions:
REMARK  status: ('A' for Active; 'I' for Inactive)
REMARK    1  A    between atoms: C3_3  and  C5_5 
REMARK    2  A    between atoms: C4_4  and  C6_6 
REMARK    3  A    between atoms: C5_5  and  C7_7 
REMARK    4  A    between atoms: C6_6  and  S9_9 
REMARK    5  A    between atoms: C7_7  and  S9_9 
ROOT
HETATM    1  C1  UNL     1     -22.362  17.135   8.420  1.00 20.00     0.059 C 
HETATM    2  C3  UNL     1     -23.120  16.975   9.668  1.00 20.00     0.124 C 
HETATM    3  N8  UNL     1     -21.764  17.260   7.434  1.00 20.00    -0.197 NA
ENDROOT
BRANCH   2   4
HETATM    4  C5  UNL     1     -22.537  17.846  10.783  1.00 20.00     0.024 C 
BRANCH   4   5
HETATM    5  C7  UNL     1     -23.138  17.474  12.136  1.00 20.00     0.075 C 
BRANCH   5   6
HETATM    6  S9  UNL     1     -24.887  17.019  11.960  1.00 20.00    -0.169 SA
BRANCH   6   7
HETATM    7  C6  UNL     1     -25.615  18.633  12.328  1.00 20.00     0.073 C 
BRANCH   7   8
HETATM    8  C4  UNL     1     -26.536  19.074  11.196  1.00 20.00     0.006 C 
HETATM    9  C2  UNL     1     -25.760  19.263   9.901  1.00 20.00     0.006 C 
ENDBRANCH   7   8
ENDBRANCH   6   7
ENDBRANCH   5   6
ENDBRANCH   4   5
ENDBRANCH   2   4
TORSDOF 5
ENDMDL
