MODEL 1
REMARK VINA RESULT:      -5.3      0.000      0.000
REMARK  0 active torsions:
REMARK  status: ('A' for Active; 'I' for Inactive)
ROOT
HETATM    1  C1  UNL     1     -32.779  16.976  -3.074  1.00 20.00     0.010 A 
HETATM    2  C2  UNL     1     -33.440  15.944  -3.748  1.00 20.00     0.019 A 
HETATM    3  C3  UNL     1     -35.186  15.893  -2.058  1.00 20.00     0.034 A 
HETATM    4  C4  UNL     1     -34.510  16.914  -1.416  1.00 20.00     0.018 A 
HETATM    5  C5  UNL     1     -33.323  17.459  -1.894  1.00 20.00    -0.040 A 
HETATM    6  C6  UNL     1     -34.635  15.406  -3.243  1.00 20.00     0.011 A 
HETATM    7  C7  UNL     1     -34.867  17.602  -0.187  1.00 20.00     0.160 A 
HETATM    8  C8  UNL     1     -33.846  18.673   0.109  1.00 20.00     0.093 A 
HETATM    9  C9  UNL     1     -32.787  18.552  -1.013  1.00 20.00     0.023 A 
HETATM   10  C10 UNL     1     -31.404  18.229  -0.456  1.00 20.00     0.015 C 
HETATM   11  O11 UNL     1     -35.852  17.342   0.481  1.00 20.00    -0.292 OA
HETATM   12 BR12 UNL     1     -35.503  14.009  -4.179  1.00 20.00    -0.051 Br
ENDROOT
TORSDOF 0
ENDMDL
MODEL 2
REMARK VINA RESULT:      -5.0      1.755      2.712
REMARK  0 active torsions:
REMARK  status: ('A' for Active; 'I' for Inactive)
ROOT
HETATM    1  C1  UNL     1     -35.328  16.263  -1.543  1.00 20.00     0.010 A 
HETATM    2  C2  UNL     1     -35.027  15.533  -2.699  1.00 20.00     0.019 A 
HETATM    3  C3  UNL     1     -32.929  16.731  -2.967  1.00 20.00     0.034 A 
HETATM    4  C4  UNL     1     -33.254  17.435  -1.822  1.00 20.00     0.018 A 
HETATM    5  C5  UNL     1     -34.429  17.225  -1.108  1.00 20.00    -0.040 A 
HETATM    6  C6  UNL     1     -33.836  15.767  -3.406  1.00 20.00     0.011 A 
HETATM    7  C7  UNL     1     -32.490  18.474  -1.152  1.00 20.00     0.160 A 
HETATM    8  C8  UNL     1     -33.227  18.925   0.085  1.00 20.00     0.093 A 
HETATM    9  C9  UNL     1     -34.548  18.118   0.095  1.00 20.00     0.023 A 
HETATM   10  C10 UNL     1     -35.770  19.028   0.029  1.00 20.00     0.015 C 
HETATM   11  O11 UNL     1     -31.416  18.893  -1.543  1.00 20.00    -0.292 OA
HETATM   12 BR12 UNL     1     -33.460  14.763  -4.965  1.00 20.00    -0.051 Br
ENDROOT
TORSDOF 0
ENDMDL
MODEL 3
REMARK VINA RESULT:      -5.0      2.741      4.659
REMARK  0 active torsions:
REMARK  status: ('A' for Active; 'I' for Inactive)
ROOT
HETATM    1  C1  UNL     1     -33.143  15.966  -3.630  1.00 20.00     0.010 A 
HETATM    2  C2  UNL     1     -33.249  16.714  -2.452  1.00 20.00     0.019 A 
HETATM    3  C3  UNL     1     -35.598  16.131  -2.236  1.00 20.00     0.034 A 
HETATM    4  C4  UNL     1     -35.462  15.400  -3.401  1.00 20.00     0.018 A 
HETATM    5  C5  UNL     1     -34.267  15.308  -4.106  1.00 20.00    -0.040 A 
HETATM    6  C6  UNL     1     -34.469  16.796  -1.761  1.00 20.00     0.011 A 
HETATM    7  C7  UNL     1     -36.467  14.614  -4.098  1.00 20.00     0.160 A 
HETATM    8  C8  UNL     1     -35.846  13.960  -5.309  1.00 20.00     0.093 A 
HETATM    9  C9  UNL     1     -34.381  14.457  -5.340  1.00 20.00     0.023 A 
HETATM   10  C10 UNL     1     -34.072  15.233  -6.616  1.00 20.00     0.015 C 
HETATM   11  O11 UNL     1     -37.624  14.505  -3.735  1.00 20.00    -0.292 OA
HETATM   12 BR12 UNL     1     -34.577  17.816  -0.171  1.00 20.00    -0.051 Br
ENDROOT
TORSDOF 0
ENDMDL
MODEL 4
REMARK VINA RESULT:      -4.8      3.105      4.538
REMARK  0 active torsions:
REMARK  status: ('A' for Active; 'I' for Inactive)
ROOT
HETATM    1  C1  UNL     1     -35.465  16.971  -0.497  1.00 20.00     0.010 A 
HETATM    2  C2  UNL     1     -35.442  17.400   0.834  1.00 20.00     0.019 A 
HETATM    3  C3  UNL     1     -33.331  18.551   0.477  1.00 20.00     0.034 A 
HETATM    4  C4  UNL     1     -33.384  18.112  -0.833  1.00 20.00     0.018 A 
HETATM    5  C5  UNL     1     -34.419  17.331  -1.333  1.00 20.00    -0.040 A 
HETATM    6  C6  UNL     1     -34.382  18.184   1.318  1.00 20.00     0.011 A 
HETATM    7  C7  UNL     1     -32.435  18.358  -1.907  1.00 20.00     0.160 A 
HETATM    8  C8  UNL     1     -32.930  17.708  -3.176  1.00 20.00     0.093 A 
HETATM    9  C9  UNL     1     -34.240  16.984  -2.784  1.00 20.00     0.023 A 
HETATM   10  C10 UNL     1     -34.149  15.480  -3.019  1.00 20.00     0.015 C 
HETATM   11  O11 UNL     1     -31.410  19.002  -1.780  1.00 20.00    -0.292 OA
HETATM   12 BR12 UNL     1     -34.381  18.748   3.124  1.00 20.00    -0.051 Br
ENDROOT
TORSDOF 0
ENDMDL
MODEL 5
REMARK VINA RESULT:      -4.8      3.591      5.148
REMARK  0 active torsions:
REMARK  status: ('A' for Active; 'I' for Inactive)
ROOT
HETATM    1  C1  UNL     1     -35.025  18.057   0.755  1.00 20.00     0.010 A 
HETATM    2  C2  UNL     1     -34.756  18.355   2.096  1.00 20.00     0.019 A 
HETATM    3  C3  UNL     1     -32.389  18.618   1.614  1.00 20.00     0.034 A 
HETATM    4  C4  UNL     1     -32.686  18.321   0.297  1.00 20.00     0.018 A 
HETATM    5  C5  UNL     1     -33.972  18.038  -0.148  1.00 20.00    -0.040 A 
HETATM    6  C6  UNL     1     -33.447  18.633   2.522  1.00 20.00     0.011 A 
HETATM    7  C7  UNL     1     -31.783  18.249  -0.840  1.00 20.00     0.160 A 
HETATM    8  C8  UNL     1     -32.566  17.927  -2.089  1.00 20.00     0.093 A 
HETATM    9  C9  UNL     1     -34.030  17.744  -1.620  1.00 20.00     0.023 A 
HETATM   10  C10 UNL     1     -34.550  16.342  -1.918  1.00 20.00     0.015 C 
HETATM   11  O11 UNL     1     -30.581  18.435  -0.772  1.00 20.00    -0.292 OA
HETATM   12 BR12 UNL     1     -33.119  19.032   4.342  1.00 20.00    -0.051 Br
ENDROOT
TORSDOF 0
ENDMDL
MODEL 6
REMARK VINA RESULT:      -4.8      3.178      5.218
REMARK  0 active torsions:
REMARK  status: ('A' for Active; 'I' for Inactive)
ROOT
HETATM    1  C1  UNL     1     -36.469  17.224  -3.464  1.00 20.00     0.010 A 
HETATM    2  C2  UNL     1     -35.511  17.830  -2.644  1.00 20.00     0.019 A 
HETATM    3  C3  UNL     1     -34.141  15.823  -2.675  1.00 20.00     0.034 A 
HETATM    4  C4  UNL     1     -35.105  15.252  -3.486  1.00 20.00     0.018 A 
HETATM    5  C5  UNL     1     -36.258  15.918  -3.883  1.00 20.00    -0.040 A 
HETATM    6  C6  UNL     1     -34.356  17.133  -2.252  1.00 20.00     0.011 A 
HETATM    7  C7  UNL     1     -35.122  13.920  -4.069  1.00 20.00     0.160 A 
HETATM    8  C8  UNL     1     -36.362  13.754  -4.915  1.00 20.00     0.093 A 
HETATM    9  C9  UNL     1     -37.146  15.080  -4.758  1.00 20.00     0.023 A 
HETATM   10  C10 UNL     1     -38.525  14.854  -4.148  1.00 20.00     0.015 C 
HETATM   11  O11 UNL     1     -34.253  13.086  -3.895  1.00 20.00    -0.292 OA
HETATM   12 BR12 UNL     1     -33.082  17.983  -1.141  1.00 20.00    -0.051 Br
ENDROOT
TORSDOF 0
ENDMDL
MODEL 7
REMARK VINA RESULT:      -4.7      3.791      4.961
REMARK  0 active torsions:
REMARK  status: ('A' for Active; 'I' for Inactive)
ROOT
HETATM    1  C1  UNL     1     -37.101  17.029  -3.456  1.00 20.00     0.010 A 
HETATM    2  C2  UNL     1     -38.470  16.863  -3.693  1.00 20.00     0.019 A 
HETATM    3  C3  UNL     1     -38.128  14.541  -4.325  1.00 20.00     0.034 A 
HETATM    4  C4  UNL     1     -36.781  14.736  -4.081  1.00 20.00     0.018 A 
HETATM    5  C5  UNL     1     -36.253  15.950  -3.658  1.00 20.00    -0.040 A 
HETATM    6  C6  UNL     1     -38.979  15.627  -4.126  1.00 20.00     0.011 A 
HETATM    7  C7  UNL     1     -35.693  13.779  -4.199  1.00 20.00     0.160 A 
HETATM    8  C8  UNL     1     -34.397  14.436  -3.792  1.00 20.00     0.093 A 
HETATM    9  C9  UNL     1     -34.763  15.904  -3.468  1.00 20.00     0.023 A 
HETATM   10  C10 UNL     1     -34.027  16.886  -4.373  1.00 20.00     0.015 C 
HETATM   11  O11 UNL     1     -35.833  12.626  -4.563  1.00 20.00    -0.292 OA
HETATM   12 BR12 UNL     1     -40.836  15.437  -4.438  1.00 20.00    -0.051 Br
ENDROOT
TORSDOF 0
ENDMDL
MODEL 8
REMARK VINA RESULT:      -4.6      3.149      4.721
REMARK  0 active torsions:
REMARK  status: ('A' for Active; 'I' for Inactive)
ROOT
HETATM    1  C1  UNL     1     -34.312  16.266  -2.272  1.00 20.00     0.010 A 
HETATM    2  C2  UNL     1     -34.955  17.408  -1.782  1.00 20.00     0.019 A 
HETATM    3  C3  UNL     1     -36.965  16.876  -3.040  1.00 20.00     0.034 A 
HETATM    4  C4  UNL     1     -36.303  15.755  -3.507  1.00 20.00     0.018 A 
HETATM    5  C5  UNL     1     -34.999  15.437  -3.147  1.00 20.00    -0.040 A 
HETATM    6  C6  UNL     1     -36.272  17.710  -2.165  1.00 20.00     0.011 A 
HETATM    7  C7  UNL     1     -36.793  14.726  -4.410  1.00 20.00     0.160 A 
HETATM    8  C8  UNL     1     -35.727  13.676  -4.604  1.00 20.00     0.093 A 
HETATM    9  C9  UNL     1     -34.508  14.171  -3.791  1.00 20.00     0.023 A 
HETATM   10  C10 UNL     1     -33.289  14.401  -4.678  1.00 20.00     0.015 C 
HETATM   11  O11 UNL     1     -37.902  14.729  -4.912  1.00 20.00    -0.292 OA
HETATM   12 BR12 UNL     1     -37.112  19.263  -1.483  1.00 20.00    -0.051 Br
ENDROOT
TORSDOF 0
ENDMDL
MODEL 9
REMARK VINA RESULT:      -4.4      3.493      4.852
REMARK  0 active torsions:
REMARK  status: ('A' for Active; 'I' for Inactive)
ROOT
HETATM    1  C1  UNL     1     -36.701  16.463  -3.408  1.00 20.00     0.010 A 
HETATM    2  C2  UNL     1     -37.713  16.779  -4.322  1.00 20.00     0.019 A 
HETATM    3  C3  UNL     1     -36.385  15.914  -6.164  1.00 20.00     0.034 A 
HETATM    4  C4  UNL     1     -35.405  15.613  -5.237  1.00 20.00     0.018 A 
HETATM    5  C5  UNL     1     -35.535  15.878  -3.878  1.00 20.00    -0.040 A 
HETATM    6  C6  UNL     1     -37.555  16.506  -5.690  1.00 20.00     0.011 A 
HETATM    7  C7  UNL     1     -34.110  14.991  -5.460  1.00 20.00     0.160 A 
HETATM    8  C8  UNL     1     -33.394  14.828  -4.141  1.00 20.00     0.093 A 
HETATM    9  C9  UNL     1     -34.330  15.460  -3.083  1.00 20.00     0.023 A 
HETATM   10  C10 UNL     1     -33.668  16.632  -2.366  1.00 20.00     0.015 C 
HETATM   11  O11 UNL     1     -33.693  14.651  -6.552  1.00 20.00    -0.292 OA
HETATM   12 BR12 UNL     1     -38.943  16.946  -6.899  1.00 20.00    -0.051 Br
ENDROOT
TORSDOF 0
ENDMDL
