MODEL 1
REMARK VINA RESULT:      -5.4      0.000      0.000
REMARK  0 active torsions:
REMARK  status: ('A' for Active; 'I' for Inactive)
ROOT
HETATM    1  C1  UNL     1     -35.330  16.649  -1.327  1.00 20.00     0.010 A 
HETATM    2  C2  UNL     1     -35.072  15.807  -2.415  1.00 20.00     0.019 A 
HETATM    3  C3  UNL     1     -32.853  16.759  -2.688  1.00 20.00     0.034 A 
HETATM    4  C4  UNL     1     -33.138  17.579  -1.611  1.00 20.00     0.018 A 
HETATM    5  C5  UNL     1     -34.345  17.539  -0.924  1.00 20.00    -0.040 A 
HETATM    6  C6  UNL     1     -33.841  15.862  -3.089  1.00 20.00     0.011 A 
HETATM    7  C7  UNL     1     -32.297  18.597  -1.003  1.00 20.00     0.160 A 
HETATM    8  C8  UNL     1     -33.046  19.262   0.127  1.00 20.00     0.093 A 
HETATM    9  C9  UNL     1     -34.405  18.527   0.208  1.00 20.00     0.023 A 
HETATM   10  C10 UNL     1     -34.607  17.853   1.561  1.00 20.00     0.015 C 
HETATM   11  O11 UNL     1     -31.169  18.863  -1.373  1.00 20.00    -0.292 OA
HETATM   12 BR12 UNL     1     -33.525  14.710  -4.556  1.00 20.00    -0.051 Br
ENDROOT
TORSDOF 0
ENDMDL
MODEL 2
REMARK VINA RESULT:      -5.4      1.996      3.012
REMARK  0 active torsions:
REMARK  status: ('A' for Active; 'I' for Inactive)
ROOT
HETATM    1  C1  UNL     1     -32.920  16.056  -3.426  1.00 20.00     0.010 A 
HETATM    2  C2  UNL     1     -33.747  15.148  -4.096  1.00 20.00     0.019 A 
HETATM    3  C3  UNL     1     -35.585  15.628  -2.581  1.00 20.00     0.034 A 
HETATM    4  C4  UNL     1     -34.743  16.517  -1.938  1.00 20.00     0.018 A 
HETATM    5  C5  UNL     1     -33.432  16.748  -2.338  1.00 20.00    -0.040 A 
HETATM    6  C6  UNL     1     -35.071  14.937  -3.676  1.00 20.00     0.011 A 
HETATM    7  C7  UNL     1     -35.022  17.349  -0.778  1.00 20.00     0.160 A 
HETATM    8  C8  UNL     1     -33.786  18.132  -0.409  1.00 20.00     0.093 A 
HETATM    9  C9  UNL     1     -32.730  17.762  -1.478  1.00 20.00     0.023 A 
HETATM   10  C10 UNL     1     -32.270  18.981  -2.270  1.00 20.00     0.015 C 
HETATM   11  O11 UNL     1     -36.094  17.382  -0.202  1.00 20.00    -0.292 OA
HETATM   12 BR12 UNL     1     -36.162  13.702  -4.605  1.00 20.00    -0.051 Br
ENDROOT
TORSDOF 0
ENDMDL
MODEL 3
REMARK VINA RESULT:      -5.2      2.728      4.563
REMARK  0 active torsions:
REMARK  status: ('A' for Active; 'I' for Inactive)
ROOT
HETATM    1  C1  UNL     1     -35.611  16.693  -1.802  1.00 20.00     0.010 A 
HETATM    2  C2  UNL     1     -34.565  17.479  -1.304  1.00 20.00     0.019 A 
HETATM    3  C3  UNL     1     -32.990  16.438  -2.834  1.00 20.00     0.034 A 
HETATM    4  C4  UNL     1     -34.043  15.675  -3.304  1.00 20.00     0.018 A 
HETATM    5  C5  UNL     1     -35.340  15.786  -2.816  1.00 20.00    -0.040 A 
HETATM    6  C6  UNL     1     -33.264  17.352  -1.818  1.00 20.00     0.011 A 
HETATM    7  C7  UNL     1     -34.028  14.655  -4.339  1.00 20.00     0.160 A 
HETATM    8  C8  UNL     1     -35.410  14.064  -4.486  1.00 20.00     0.093 A 
HETATM    9  C9  UNL     1     -36.300  14.851  -3.495  1.00 20.00     0.023 A 
HETATM   10  C10 UNL     1     -37.431  15.588  -4.205  1.00 20.00     0.015 C 
HETATM   11  O11 UNL     1     -33.038  14.332  -4.969  1.00 20.00    -0.292 OA
HETATM   12 BR12 UNL     1     -31.873  18.429  -1.122  1.00 20.00    -0.051 Br
ENDROOT
TORSDOF 0
ENDMDL
MODEL 4
REMARK VINA RESULT:      -5.1      4.088      5.599
REMARK  0 active torsions:
REMARK  status: ('A' for Active; 'I' for Inactive)
ROOT
HETATM    1  C1  UNL     1     -37.020  17.036  -3.584  1.00 20.00     0.010 A 
HETATM    2  C2  UNL     1     -38.397  16.874  -3.772  1.00 20.00     0.019 A 
HETATM    3  C3  UNL     1     -38.098  14.521  -4.301  1.00 20.00     0.034 A 
HETATM    4  C4  UNL     1     -36.742  14.713  -4.111  1.00 20.00     0.018 A 
HETATM    5  C5  UNL     1     -36.189  15.937  -3.753  1.00 20.00    -0.040 A 
HETATM    6  C6  UNL     1     -38.932  15.625  -4.127  1.00 20.00     0.011 A 
HETATM    7  C7  UNL     1     -35.666  13.743  -4.236  1.00 20.00     0.160 A 
HETATM    8  C8  UNL     1     -34.343  14.420  -3.969  1.00 20.00     0.093 A 
HETATM    9  C9  UNL     1     -34.695  15.881  -3.604  1.00 20.00     0.023 A 
HETATM   10  C10 UNL     1     -34.235  16.244  -2.196  1.00 20.00     0.015 C 
HETATM   11  O11 UNL     1     -35.830  12.573  -4.528  1.00 20.00    -0.292 OA
HETATM   12 BR12 UNL     1     -40.798  15.441  -4.373  1.00 20.00    -0.051 Br
ENDROOT
TORSDOF 0
ENDMDL
MODEL 5
REMARK VINA RESULT:      -4.8      3.143      5.171
REMARK  0 active torsions:
REMARK  status: ('A' for Active; 'I' for Inactive)
ROOT
HETATM    1  C1  UNL     1     -32.950  16.789  -2.741  1.00 20.00     0.010 A 
HETATM    2  C2  UNL     1     -33.366  17.450  -1.579  1.00 20.00     0.019 A 
HETATM    3  C3  UNL     1     -35.578  16.456  -1.746  1.00 20.00     0.034 A 
HETATM    4  C4  UNL     1     -35.138  15.818  -2.892  1.00 20.00     0.018 A 
HETATM    5  C5  UNL     1     -33.851  15.961  -3.396  1.00 20.00    -0.040 A 
HETATM    6  C6  UNL     1     -34.671  17.284  -1.086  1.00 20.00     0.011 A 
HETATM    7  C7  UNL     1     -35.875  14.919  -3.764  1.00 20.00     0.160 A 
HETATM    8  C8  UNL     1     -34.993  14.495  -4.914  1.00 20.00     0.093 A 
HETATM    9  C9  UNL     1     -33.622  15.161  -4.647  1.00 20.00     0.023 A 
HETATM   10  C10 UNL     1     -32.511  14.130  -4.486  1.00 20.00     0.015 C 
HETATM   11  O11 UNL     1     -37.031  14.583  -3.583  1.00 20.00    -0.292 OA
HETATM   12 BR12 UNL     1     -35.200  18.193   0.486  1.00 20.00    -0.051 Br
ENDROOT
TORSDOF 0
ENDMDL
MODEL 6
REMARK VINA RESULT:      -4.7      1.740      2.354
REMARK  0 active torsions:
REMARK  status: ('A' for Active; 'I' for Inactive)
ROOT
HETATM    1  C1  UNL     1     -34.885  17.932   1.139  1.00 20.00     0.010 A 
HETATM    2  C2  UNL     1     -35.525  17.415   0.006  1.00 20.00     0.019 A 
HETATM    3  C3  UNL     1     -33.480  17.599  -1.294  1.00 20.00     0.034 A 
HETATM    4  C4  UNL     1     -32.876  18.108  -0.158  1.00 20.00     0.018 A 
HETATM    5  C5  UNL     1     -33.544  18.275   1.049  1.00 20.00    -0.040 A 
HETATM    6  C6  UNL     1     -34.826  17.250  -1.201  1.00 20.00     0.011 A 
HETATM    7  C7  UNL     1     -31.502  18.553   0.012  1.00 20.00     0.160 A 
HETATM    8  C8  UNL     1     -31.308  19.064   1.419  1.00 20.00     0.093 A 
HETATM    9  C9  UNL     1     -32.665  18.841   2.128  1.00 20.00     0.023 A 
HETATM   10  C10 UNL     1     -32.534  17.905   3.326  1.00 20.00     0.015 C 
HETATM   11  O11 UNL     1     -30.659  18.521  -0.864  1.00 20.00    -0.292 OA
HETATM   12 BR12 UNL     1     -35.722  16.550  -2.713  1.00 20.00    -0.051 Br
ENDROOT
TORSDOF 0
ENDMDL
MODEL 7
REMARK VINA RESULT:      -4.6      3.570      4.916
REMARK  0 active torsions:
REMARK  status: ('A' for Active; 'I' for Inactive)
ROOT
HETATM    1  C1  UNL     1     -36.163  17.408  -3.804  1.00 20.00     0.010 A 
HETATM    2  C2  UNL     1     -37.530  17.131  -3.923  1.00 20.00     0.019 A 
HETATM    3  C3  UNL     1     -37.085  14.746  -4.059  1.00 20.00     0.034 A 
HETATM    4  C4  UNL     1     -35.742  15.051  -3.942  1.00 20.00     0.018 A 
HETATM    5  C5  UNL     1     -35.265  16.350  -3.810  1.00 20.00    -0.040 A 
HETATM    6  C6  UNL     1     -37.987  15.809  -4.049  1.00 20.00     0.011 A 
HETATM    7  C7  UNL     1     -34.606  14.143  -3.933  1.00 20.00     0.160 A 
HETATM    8  C8  UNL     1     -33.326  14.936  -3.820  1.00 20.00     0.093 A 
HETATM    9  C9  UNL     1     -33.768  16.413  -3.695  1.00 20.00     0.023 A 
HETATM   10  C10 UNL     1     -33.308  17.036  -2.381  1.00 20.00     0.015 C 
HETATM   11  O11 UNL     1     -34.697  12.933  -4.020  1.00 20.00    -0.292 OA
HETATM   12 BR12 UNL     1     -39.841  15.471  -4.208  1.00 20.00    -0.051 Br
ENDROOT
TORSDOF 0
ENDMDL
MODEL 8
REMARK VINA RESULT:      -4.5      3.189      5.066
REMARK  0 active torsions:
REMARK  status: ('A' for Active; 'I' for Inactive)
ROOT
HETATM    1  C1  UNL     1     -35.152  15.601  -2.399  1.00 20.00     0.010 A 
HETATM    2  C2  UNL     1     -34.314  16.620  -1.932  1.00 20.00     0.019 A 
HETATM    3  C3  UNL     1     -33.603  17.140  -4.197  1.00 20.00     0.034 A 
HETATM    4  C4  UNL     1     -34.438  16.126  -4.628  1.00 20.00     0.018 A 
HETATM    5  C5  UNL     1     -35.213  15.360  -3.764  1.00 20.00    -0.040 A 
HETATM    6  C6  UNL     1     -33.546  17.384  -2.826  1.00 20.00     0.011 A 
HETATM    7  C7  UNL     1     -34.674  15.665  -5.986  1.00 20.00     0.160 A 
HETATM    8  C8  UNL     1     -35.642  14.506  -5.966  1.00 20.00     0.093 A 
HETATM    9  C9  UNL     1     -36.036  14.326  -4.480  1.00 20.00     0.023 A 
HETATM   10  C10 UNL     1     -37.533  14.518  -4.261  1.00 20.00     0.015 C 
HETATM   11  O11 UNL     1     -34.149  16.146  -6.973  1.00 20.00    -0.292 OA
HETATM   12 BR12 UNL     1     -32.423  18.754  -2.161  1.00 20.00    -0.051 Br
ENDROOT
TORSDOF 0
ENDMDL
MODEL 9
REMARK VINA RESULT:      -4.5      2.563      4.060
REMARK  0 active torsions:
REMARK  status: ('A' for Active; 'I' for Inactive)
ROOT
HETATM    1  C1  UNL     1     -35.246  17.611  -0.883  1.00 20.00     0.010 A 
HETATM    2  C2  UNL     1     -34.218  18.359  -0.299  1.00 20.00     0.019 A 
HETATM    3  C3  UNL     1     -32.579  17.367  -1.794  1.00 20.00     0.034 A 
HETATM    4  C4  UNL     1     -33.616  16.640  -2.350  1.00 20.00     0.018 A 
HETATM    5  C5  UNL     1     -34.935  16.747  -1.924  1.00 20.00    -0.040 A 
HETATM    6  C6  UNL     1     -32.894  18.237  -0.752  1.00 20.00     0.011 A 
HETATM    7  C7  UNL     1     -33.561  15.667  -3.429  1.00 20.00     0.160 A 
HETATM    8  C8  UNL     1     -34.940  15.103  -3.672  1.00 20.00     0.093 A 
HETATM    9  C9  UNL     1     -35.870  15.856  -2.691  1.00 20.00     0.023 A 
HETATM   10  C10 UNL     1     -36.954  16.640  -3.423  1.00 20.00     0.015 C 
HETATM   11  O11 UNL     1     -32.543  15.360  -4.022  1.00 20.00    -0.292 OA
HETATM   12 BR12 UNL     1     -31.529  19.263   0.061  1.00 20.00    -0.051 Br
ENDROOT
TORSDOF 0
ENDMDL
