MODEL 1
REMARK VINA RESULT:      -4.6      0.000      0.000
REMARK  0 active torsions:
REMARK  status: ('A' for Active; 'I' for Inactive)
ROOT
HETATM    1  C1  UNL     1     -23.196  18.298   9.336  1.00 20.00     0.033 A 
HETATM    2  C2  UNL     1     -24.348  18.294  11.477  1.00 20.00     0.033 A 
HETATM    3  C3  UNL     1     -24.390  18.666   8.742  1.00 20.00    -0.028 A 
HETATM    4  C4  UNL     1     -25.545  18.675  10.864  1.00 20.00    -0.033 A 
HETATM    5  C5  UNL     1     -25.558  18.836   9.490  1.00 20.00     0.040 A 
HETATM    6  C6  UNL     1     -23.182  18.104  10.718  1.00 20.00     0.035 A 
HETATM    7  C7  UNL     1     -24.669  18.990   7.311  1.00 20.00     0.060 C 
HETATM    8  C8  UNL     1     -26.209  19.096   7.314  1.00 20.00     0.124 C 
HETATM    9  C9  UNL     1     -26.767  18.892  11.688  1.00 20.00     0.050 C 
HETATM   10  N10 UNL     1     -26.625  19.263   8.701  1.00 20.00    -0.389 N 
HETATM   11 CL11 UNL     1     -21.719  17.644  11.501  1.00 20.00    -0.084 Cl
HETATM   12  H21 UNL     1     -27.585  19.176   9.003  1.00 20.00     0.159 HD
ENDROOT
TORSDOF 0
ENDMDL
MODEL 2
REMARK VINA RESULT:      -4.6     13.482     14.718
REMARK  0 active torsions:
REMARK  status: ('A' for Active; 'I' for Inactive)
ROOT
HETATM    1  C1  UNL     1     -32.481  17.462  -1.962  1.00 20.00     0.033 A 
HETATM    2  C2  UNL     1     -33.790  18.220  -0.058  1.00 20.00     0.033 A 
HETATM    3  C3  UNL     1     -33.575  16.718  -2.364  1.00 20.00    -0.028 A 
HETATM    4  C4  UNL     1     -34.891  17.470  -0.483  1.00 20.00    -0.033 A 
HETATM    5  C5  UNL     1     -34.763  16.704  -1.628  1.00 20.00     0.040 A 
HETATM    6  C6  UNL     1     -32.592  18.213  -0.791  1.00 20.00     0.035 A 
HETATM    7  C7  UNL     1     -33.745  15.882  -3.591  1.00 20.00     0.060 C 
HETATM    8  C8  UNL     1     -35.089  15.180  -3.300  1.00 20.00     0.124 C 
HETATM    9  C9  UNL     1     -36.160  17.505   0.296  1.00 20.00     0.050 C 
HETATM   10  N10 UNL     1     -35.750  15.938  -2.245  1.00 20.00    -0.389 N 
HETATM   11 CL11 UNL     1     -31.255  19.154  -0.250  1.00 20.00    -0.084 Cl
HETATM   12  H21 UNL     1     -36.557  15.595  -1.742  1.00 20.00     0.159 HD
ENDROOT
TORSDOF 0
ENDMDL
MODEL 3
REMARK VINA RESULT:      -4.5      1.878      2.980
REMARK  0 active torsions:
REMARK  status: ('A' for Active; 'I' for Inactive)
ROOT
HETATM    1  C1  UNL     1     -25.695  18.968   9.621  1.00 20.00     0.033 A 
HETATM    2  C2  UNL     1     -23.559  18.193  10.486  1.00 20.00     0.033 A 
HETATM    3  C3  UNL     1     -25.139  18.954   8.354  1.00 20.00    -0.028 A 
HETATM    4  C4  UNL     1     -23.013  18.176   9.199  1.00 20.00    -0.033 A 
HETATM    5  C5  UNL     1     -23.809  18.581   8.141  1.00 20.00     0.040 A 
HETATM    6  C6  UNL     1     -24.889  18.590  10.695  1.00 20.00     0.035 A 
HETATM    7  C7  UNL     1     -25.784  19.252   7.040  1.00 20.00     0.060 C 
HETATM    8  C8  UNL     1     -24.564  19.262   6.094  1.00 20.00     0.124 C 
HETATM    9  C9  UNL     1     -21.606  17.734   8.992  1.00 20.00     0.050 C 
HETATM   10  N10 UNL     1     -23.477  18.583   6.788  1.00 20.00    -0.389 N 
HETATM   11 CL11 UNL     1     -25.538  18.593  12.291  1.00 20.00    -0.084 Cl
HETATM   12  H21 UNL     1     -22.518  18.608   6.470  1.00 20.00     0.159 HD
ENDROOT
TORSDOF 0
ENDMDL
MODEL 4
REMARK VINA RESULT:      -4.5     13.853     15.307
REMARK  0 active torsions:
REMARK  status: ('A' for Active; 'I' for Inactive)
ROOT
HETATM    1  C1  UNL     1     -35.595  16.387  -1.288  1.00 20.00     0.033 A 
HETATM    2  C2  UNL     1     -34.040  18.056  -0.445  1.00 20.00     0.033 A 
HETATM    3  C3  UNL     1     -34.678  16.097  -2.282  1.00 20.00    -0.028 A 
HETATM    4  C4  UNL     1     -33.120  17.745  -1.450  1.00 20.00    -0.033 A 
HETATM    5  C5  UNL     1     -33.461  16.777  -2.378  1.00 20.00     0.040 A 
HETATM    6  C6  UNL     1     -35.270  17.384  -0.367  1.00 20.00     0.035 A 
HETATM    7  C7  UNL     1     -34.744  15.051  -3.347  1.00 20.00     0.060 C 
HETATM    8  C8  UNL     1     -33.525  15.423  -4.219  1.00 20.00     0.124 C 
HETATM    9  C9  UNL     1     -31.811  18.454  -1.506  1.00 20.00     0.050 C 
HETATM   10  N10 UNL     1     -32.669  16.285  -3.414  1.00 20.00    -0.389 N 
HETATM   11 CL11 UNL     1     -36.382  17.781   0.888  1.00 20.00    -0.084 Cl
HETATM   12  H21 UNL     1     -31.900  16.814  -3.800  1.00 20.00     0.159 HD
ENDROOT
TORSDOF 0
ENDMDL
MODEL 5
REMARK VINA RESULT:      -4.5     13.677     14.925
REMARK  0 active torsions:
REMARK  status: ('A' for Active; 'I' for Inactive)
ROOT
HETATM    1  C1  UNL     1     -35.171  16.174  -1.743  1.00 20.00     0.033 A 
HETATM    2  C2  UNL     1     -32.959  16.882  -2.464  1.00 20.00     0.033 A 
HETATM    3  C3  UNL     1     -35.105  17.129  -0.745  1.00 20.00    -0.028 A 
HETATM    4  C4  UNL     1     -32.911  17.849  -1.455  1.00 20.00    -0.033 A 
HETATM    5  C5  UNL     1     -33.983  17.948  -0.586  1.00 20.00     0.040 A 
HETATM    6  C6  UNL     1     -34.080  16.048  -2.604  1.00 20.00     0.035 A 
HETATM    7  C7  UNL     1     -36.140  17.510   0.263  1.00 20.00     0.060 C 
HETATM    8  C8  UNL     1     -35.340  18.460   1.181  1.00 20.00     0.124 C 
HETATM    9  C9  UNL     1     -31.722  18.738  -1.333  1.00 20.00     0.050 C 
HETATM   10  N10 UNL     1     -34.154  18.874   0.440  1.00 20.00    -0.389 N 
HETATM   11 CL11 UNL     1     -34.116  14.872  -3.862  1.00 20.00    -0.084 Cl
HETATM   12  H21 UNL     1     -33.374  19.349   0.871  1.00 20.00     0.159 HD
ENDROOT
TORSDOF 0
ENDMDL
MODEL 6
REMARK VINA RESULT:      -4.4     14.364     15.651
REMARK  0 active torsions:
REMARK  status: ('A' for Active; 'I' for Inactive)
ROOT
HETATM    1  C1  UNL     1     -32.977  16.672  -2.560  1.00 20.00     0.033 A 
HETATM    2  C2  UNL     1     -34.230  17.989  -0.944  1.00 20.00     0.033 A 
HETATM    3  C3  UNL     1     -34.169  16.080  -2.937  1.00 20.00    -0.028 A 
HETATM    4  C4  UNL     1     -35.428  17.388  -1.343  1.00 20.00    -0.033 A 
HETATM    5  C5  UNL     1     -35.381  16.417  -2.328  1.00 20.00     0.040 A 
HETATM    6  C6  UNL     1     -33.013  17.630  -1.546  1.00 20.00     0.035 A 
HETATM    7  C7  UNL     1     -34.423  15.082  -4.020  1.00 20.00     0.060 C 
HETATM    8  C8  UNL     1     -35.895  14.702  -3.748  1.00 20.00     0.124 C 
HETATM    9  C9  UNL     1     -36.712  17.795  -0.707  1.00 20.00     0.050 C 
HETATM   10  N10 UNL     1     -36.458  15.746  -2.902  1.00 20.00    -0.389 N 
HETATM   11 CL11 UNL     1     -31.553  18.393  -1.041  1.00 20.00    -0.084 Cl
HETATM   12  H21 UNL     1     -37.347  15.653  -2.430  1.00 20.00     0.159 HD
ENDROOT
TORSDOF 0
ENDMDL
MODEL 7
REMARK VINA RESULT:      -4.4      2.688      3.491
REMARK  0 active torsions:
REMARK  status: ('A' for Active; 'I' for Inactive)
ROOT
HETATM    1  C1  UNL     1     -25.356  18.950   9.937  1.00 20.00     0.033 A 
HETATM    2  C2  UNL     1     -25.590  17.366  11.767  1.00 20.00     0.033 A 
HETATM    3  C3  UNL     1     -24.187  18.301   9.581  1.00 20.00    -0.028 A 
HETATM    4  C4  UNL     1     -24.412  16.714  11.389  1.00 20.00    -0.033 A 
HETATM    5  C5  UNL     1     -23.706  17.207  10.305  1.00 20.00     0.040 A 
HETATM    6  C6  UNL     1     -26.056  18.478  11.048  1.00 20.00     0.035 A 
HETATM    7  C7  UNL     1     -23.285  18.558   8.418  1.00 20.00     0.060 C 
HETATM    8  C8  UNL     1     -22.089  17.638   8.748  1.00 20.00     0.124 C 
HETATM    9  C9  UNL     1     -23.942  15.524  12.151  1.00 20.00     0.050 C 
HETATM   10  N10 UNL     1     -22.551  16.673   9.738  1.00 20.00    -0.389 N 
HETATM   11 CL11 UNL     1     -27.516  19.255  11.530  1.00 20.00    -0.084 Cl
HETATM   12  H21 UNL     1     -21.925  16.073  10.257  1.00 20.00     0.159 HD
ENDROOT
TORSDOF 0
ENDMDL
MODEL 8
REMARK VINA RESULT:      -4.2     15.539     16.958
REMARK  0 active torsions:
REMARK  status: ('A' for Active; 'I' for Inactive)
ROOT
HETATM    1  C1  UNL     1     -33.507  16.036  -2.912  1.00 20.00     0.033 A 
HETATM    2  C2  UNL     1     -34.862  14.546  -4.275  1.00 20.00     0.033 A 
HETATM    3  C3  UNL     1     -34.678  16.611  -2.452  1.00 20.00    -0.028 A 
HETATM    4  C4  UNL     1     -36.037  15.131  -3.794  1.00 20.00    -0.033 A 
HETATM    5  C5  UNL     1     -35.931  16.180  -2.897  1.00 20.00     0.040 A 
HETATM    6  C6  UNL     1     -33.606  14.998  -3.840  1.00 20.00     0.035 A 
HETATM    7  C7  UNL     1     -34.861  17.683  -1.428  1.00 20.00     0.060 C 
HETATM    8  C8  UNL     1     -36.369  17.985  -1.564  1.00 20.00     0.124 C 
HETATM    9  C9  UNL     1     -37.362  14.626  -4.251  1.00 20.00     0.050 C 
HETATM   10  N10 UNL     1     -36.971  16.854  -2.262  1.00 20.00    -0.389 N 
HETATM   11 CL11 UNL     1     -32.175  14.253  -4.443  1.00 20.00    -0.084 Cl
HETATM   12  H21 UNL     1     -37.908  16.875  -2.638  1.00 20.00     0.159 HD
ENDROOT
TORSDOF 0
ENDMDL
MODEL 9
REMARK VINA RESULT:      -4.2     13.485     15.029
REMARK  0 active torsions:
REMARK  status: ('A' for Active; 'I' for Inactive)
ROOT
HETATM    1  C1  UNL     1     -33.171  16.435  -2.667  1.00 20.00     0.033 A 
HETATM    2  C2  UNL     1     -35.503  16.223  -2.011  1.00 20.00     0.033 A 
HETATM    3  C3  UNL     1     -33.038  17.429  -1.715  1.00 20.00    -0.028 A 
HETATM    4  C4  UNL     1     -35.350  17.222  -1.046  1.00 20.00    -0.033 A 
HETATM    5  C5  UNL     1     -34.115  17.835  -0.922  1.00 20.00     0.040 A 
HETATM    6  C6  UNL     1     -34.421  15.834  -2.818  1.00 20.00     0.035 A 
HETATM    7  C7  UNL     1     -31.815  18.186  -1.310  1.00 20.00     0.060 C 
HETATM    8  C8  UNL     1     -32.415  19.263  -0.379  1.00 20.00     0.124 C 
HETATM    9  C9  UNL     1     -36.503  17.608  -0.185  1.00 20.00     0.050 C 
HETATM   10  N10 UNL     1     -33.743  18.803   0.007  1.00 20.00    -0.389 N 
HETATM   11 CL11 UNL     1     -34.636  14.593  -3.993  1.00 20.00    -0.084 Cl
HETATM   12  H21 UNL     1     -34.421  19.398   0.464  1.00 20.00     0.159 HD
ENDROOT
TORSDOF 0
ENDMDL
