MODEL 1
REMARK VINA RESULT:      -3.5      0.000      0.000
REMARK  2 active torsions:
REMARK  status: ('A' for Active; 'I' for Inactive)
REMARK    1  A    between atoms: C2_2  and  C8_8 
REMARK    2  A    between atoms: C8_8  and  N9_9 
ROOT
HETATM    1  C3  UNL     1     -35.610  14.434  -6.162  1.00 20.00     0.003 C 
HETATM    2  C4  UNL     1     -36.222  13.797  -4.918  1.00 20.00     0.030 C 
HETATM    3  C5  UNL     1     -34.679  15.581  -5.783  1.00 20.00     0.030 C 
HETATM    4  C6  UNL     1     -36.863  14.851  -4.012  1.00 20.00     0.273 C 
HETATM    5  C7  UNL     1     -35.373  16.574  -4.847  1.00 20.00     0.273 C 
HETATM    6  N9  UNL     1     -35.967  15.959  -3.653  1.00 20.00     0.093 N 
ENDROOT
BRANCH   6   7
HETATM    7  C8  UNL     1     -34.958  15.562  -2.674  1.00 20.00     0.317 C 
BRANCH   7   8
HETATM    8  C2  UNL     1     -34.588  16.677  -1.738  1.00 20.00     0.007 C 
HETATM    9  C1  UNL     1     -35.336  17.029  -0.685  1.00 20.00     0.029 C 
HETATM   10 BR10 UNL     1     -32.950  17.518  -2.091  1.00 20.00    -0.055 Br
ENDBRANCH   7   8
ENDBRANCH   6   7
TORSDOF 2
ENDMDL
MODEL 2
REMARK VINA RESULT:      -3.5      2.329      4.372
REMARK  2 active torsions:
REMARK  status: ('A' for Active; 'I' for Inactive)
REMARK    1  A    between atoms: C2_2  and  C8_8 
REMARK    2  A    between atoms: C8_8  and  N9_9 
ROOT
HETATM    1  C3  UNL     1     -33.930  17.468  -1.252  1.00 20.00     0.003 C 
HETATM    2  C4  UNL     1     -32.886  17.273  -2.346  1.00 20.00     0.030 C 
HETATM    3  C5  UNL     1     -35.162  16.609  -1.516  1.00 20.00     0.030 C 
HETATM    4  C6  UNL     1     -33.496  17.464  -3.737  1.00 20.00     0.273 C 
HETATM    5  C7  UNL     1     -35.694  16.822  -2.935  1.00 20.00     0.273 C 
HETATM    6  N9  UNL     1     -34.687  16.640  -3.988  1.00 20.00     0.093 N 
ENDROOT
BRANCH   6   7
HETATM    7  C8  UNL     1     -34.354  15.234  -4.200  1.00 20.00     0.317 C 
BRANCH   7   8
HETATM    8  C2  UNL     1     -35.372  14.517  -5.040  1.00 20.00     0.007 C 
HETATM    9  C1  UNL     1     -36.193  13.577  -4.554  1.00 20.00     0.029 C 
HETATM   10 BR10 UNL     1     -35.482  15.073  -6.827  1.00 20.00    -0.055 Br
ENDBRANCH   7   8
ENDBRANCH   6   7
TORSDOF 2
ENDMDL
MODEL 3
REMARK VINA RESULT:      -3.5      2.326      4.599
REMARK  2 active torsions:
REMARK  status: ('A' for Active; 'I' for Inactive)
REMARK    1  A    between atoms: C2_2  and  C8_8 
REMARK    2  A    between atoms: C8_8  and  N9_9 
ROOT
HETATM    1  C3  UNL     1     -33.981  17.644  -1.006  1.00 20.00     0.003 C 
HETATM    2  C4  UNL     1     -32.776  17.534  -1.934  1.00 20.00     0.030 C 
HETATM    3  C5  UNL     1     -35.126  16.765  -1.495  1.00 20.00     0.030 C 
HETATM    4  C6  UNL     1     -33.173  17.777  -3.392  1.00 20.00     0.273 C 
HETATM    5  C7  UNL     1     -35.443  17.033  -2.968  1.00 20.00     0.273 C 
HETATM    6  N9  UNL     1     -34.281  16.933  -3.860  1.00 20.00     0.093 N 
ENDROOT
BRANCH   6   7
HETATM    7  C8  UNL     1     -33.869  15.548  -4.080  1.00 20.00     0.317 C 
BRANCH   7   8
HETATM    8  C2  UNL     1     -34.638  14.884  -5.187  1.00 20.00     0.007 C 
HETATM    9  C1  UNL     1     -34.320  15.013  -6.482  1.00 20.00     0.029 C 
HETATM   10 BR10 UNL     1     -36.053  13.782  -4.640  1.00 20.00    -0.055 Br
ENDBRANCH   7   8
ENDBRANCH   6   7
TORSDOF 2
ENDMDL
MODEL 4
REMARK VINA RESULT:      -3.4      2.598      4.450
REMARK  2 active torsions:
REMARK  status: ('A' for Active; 'I' for Inactive)
REMARK    1  A    between atoms: C2_2  and  C8_8 
REMARK    2  A    between atoms: C8_8  and  N9_9 
ROOT
HETATM    1  C3  UNL     1     -34.551  16.350  -1.923  1.00 20.00     0.003 C 
HETATM    2  C4  UNL     1     -35.773  16.129  -2.808  1.00 20.00     0.030 C 
HETATM    3  C5  UNL     1     -33.307  16.606  -2.767  1.00 20.00     0.030 C 
HETATM    4  C6  UNL     1     -35.505  15.059  -3.869  1.00 20.00     0.273 C 
HETATM    5  C7  UNL     1     -33.123  15.520  -3.830  1.00 20.00     0.273 C 
HETATM    6  N9  UNL     1     -34.303  15.304  -4.678  1.00 20.00     0.093 N 
ENDROOT
BRANCH   6   7
HETATM    7  C8  UNL     1     -34.495  16.382  -5.645  1.00 20.00     0.317 C 
BRANCH   7   8
HETATM    8  C2  UNL     1     -34.769  15.874  -7.032  1.00 20.00     0.007 C 
HETATM    9  C1  UNL     1     -33.850  15.244  -7.777  1.00 20.00     0.029 C 
HETATM   10 BR10 UNL     1     -36.523  16.110  -7.649  1.00 20.00    -0.055 Br
ENDBRANCH   7   8
ENDBRANCH   6   7
TORSDOF 2
ENDMDL
MODEL 5
REMARK VINA RESULT:      -3.4      2.255      4.287
REMARK  2 active torsions:
REMARK  status: ('A' for Active; 'I' for Inactive)
REMARK    1  A    between atoms: C2_2  and  C8_8 
REMARK    2  A    between atoms: C8_8  and  N9_9 
ROOT
HETATM    1  C3  UNL     1     -33.976  17.357  -1.469  1.00 20.00     0.003 C 
HETATM    2  C4  UNL     1     -35.310  16.758  -1.907  1.00 20.00     0.030 C 
HETATM    3  C5  UNL     1     -33.003  17.431  -2.640  1.00 20.00     0.030 C 
HETATM    4  C6  UNL     1     -35.108  15.429  -2.639  1.00 20.00     0.273 C 
HETATM    5  C7  UNL     1     -32.881  16.079  -3.348  1.00 20.00     0.273 C 
HETATM    6  N9  UNL     1     -34.166  15.500  -3.763  1.00 20.00     0.093 N 
ENDROOT
BRANCH   6   7
HETATM    7  C8  UNL     1     -34.734  16.186  -4.921  1.00 20.00     0.317 C 
BRANCH   7   8
HETATM    8  C2  UNL     1     -35.040  15.251  -6.056  1.00 20.00     0.007 C 
HETATM    9  C1  UNL     1     -35.968  14.288  -5.984  1.00 20.00     0.029 C 
HETATM   10 BR10 UNL     1     -34.082  15.559  -7.639  1.00 20.00    -0.055 Br
ENDBRANCH   7   8
ENDBRANCH   6   7
TORSDOF 2
ENDMDL
MODEL 6
REMARK VINA RESULT:      -3.3      2.640      3.912
REMARK  2 active torsions:
REMARK  status: ('A' for Active; 'I' for Inactive)
REMARK    1  A    between atoms: C2_2  and  C8_8 
REMARK    2  A    between atoms: C8_8  and  N9_9 
ROOT
HETATM    1  C3  UNL     1     -32.943  15.255  -3.826  1.00 20.00     0.003 C 
HETATM    2  C4  UNL     1     -33.538  16.303  -2.891  1.00 20.00     0.030 C 
HETATM    3  C5  UNL     1     -33.966  14.811  -4.866  1.00 20.00     0.030 C 
HETATM    4  C6  UNL     1     -34.867  15.830  -2.299  1.00 20.00     0.273 C 
HETATM    5  C7  UNL     1     -35.281  14.389  -4.207  1.00 20.00     0.273 C 
HETATM    6  N9  UNL     1     -35.850  15.396  -3.301  1.00 20.00     0.093 N 
ENDROOT
BRANCH   6   7
HETATM    7  C8  UNL     1     -36.438  16.521  -4.024  1.00 20.00     0.317 C 
BRANCH   7   8
HETATM    8  C2  UNL     1     -37.525  16.098  -4.971  1.00 20.00     0.007 C 
HETATM    9  C1  UNL     1     -37.501  16.368  -6.283  1.00 20.00     0.029 C 
HETATM   10 BR10 UNL     1     -38.910  15.086  -4.213  1.00 20.00    -0.055 Br
ENDBRANCH   7   8
ENDBRANCH   6   7
TORSDOF 2
ENDMDL
MODEL 7
REMARK VINA RESULT:      -3.3      1.683      1.935
REMARK  2 active torsions:
REMARK  status: ('A' for Active; 'I' for Inactive)
REMARK    1  A    between atoms: C2_2  and  C8_8 
REMARK    2  A    between atoms: C8_8  and  N9_9 
ROOT
HETATM    1  C3  UNL     1     -33.537  14.546  -4.409  1.00 20.00     0.003 C 
HETATM    2  C4  UNL     1     -34.878  14.138  -3.807  1.00 20.00     0.030 C 
HETATM    3  C5  UNL     1     -32.951  15.743  -3.670  1.00 20.00     0.030 C 
HETATM    4  C6  UNL     1     -35.827  15.334  -3.702  1.00 20.00     0.273 C 
HETATM    5  C7  UNL     1     -33.966  16.885  -3.569  1.00 20.00     0.273 C 
HETATM    6  N9  UNL     1     -35.259  16.490  -2.994  1.00 20.00     0.093 N 
ENDROOT
BRANCH   6   7
HETATM    7  C8  UNL     1     -35.182  16.275  -1.552  1.00 20.00     0.317 C 
BRANCH   7   8
HETATM    8  C2  UNL     1     -35.439  17.528  -0.764  1.00 20.00     0.007 C 
HETATM    9  C1  UNL     1     -36.663  18.042  -0.584  1.00 20.00     0.029 C 
HETATM   10 BR10 UNL     1     -33.932  18.308   0.031  1.00 20.00    -0.055 Br
ENDBRANCH   7   8
ENDBRANCH   6   7
TORSDOF 2
ENDMDL
MODEL 8
REMARK VINA RESULT:      -3.3      1.481      2.133
REMARK  2 active torsions:
REMARK  status: ('A' for Active; 'I' for Inactive)
REMARK    1  A    between atoms: C2_2  and  C8_8 
REMARK    2  A    between atoms: C8_8  and  N9_9 
ROOT
HETATM    1  C3  UNL     1     -35.563  14.594  -6.376  1.00 20.00     0.003 C 
HETATM    2  C4  UNL     1     -34.153  15.055  -6.022  1.00 20.00     0.030 C 
HETATM    3  C5  UNL     1     -36.578  15.126  -5.370  1.00 20.00     0.030 C 
HETATM    4  C6  UNL     1     -33.814  14.739  -4.563  1.00 20.00     0.273 C 
HETATM    5  C7  UNL     1     -36.156  14.808  -3.933  1.00 20.00     0.273 C 
HETATM    6  N9  UNL     1     -34.795  15.247  -3.595  1.00 20.00     0.093 N 
ENDROOT
BRANCH   6   7
HETATM    7  C8  UNL     1     -34.707  16.695  -3.424  1.00 20.00     0.317 C 
BRANCH   7   8
HETATM    8  C2  UNL     1     -34.096  17.087  -2.109  1.00 20.00     0.007 C 
HETATM    9  C1  UNL     1     -32.817  17.465  -1.978  1.00 20.00     0.029 C 
HETATM   10 BR10 UNL     1     -35.264  17.089  -0.643  1.00 20.00    -0.055 Br
ENDBRANCH   7   8
ENDBRANCH   6   7
TORSDOF 2
ENDMDL
MODEL 9
REMARK VINA RESULT:      -3.3      2.261      4.320
REMARK  2 active torsions:
REMARK  status: ('A' for Active; 'I' for Inactive)
REMARK    1  A    between atoms: C2_2  and  C8_8 
REMARK    2  A    between atoms: C8_8  and  N9_9 
ROOT
HETATM    1  C3  UNL     1     -32.993  17.776  -1.483  1.00 20.00     0.003 C 
HETATM    2  C4  UNL     1     -34.414  18.028  -0.987  1.00 20.00     0.030 C 
HETATM    3  C5  UNL     1     -33.006  17.086  -2.842  1.00 20.00     0.030 C 
HETATM    4  C6  UNL     1     -35.253  16.748  -1.032  1.00 20.00     0.273 C 
HETATM    5  C7  UNL     1     -33.894  15.838  -2.824  1.00 20.00     0.273 C 
HETATM    6  N9  UNL     1     -35.260  16.081  -2.340  1.00 20.00     0.093 N 
ENDROOT
BRANCH   6   7
HETATM    7  C8  UNL     1     -36.077  16.791  -3.321  1.00 20.00     0.317 C 
BRANCH   7   8
HETATM    8  C2  UNL     1     -36.228  16.031  -4.609  1.00 20.00     0.007 C 
HETATM    9  C1  UNL     1     -35.937  16.554  -5.807  1.00 20.00     0.029 C 
HETATM   10 BR10 UNL     1     -36.789  14.250  -4.436  1.00 20.00    -0.055 Br
ENDBRANCH   7   8
ENDBRANCH   6   7
TORSDOF 2
ENDMDL
