MODEL 1
REMARK VINA RESULT:      -4.8      0.000      0.000
REMARK  1 active torsions:
REMARK  status: ('A' for Active; 'I' for Inactive)
REMARK    1  A    between atoms: C1_1  and  C6_6 
ROOT
HETATM    1  C2  UNL     1     -33.501  17.097  -3.708  1.00 20.00     0.005 C 
HETATM    2  C3  UNL     1     -34.927  17.433  -4.176  1.00 20.00     0.006 C 
HETATM    3  C4  UNL     1     -33.920  14.654  -4.101  1.00 20.00     0.018 C 
HETATM    4  C5  UNL     1     -35.059  15.865  -2.398  1.00 20.00     0.010 C 
HETATM    5  C6  UNL     1     -35.322  15.010  -4.625  1.00 20.00     0.076 C 
HETATM    6  C7  UNL     1     -33.674  15.728  -3.024  1.00 20.00    -0.013 C 
HETATM    7  C8  UNL     1     -35.732  16.200  -3.732  1.00 20.00    -0.002 C 
ENDROOT
BRANCH   5   8
HETATM    8  C1  UNL     1     -36.270  13.859  -4.486  1.00 20.00     0.223 C 
HETATM    9  O9  UNL     1     -35.881  12.695  -4.517  1.00 20.00    -0.279 OA
HETATM   10 CL10 UNL     1     -37.914  14.384  -4.287  1.00 20.00    -0.043 Cl
ENDBRANCH   5   8
TORSDOF 1
ENDMDL
MODEL 2
REMARK VINA RESULT:      -4.8     18.128     18.885
REMARK  1 active torsions:
REMARK  status: ('A' for Active; 'I' for Inactive)
REMARK    1  A    between atoms: C1_1  and  C6_6 
ROOT
HETATM    1  C2  UNL     1     -25.705  16.996  12.332  1.00 20.00     0.005 C 
HETATM    2  C3  UNL     1     -24.705  15.943  11.825  1.00 20.00     0.006 C 
HETATM    3  C4  UNL     1     -25.042  18.555  10.481  1.00 20.00     0.018 C 
HETATM    4  C5  UNL     1     -23.537  17.970  12.230  1.00 20.00     0.010 C 
HETATM    5  C6  UNL     1     -24.091  17.469   9.948  1.00 20.00     0.076 C 
HETATM    6  C7  UNL     1     -25.003  18.327  12.004  1.00 20.00    -0.013 C 
HETATM    7  C8  UNL     1     -23.572  16.803  11.239  1.00 20.00    -0.002 C 
ENDROOT
BRANCH   5   8
HETATM    8  C1  UNL     1     -22.975  18.062   9.142  1.00 20.00     0.223 C 
HETATM    9  O9  UNL     1     -22.926  19.263   8.894  1.00 20.00    -0.279 OA
HETATM   10 CL10 UNL     1     -21.824  16.863   8.637  1.00 20.00    -0.043 Cl
ENDBRANCH   5   8
TORSDOF 1
ENDMDL
MODEL 3
REMARK VINA RESULT:      -4.6      1.338      1.907
REMARK  1 active torsions:
REMARK  status: ('A' for Active; 'I' for Inactive)
REMARK    1  A    between atoms: C1_1  and  C6_6 
ROOT
HETATM    1  C2  UNL     1     -34.476  17.405  -2.719  1.00 20.00     0.005 C 
HETATM    2  C3  UNL     1     -34.875  16.117  -1.981  1.00 20.00     0.006 C 
HETATM    3  C4  UNL     1     -35.341  16.467  -4.879  1.00 20.00     0.018 C 
HETATM    4  C5  UNL     1     -33.439  15.547  -3.783  1.00 20.00     0.010 C 
HETATM    5  C6  UNL     1     -35.792  15.209  -4.118  1.00 20.00     0.076 C 
HETATM    6  C7  UNL     1     -34.074  16.895  -4.115  1.00 20.00    -0.013 C 
HETATM    7  C8  UNL     1     -34.686  15.034  -3.057  1.00 20.00    -0.002 C 
ENDROOT
BRANCH   5   8
HETATM    8  C1  UNL     1     -35.886  14.020  -5.024  1.00 20.00     0.223 C 
HETATM    9  O9  UNL     1     -36.046  12.885  -4.586  1.00 20.00    -0.279 OA
HETATM   10 CL10 UNL     1     -35.741  14.461  -6.698  1.00 20.00    -0.043 Cl
ENDBRANCH   5   8
TORSDOF 1
ENDMDL
MODEL 4
REMARK VINA RESULT:      -4.5      0.791      1.767
REMARK  1 active torsions:
REMARK  status: ('A' for Active; 'I' for Inactive)
REMARK    1  A    between atoms: C1_1  and  C6_6 
ROOT
HETATM    1  C2  UNL     1     -33.552  16.986  -2.958  1.00 20.00     0.005 C 
HETATM    2  C3  UNL     1     -32.928  15.711  -3.549  1.00 20.00     0.006 C 
HETATM    3  C4  UNL     1     -35.821  15.915  -2.975  1.00 20.00     0.018 C 
HETATM    4  C5  UNL     1     -34.667  16.445  -4.989  1.00 20.00     0.010 C 
HETATM    5  C6  UNL     1     -35.175  14.625  -3.508  1.00 20.00     0.076 C 
HETATM    6  C7  UNL     1     -34.950  17.020  -3.603  1.00 20.00    -0.013 C 
HETATM    7  C8  UNL     1     -34.059  15.155  -4.432  1.00 20.00    -0.002 C 
ENDROOT
BRANCH   5   8
HETATM    8  C1  UNL     1     -36.163  13.783  -4.257  1.00 20.00     0.223 C 
HETATM    9  O9  UNL     1     -35.863  12.680  -4.704  1.00 20.00    -0.279 OA
HETATM   10 CL10 UNL     1     -37.712  14.557  -4.394  1.00 20.00    -0.043 Cl
ENDBRANCH   5   8
TORSDOF 1
ENDMDL
MODEL 5
REMARK VINA RESULT:      -4.5     12.043     12.798
REMARK  1 active torsions:
REMARK  status: ('A' for Active; 'I' for Inactive)
REMARK    1  A    between atoms: C1_1  and  C6_6 
ROOT
HETATM    1  C2  UNL     1     -34.797   5.268   6.252  1.00 20.00     0.005 C 
HETATM    2  C3  UNL     1     -34.033   6.558   5.911  1.00 20.00     0.006 C 
HETATM    3  C4  UNL     1     -34.041   4.220   4.101  1.00 20.00     0.018 C 
HETATM    4  C5  UNL     1     -35.537   6.071   4.139  1.00 20.00     0.010 C 
HETATM    5  C6  UNL     1     -33.231   5.493   3.800  1.00 20.00     0.076 C 
HETATM    6  C7  UNL     1     -35.259   4.762   4.873  1.00 20.00    -0.013 C 
HETATM    7  C8  UNL     1     -34.124   6.612   4.376  1.00 20.00    -0.002 C 
ENDROOT
BRANCH   5   8
HETATM    8  C1  UNL     1     -33.003   5.666   2.330  1.00 20.00     0.223 C 
HETATM    9  O9  UNL     1     -33.164   4.741   1.539  1.00 20.00    -0.279 OA
HETATM   10 CL10 UNL     1     -32.501   7.280   1.931  1.00 20.00    -0.043 Cl
ENDBRANCH   5   8
TORSDOF 1
ENDMDL
MODEL 6
REMARK VINA RESULT:      -4.3      2.029      2.399
REMARK  1 active torsions:
REMARK  status: ('A' for Active; 'I' for Inactive)
REMARK    1  A    between atoms: C1_1  and  C6_6 
ROOT
HETATM    1  C2  UNL     1     -34.018  16.219  -2.285  1.00 20.00     0.005 C 
HETATM    2  C3  UNL     1     -33.275  16.833  -3.482  1.00 20.00     0.006 C 
HETATM    3  C4  UNL     1     -34.994  14.444  -3.766  1.00 20.00     0.018 C 
HETATM    4  C5  UNL     1     -35.592  16.737  -3.992  1.00 20.00     0.010 C 
HETATM    5  C6  UNL     1     -34.196  15.030  -4.944  1.00 20.00     0.076 C 
HETATM    6  C7  UNL     1     -35.318  15.688  -2.918  1.00 20.00    -0.013 C 
HETATM    7  C8  UNL     1     -34.225  16.547  -4.658  1.00 20.00    -0.002 C 
ENDROOT
BRANCH   5   8
HETATM    8  C1  UNL     1     -34.833  14.701  -6.259  1.00 20.00     0.223 C 
HETATM    9  O9  UNL     1     -35.863  14.037  -6.329  1.00 20.00    -0.279 OA
HETATM   10 CL10 UNL     1     -33.946  15.360  -7.599  1.00 20.00    -0.043 Cl
ENDBRANCH   5   8
TORSDOF 1
ENDMDL
MODEL 7
REMARK VINA RESULT:      -4.3      1.551      1.928
REMARK  1 active torsions:
REMARK  status: ('A' for Active; 'I' for Inactive)
REMARK    1  A    between atoms: C1_1  and  C6_6 
ROOT
HETATM    1  C2  UNL     1     -33.316  16.141  -3.074  1.00 20.00     0.005 C 
HETATM    2  C3  UNL     1     -34.638  16.029  -2.298  1.00 20.00     0.006 C 
HETATM    3  C4  UNL     1     -34.560  16.098  -5.252  1.00 20.00     0.018 C 
HETATM    4  C5  UNL     1     -34.485  14.205  -3.811  1.00 20.00     0.010 C 
HETATM    5  C6  UNL     1     -35.879  16.048  -4.463  1.00 20.00     0.076 C 
HETATM    6  C7  UNL     1     -33.588  15.318  -4.347  1.00 20.00    -0.013 C 
HETATM    7  C8  UNL     1     -35.515  15.184  -3.238  1.00 20.00    -0.002 C 
ENDROOT
BRANCH   5   8
HETATM    8  C1  UNL     1     -36.981  15.431  -5.270  1.00 20.00     0.223 C 
HETATM    9  O9  UNL     1     -36.990  15.485  -6.496  1.00 20.00    -0.279 OA
HETATM   10 CL10 UNL     1     -38.179  14.670  -4.268  1.00 20.00    -0.043 Cl
ENDBRANCH   5   8
TORSDOF 1
ENDMDL
MODEL 8
REMARK VINA RESULT:      -4.3     10.529     11.934
REMARK  1 active torsions:
REMARK  status: ('A' for Active; 'I' for Inactive)
REMARK    1  A    between atoms: C1_1  and  C6_6 
ROOT
HETATM    1  C2  UNL     1     -42.055   4.773  -1.463  1.00 20.00     0.005 C 
HETATM    2  C3  UNL     1     -40.807   5.393  -0.814  1.00 20.00     0.006 C 
HETATM    3  C4  UNL     1     -43.236   6.985  -1.370  1.00 20.00     0.018 C 
HETATM    4  C5  UNL     1     -42.674   5.778   0.603  1.00 20.00     0.010 C 
HETATM    5  C6  UNL     1     -41.960   7.607  -0.779  1.00 20.00     0.076 C 
HETATM    6  C7  UNL     1     -43.212   5.551  -0.808  1.00 20.00    -0.013 C 
HETATM    7  C8  UNL     1     -41.402   6.473   0.107  1.00 20.00    -0.002 C 
ENDROOT
BRANCH   5   8
HETATM    8  C1  UNL     1     -42.266   8.836   0.021  1.00 20.00     0.223 C 
HETATM    9  O9  UNL     1     -43.417   9.141   0.321  1.00 20.00    -0.279 OA
HETATM   10 CL10 UNL     1     -40.831   9.721   0.439  1.00 20.00    -0.043 Cl
ENDBRANCH   5   8
TORSDOF 1
ENDMDL
MODEL 9
REMARK VINA RESULT:      -4.3      1.566      2.369
REMARK  1 active torsions:
REMARK  status: ('A' for Active; 'I' for Inactive)
REMARK    1  A    between atoms: C1_1  and  C6_6 
ROOT
HETATM    1  C2  UNL     1     -33.959  17.542  -1.434  1.00 20.00     0.005 C 
HETATM    2  C3  UNL     1     -32.755  17.265  -2.350  1.00 20.00     0.006 C 
HETATM    3  C4  UNL     1     -35.193  15.593  -2.420  1.00 20.00     0.018 C 
HETATM    4  C5  UNL     1     -34.692  17.538  -3.697  1.00 20.00     0.010 C 
HETATM    5  C6  UNL     1     -33.959  15.289  -3.287  1.00 20.00     0.076 C 
HETATM    6  C7  UNL     1     -35.161  17.128  -2.304  1.00 20.00    -0.013 C 
HETATM    7  C8  UNL     1     -33.415  16.695  -3.617  1.00 20.00    -0.002 C 
ENDROOT
BRANCH   5   8
HETATM    8  C1  UNL     1     -34.328  14.531  -4.525  1.00 20.00     0.223 C 
HETATM    9  O9  UNL     1     -33.606  14.524  -5.517  1.00 20.00    -0.279 OA
HETATM   10 CL10 UNL     1     -35.849  13.708  -4.360  1.00 20.00    -0.043 Cl
ENDBRANCH   5   8
TORSDOF 1
ENDMDL
