MODEL 1
REMARK VINA RESULT:      -4.7      0.000      0.000
REMARK  3 active torsions:
REMARK  status: ('A' for Active; 'I' for Inactive)
REMARK    1  A    between atoms: C5_5  and  N9_9 
REMARK    2  A    between atoms: C6_6  and  C7_7 
REMARK    3  A    between atoms: C7_7  and  N9_9 
ROOT
HETATM    1  C1  UNL     1     -32.561   8.009   1.445  1.00 20.00     0.089 C 
HETATM    2  C5  UNL     1     -32.182   7.302   2.667  1.00 20.00     0.393 C 
HETATM    3  N8  UNL     1     -32.861   8.573   0.476  1.00 20.00    -0.195 NA
ENDROOT
BRANCH   2   4
HETATM    4  N9  UNL     1     -33.113   6.216   2.950  1.00 20.00     0.100 N 
HETATM    5  H23 UNL     1     -32.580   5.381   3.201  1.00 20.00     0.317 HD
BRANCH   4   6
HETATM    6  C7  UNL     1     -34.011   6.563   4.032  1.00 20.00     0.221 C 
HETATM    7  C4  UNL     1     -33.215   7.248   5.140  1.00 20.00     0.043 C 
BRANCH   6   8
HETATM    8  C6  UNL     1     -34.789   5.322   4.526  1.00 20.00     0.010 C 
HETATM    9  C2  UNL     1     -34.260   3.994   3.974  1.00 20.00     0.011 C 
HETATM   10  C3  UNL     1     -34.832   5.266   6.058  1.00 20.00     0.011 C 
ENDBRANCH   6   8
ENDBRANCH   4   6
ENDBRANCH   2   4
TORSDOF 3
ENDMDL
MODEL 2
REMARK VINA RESULT:      -4.1     11.514     12.144
REMARK  3 active torsions:
REMARK  status: ('A' for Active; 'I' for Inactive)
REMARK    1  A    between atoms: C5_5  and  N9_9 
REMARK    2  A    between atoms: C6_6  and  C7_7 
REMARK    3  A    between atoms: C7_7  and  N9_9 
ROOT
HETATM    1  C1  UNL     1     -36.957  14.264  -4.661  1.00 20.00     0.089 C 
HETATM    2  C5  UNL     1     -35.606  14.637  -5.075  1.00 20.00     0.393 C 
HETATM    3  N8  UNL     1     -38.030  13.966  -4.335  1.00 20.00    -0.195 NA
ENDROOT
BRANCH   2   4
HETATM    4  N9  UNL     1     -35.214  15.913  -4.488  1.00 20.00     0.100 N 
HETATM    5  H23 UNL     1     -35.816  16.106  -3.684  1.00 20.00     0.317 HD
BRANCH   4   6
HETATM    6  C7  UNL     1     -33.829  15.894  -4.065  1.00 20.00     0.221 C 
HETATM    7  C4  UNL     1     -33.205  14.559  -4.465  1.00 20.00     0.043 C 
BRANCH   6   8
HETATM    8  C6  UNL     1     -33.707  16.189  -2.552  1.00 20.00     0.010 C 
HETATM    9  C2  UNL     1     -32.903  17.452  -2.226  1.00 20.00     0.011 C 
HETATM   10  C3  UNL     1     -35.087  16.269  -1.889  1.00 20.00     0.011 C 
ENDBRANCH   6   8
ENDBRANCH   4   6
ENDBRANCH   2   4
TORSDOF 3
ENDMDL
MODEL 3
REMARK VINA RESULT:      -4.1     11.184     11.941
REMARK  3 active torsions:
REMARK  status: ('A' for Active; 'I' for Inactive)
REMARK    1  A    between atoms: C5_5  and  N9_9 
REMARK    2  A    between atoms: C6_6  and  C7_7 
REMARK    3  A    between atoms: C7_7  and  N9_9 
ROOT
HETATM    1  C1  UNL     1     -36.339  13.879  -4.375  1.00 20.00     0.089 C 
HETATM    2  C5  UNL     1     -36.847  15.201  -4.014  1.00 20.00     0.393 C 
HETATM    3  N8  UNL     1     -35.938  12.828  -4.660  1.00 20.00    -0.195 NA
ENDROOT
BRANCH   2   4
HETATM    4  N9  UNL     1     -35.753  16.146  -3.825  1.00 20.00     0.100 N 
HETATM    5  H23 UNL     1     -36.143  17.072  -3.642  1.00 20.00     0.317 HD
BRANCH   4   6
HETATM    6  C7  UNL     1     -34.902  15.750  -2.721  1.00 20.00     0.221 C 
HETATM    7  C4  UNL     1     -35.300  16.541  -1.477  1.00 20.00     0.043 C 
BRANCH   6   8
HETATM    8  C6  UNL     1     -33.409  15.911  -3.087  1.00 20.00     0.010 C 
HETATM    9  C2  UNL     1     -32.937  14.975  -4.205  1.00 20.00     0.011 C 
HETATM   10  C3  UNL     1     -33.080  17.363  -3.454  1.00 20.00     0.011 C 
ENDBRANCH   6   8
ENDBRANCH   4   6
ENDBRANCH   2   4
TORSDOF 3
ENDMDL
MODEL 4
REMARK VINA RESULT:      -4.0     11.237     12.146
REMARK  3 active torsions:
REMARK  status: ('A' for Active; 'I' for Inactive)
REMARK    1  A    between atoms: C5_5  and  N9_9 
REMARK    2  A    between atoms: C6_6  and  C7_7 
REMARK    3  A    between atoms: C7_7  and  N9_9 
ROOT
HETATM    1  C1  UNL     1     -36.311  13.807  -4.492  1.00 20.00     0.089 C 
HETATM    2  C5  UNL     1     -36.857  15.159  -4.385  1.00 20.00     0.393 C 
HETATM    3  N8  UNL     1     -35.880  12.733  -4.580  1.00 20.00    -0.195 NA
ENDROOT
BRANCH   2   4
HETATM    4  N9  UNL     1     -36.676  15.688  -3.038  1.00 20.00     0.100 N 
HETATM    5  H23 UNL     1     -36.370  14.931  -2.423  1.00 20.00     0.317 HD
BRANCH   4   6
HETATM    6  C7  UNL     1     -35.696  16.755  -3.019  1.00 20.00     0.221 C 
HETATM    7  C4  UNL     1     -35.515  17.288  -4.439  1.00 20.00     0.043 C 
BRANCH   6   8
HETATM    8  C6  UNL     1     -34.373  16.282  -2.377  1.00 20.00     0.010 C 
HETATM    9  C2  UNL     1     -33.317  15.825  -3.389  1.00 20.00     0.011 C 
HETATM   10  C3  UNL     1     -33.781  17.362  -1.463  1.00 20.00     0.011 C 
ENDBRANCH   6   8
ENDBRANCH   4   6
ENDBRANCH   2   4
TORSDOF 3
ENDMDL
MODEL 5
REMARK VINA RESULT:      -3.9     11.419     12.059
REMARK  3 active torsions:
REMARK  status: ('A' for Active; 'I' for Inactive)
REMARK    1  A    between atoms: C5_5  and  N9_9 
REMARK    2  A    between atoms: C6_6  and  C7_7 
REMARK    3  A    between atoms: C7_7  and  N9_9 
ROOT
HETATM    1  C1  UNL     1     -31.626  18.282  -0.913  1.00 20.00     0.089 C 
HETATM    2  C5  UNL     1     -32.938  18.172  -1.546  1.00 20.00     0.393 C 
HETATM    3  N8  UNL     1     -30.583  18.372  -0.410  1.00 20.00    -0.195 NA
ENDROOT
BRANCH   2   4
HETATM    4  N9  UNL     1     -33.010  16.988  -2.395  1.00 20.00     0.100 N 
HETATM    5  H23 UNL     1     -32.473  16.236  -1.959  1.00 20.00     0.317 HD
BRANCH   4   6
HETATM    6  C7  UNL     1     -34.381  16.560  -2.585  1.00 20.00     0.221 C 
HETATM    7  C4  UNL     1     -35.127  16.679  -1.258  1.00 20.00     0.043 C 
BRANCH   6   8
HETATM    8  C6  UNL     1     -34.440  15.137  -3.186  1.00 20.00     0.010 C 
HETATM    9  C2  UNL     1     -35.777  14.797  -3.853  1.00 20.00     0.011 C 
HETATM   10  C3  UNL     1     -33.293  14.906  -4.178  1.00 20.00     0.011 C 
ENDBRANCH   6   8
ENDBRANCH   4   6
ENDBRANCH   2   4
TORSDOF 3
ENDMDL
MODEL 6
REMARK VINA RESULT:      -3.9     11.268     12.206
REMARK  3 active torsions:
REMARK  status: ('A' for Active; 'I' for Inactive)
REMARK    1  A    between atoms: C5_5  and  N9_9 
REMARK    2  A    between atoms: C6_6  and  C7_7 
REMARK    3  A    between atoms: C7_7  and  N9_9 
ROOT
HETATM    1  C1  UNL     1     -36.626  13.970  -4.343  1.00 20.00     0.089 C 
HETATM    2  C5  UNL     1     -35.172  13.975  -4.198  1.00 20.00     0.393 C 
HETATM    3  N8  UNL     1     -37.782  13.962  -4.458  1.00 20.00    -0.195 NA
ENDROOT
BRANCH   2   4
HETATM    4  N9  UNL     1     -34.594  15.173  -4.797  1.00 20.00     0.100 N 
HETATM    5  H23 UNL     1     -34.997  15.306  -5.726  1.00 20.00     0.317 HD
BRANCH   4   6
HETATM    6  C7  UNL     1     -34.852  16.344  -3.983  1.00 20.00     0.221 C 
HETATM    7  C4  UNL     1     -34.420  17.590  -4.753  1.00 20.00     0.043 C 
BRANCH   6   8
HETATM    8  C6  UNL     1     -34.170  16.220  -2.601  1.00 20.00     0.010 C 
HETATM    9  C2  UNL     1     -32.927  17.101  -2.439  1.00 20.00     0.011 C 
HETATM   10  C3  UNL     1     -35.160  16.506  -1.465  1.00 20.00     0.011 C 
ENDBRANCH   6   8
ENDBRANCH   4   6
ENDBRANCH   2   4
TORSDOF 3
ENDMDL
MODEL 7
REMARK VINA RESULT:      -3.8     11.276     12.142
REMARK  3 active torsions:
REMARK  status: ('A' for Active; 'I' for Inactive)
REMARK    1  A    between atoms: C5_5  and  N9_9 
REMARK    2  A    between atoms: C6_6  and  C7_7 
REMARK    3  A    between atoms: C7_7  and  N9_9 
ROOT
HETATM    1  C1  UNL     1     -36.266  13.984  -4.320  1.00 20.00     0.089 C 
HETATM    2  C5  UNL     1     -34.861  14.288  -4.057  1.00 20.00     0.393 C 
HETATM    3  N8  UNL     1     -37.381  13.740  -4.531  1.00 20.00    -0.195 NA
ENDROOT
BRANCH   2   4
HETATM    4  N9  UNL     1     -34.669  15.718  -3.844  1.00 20.00     0.100 N 
HETATM    5  H23 UNL     1     -35.576  16.186  -3.903  1.00 20.00     0.317 HD
BRANCH   4   6
HETATM    6  C7  UNL     1     -34.069  15.981  -2.551  1.00 20.00     0.221 C 
HETATM    7  C4  UNL     1     -35.165  16.390  -1.569  1.00 20.00     0.043 C 
BRANCH   6   8
HETATM    8  C6  UNL     1     -32.939  17.029  -2.668  1.00 20.00     0.010 C 
HETATM    9  C2  UNL     1     -33.112  18.005  -3.836  1.00 20.00     0.011 C 
HETATM   10  C3  UNL     1     -32.771  17.813  -1.360  1.00 20.00     0.011 C 
ENDBRANCH   6   8
ENDBRANCH   4   6
ENDBRANCH   2   4
TORSDOF 3
ENDMDL
MODEL 8
REMARK VINA RESULT:      -3.8     11.392     12.049
REMARK  3 active torsions:
REMARK  status: ('A' for Active; 'I' for Inactive)
REMARK    1  A    between atoms: C5_5  and  N9_9 
REMARK    2  A    between atoms: C6_6  and  C7_7 
REMARK    3  A    between atoms: C7_7  and  N9_9 
ROOT
HETATM    1  C1  UNL     1     -37.035  14.298  -4.244  1.00 20.00     0.089 C 
HETATM    2  C5  UNL     1     -35.666  14.655  -3.880  1.00 20.00     0.393 C 
HETATM    3  N8  UNL     1     -38.122  14.014  -4.536  1.00 20.00    -0.195 NA
ENDROOT
BRANCH   2   4
HETATM    4  N9  UNL     1     -35.653  15.653  -2.817  1.00 20.00     0.100 N 
HETATM    5  H23 UNL     1     -35.514  15.180  -1.921  1.00 20.00     0.317 HD
BRANCH   4   6
HETATM    6  C7  UNL     1     -34.599  16.626  -3.022  1.00 20.00     0.221 C 
HETATM    7  C4  UNL     1     -33.318  15.895  -3.417  1.00 20.00     0.043 C 
BRANCH   6   8
HETATM    8  C6  UNL     1     -34.424  17.524  -1.777  1.00 20.00     0.010 C 
HETATM    9  C2  UNL     1     -35.149  17.008  -0.529  1.00 20.00     0.011 C 
HETATM   10  C3  UNL     1     -32.941  17.749  -1.458  1.00 20.00     0.011 C 
ENDBRANCH   6   8
ENDBRANCH   4   6
ENDBRANCH   2   4
TORSDOF 3
ENDMDL
MODEL 9
REMARK VINA RESULT:      -3.7     16.225     17.085
REMARK  3 active torsions:
REMARK  status: ('A' for Active; 'I' for Inactive)
REMARK    1  A    between atoms: C5_5  and  N9_9 
REMARK    2  A    between atoms: C6_6  and  C7_7 
REMARK    3  A    between atoms: C7_7  and  N9_9 
ROOT
HETATM    1  C1  UNL     1     -26.910  18.771  11.690  1.00 20.00     0.089 C 
HETATM    2  C5  UNL     1     -25.626  18.223  12.122  1.00 20.00     0.393 C 
HETATM    3  N8  UNL     1     -27.932  19.204  11.348  1.00 20.00    -0.195 NA
ENDROOT
BRANCH   2   4
HETATM    4  N9  UNL     1     -24.525  18.838  11.389  1.00 20.00     0.100 N 
HETATM    5  H23 UNL     1     -24.123  19.584  11.960  1.00 20.00     0.317 HD
BRANCH   4   6
HETATM    6  C7  UNL     1     -23.500  17.866  11.068  1.00 20.00     0.221 C 
HETATM    7  C4  UNL     1     -22.544  17.741  12.252  1.00 20.00     0.043 C 
BRANCH   6   8
HETATM    8  C6  UNL     1     -22.783  18.231   9.748  1.00 20.00     0.010 C 
HETATM    9  C2  UNL     1     -22.358  17.019   8.913  1.00 20.00     0.011 C 
HETATM   10  C3  UNL     1     -23.640  19.174   8.893  1.00 20.00     0.011 C 
ENDBRANCH   6   8
ENDBRANCH   4   6
ENDBRANCH   2   4
TORSDOF 3
ENDMDL
