MODEL 1
REMARK VINA RESULT:      -3.7      0.000      0.000
REMARK  4 active torsions:
REMARK  status: ('A' for Active; 'I' for Inactive)
REMARK    1  A    between atoms: C2_2  and  C5_5 
REMARK    2  A    between atoms: C5_5  and  S9_9 
REMARK    3  A    between atoms: C6_6  and  C7_7 
REMARK    4  A    between atoms: C6_6  and  S9_9 
ROOT
HETATM    1  S9  UNL     1     -34.169  14.991  -5.224  1.00 20.00    -0.166 SA
ENDROOT
BRANCH   1   2
HETATM    2  C5  UNL     1     -35.861  14.484  -5.606  1.00 20.00     0.108 C 
BRANCH   2   3
HETATM    3  C2  UNL     1     -36.699  14.434  -4.343  1.00 20.00     0.154 A 
HETATM    4  C1  UNL     1     -38.063  15.064  -4.286  1.00 20.00     0.201 A 
HETATM    5  O8  UNL     1     -37.890  13.647  -4.451  1.00 20.00    -0.380 OA
ENDBRANCH   2   3
ENDBRANCH   1   2
BRANCH   1   6
HETATM    6  C6  UNL     1     -34.557  16.375  -4.109  1.00 20.00     0.077 C 
BRANCH   6   7
HETATM    7  C7  UNL     1     -34.018  16.237  -2.675  1.00 20.00    -0.013 C 
HETATM    8  C3  UNL     1     -32.861  17.195  -2.382  1.00 20.00     0.010 C 
HETATM    9  C4  UNL     1     -35.113  16.375  -1.615  1.00 20.00     0.010 C 
ENDBRANCH   6   7
ENDBRANCH   1   6
TORSDOF 4
ENDMDL
MODEL 2
REMARK VINA RESULT:      -3.7      1.583      2.200
REMARK  4 active torsions:
REMARK  status: ('A' for Active; 'I' for Inactive)
REMARK    1  A    between atoms: C2_2  and  C5_5 
REMARK    2  A    between atoms: C5_5  and  S9_9 
REMARK    3  A    between atoms: C6_6  and  C7_7 
REMARK    4  A    between atoms: C6_6  and  S9_9 
ROOT
HETATM    1  S9  UNL     1     -33.316  15.857  -3.584  1.00 20.00    -0.166 SA
ENDROOT
BRANCH   1   2
HETATM    2  C5  UNL     1     -34.003  14.516  -4.580  1.00 20.00     0.108 C 
BRANCH   2   3
HETATM    3  C2  UNL     1     -35.266  13.971  -3.940  1.00 20.00     0.154 A 
HETATM    4  C1  UNL     1     -36.556  13.888  -4.708  1.00 20.00     0.201 A 
HETATM    5  O8  UNL     1     -35.727  12.734  -4.495  1.00 20.00    -0.380 OA
ENDBRANCH   2   3
ENDBRANCH   1   2
BRANCH   1   6
HETATM    6  C6  UNL     1     -34.628  15.947  -2.327  1.00 20.00     0.077 C 
BRANCH   6   7
HETATM    7  C7  UNL     1     -34.643  17.231  -1.480  1.00 20.00    -0.013 C 
HETATM    8  C3  UNL     1     -35.334  17.040  -0.128  1.00 20.00     0.010 C 
HETATM    9  C4  UNL     1     -33.250  17.833  -1.292  1.00 20.00     0.010 C 
ENDBRANCH   6   7
ENDBRANCH   1   6
TORSDOF 4
ENDMDL
MODEL 3
REMARK VINA RESULT:      -3.6     10.954     11.564
REMARK  4 active torsions:
REMARK  status: ('A' for Active; 'I' for Inactive)
REMARK    1  A    between atoms: C2_2  and  C5_5 
REMARK    2  A    between atoms: C5_5  and  S9_9 
REMARK    3  A    between atoms: C6_6  and  C7_7 
REMARK    4  A    between atoms: C6_6  and  S9_9 
ROOT
HETATM    1  S9  UNL     1     -32.890   5.884   2.553  1.00 20.00    -0.166 SA
ENDROOT
BRANCH   1   2
HETATM    2  C5  UNL     1     -32.162   7.361   1.811  1.00 20.00     0.108 C 
BRANCH   2   3
HETATM    3  C2  UNL     1     -33.238   8.228   1.185  1.00 20.00     0.154 A 
HETATM    4  C1  UNL     1     -32.918   9.589   0.630  1.00 20.00     0.201 A 
HETATM    5  O8  UNL     1     -33.084   8.444  -0.221  1.00 20.00    -0.380 OA
ENDBRANCH   2   3
ENDBRANCH   1   2
BRANCH   1   6
HETATM    6  C6  UNL     1     -33.741   6.686   3.947  1.00 20.00     0.077 C 
BRANCH   6   7
HETATM    7  C7  UNL     1     -34.709   5.786   4.735  1.00 20.00    -0.013 C 
HETATM    8  C3  UNL     1     -34.627   4.317   4.313  1.00 20.00     0.010 C 
HETATM    9  C4  UNL     1     -34.543   5.921   6.250  1.00 20.00     0.010 C 
ENDBRANCH   6   7
ENDBRANCH   1   6
TORSDOF 4
ENDMDL
MODEL 4
REMARK VINA RESULT:      -3.5      4.081      5.946
REMARK  4 active torsions:
REMARK  status: ('A' for Active; 'I' for Inactive)
REMARK    1  A    between atoms: C2_2  and  C5_5 
REMARK    2  A    between atoms: C5_5  and  S9_9 
REMARK    3  A    between atoms: C6_6  and  C7_7 
REMARK    4  A    between atoms: C6_6  and  S9_9 
ROOT
HETATM    1  S9  UNL     1     -32.775  18.718  -3.148  1.00 20.00    -0.166 SA
ENDROOT
BRANCH   1   2
HETATM    2  C5  UNL     1     -32.465  17.918  -1.558  1.00 20.00     0.108 C 
BRANCH   2   3
HETATM    3  C2  UNL     1     -31.601  18.800  -0.677  1.00 20.00     0.154 A 
HETATM    4  C1  UNL     1     -31.224  18.379   0.716  1.00 20.00     0.201 A 
HETATM    5  O8  UNL     1     -30.307  18.262  -0.384  1.00 20.00    -0.380 OA
ENDBRANCH   2   3
ENDBRANCH   1   2
BRANCH   1   6
HETATM    6  C6  UNL     1     -33.761  17.397  -3.917  1.00 20.00     0.077 C 
BRANCH   6   7
HETATM    7  C7  UNL     1     -33.686  16.028  -3.219  1.00 20.00    -0.013 C 
HETATM    8  C3  UNL     1     -35.020  15.604  -2.602  1.00 20.00     0.010 C 
HETATM    9  C4  UNL     1     -33.141  14.927  -4.132  1.00 20.00     0.010 C 
ENDBRANCH   6   7
ENDBRANCH   1   6
TORSDOF 4
ENDMDL
MODEL 5
REMARK VINA RESULT:      -3.4      1.530      1.688
REMARK  4 active torsions:
REMARK  status: ('A' for Active; 'I' for Inactive)
REMARK    1  A    between atoms: C2_2  and  C5_5 
REMARK    2  A    between atoms: C5_5  and  S9_9 
REMARK    3  A    between atoms: C6_6  and  C7_7 
REMARK    4  A    between atoms: C6_6  and  S9_9 
ROOT
HETATM    1  S9  UNL     1     -35.281  17.432  -4.688  1.00 20.00    -0.166 SA
ENDROOT
BRANCH   1   2
HETATM    2  C5  UNL     1     -36.022  16.159  -5.736  1.00 20.00     0.108 C 
BRANCH   2   3
HETATM    3  C2  UNL     1     -35.450  14.795  -5.401  1.00 20.00     0.154 A 
HETATM    4  C1  UNL     1     -36.285  13.745  -4.722  1.00 20.00     0.201 A 
HETATM    5  O8  UNL     1     -36.028  13.712  -6.135  1.00 20.00    -0.380 OA
ENDBRANCH   2   3
ENDBRANCH   1   2
BRANCH   1   6
HETATM    6  C6  UNL     1     -33.813  16.503  -4.148  1.00 20.00     0.077 C 
BRANCH   6   7
HETATM    7  C7  UNL     1     -33.658  16.343  -2.626  1.00 20.00    -0.013 C 
HETATM    8  C3  UNL     1     -32.861  17.484  -1.990  1.00 20.00     0.010 C 
HETATM    9  C4  UNL     1     -34.997  16.156  -1.910  1.00 20.00     0.010 C 
ENDBRANCH   6   7
ENDBRANCH   1   6
TORSDOF 4
ENDMDL
MODEL 6
REMARK VINA RESULT:      -3.4      2.322      3.122
REMARK  4 active torsions:
REMARK  status: ('A' for Active; 'I' for Inactive)
REMARK    1  A    between atoms: C2_2  and  C5_5 
REMARK    2  A    between atoms: C5_5  and  S9_9 
REMARK    3  A    between atoms: C6_6  and  C7_7 
REMARK    4  A    between atoms: C6_6  and  S9_9 
ROOT
HETATM    1  S9  UNL     1     -36.327  13.998  -4.774  1.00 20.00    -0.166 SA
ENDROOT
BRANCH   1   2
HETATM    2  C5  UNL     1     -35.990  15.400  -5.864  1.00 20.00     0.108 C 
BRANCH   2   3
HETATM    3  C2  UNL     1     -35.167  14.959  -7.058  1.00 20.00     0.154 A 
HETATM    4  C1  UNL     1     -34.084  15.835  -7.625  1.00 20.00     0.201 A 
HETATM    5  O8  UNL     1     -33.785  14.718  -6.772  1.00 20.00    -0.380 OA
ENDBRANCH   2   3
ENDBRANCH   1   2
BRANCH   1   6
HETATM    6  C6  UNL     1     -34.928  14.215  -3.632  1.00 20.00     0.077 C 
BRANCH   6   7
HETATM    7  C7  UNL     1     -34.560  15.674  -3.310  1.00 20.00    -0.013 C 
HETATM    8  C3  UNL     1     -35.033  16.111  -1.922  1.00 20.00     0.010 C 
HETATM    9  C4  UNL     1     -33.067  15.960  -3.484  1.00 20.00     0.010 C 
ENDBRANCH   6   7
ENDBRANCH   1   6
TORSDOF 4
ENDMDL
MODEL 7
REMARK VINA RESULT:      -3.4     16.068     17.978
REMARK  4 active torsions:
REMARK  status: ('A' for Active; 'I' for Inactive)
REMARK    1  A    between atoms: C2_2  and  C5_5 
REMARK    2  A    between atoms: C5_5  and  S9_9 
REMARK    3  A    between atoms: C6_6  and  C7_7 
REMARK    4  A    between atoms: C6_6  and  S9_9 
ROOT
HETATM    1  S9  UNL     1     -22.582  18.093   9.300  1.00 20.00    -0.166 SA
ENDROOT
BRANCH   1   2
HETATM    2  C5  UNL     1     -23.885  19.194   8.704  1.00 20.00     0.108 C 
BRANCH   2   3
HETATM    3  C2  UNL     1     -24.669  18.534   7.586  1.00 20.00     0.154 A 
HETATM    4  C1  UNL     1     -25.775  19.263   6.874  1.00 20.00     0.201 A 
HETATM    5  O8  UNL     1     -24.468  19.117   6.295  1.00 20.00    -0.380 OA
ENDBRANCH   2   3
ENDBRANCH   1   2
BRANCH   1   6
HETATM    6  C6  UNL     1     -23.629  16.925  10.220  1.00 20.00     0.077 C 
BRANCH   6   7
HETATM    7  C7  UNL     1     -23.706  17.162  11.738  1.00 20.00    -0.013 C 
HETATM    8  C3  UNL     1     -22.419  17.763  12.308  1.00 20.00     0.010 C 
HETATM    9  C4  UNL     1     -24.919  18.000  12.146  1.00 20.00     0.010 C 
ENDBRANCH   6   7
ENDBRANCH   1   6
TORSDOF 4
ENDMDL
MODEL 8
REMARK VINA RESULT:      -3.3     17.655     18.645
REMARK  4 active torsions:
REMARK  status: ('A' for Active; 'I' for Inactive)
REMARK    1  A    between atoms: C2_2  and  C5_5 
REMARK    2  A    between atoms: C5_5  and  S9_9 
REMARK    3  A    between atoms: C6_6  and  C7_7 
REMARK    4  A    between atoms: C6_6  and  S9_9 
ROOT
HETATM    1  S9  UNL     1     -23.981  16.954  10.414  1.00 20.00    -0.166 SA
ENDROOT
BRANCH   1   2
HETATM    2  C5  UNL     1     -22.357  17.746  10.374  1.00 20.00     0.108 C 
BRANCH   2   3
HETATM    3  C2  UNL     1     -22.035  18.231   8.974  1.00 20.00     0.154 A 
HETATM    4  C1  UNL     1     -21.430  17.310   7.950  1.00 20.00     0.201 A 
HETATM    5  O8  UNL     1     -22.829  17.636   7.942  1.00 20.00    -0.380 OA
ENDBRANCH   2   3
ENDBRANCH   1   2
BRANCH   1   6
HETATM    6  C6  UNL     1     -24.667  17.841  11.847  1.00 20.00     0.077 C 
BRANCH   6   7
HETATM    7  C7  UNL     1     -25.744  18.890  11.519  1.00 20.00    -0.013 C 
HETATM    8  C3  UNL     1     -25.774  19.263  10.036  1.00 20.00     0.010 C 
HETATM    9  C4  UNL     1     -27.137  18.479  12.000  1.00 20.00     0.010 C 
ENDBRANCH   6   7
ENDBRANCH   1   6
TORSDOF 4
ENDMDL
MODEL 9
REMARK VINA RESULT:      -3.2     17.836     18.636
REMARK  4 active torsions:
REMARK  status: ('A' for Active; 'I' for Inactive)
REMARK    1  A    between atoms: C2_2  and  C5_5 
REMARK    2  A    between atoms: C5_5  and  S9_9 
REMARK    3  A    between atoms: C6_6  and  C7_7 
REMARK    4  A    between atoms: C6_6  and  S9_9 
ROOT
HETATM    1  S9  UNL     1     -24.069  16.477  10.644  1.00 20.00    -0.166 SA
ENDROOT
BRANCH   1   2
HETATM    2  C5  UNL     1     -25.337  17.057  11.792  1.00 20.00     0.108 C 
BRANCH   2   3
HETATM    3  C2  UNL     1     -25.442  18.569  11.750  1.00 20.00     0.154 A 
HETATM    4  C1  UNL     1     -26.445  19.257  10.865  1.00 20.00     0.201 A 
HETATM    5  O8  UNL     1     -26.665  19.095  12.276  1.00 20.00    -0.380 OA
ENDBRANCH   2   3
ENDBRANCH   1   2
BRANCH   1   6
HETATM    6  C6  UNL     1     -22.960  17.917  10.732  1.00 20.00     0.077 C 
BRANCH   6   7
HETATM    7  C7  UNL     1     -22.486  18.469   9.377  1.00 20.00    -0.013 C 
HETATM    8  C3  UNL     1     -21.558  17.503   8.636  1.00 20.00     0.010 C 
HETATM    9  C4  UNL     1     -23.645  18.900   8.475  1.00 20.00     0.010 C 
ENDBRANCH   6   7
ENDBRANCH   1   6
TORSDOF 4
ENDMDL
