MODEL 1
REMARK VINA RESULT:      -2.9      0.000      0.000
REMARK  1 active torsions:
REMARK  status: ('A' for Active; 'I' for Inactive)
REMARK    1  A    between atoms: C4_4  and  S6_6 
ROOT
HETATM    1  C1  UNL     1     -33.243   7.003   5.151  1.00 20.00     0.026 C 
HETATM    2  C2  UNL     1     -34.313   6.503   6.108  1.00 20.00     0.075 C 
HETATM    3  C3  UNL     1     -34.159   5.233   3.742  1.00 20.00     0.088 C 
HETATM    4  C4  UNL     1     -33.759   6.702   3.747  1.00 20.00     0.054 C 
HETATM    5  S5  UNL     1     -34.924   4.962   5.369  1.00 20.00    -0.168 SA
ENDROOT
BRANCH   4   6
HETATM    6  S6  UNL     1     -32.494   7.040   2.488  1.00 20.00    -0.177 SA
HETATM    7  H14 UNL     1     -33.360   7.232   1.486  1.00 20.00     0.102 HD
ENDBRANCH   4   6
TORSDOF 1
ENDMDL
MODEL 2
REMARK VINA RESULT:      -2.9      1.084      2.064
REMARK  1 active torsions:
REMARK  status: ('A' for Active; 'I' for Inactive)
REMARK    1  A    between atoms: C4_4  and  S6_6 
ROOT
HETATM    1  C1  UNL     1     -33.651   4.991   2.670  1.00 20.00     0.026 C 
HETATM    2  C2  UNL     1     -34.173   4.146   3.824  1.00 20.00     0.075 C 
HETATM    3  C3  UNL     1     -34.000   6.791   4.281  1.00 20.00     0.088 C 
HETATM    4  C4  UNL     1     -32.986   6.207   3.307  1.00 20.00     0.054 C 
HETATM    5  S5  UNL     1     -34.791   5.342   5.041  1.00 20.00    -0.168 SA
ENDROOT
BRANCH   4   6
HETATM    6  S6  UNL     1     -32.502   7.430   2.053  1.00 20.00    -0.177 SA
HETATM    7  H14 UNL     1     -32.938   6.719   1.007  1.00 20.00     0.102 HD
ENDBRANCH   4   6
TORSDOF 1
ENDMDL
MODEL 3
REMARK VINA RESULT:      -2.8     16.374     16.872
REMARK  1 active torsions:
REMARK  status: ('A' for Active; 'I' for Inactive)
REMARK    1  A    between atoms: C4_4  and  S6_6 
ROOT
HETATM    1  C1  UNL     1     -24.031  18.151  12.331  1.00 20.00     0.026 C 
HETATM    2  C2  UNL     1     -22.837  17.331  11.865  1.00 20.00     0.075 C 
HETATM    3  C3  UNL     1     -24.356  18.413   9.927  1.00 20.00     0.088 C 
HETATM    4  C4  UNL     1     -25.071  18.048  11.220  1.00 20.00     0.054 C 
HETATM    5  S5  UNL     1     -22.712  17.652  10.083  1.00 20.00    -0.168 SA
ENDROOT
BRANCH   4   6
HETATM    6  S6  UNL     1     -26.479  19.157  11.525  1.00 20.00    -0.177 SA
HETATM    7  H14 UNL     1     -26.193  19.374  12.814  1.00 20.00     0.102 HD
ENDBRANCH   4   6
TORSDOF 1
ENDMDL
MODEL 4
REMARK VINA RESULT:      -2.7      1.024      3.388
REMARK  1 active torsions:
REMARK  status: ('A' for Active; 'I' for Inactive)
REMARK    1  A    between atoms: C4_4  and  S6_6 
ROOT
HETATM    1  C1  UNL     1     -33.836   4.596   3.546  1.00 20.00     0.026 C 
HETATM    2  C2  UNL     1     -33.336   5.143   2.217  1.00 20.00     0.075 C 
HETATM    3  C3  UNL     1     -33.378   6.882   4.269  1.00 20.00     0.088 C 
HETATM    4  C4  UNL     1     -34.434   5.784   4.292  1.00 20.00     0.054 C 
HETATM    5  S5  UNL     1     -32.644   6.774   2.609  1.00 20.00    -0.168 SA
ENDROOT
BRANCH   4   6
HETATM    6  S6  UNL     1     -34.879   5.341   5.997  1.00 20.00    -0.177 SA
HETATM    7  H14 UNL     1     -33.946   4.390   6.129  1.00 20.00     0.102 HD
ENDBRANCH   4   6
TORSDOF 1
ENDMDL
MODEL 5
REMARK VINA RESULT:      -2.7     15.791     16.658
REMARK  1 active torsions:
REMARK  status: ('A' for Active; 'I' for Inactive)
REMARK    1  A    between atoms: C4_4  and  S6_6 
ROOT
HETATM    1  C1  UNL     1     -22.122  17.792  11.154  1.00 20.00     0.026 C 
HETATM    2  C2  UNL     1     -23.083  17.845  12.332  1.00 20.00     0.075 C 
HETATM    3  C3  UNL     1     -24.009  16.652  10.106  1.00 20.00     0.088 C 
HETATM    4  C4  UNL     1     -22.993  17.767   9.901  1.00 20.00     0.054 C 
HETATM    5  S5  UNL     1     -24.464  16.766  11.863  1.00 20.00    -0.168 SA
ENDROOT
BRANCH   4   6
HETATM    6  S6  UNL     1     -21.998  17.481   8.408  1.00 20.00    -0.177 SA
HETATM    7  H14 UNL     1     -22.639  16.365   8.041  1.00 20.00     0.102 HD
ENDBRANCH   4   6
TORSDOF 1
ENDMDL
MODEL 6
REMARK VINA RESULT:      -2.7     16.133     16.682
REMARK  1 active torsions:
REMARK  status: ('A' for Active; 'I' for Inactive)
REMARK    1  A    between atoms: C4_4  and  S6_6 
ROOT
HETATM    1  C1  UNL     1     -25.136  18.455  11.079  1.00 20.00     0.026 C 
HETATM    2  C2  UNL     1     -24.639  17.749  12.332  1.00 20.00     0.075 C 
HETATM    3  C3  UNL     1     -22.836  18.066  10.361  1.00 20.00     0.088 C 
HETATM    4  C4  UNL     1     -24.289  17.919   9.930  1.00 20.00     0.054 C 
HETATM    5  S5  UNL     1     -22.839  17.640  12.128  1.00 20.00    -0.168 SA
ENDROOT
BRANCH   4   6
HETATM    6  S6  UNL     1     -24.609  18.828   8.389  1.00 20.00    -0.177 SA
HETATM    7  H14 UNL     1     -25.473  17.935   7.892  1.00 20.00     0.102 HD
ENDBRANCH   4   6
TORSDOF 1
ENDMDL
MODEL 7
REMARK VINA RESULT:      -2.7      9.036      9.418
REMARK  1 active torsions:
REMARK  status: ('A' for Active; 'I' for Inactive)
REMARK    1  A    between atoms: C4_4  and  S6_6 
ROOT
HETATM    1  C1  UNL     1     -41.206   7.005  -1.034  1.00 20.00     0.026 C 
HETATM    2  C2  UNL     1     -41.378   5.501  -0.877  1.00 20.00     0.075 C 
HETATM    3  C3  UNL     1     -42.693   7.032   0.901  1.00 20.00     0.088 C 
HETATM    4  C4  UNL     1     -41.386   7.596   0.361  1.00 20.00     0.054 C 
HETATM    5  S5  UNL     1     -42.712   5.304   0.337  1.00 20.00    -0.168 SA
ENDROOT
BRANCH   4   6
HETATM    6  S6  UNL     1     -41.429   9.412   0.310  1.00 20.00    -0.177 SA
HETATM    7  H14 UNL     1     -41.818   9.495  -0.967  1.00 20.00     0.102 HD
ENDBRANCH   4   6
TORSDOF 1
ENDMDL
MODEL 8
REMARK VINA RESULT:      -2.7     16.508     17.072
REMARK  1 active torsions:
REMARK  status: ('A' for Active; 'I' for Inactive)
REMARK    1  A    between atoms: C4_4  and  S6_6 
ROOT
HETATM    1  C1  UNL     1     -21.799  17.736   9.584  1.00 20.00     0.026 C 
HETATM    2  C2  UNL     1     -22.297  17.700   8.147  1.00 20.00     0.075 C 
HETATM    3  C3  UNL     1     -24.096  18.444  10.003  1.00 20.00     0.088 C 
HETATM    4  C4  UNL     1     -23.019  17.469  10.459  1.00 20.00     0.054 C 
HETATM    5  S5  UNL     1     -23.926  18.498   8.194  1.00 20.00    -0.168 SA
ENDROOT
BRANCH   4   6
HETATM    6  S6  UNL     1     -22.635  17.697  12.221  1.00 20.00    -0.177 SA
HETATM    7  H14 UNL     1     -21.317  17.507  12.089  1.00 20.00     0.102 HD
ENDBRANCH   4   6
TORSDOF 1
ENDMDL
MODEL 9
REMARK VINA RESULT:      -2.7     16.403     16.720
REMARK  1 active torsions:
REMARK  status: ('A' for Active; 'I' for Inactive)
REMARK    1  A    between atoms: C4_4  and  S6_6 
ROOT
HETATM    1  C1  UNL     1     -24.317  18.213   9.754  1.00 20.00     0.026 C 
HETATM    2  C2  UNL     1     -25.002  18.091  11.107  1.00 20.00     0.075 C 
HETATM    3  C3  UNL     1     -22.353  17.626  11.079  1.00 20.00     0.088 C 
HETATM    4  C4  UNL     1     -23.113  17.277   9.806  1.00 20.00     0.054 C 
HETATM    5  S5  UNL     1     -23.650  17.956  12.309  1.00 20.00    -0.168 SA
ENDROOT
BRANCH   4   6
HETATM    6  S6  UNL     1     -22.058  17.472   8.340  1.00 20.00    -0.177 SA
HETATM    7  H14 UNL     1     -22.306  16.255   7.842  1.00 20.00     0.102 HD
ENDBRANCH   4   6
TORSDOF 1
ENDMDL
