MODEL 1
REMARK VINA RESULT:      -4.8      0.000      0.000
REMARK  1 active torsions:
REMARK  status: ('A' for Active; 'I' for Inactive)
REMARK    1  A    between atoms: C1_1  and  C6_6 
ROOT
HETATM    1  C2  UNL     1     -35.134   4.856   4.630  1.00 20.00     0.027 C 
HETATM    2  C3  UNL     1     -34.087   5.234   3.588  1.00 20.00     0.015 C 
HETATM    3  C4  UNL     1     -34.676   5.262   6.025  1.00 20.00     0.167 C 
HETATM    4  C5  UNL     1     -33.304   7.003   5.187  1.00 20.00     0.179 C 
HETATM    5  C6  UNL     1     -33.687   6.696   3.746  1.00 20.00     0.071 C 
HETATM    6  O8  UNL     1     -34.369   6.656   6.073  1.00 20.00    -0.390 OA
ENDROOT
BRANCH   5   7
HETATM    7  C1  UNL     1     -32.482   6.960   2.869  1.00 20.00     0.237 C 
HETATM    8  O7  UNL     1     -32.537   7.586   1.815  1.00 20.00    -0.306 OA
ENDBRANCH   5   7
TORSDOF 1
ENDMDL
MODEL 2
REMARK VINA RESULT:      -4.1      9.046      9.421
REMARK  1 active torsions:
REMARK  status: ('A' for Active; 'I' for Inactive)
REMARK    1  A    between atoms: C1_1  and  C6_6 
ROOT
HETATM    1  C2  UNL     1     -42.218   5.488   0.602  1.00 20.00     0.027 C 
HETATM    2  C3  UNL     1     -42.575   6.954   0.821  1.00 20.00     0.015 C 
HETATM    3  C4  UNL     1     -41.865   5.233  -0.858  1.00 20.00     0.167 C 
HETATM    4  C5  UNL     1     -41.178   7.476  -1.197  1.00 20.00     0.179 C 
HETATM    5  C6  UNL     1     -41.491   7.855   0.243  1.00 20.00     0.071 C 
HETATM    6  O8  UNL     1     -40.812   6.098  -1.284  1.00 20.00    -0.390 OA
ENDROOT
BRANCH   5   7
HETATM    7  C1  UNL     1     -41.997   9.282   0.259  1.00 20.00     0.237 C 
HETATM    8  O7  UNL     1     -41.264  10.257   0.394  1.00 20.00    -0.306 OA
ENDBRANCH   5   7
TORSDOF 1
ENDMDL
MODEL 3
REMARK VINA RESULT:      -4.0     11.670     12.204
REMARK  1 active torsions:
REMARK  status: ('A' for Active; 'I' for Inactive)
REMARK    1  A    between atoms: C1_1  and  C6_6 
ROOT
HETATM    1  C2  UNL     1     -32.902  15.210  -3.945  1.00 20.00     0.027 C 
HETATM    2  C3  UNL     1     -34.016  14.626  -4.807  1.00 20.00     0.015 C 
HETATM    3  C4  UNL     1     -33.439  16.324  -3.054  1.00 20.00     0.167 C 
HETATM    4  C5  UNL     1     -35.628  15.416  -3.054  1.00 20.00     0.179 C 
HETATM    5  C6  UNL     1     -35.213  14.252  -3.942  1.00 20.00     0.071 C 
HETATM    6  O8  UNL     1     -34.527  15.855  -2.257  1.00 20.00    -0.390 OA
ENDROOT
BRANCH   5   7
HETATM    7  C1  UNL     1     -36.374  13.914  -4.853  1.00 20.00     0.237 C 
HETATM    8  O7  UNL     1     -37.508  13.681  -4.446  1.00 20.00    -0.306 OA
ENDBRANCH   5   7
TORSDOF 1
ENDMDL
MODEL 4
REMARK VINA RESULT:      -3.9     12.039     12.689
REMARK  1 active torsions:
REMARK  status: ('A' for Active; 'I' for Inactive)
REMARK    1  A    between atoms: C1_1  and  C6_6 
ROOT
HETATM    1  C2  UNL     1     -33.703  15.511  -3.432  1.00 20.00     0.027 C 
HETATM    2  C3  UNL     1     -35.189  15.319  -3.154  1.00 20.00     0.015 C 
HETATM    3  C4  UNL     1     -33.219  14.519  -4.482  1.00 20.00     0.167 C 
HETATM    4  C5  UNL     1     -35.373  14.332  -5.454  1.00 20.00     0.179 C 
HETATM    5  C6  UNL     1     -35.975  15.314  -4.459  1.00 20.00     0.071 C 
HETATM    6  O8  UNL     1     -33.994  14.629  -5.677  1.00 20.00    -0.390 OA
ENDROOT
BRANCH   5   7
HETATM    7  C1  UNL     1     -37.394  14.877  -4.161  1.00 20.00     0.237 C 
HETATM    8  O7  UNL     1     -37.824  13.756  -4.416  1.00 20.00    -0.306 OA
ENDBRANCH   5   7
TORSDOF 1
ENDMDL
MODEL 5
REMARK VINA RESULT:      -3.9     11.676     12.596
REMARK  1 active torsions:
REMARK  status: ('A' for Active; 'I' for Inactive)
REMARK    1  A    between atoms: C1_1  and  C6_6 
ROOT
HETATM    1  C2  UNL     1     -33.199  15.948  -3.391  1.00 20.00     0.027 C 
HETATM    2  C3  UNL     1     -33.923  14.751  -3.998  1.00 20.00     0.015 C 
HETATM    3  C4  UNL     1     -33.902  17.247  -3.764  1.00 20.00     0.167 C 
HETATM    4  C5  UNL     1     -35.995  16.167  -4.027  1.00 20.00     0.179 C 
HETATM    5  C6  UNL     1     -35.409  14.809  -3.668  1.00 20.00     0.071 C 
HETATM    6  O8  UNL     1     -35.275  17.211  -3.372  1.00 20.00    -0.390 OA
ENDROOT
BRANCH   5   7
HETATM    7  C1  UNL     1     -36.122  13.753  -4.486  1.00 20.00     0.237 C 
HETATM    8  O7  UNL     1     -35.809  12.567  -4.481  1.00 20.00    -0.306 OA
ENDBRANCH   5   7
TORSDOF 1
ENDMDL
MODEL 6
REMARK VINA RESULT:      -3.8     15.829     16.661
REMARK  1 active torsions:
REMARK  status: ('A' for Active; 'I' for Inactive)
REMARK    1  A    between atoms: C1_1  and  C6_6 
ROOT
HETATM    1  C2  UNL     1     -22.773  17.613  12.237  1.00 20.00     0.027 C 
HETATM    2  C3  UNL     1     -22.060  17.819  10.905  1.00 20.00     0.015 C 
HETATM    3  C4  UNL     1     -24.242  17.998  12.126  1.00 20.00     0.167 C 
HETATM    4  C5  UNL     1     -24.296  17.551   9.800  1.00 20.00     0.179 C 
HETATM    5  C6  UNL     1     -22.831  17.139   9.782  1.00 20.00     0.071 C 
HETATM    6  O8  UNL     1     -24.878  17.273  11.073  1.00 20.00    -0.390 OA
ENDROOT
BRANCH   5   7
HETATM    7  C1  UNL     1     -22.233  17.573   8.460  1.00 20.00     0.237 C 
HETATM    8  O7  UNL     1     -21.999  16.799   7.537  1.00 20.00    -0.306 OA
ENDBRANCH   5   7
TORSDOF 1
ENDMDL
MODEL 7
REMARK VINA RESULT:      -3.8      1.504      1.632
REMARK  1 active torsions:
REMARK  status: ('A' for Active; 'I' for Inactive)
REMARK    1  A    between atoms: C1_1  and  C6_6 
ROOT
HETATM    1  C2  UNL     1     -35.148   5.129   5.660  1.00 20.00     0.027 C 
HETATM    2  C3  UNL     1     -34.517   4.657   4.355  1.00 20.00     0.015 C 
HETATM    3  C4  UNL     1     -34.248   6.141   6.357  1.00 20.00     0.167 C 
HETATM    4  C5  UNL     1     -33.251   6.823   4.318  1.00 20.00     0.179 C 
HETATM    5  C6  UNL     1     -34.096   5.851   3.508  1.00 20.00     0.071 C 
HETATM    6  O8  UNL     1     -33.952   7.238   5.491  1.00 20.00    -0.390 OA
ENDROOT
BRANCH   5   7
HETATM    7  C1  UNL     1     -33.260   5.346   2.351  1.00 20.00     0.237 C 
HETATM    8  O7  UNL     1     -32.917   4.175   2.224  1.00 20.00    -0.306 OA
ENDBRANCH   5   7
TORSDOF 1
ENDMDL
MODEL 8
REMARK VINA RESULT:      -3.8     16.335     16.635
REMARK  1 active torsions:
REMARK  status: ('A' for Active; 'I' for Inactive)
REMARK    1  A    between atoms: C1_1  and  C6_6 
ROOT
HETATM    1  C2  UNL     1     -25.108  18.968   9.805  1.00 20.00     0.027 C 
HETATM    2  C3  UNL     1     -24.210  18.445   8.689  1.00 20.00     0.015 C 
HETATM    3  C4  UNL     1     -24.927  18.143  11.073  1.00 20.00     0.167 C 
HETATM    4  C5  UNL     1     -22.718  17.521  10.483  1.00 20.00     0.179 C 
HETATM    5  C6  UNL     1     -22.775  18.311   9.184  1.00 20.00     0.071 C 
HETATM    6  O8  UNL     1     -23.556  18.120  11.471  1.00 20.00    -0.390 OA
ENDROOT
BRANCH   5   7
HETATM    7  C1  UNL     1     -21.976  17.564   8.138  1.00 20.00     0.237 C 
HETATM    8  O7  UNL     1     -22.048  17.799   6.936  1.00 20.00    -0.306 OA
ENDBRANCH   5   7
TORSDOF 1
ENDMDL
MODEL 9
REMARK VINA RESULT:      -3.8     11.733     12.275
REMARK  1 active torsions:
REMARK  status: ('A' for Active; 'I' for Inactive)
REMARK    1  A    between atoms: C1_1  and  C6_6 
ROOT
HETATM    1  C2  UNL     1     -34.813  16.664  -2.667  1.00 20.00     0.027 C 
HETATM    2  C3  UNL     1     -35.767  15.544  -3.067  1.00 20.00     0.015 C 
HETATM    3  C4  UNL     1     -33.367  16.192  -2.744  1.00 20.00     0.167 C 
HETATM    4  C5  UNL     1     -33.873  14.560  -4.387  1.00 20.00     0.179 C 
HETATM    5  C6  UNL     1     -35.346  14.942  -4.402  1.00 20.00     0.071 C 
HETATM    6  O8  UNL     1     -33.067  15.689  -4.047  1.00 20.00    -0.390 OA
ENDROOT
BRANCH   5   7
HETATM    7  C1  UNL     1     -36.159  13.687  -4.639  1.00 20.00     0.237 C 
HETATM    8  O7  UNL     1     -35.727  12.555  -4.446  1.00 20.00    -0.306 OA
ENDBRANCH   5   7
TORSDOF 1
ENDMDL
