MODEL 1
REMARK VINA RESULT:      -4.2      0.000      0.000
REMARK  1 active torsions:
REMARK  status: ('A' for Active; 'I' for Inactive)
REMARK    1  A    between atoms: C1_1  and  C5_5 
ROOT
HETATM    1  C2  UNL     1     -34.714   5.033   5.847  1.00 20.00     0.193 C 
HETATM    2  C3  UNL     1     -34.328   6.498   5.974  1.00 20.00     0.195 C 
HETATM    3  C4  UNL     1     -34.115   5.074   3.572  1.00 20.00     0.206 C 
HETATM    4  C5  UNL     1     -33.727   6.537   3.705  1.00 20.00     0.206 C 
HETATM    5  O7  UNL     1     -35.148   4.764   4.511  1.00 20.00    -0.386 OA
HETATM    6  O8  UNL     1     -33.295   6.809   5.037  1.00 20.00    -0.375 OA
ENDROOT
BRANCH   4   7
HETATM    7  C1  UNL     1     -32.554   6.866   2.842  1.00 20.00     0.265 C 
HETATM    8  O6  UNL     1     -32.638   7.524   1.810  1.00 20.00    -0.304 OA
ENDBRANCH   4   7
TORSDOF 1
ENDMDL
MODEL 2
REMARK VINA RESULT:      -3.7     11.824     12.282
REMARK  1 active torsions:
REMARK  status: ('A' for Active; 'I' for Inactive)
REMARK    1  A    between atoms: C1_1  and  C5_5 
ROOT
HETATM    1  C2  UNL     1     -33.439  16.316  -3.107  1.00 20.00     0.193 C 
HETATM    2  C3  UNL     1     -34.670  15.910  -2.312  1.00 20.00     0.195 C 
HETATM    3  C4  UNL     1     -33.982  14.731  -4.758  1.00 20.00     0.206 C 
HETATM    4  C5  UNL     1     -35.215  14.332  -3.963  1.00 20.00     0.206 C 
HETATM    5  O7  UNL     1     -32.968  15.201  -3.867  1.00 20.00    -0.386 OA
HETATM    6  O8  UNL     1     -35.686  15.442  -3.202  1.00 20.00    -0.375 OA
ENDROOT
BRANCH   4   7
HETATM    7  C1  UNL     1     -36.347  13.972  -4.865  1.00 20.00     0.265 C 
HETATM    8  O6  UNL     1     -37.449  13.618  -4.458  1.00 20.00    -0.304 OA
ENDBRANCH   4   7
TORSDOF 1
ENDMDL
MODEL 3
REMARK VINA RESULT:      -3.6     16.374     16.890
REMARK  1 active torsions:
REMARK  status: ('A' for Active; 'I' for Inactive)
REMARK    1  A    between atoms: C1_1  and  C5_5 
ROOT
HETATM    1  C2  UNL     1     -24.433  17.744  11.821  1.00 20.00     0.193 C 
HETATM    2  C3  UNL     1     -22.921  17.887  11.895  1.00 20.00     0.195 C 
HETATM    3  C4  UNL     1     -24.354  18.108   9.498  1.00 20.00     0.206 C 
HETATM    4  C5  UNL     1     -22.842  18.245   9.575  1.00 20.00     0.206 C 
HETATM    5  O7  UNL     1     -24.937  18.524  10.735  1.00 20.00    -0.386 OA
HETATM    6  O8  UNL     1     -22.336  17.469  10.659  1.00 20.00    -0.375 OA
ENDROOT
BRANCH   4   7
HETATM    7  C1  UNL     1     -22.185  17.686   8.358  1.00 20.00     0.265 C 
HETATM    8  O6  UNL     1     -22.510  17.990   7.215  1.00 20.00    -0.304 OA
ENDBRANCH   4   7
TORSDOF 1
ENDMDL
MODEL 4
REMARK VINA RESULT:      -3.6     11.663     12.323
REMARK  1 active torsions:
REMARK  status: ('A' for Active; 'I' for Inactive)
REMARK    1  A    between atoms: C1_1  and  C5_5 
ROOT
HETATM    1  C2  UNL     1     -33.674  16.334  -2.660  1.00 20.00     0.193 C 
HETATM    2  C3  UNL     1     -33.153  15.454  -3.785  1.00 20.00     0.195 C 
HETATM    3  C4  UNL     1     -35.883  15.797  -3.262  1.00 20.00     0.206 C 
HETATM    4  C5  UNL     1     -35.359  14.914  -4.383  1.00 20.00     0.206 C 
HETATM    5  O7  UNL     1     -34.957  16.856  -3.012  1.00 20.00    -0.386 OA
HETATM    6  O8  UNL     1     -34.077  14.393  -4.035  1.00 20.00    -0.375 OA
ENDROOT
BRANCH   4   7
HETATM    7  C1  UNL     1     -36.225  13.716  -4.578  1.00 20.00     0.265 C 
HETATM    8  O6  UNL     1     -35.814  12.563  -4.486  1.00 20.00    -0.304 OA
ENDBRANCH   4   7
TORSDOF 1
ENDMDL
MODEL 5
REMARK VINA RESULT:      -3.5     11.687     13.134
REMARK  1 active torsions:
REMARK  status: ('A' for Active; 'I' for Inactive)
REMARK    1  A    between atoms: C1_1  and  C5_5 
ROOT
HETATM    1  C2  UNL     1     -39.220  16.096  -4.898  1.00 20.00     0.193 C 
HETATM    2  C3  UNL     1     -39.269  14.780  -4.139  1.00 20.00     0.195 C 
HETATM    3  C4  UNL     1     -36.870  15.995  -4.926  1.00 20.00     0.206 C 
HETATM    4  C5  UNL     1     -36.923  14.677  -4.171  1.00 20.00     0.206 C 
HETATM    5  O7  UNL     1     -38.010  16.789  -4.585  1.00 20.00    -0.386 OA
HETATM    6  O8  UNL     1     -38.131  13.984  -4.480  1.00 20.00    -0.375 OA
ENDROOT
BRANCH   4   7
HETATM    7  C1  UNL     1     -35.829  13.761  -4.605  1.00 20.00     0.265 C 
HETATM    8  O6  UNL     1     -35.847  12.548  -4.416  1.00 20.00    -0.304 OA
ENDBRANCH   4   7
TORSDOF 1
ENDMDL
MODEL 6
REMARK VINA RESULT:      -3.5     11.992     13.944
REMARK  1 active torsions:
REMARK  status: ('A' for Active; 'I' for Inactive)
REMARK    1  A    between atoms: C1_1  and  C5_5 
ROOT
HETATM    1  C2  UNL     1     -34.453  16.623  -6.972  1.00 20.00     0.193 C 
HETATM    2  C3  UNL     1     -33.993  15.179  -7.101  1.00 20.00     0.195 C 
HETATM    3  C4  UNL     1     -36.327  15.916  -5.737  1.00 20.00     0.206 C 
HETATM    4  C5  UNL     1     -35.861  14.474  -5.864  1.00 20.00     0.206 C 
HETATM    5  O7  UNL     1     -35.879  16.666  -6.868  1.00 20.00    -0.386 OA
HETATM    6  O8  UNL     1     -34.439  14.428  -5.969  1.00 20.00    -0.375 OA
ENDROOT
BRANCH   4   7
HETATM    7  C1  UNL     1     -36.184  13.691  -4.636  1.00 20.00     0.265 C 
HETATM    8  O6  UNL     1     -35.794  12.544  -4.444  1.00 20.00    -0.304 OA
ENDBRANCH   4   7
TORSDOF 1
ENDMDL
MODEL 7
REMARK VINA RESULT:      -3.5     16.341     17.059
REMARK  1 active torsions:
REMARK  status: ('A' for Active; 'I' for Inactive)
REMARK    1  A    between atoms: C1_1  and  C5_5 
ROOT
HETATM    1  C2  UNL     1     -23.908  18.868   8.293  1.00 20.00     0.193 C 
HETATM    2  C3  UNL     1     -24.964  18.913   9.386  1.00 20.00     0.195 C 
HETATM    3  C4  UNL     1     -22.343  18.032   9.839  1.00 20.00     0.206 C 
HETATM    4  C5  UNL     1     -23.403  18.074  10.928  1.00 20.00     0.206 C 
HETATM    5  O7  UNL     1     -22.611  19.048   8.869  1.00 20.00    -0.386 OA
HETATM    6  O8  UNL     1     -24.698  17.897  10.356  1.00 20.00    -0.375 OA
ENDROOT
BRANCH   4   7
HETATM    7  C1  UNL     1     -23.242  16.939  11.882  1.00 20.00     0.265 C 
HETATM    8  O6  UNL     1     -23.969  15.951  11.886  1.00 20.00    -0.304 OA
ENDBRANCH   4   7
TORSDOF 1
ENDMDL
MODEL 8
REMARK VINA RESULT:      -3.4      9.012      9.381
REMARK  1 active torsions:
REMARK  status: ('A' for Active; 'I' for Inactive)
REMARK    1  A    between atoms: C1_1  and  C5_5 
ROOT
HETATM    1  C2  UNL     1     -42.335   5.201  -0.201  1.00 20.00     0.193 C 
HETATM    2  C3  UNL     1     -41.100   5.870  -0.783  1.00 20.00     0.195 C 
HETATM    3  C4  UNL     1     -42.884   7.193   0.923  1.00 20.00     0.206 C 
HETATM    4  C5  UNL     1     -41.651   7.860   0.335  1.00 20.00     0.206 C 
HETATM    5  O7  UNL     1     -42.650   5.789   1.063  1.00 20.00    -0.386 OA
HETATM    6  O8  UNL     1     -41.333   7.273  -0.925  1.00 20.00    -0.375 OA
ENDROOT
BRANCH   4   7
HETATM    7  C1  UNL     1     -41.904   9.300   0.040  1.00 20.00     0.265 C 
HETATM    8  O6  UNL     1     -41.195  10.210   0.458  1.00 20.00    -0.304 OA
ENDBRANCH   4   7
TORSDOF 1
ENDMDL
MODEL 9
REMARK VINA RESULT:      -3.4     12.118     13.077
REMARK  1 active torsions:
REMARK  status: ('A' for Active; 'I' for Inactive)
REMARK    1  A    between atoms: C1_1  and  C5_5 
ROOT
HETATM    1  C2  UNL     1     -38.184  14.971  -4.190  1.00 20.00     0.193 C 
HETATM    2  C3  UNL     1     -37.874  15.933  -5.325  1.00 20.00     0.195 C 
HETATM    3  C4  UNL     1     -36.227  13.761  -4.679  1.00 20.00     0.206 C 
HETATM    4  C5  UNL     1     -35.917  14.728  -5.810  1.00 20.00     0.206 C 
HETATM    5  O7  UNL     1     -37.642  13.683  -4.488  1.00 20.00    -0.386 OA
HETATM    6  O8  UNL     1     -36.459  16.014  -5.516  1.00 20.00    -0.375 OA
ENDROOT
BRANCH   4   7
HETATM    7  C1  UNL     1     -34.448  14.948  -5.947  1.00 20.00     0.265 C 
HETATM    8  O6  UNL     1     -33.608  14.313  -5.317  1.00 20.00    -0.304 OA
ENDBRANCH   4   7
TORSDOF 1
ENDMDL
