MODEL 1
REMARK VINA RESULT:      -4.0      0.000      0.000
REMARK  3 active torsions:
REMARK  status: ('A' for Active; 'I' for Inactive)
REMARK    1  A    between atoms: C5_5  and  O9_9 
REMARK    2  A    between atoms: C6_6  and  C7_7 
REMARK    3  A    between atoms: C7_7  and  O9_9 
ROOT
HETATM    1  C1  UNL     1     -22.263  17.488   8.611  1.00 20.00     0.085 C 
HETATM    2  C5  UNL     1     -22.540  18.086   9.917  1.00 20.00     0.292 C 
HETATM    3  N8  UNL     1     -22.042  17.013   7.576  1.00 20.00    -0.195 NA
ENDROOT
BRANCH   2   4
HETATM    4  O9  UNL     1     -23.912  17.940  10.248  1.00 20.00    -0.367 OA
BRANCH   4   5
HETATM    5  C7  UNL     1     -24.075  17.534  11.609  1.00 20.00     0.054 C 
HETATM    6  C3  UNL     1     -24.408  16.041  11.604  1.00 20.00     0.045 C 
HETATM    7  C4  UNL     1     -22.744  17.763  12.332  1.00 20.00     0.045 C 
BRANCH   5   8
HETATM    8  C6  UNL     1     -25.183  18.380  12.267  1.00 20.00     0.033 C 
HETATM    9  C2  UNL     1     -26.071  19.134  11.283  1.00 20.00     0.008 C 
ENDBRANCH   5   8
ENDBRANCH   4   5
ENDBRANCH   2   4
TORSDOF 3
ENDMDL
MODEL 2
REMARK VINA RESULT:      -3.9     17.868     18.692
REMARK  3 active torsions:
REMARK  status: ('A' for Active; 'I' for Inactive)
REMARK    1  A    between atoms: C5_5  and  O9_9 
REMARK    2  A    between atoms: C6_6  and  C7_7 
REMARK    3  A    between atoms: C7_7  and  O9_9 
ROOT
HETATM    1  C1  UNL     1     -36.950  14.033  -4.336  1.00 20.00     0.085 C 
HETATM    2  C5  UNL     1     -35.492  14.016  -4.212  1.00 20.00     0.292 C 
HETATM    3  N8  UNL     1     -38.105  14.045  -4.434  1.00 20.00    -0.195 NA
ENDROOT
BRANCH   2   4
HETATM    4  O9  UNL     1     -35.056  15.046  -3.341  1.00 20.00    -0.367 OA
BRANCH   4   5
HETATM    5  C7  UNL     1     -33.891  15.698  -3.852  1.00 20.00     0.054 C 
HETATM    6  C3  UNL     1     -32.951  14.609  -4.374  1.00 20.00     0.045 C 
HETATM    7  C4  UNL     1     -34.326  16.601  -5.010  1.00 20.00     0.045 C 
BRANCH   5   8
HETATM    8  C6  UNL     1     -33.247  16.545  -2.738  1.00 20.00     0.033 C 
HETATM    9  C2  UNL     1     -34.214  17.004  -1.653  1.00 20.00     0.008 C 
ENDBRANCH   5   8
ENDBRANCH   4   5
ENDBRANCH   2   4
TORSDOF 3
ENDMDL
MODEL 3
REMARK VINA RESULT:      -3.7     16.829     17.639
REMARK  3 active torsions:
REMARK  status: ('A' for Active; 'I' for Inactive)
REMARK    1  A    between atoms: C5_5  and  O9_9 
REMARK    2  A    between atoms: C6_6  and  C7_7 
REMARK    3  A    between atoms: C7_7  and  O9_9 
ROOT
HETATM    1  C1  UNL     1     -35.291  13.744  -4.136  1.00 20.00     0.085 C 
HETATM    2  C5  UNL     1     -34.512  14.863  -3.607  1.00 20.00     0.292 C 
HETATM    3  N8  UNL     1     -35.908  12.855  -4.555  1.00 20.00    -0.195 NA
ENDROOT
BRANCH   2   4
HETATM    4  O9  UNL     1     -35.124  15.386  -2.439  1.00 20.00    -0.367 OA
BRANCH   4   5
HETATM    5  C7  UNL     1     -34.744  16.747  -2.221  1.00 20.00     0.054 C 
HETATM    6  C3  UNL     1     -35.598  17.614  -3.149  1.00 20.00     0.045 C 
HETATM    7  C4  UNL     1     -35.053  17.095  -0.762  1.00 20.00     0.045 C 
BRANCH   5   8
HETATM    8  C6  UNL     1     -33.235  16.907  -2.492  1.00 20.00     0.033 C 
HETATM    9  C2  UNL     1     -32.524  17.875  -1.553  1.00 20.00     0.008 C 
ENDBRANCH   5   8
ENDBRANCH   4   5
ENDBRANCH   2   4
TORSDOF 3
ENDMDL
MODEL 4
REMARK VINA RESULT:      -3.7     16.018     16.978
REMARK  3 active torsions:
REMARK  status: ('A' for Active; 'I' for Inactive)
REMARK    1  A    between atoms: C5_5  and  O9_9 
REMARK    2  A    between atoms: C6_6  and  C7_7 
REMARK    3  A    between atoms: C7_7  and  O9_9 
ROOT
HETATM    1  C1  UNL     1     -32.661   7.227   1.868  1.00 20.00     0.085 C 
HETATM    2  C5  UNL     1     -32.983   6.099   2.742  1.00 20.00     0.292 C 
HETATM    3  N8  UNL     1     -32.406   8.120   1.173  1.00 20.00    -0.195 NA
ENDROOT
BRANCH   2   4
HETATM    4  O9  UNL     1     -33.791   6.527   3.826  1.00 20.00    -0.367 OA
BRANCH   4   5
HETATM    5  C7  UNL     1     -34.598   5.457   4.323  1.00 20.00     0.054 C 
HETATM    6  C3  UNL     1     -36.007   5.648   3.760  1.00 20.00     0.045 C 
HETATM    7  C4  UNL     1     -34.009   4.142   3.804  1.00 20.00     0.045 C 
BRANCH   5   8
HETATM    8  C6  UNL     1     -34.575   5.471   5.864  1.00 20.00     0.033 C 
HETATM    9  C2  UNL     1     -34.069   6.772   6.477  1.00 20.00     0.008 C 
ENDBRANCH   5   8
ENDBRANCH   4   5
ENDBRANCH   2   4
TORSDOF 3
ENDMDL
MODEL 5
REMARK VINA RESULT:      -3.7     15.782     16.659
REMARK  3 active torsions:
REMARK  status: ('A' for Active; 'I' for Inactive)
REMARK    1  A    between atoms: C5_5  and  O9_9 
REMARK    2  A    between atoms: C6_6  and  C7_7 
REMARK    3  A    between atoms: C7_7  and  O9_9 
ROOT
HETATM    1  C1  UNL     1     -31.671  18.197  -0.905  1.00 20.00     0.085 C 
HETATM    2  C5  UNL     1     -32.944  17.827  -1.523  1.00 20.00     0.292 C 
HETATM    3  N8  UNL     1     -30.662  18.491  -0.414  1.00 20.00    -0.195 NA
ENDROOT
BRANCH   2   4
HETATM    4  O9  UNL     1     -32.723  17.015  -2.665  1.00 20.00    -0.367 OA
BRANCH   4   5
HETATM    5  C7  UNL     1     -33.946  16.442  -3.135  1.00 20.00     0.054 C 
HETATM    6  C3  UNL     1     -34.848  16.228  -1.918  1.00 20.00     0.045 C 
HETATM    7  C4  UNL     1     -34.599  17.445  -4.091  1.00 20.00     0.045 C 
BRANCH   5   8
HETATM    8  C6  UNL     1     -33.642  15.127  -3.879  1.00 20.00     0.033 C 
HETATM    9  C2  UNL     1     -34.801  14.138  -3.914  1.00 20.00     0.008 C 
ENDBRANCH   5   8
ENDBRANCH   4   5
ENDBRANCH   2   4
TORSDOF 3
ENDMDL
MODEL 6
REMARK VINA RESULT:      -3.6     17.199     18.000
REMARK  3 active torsions:
REMARK  status: ('A' for Active; 'I' for Inactive)
REMARK    1  A    between atoms: C5_5  and  O9_9 
REMARK    2  A    between atoms: C6_6  and  C7_7 
REMARK    3  A    between atoms: C7_7  and  O9_9 
ROOT
HETATM    1  C1  UNL     1     -36.001  13.892  -4.256  1.00 20.00     0.085 C 
HETATM    2  C5  UNL     1     -36.110  15.263  -3.759  1.00 20.00     0.292 C 
HETATM    3  N8  UNL     1     -35.914  12.805  -4.652  1.00 20.00    -0.195 NA
ENDROOT
BRANCH   2   4
HETATM    4  O9  UNL     1     -35.259  15.454  -2.640  1.00 20.00    -0.367 OA
BRANCH   4   5
HETATM    5  C7  UNL     1     -34.326  16.510  -2.875  1.00 20.00     0.054 C 
HETATM    6  C3  UNL     1     -33.069  15.883  -3.482  1.00 20.00     0.045 C 
HETATM    7  C4  UNL     1     -34.955  17.481  -3.879  1.00 20.00     0.045 C 
BRANCH   5   8
HETATM    8  C6  UNL     1     -34.034  17.240  -1.549  1.00 20.00     0.033 C 
HETATM    9  C2  UNL     1     -32.661  17.900  -1.479  1.00 20.00     0.008 C 
ENDBRANCH   5   8
ENDBRANCH   4   5
ENDBRANCH   2   4
TORSDOF 3
ENDMDL
MODEL 7
REMARK VINA RESULT:      -3.6     23.518     24.266
REMARK  3 active torsions:
REMARK  status: ('A' for Active; 'I' for Inactive)
REMARK    1  A    between atoms: C5_5  and  O9_9 
REMARK    2  A    between atoms: C6_6  and  C7_7 
REMARK    3  A    between atoms: C7_7  and  O9_9 
ROOT
HETATM    1  C1  UNL     1     -41.453   8.931  -0.203  1.00 20.00     0.085 C 
HETATM    2  C5  UNL     1     -41.552   7.796  -1.120  1.00 20.00     0.292 C 
HETATM    3  N8  UNL     1     -41.375   9.832   0.524  1.00 20.00    -0.195 NA
ENDROOT
BRANCH   2   4
HETATM    4  O9  UNL     1     -42.719   7.037  -0.846  1.00 20.00    -0.367 OA
BRANCH   4   5
HETATM    5  C7  UNL     1     -42.410   5.648  -0.705  1.00 20.00     0.054 C 
HETATM    6  C3  UNL     1     -43.218   4.891  -1.761  1.00 20.00     0.045 C 
HETATM    7  C4  UNL     1     -40.913   5.468  -0.974  1.00 20.00     0.045 C 
BRANCH   5   8
HETATM    8  C6  UNL     1     -42.745   5.192   0.729  1.00 20.00     0.033 C 
HETATM    9  C2  UNL     1     -43.417   6.256   1.590  1.00 20.00     0.008 C 
ENDBRANCH   5   8
ENDBRANCH   4   5
ENDBRANCH   2   4
TORSDOF 3
ENDMDL
MODEL 8
REMARK VINA RESULT:      -3.6     18.429     19.361
REMARK  3 active torsions:
REMARK  status: ('A' for Active; 'I' for Inactive)
REMARK    1  A    between atoms: C5_5  and  O9_9 
REMARK    2  A    between atoms: C6_6  and  C7_7 
REMARK    3  A    between atoms: C7_7  and  O9_9 
ROOT
HETATM    1  C1  UNL     1     -37.381  14.627  -4.093  1.00 20.00     0.085 C 
HETATM    2  C5  UNL     1     -36.208  15.394  -3.675  1.00 20.00     0.292 C 
HETATM    3  N8  UNL     1     -38.312  14.020  -4.426  1.00 20.00    -0.195 NA
ENDROOT
BRANCH   2   4
HETATM    4  O9  UNL     1     -35.048  14.577  -3.697  1.00 20.00    -0.367 OA
BRANCH   4   5
HETATM    5  C7  UNL     1     -33.912  15.306  -4.165  1.00 20.00     0.054 C 
HETATM    6  C3  UNL     1     -33.505  16.281  -3.058  1.00 20.00     0.045 C 
HETATM    7  C4  UNL     1     -32.778  14.305  -4.412  1.00 20.00     0.045 C 
BRANCH   5   8
HETATM    8  C6  UNL     1     -34.272  16.027  -5.479  1.00 20.00     0.033 C 
HETATM    9  C2  UNL     1     -34.111  15.174  -6.733  1.00 20.00     0.008 C 
ENDBRANCH   5   8
ENDBRANCH   4   5
ENDBRANCH   2   4
TORSDOF 3
ENDMDL
MODEL 9
REMARK VINA RESULT:      -3.5     18.163     18.954
REMARK  3 active torsions:
REMARK  status: ('A' for Active; 'I' for Inactive)
REMARK    1  A    between atoms: C5_5  and  O9_9 
REMARK    2  A    between atoms: C6_6  and  C7_7 
REMARK    3  A    between atoms: C7_7  and  O9_9 
ROOT
HETATM    1  C1  UNL     1     -36.883  14.299  -4.597  1.00 20.00     0.085 C 
HETATM    2  C5  UNL     1     -35.542  14.785  -4.920  1.00 20.00     0.292 C 
HETATM    3  N8  UNL     1     -37.946  13.912  -4.340  1.00 20.00    -0.195 NA
ENDROOT
BRANCH   2   4
HETATM    4  O9  UNL     1     -35.370  16.113  -4.451  1.00 20.00    -0.367 OA
BRANCH   4   5
HETATM    5  C7  UNL     1     -34.205  16.223  -3.629  1.00 20.00     0.054 C 
HETATM    6  C3  UNL     1     -34.653  16.053  -2.176  1.00 20.00     0.045 C 
HETATM    7  C4  UNL     1     -33.250  15.088  -4.010  1.00 20.00     0.045 C 
BRANCH   5   8
HETATM    8  C6  UNL     1     -33.530  17.586  -3.879  1.00 20.00     0.033 C 
HETATM    9  C2  UNL     1     -34.056  18.339  -5.095  1.00 20.00     0.008 C 
ENDBRANCH   5   8
ENDBRANCH   4   5
ENDBRANCH   2   4
TORSDOF 3
ENDMDL
