MODEL 1
REMARK VINA RESULT:      -3.8      0.000      0.000
REMARK  3 active torsions:
REMARK  status: ('A' for Active; 'I' for Inactive)
REMARK    1  A    between atoms: C5_5  and  C6_6 
REMARK    2  A    between atoms: C5_5  and  C7_7 
REMARK    3  A    between atoms: C7_7  and  O8_8 
ROOT
HETATM    1  C2  UNL     1     -35.845  14.555  -6.003  1.00 20.00     0.045 C 
HETATM    2  C3  UNL     1     -35.184  13.087  -4.081  1.00 20.00     0.045 C 
HETATM    3  C7  UNL     1     -36.120  14.210  -4.533  1.00 20.00     0.054 C 
ENDROOT
BRANCH   3   4
HETATM    4  C5  UNL     1     -35.974  15.490  -3.675  1.00 20.00     0.057 C 
BRANCH   4   5
HETATM    5  C6  UNL     1     -34.818  15.534  -2.657  1.00 20.00     0.081 C 
HETATM    6  C1  UNL     1     -35.136  16.507  -1.525  1.00 20.00     0.026 C 
HETATM    7 CL9  UNL     1     -33.276  16.031  -3.412  1.00 20.00    -0.125 Cl
ENDBRANCH   4   5
ENDBRANCH   3   4
BRANCH   3   8
HETATM    8  O8  UNL     1     -37.465  13.740  -4.455  1.00 20.00    -0.386 OA
HETATM    9  C4  UNL     1     -38.373  14.810  -4.240  1.00 20.00     0.202 C 
ENDBRANCH   3   8
TORSDOF 3
ENDMDL
MODEL 2
REMARK VINA RESULT:      -3.6      2.053      2.817
REMARK  3 active torsions:
REMARK  status: ('A' for Active; 'I' for Inactive)
REMARK    1  A    between atoms: C5_5  and  C6_6 
REMARK    2  A    between atoms: C5_5  and  C7_7 
REMARK    3  A    between atoms: C7_7  and  O8_8 
ROOT
HETATM    1  C2  UNL     1     -36.121  13.673  -4.549  1.00 20.00     0.045 C 
HETATM    2  C3  UNL     1     -35.762  16.060  -5.225  1.00 20.00     0.045 C 
HETATM    3  C7  UNL     1     -35.089  14.801  -4.674  1.00 20.00     0.054 C 
ENDROOT
BRANCH   3   4
HETATM    4  C5  UNL     1     -34.423  15.035  -3.296  1.00 20.00     0.057 C 
BRANCH   4   5
HETATM    5  C6  UNL     1     -34.419  16.474  -2.745  1.00 20.00     0.081 C 
HETATM    6  C1  UNL     1     -32.990  16.985  -2.585  1.00 20.00     0.026 C 
HETATM    7 CL9  UNL     1     -35.239  16.589  -1.161  1.00 20.00    -0.125 Cl
ENDBRANCH   4   5
ENDBRANCH   3   4
BRANCH   3   8
HETATM    8  O8  UNL     1     -34.101  14.367  -5.608  1.00 20.00    -0.386 OA
HETATM    9  C4  UNL     1     -34.149  15.134  -6.802  1.00 20.00     0.202 C 
ENDBRANCH   3   8
TORSDOF 3
ENDMDL
MODEL 3
REMARK VINA RESULT:      -3.6      1.668      1.818
REMARK  3 active torsions:
REMARK  status: ('A' for Active; 'I' for Inactive)
REMARK    1  A    between atoms: C5_5  and  C6_6 
REMARK    2  A    between atoms: C5_5  and  C7_7 
REMARK    3  A    between atoms: C7_7  and  O8_8 
ROOT
HETATM    1  C2  UNL     1     -34.396  15.086  -6.163  1.00 20.00     0.045 C 
HETATM    2  C3  UNL     1     -32.779  14.380  -4.382  1.00 20.00     0.045 C 
HETATM    3  C7  UNL     1     -34.239  14.726  -4.679  1.00 20.00     0.054 C 
ENDROOT
BRANCH   3   4
HETATM    4  C5  UNL     1     -34.762  15.899  -3.814  1.00 20.00     0.057 C 
BRANCH   4   5
HETATM    5  C6  UNL     1     -34.134  16.086  -2.419  1.00 20.00     0.081 C 
HETATM    6  C1  UNL     1     -35.196  16.500  -1.403  1.00 20.00     0.026 C 
HETATM    7 CL9  UNL     1     -32.845  17.324  -2.423  1.00 20.00    -0.125 Cl
ENDBRANCH   4   5
ENDBRANCH   3   4
BRANCH   3   8
HETATM    8  O8  UNL     1     -35.039  13.569  -4.439  1.00 20.00    -0.386 OA
HETATM    9  C4  UNL     1     -36.423  13.883  -4.477  1.00 20.00     0.202 C 
ENDBRANCH   3   8
TORSDOF 3
ENDMDL
MODEL 4
REMARK VINA RESULT:      -3.6      1.309      1.756
REMARK  3 active torsions:
REMARK  status: ('A' for Active; 'I' for Inactive)
REMARK    1  A    between atoms: C5_5  and  C6_6 
REMARK    2  A    between atoms: C5_5  and  C7_7 
REMARK    3  A    between atoms: C7_7  and  O8_8 
ROOT
HETATM    1  C2  UNL     1     -36.995  16.191  -4.876  1.00 20.00     0.045 C 
HETATM    2  C3  UNL     1     -35.830  14.321  -6.075  1.00 20.00     0.045 C 
HETATM    3  C7  UNL     1     -36.464  14.756  -4.752  1.00 20.00     0.054 C 
ENDROOT
BRANCH   3   4
HETATM    4  C5  UNL     1     -35.475  14.682  -3.564  1.00 20.00     0.057 C 
BRANCH   4   5
HETATM    5  C6  UNL     1     -34.784  15.991  -3.133  1.00 20.00     0.081 C 
HETATM    6  C1  UNL     1     -33.276  15.898  -3.348  1.00 20.00     0.026 C 
HETATM    7 CL9  UNL     1     -35.087  16.376  -1.415  1.00 20.00    -0.125 Cl
ENDBRANCH   4   5
ENDBRANCH   3   4
BRANCH   3   8
HETATM    8  O8  UNL     1     -37.585  13.914  -4.486  1.00 20.00    -0.386 OA
HETATM    9  C4  UNL     1     -38.752  14.678  -4.218  1.00 20.00     0.202 C 
ENDBRANCH   3   8
TORSDOF 3
ENDMDL
MODEL 5
REMARK VINA RESULT:      -3.5      1.859      2.331
REMARK  3 active torsions:
REMARK  status: ('A' for Active; 'I' for Inactive)
REMARK    1  A    between atoms: C5_5  and  C6_6 
REMARK    2  A    between atoms: C5_5  and  C7_7 
REMARK    3  A    between atoms: C7_7  and  O8_8 
ROOT
HETATM    1  C2  UNL     1     -35.739  16.204  -5.701  1.00 20.00     0.045 C 
HETATM    2  C3  UNL     1     -33.815  15.036  -6.805  1.00 20.00     0.045 C 
HETATM    3  C7  UNL     1     -34.793  14.998  -5.629  1.00 20.00     0.054 C 
ENDROOT
BRANCH   3   4
HETATM    4  C5  UNL     1     -34.077  14.995  -4.257  1.00 20.00     0.057 C 
BRANCH   4   5
HETATM    5  C6  UNL     1     -34.201  16.263  -3.390  1.00 20.00     0.081 C 
HETATM    6  C1  UNL     1     -32.822  16.762  -2.968  1.00 20.00     0.026 C 
HETATM    7 CL9  UNL     1     -35.173  15.977  -1.917  1.00 20.00    -0.125 Cl
ENDBRANCH   4   5
ENDBRANCH   3   4
BRANCH   3   8
HETATM    8  O8  UNL     1     -35.597  13.824  -5.745  1.00 20.00    -0.386 OA
HETATM    9  C4  UNL     1     -36.419  13.648  -4.601  1.00 20.00     0.202 C 
ENDBRANCH   3   8
TORSDOF 3
ENDMDL
MODEL 6
REMARK VINA RESULT:      -3.4      1.990      2.410
REMARK  3 active torsions:
REMARK  status: ('A' for Active; 'I' for Inactive)
REMARK    1  A    between atoms: C5_5  and  C6_6 
REMARK    2  A    between atoms: C5_5  and  C7_7 
REMARK    3  A    between atoms: C7_7  and  O8_8 
ROOT
HETATM    1  C2  UNL     1     -32.802  14.390  -4.399  1.00 20.00     0.045 C 
HETATM    2  C3  UNL     1     -35.248  13.895  -4.161  1.00 20.00     0.045 C 
HETATM    3  C7  UNL     1     -34.221  14.937  -4.606  1.00 20.00     0.054 C 
ENDROOT
BRANCH   3   4
HETATM    4  C5  UNL     1     -34.364  16.278  -3.848  1.00 20.00     0.057 C 
BRANCH   4   5
HETATM    5  C6  UNL     1     -33.963  16.298  -2.359  1.00 20.00     0.081 C 
HETATM    6  C1  UNL     1     -35.175  16.596  -1.481  1.00 20.00     0.026 C 
HETATM    7 CL9  UNL     1     -32.705  17.520  -2.018  1.00 20.00    -0.125 Cl
ENDBRANCH   4   5
ENDBRANCH   3   4
BRANCH   3   8
HETATM    8  O8  UNL     1     -34.383  15.166  -6.006  1.00 20.00    -0.386 OA
HETATM    9  C4  UNL     1     -35.627  14.663  -6.469  1.00 20.00     0.202 C 
ENDBRANCH   3   8
TORSDOF 3
ENDMDL
MODEL 7
REMARK VINA RESULT:      -3.2      2.364      4.038
REMARK  3 active torsions:
REMARK  status: ('A' for Active; 'I' for Inactive)
REMARK    1  A    between atoms: C5_5  and  C6_6 
REMARK    2  A    between atoms: C5_5  and  C7_7 
REMARK    3  A    between atoms: C7_7  and  O8_8 
ROOT
HETATM    1  C2  UNL     1     -35.184  16.585  -1.441  1.00 20.00     0.045 C 
HETATM    2  C3  UNL     1     -32.941  16.946  -2.503  1.00 20.00     0.045 C 
HETATM    3  C7  UNL     1     -34.391  16.527  -2.754  1.00 20.00     0.054 C 
ENDROOT
BRANCH   3   4
HETATM    4  C5  UNL     1     -34.507  15.105  -3.354  1.00 20.00     0.057 C 
BRANCH   4   5
HETATM    5  C6  UNL     1     -35.371  14.937  -4.619  1.00 20.00     0.081 C 
HETATM    6  C1  UNL     1     -36.163  13.633  -4.559  1.00 20.00     0.026 C 
HETATM    7 CL9  UNL     1     -34.386  14.930  -6.110  1.00 20.00    -0.125 Cl
ENDBRANCH   4   5
ENDBRANCH   3   4
BRANCH   3   8
HETATM    8  O8  UNL     1     -34.988  17.467  -3.648  1.00 20.00    -0.386 OA
HETATM    9  C4  UNL     1     -34.024  18.376  -4.157  1.00 20.00     0.202 C 
ENDBRANCH   3   8
TORSDOF 3
ENDMDL
MODEL 8
REMARK VINA RESULT:      -3.2      1.940      2.207
REMARK  3 active torsions:
REMARK  status: ('A' for Active; 'I' for Inactive)
REMARK    1  A    between atoms: C5_5  and  C6_6 
REMARK    2  A    between atoms: C5_5  and  C7_7 
REMARK    3  A    between atoms: C7_7  and  O8_8 
ROOT
HETATM    1  C2  UNL     1     -34.235  15.109  -5.561  1.00 20.00     0.045 C 
HETATM    2  C3  UNL     1     -36.059  13.722  -4.544  1.00 20.00     0.045 C 
HETATM    3  C7  UNL     1     -35.282  15.036  -4.441  1.00 20.00     0.054 C 
ENDROOT
BRANCH   3   4
HETATM    4  C5  UNL     1     -34.577  15.207  -3.074  1.00 20.00     0.057 C 
BRANCH   4   5
HETATM    5  C6  UNL     1     -34.476  16.635  -2.502  1.00 20.00     0.081 C 
HETATM    6  C1  UNL     1     -33.016  17.065  -2.387  1.00 20.00     0.026 C 
HETATM    7 CL9  UNL     1     -35.231  16.767  -0.888  1.00 20.00    -0.125 Cl
ENDBRANCH   4   5
ENDBRANCH   3   4
BRANCH   3   8
HETATM    8  O8  UNL     1     -36.190  16.118  -4.643  1.00 20.00    -0.386 OA
HETATM    9  C4  UNL     1     -36.227  16.513  -6.006  1.00 20.00     0.202 C 
ENDBRANCH   3   8
TORSDOF 3
ENDMDL
MODEL 9
REMARK VINA RESULT:      -3.2      2.619      4.243
REMARK  3 active torsions:
REMARK  status: ('A' for Active; 'I' for Inactive)
REMARK    1  A    between atoms: C5_5  and  C6_6 
REMARK    2  A    between atoms: C5_5  and  C7_7 
REMARK    3  A    between atoms: C7_7  and  O8_8 
ROOT
HETATM    1  C2  UNL     1     -34.730  17.516  -3.756  1.00 20.00     0.045 C 
HETATM    2  C3  UNL     1     -35.070  16.498  -1.490  1.00 20.00     0.045 C 
HETATM    3  C7  UNL     1     -34.263  16.420  -2.788  1.00 20.00     0.054 C 
ENDROOT
BRANCH   3   4
HETATM    4  C5  UNL     1     -34.384  15.043  -3.484  1.00 20.00     0.057 C 
BRANCH   4   5
HETATM    5  C6  UNL     1     -35.298  14.952  -4.722  1.00 20.00     0.081 C 
HETATM    6  C1  UNL     1     -36.194  13.719  -4.638  1.00 20.00     0.026 C 
HETATM    7 CL9  UNL     1     -34.362  14.867  -6.242  1.00 20.00    -0.125 Cl
ENDBRANCH   4   5
ENDBRANCH   3   4
BRANCH   3   8
HETATM    8  O8  UNL     1     -32.892  16.679  -2.488  1.00 20.00    -0.386 OA
HETATM    9  C4  UNL     1     -32.678  18.054  -2.204  1.00 20.00     0.202 C 
ENDBRANCH   3   8
TORSDOF 3
ENDMDL
