MODEL 1
REMARK VINA RESULT:      -3.6      0.000      0.000
REMARK  4 active torsions:
REMARK  status: ('A' for Active; 'I' for Inactive)
REMARK    1  A    between atoms: C5_5  and  C6_6 
REMARK    2  A    between atoms: C5_5  and  C7_7 
REMARK    3  A    between atoms: C6_6  and  S9_9 
REMARK    4  A    between atoms: C7_7  and  O8_8 
ROOT
HETATM    1  C5  UNL     1     -23.868  16.977   9.917  1.00 20.00     0.051 C 
ENDROOT
BRANCH   1   2
HETATM    2  C6  UNL     1     -23.120  18.156   9.263  1.00 20.00     0.043 C 
HETATM    3  C1  UNL     1     -24.010  19.117   8.482  1.00 20.00     0.021 C 
BRANCH   2   4
HETATM    4  S9  UNL     1     -21.861  17.476   8.116  1.00 20.00    -0.178 SA
HETATM    5  H25 UNL     1     -22.297  18.146   7.044  1.00 20.00     0.102 HD
ENDBRANCH   2   4
ENDBRANCH   1   2
BRANCH   1   6
HETATM    6  C7  UNL     1     -24.155  17.084  11.434  1.00 20.00     0.054 C 
HETATM    7  C2  UNL     1     -24.731  15.794  12.019  1.00 20.00     0.045 C 
HETATM    8  C3  UNL     1     -22.860  17.457  12.169  1.00 20.00     0.045 C 
BRANCH   6   9
HETATM    9  O8  UNL     1     -25.084  18.145  11.657  1.00 20.00    -0.386 OA
HETATM   10  C4  UNL     1     -26.246  17.680  12.325  1.00 20.00     0.202 C 
ENDBRANCH   6   9
ENDBRANCH   1   6
TORSDOF 4
ENDMDL
MODEL 2
REMARK VINA RESULT:      -3.5     17.967     19.072
REMARK  4 active torsions:
REMARK  status: ('A' for Active; 'I' for Inactive)
REMARK    1  A    between atoms: C5_5  and  C6_6 
REMARK    2  A    between atoms: C5_5  and  C7_7 
REMARK    3  A    between atoms: C6_6  and  S9_9 
REMARK    4  A    between atoms: C7_7  and  O8_8 
ROOT
HETATM    1  C5  UNL     1     -35.954  15.591  -3.784  1.00 20.00     0.051 C 
ENDROOT
BRANCH   1   2
HETATM    2  C6  UNL     1     -34.840  15.621  -2.718  1.00 20.00     0.043 C 
HETATM    3  C1  UNL     1     -35.182  16.420  -1.466  1.00 20.00     0.021 C 
BRANCH   2   4
HETATM    4  S9  UNL     1     -33.336  16.351  -3.475  1.00 20.00    -0.178 SA
HETATM    5  H25 UNL     1     -33.105  15.326  -4.302  1.00 20.00     0.102 HD
ENDBRANCH   2   4
ENDBRANCH   1   2
BRANCH   1   6
HETATM    6  C7  UNL     1     -36.099  14.291  -4.610  1.00 20.00     0.054 C 
HETATM    7  C2  UNL     1     -35.806  14.499  -6.097  1.00 20.00     0.045 C 
HETATM    8  C3  UNL     1     -35.159  13.220  -4.039  1.00 20.00     0.045 C 
BRANCH   6   9
HETATM    9  O8  UNL     1     -37.432  13.798  -4.469  1.00 20.00    -0.386 OA
HETATM   10  C4  UNL     1     -38.349  14.853  -4.228  1.00 20.00     0.202 C 
ENDBRANCH   6   9
ENDBRANCH   1   6
TORSDOF 4
ENDMDL
MODEL 3
REMARK VINA RESULT:      -3.4     16.940     18.170
REMARK  4 active torsions:
REMARK  status: ('A' for Active; 'I' for Inactive)
REMARK    1  A    between atoms: C5_5  and  C6_6 
REMARK    2  A    between atoms: C5_5  and  C7_7 
REMARK    3  A    between atoms: C6_6  and  S9_9 
REMARK    4  A    between atoms: C7_7  and  O8_8 
ROOT
HETATM    1  C5  UNL     1     -34.520  16.070  -3.944  1.00 20.00     0.051 C 
ENDROOT
BRANCH   1   2
HETATM    2  C6  UNL     1     -34.044  16.194  -2.483  1.00 20.00     0.043 C 
HETATM    3  C1  UNL     1     -35.163  16.386  -1.465  1.00 20.00     0.021 C 
BRANCH   2   4
HETATM    4  S9  UNL     1     -32.908  17.630  -2.366  1.00 20.00    -0.178 SA
HETATM    5  H25 UNL     1     -33.553  18.215  -1.351  1.00 20.00     0.102 HD
ENDBRANCH   2   4
ENDBRANCH   1   2
BRANCH   1   6
HETATM    6  C7  UNL     1     -34.124  14.782  -4.704  1.00 20.00     0.054 C 
HETATM    7  C2  UNL     1     -34.332  14.898  -6.214  1.00 20.00     0.045 C 
HETATM    8  C3  UNL     1     -32.655  14.449  -4.404  1.00 20.00     0.045 C 
BRANCH   6   9
HETATM    9  O8  UNL     1     -34.908  13.694  -4.213  1.00 20.00    -0.386 OA
HETATM   10  C4  UNL     1     -36.260  13.806  -4.628  1.00 20.00     0.202 C 
ENDBRANCH   6   9
ENDBRANCH   1   6
TORSDOF 4
ENDMDL
MODEL 4
REMARK VINA RESULT:      -3.4     17.392     18.654
REMARK  4 active torsions:
REMARK  status: ('A' for Active; 'I' for Inactive)
REMARK    1  A    between atoms: C5_5  and  C6_6 
REMARK    2  A    between atoms: C5_5  and  C7_7 
REMARK    3  A    between atoms: C6_6  and  S9_9 
REMARK    4  A    between atoms: C7_7  and  O8_8 
ROOT
HETATM    1  C5  UNL     1     -34.730  15.085  -3.171  1.00 20.00     0.051 C 
ENDROOT
BRANCH   1   2
HETATM    2  C6  UNL     1     -34.439  16.560  -2.827  1.00 20.00     0.043 C 
HETATM    3  C1  UNL     1     -32.957  16.910  -2.744  1.00 20.00     0.021 C 
BRANCH   2   4
HETATM    4  S9  UNL     1     -35.212  16.938  -1.206  1.00 20.00    -0.178 SA
HETATM    5  H25 UNL     1     -36.204  16.050  -1.334  1.00 20.00     0.102 HD
ENDBRANCH   2   4
ENDBRANCH   1   2
BRANCH   1   6
HETATM    6  C7  UNL     1     -35.205  14.782  -4.612  1.00 20.00     0.054 C 
HETATM    7  C2  UNL     1     -36.263  13.679  -4.666  1.00 20.00     0.045 C 
HETATM    8  C3  UNL     1     -35.760  16.067  -5.242  1.00 20.00     0.045 C 
BRANCH   6   9
HETATM    9  O8  UNL     1     -34.081  14.381  -5.397  1.00 20.00    -0.386 OA
HETATM   10  C4  UNL     1     -34.054  15.062  -6.641  1.00 20.00     0.202 C 
ENDBRANCH   6   9
ENDBRANCH   1   6
TORSDOF 4
ENDMDL
MODEL 5
REMARK VINA RESULT:      -3.2     17.031     18.280
REMARK  4 active torsions:
REMARK  status: ('A' for Active; 'I' for Inactive)
REMARK    1  A    between atoms: C5_5  and  C6_6 
REMARK    2  A    between atoms: C5_5  and  C7_7 
REMARK    3  A    between atoms: C6_6  and  S9_9 
REMARK    4  A    between atoms: C7_7  and  O8_8 
ROOT
HETATM    1  C5  UNL     1     -34.534  16.291  -3.834  1.00 20.00     0.051 C 
ENDROOT
BRANCH   1   2
HETATM    2  C6  UNL     1     -34.043  16.372  -2.374  1.00 20.00     0.043 C 
HETATM    3  C1  UNL     1     -35.147  16.599  -1.347  1.00 20.00     0.021 C 
BRANCH   2   4
HETATM    4  S9  UNL     1     -32.842  17.753  -2.244  1.00 20.00    -0.178 SA
HETATM    5  H25 UNL     1     -33.743  18.662  -1.854  1.00 20.00     0.102 HD
ENDBRANCH   2   4
ENDBRANCH   1   2
BRANCH   1   6
HETATM    6  C7  UNL     1     -34.262  14.970  -4.592  1.00 20.00     0.054 C 
HETATM    7  C2  UNL     1     -32.843  14.444  -4.374  1.00 20.00     0.045 C 
HETATM    8  C3  UNL     1     -35.284  13.913  -4.150  1.00 20.00     0.045 C 
BRANCH   6   9
HETATM    9  O8  UNL     1     -34.462  15.188  -5.990  1.00 20.00    -0.386 OA
HETATM   10  C4  UNL     1     -35.685  14.620  -6.429  1.00 20.00     0.202 C 
ENDBRANCH   6   9
ENDBRANCH   1   6
TORSDOF 4
ENDMDL
MODEL 6
REMARK VINA RESULT:      -3.2     18.241     19.422
REMARK  4 active torsions:
REMARK  status: ('A' for Active; 'I' for Inactive)
REMARK    1  A    between atoms: C5_5  and  C6_6 
REMARK    2  A    between atoms: C5_5  and  C7_7 
REMARK    3  A    between atoms: C6_6  and  S9_9 
REMARK    4  A    between atoms: C7_7  and  O8_8 
ROOT
HETATM    1  C5  UNL     1     -35.982  16.008  -3.994  1.00 20.00     0.051 C 
ENDROOT
BRANCH   1   2
HETATM    2  C6  UNL     1     -34.974  15.620  -2.893  1.00 20.00     0.043 C 
HETATM    3  C1  UNL     1     -35.150  16.373  -1.579  1.00 20.00     0.021 C 
BRANCH   2   4
HETATM    4  S9  UNL     1     -33.281  15.943  -3.521  1.00 20.00    -0.178 SA
HETATM    5  H25 UNL     1     -32.874  14.672  -3.437  1.00 20.00     0.102 HD
ENDBRANCH   2   4
ENDBRANCH   1   2
BRANCH   1   6
HETATM    6  C7  UNL     1     -36.727  14.851  -4.701  1.00 20.00     0.054 C 
HETATM    7  C2  UNL     1     -36.059  13.493  -4.478  1.00 20.00     0.045 C 
HETATM    8  C3  UNL     1     -38.179  14.805  -4.206  1.00 20.00     0.045 C 
BRANCH   6   9
HETATM    9  O8  UNL     1     -36.771  15.116  -6.104  1.00 20.00    -0.386 OA
HETATM   10  C4  UNL     1     -35.540  14.791  -6.728  1.00 20.00     0.202 C 
ENDBRANCH   6   9
ENDBRANCH   1   6
TORSDOF 4
ENDMDL
MODEL 7
REMARK VINA RESULT:      -3.1     16.798     18.070
REMARK  4 active torsions:
REMARK  status: ('A' for Active; 'I' for Inactive)
REMARK    1  A    between atoms: C5_5  and  C6_6 
REMARK    2  A    between atoms: C5_5  and  C7_7 
REMARK    3  A    between atoms: C6_6  and  S9_9 
REMARK    4  A    between atoms: C7_7  and  O8_8 
ROOT
HETATM    1  C5  UNL     1     -34.764  15.507  -2.564  1.00 20.00     0.051 C 
ENDROOT
BRANCH   1   2
HETATM    2  C6  UNL     1     -34.518  17.001  -2.271  1.00 20.00     0.043 C 
HETATM    3  C1  UNL     1     -33.051  17.379  -2.096  1.00 20.00     0.021 C 
BRANCH   2   4
HETATM    4  S9  UNL     1     -35.414  17.443  -0.732  1.00 20.00    -0.178 SA
HETATM    5  H25 UNL     1     -35.925  16.223  -0.533  1.00 20.00     0.102 HD
ENDBRANCH   2   4
ENDBRANCH   1   2
BRANCH   1   6
HETATM    6  C7  UNL     1     -34.694  15.063  -4.045  1.00 20.00     0.054 C 
HETATM    7  C2  UNL     1     -33.303  14.577  -4.452  1.00 20.00     0.045 C 
HETATM    8  C3  UNL     1     -35.726  13.953  -4.290  1.00 20.00     0.045 C 
BRANCH   6   9
HETATM    9  O8  UNL     1     -35.058  16.165  -4.878  1.00 20.00    -0.386 OA
HETATM   10  C4  UNL     1     -34.487  16.044  -6.170  1.00 20.00     0.202 C 
ENDBRANCH   6   9
ENDBRANCH   1   6
TORSDOF 4
ENDMDL
MODEL 8
REMARK VINA RESULT:      -3.1     17.761     19.053
REMARK  4 active torsions:
REMARK  status: ('A' for Active; 'I' for Inactive)
REMARK    1  A    between atoms: C5_5  and  C6_6 
REMARK    2  A    between atoms: C5_5  and  C7_7 
REMARK    3  A    between atoms: C6_6  and  S9_9 
REMARK    4  A    between atoms: C7_7  and  O8_8 
ROOT
HETATM    1  C5  UNL     1     -35.299  16.084  -4.205  1.00 20.00     0.051 C 
ENDROOT
BRANCH   1   2
HETATM    2  C6  UNL     1     -34.486  15.852  -2.915  1.00 20.00     0.043 C 
HETATM    3  C1  UNL     1     -35.200  16.269  -1.633  1.00 20.00     0.021 C 
BRANCH   2   4
HETATM    4  S9  UNL     1     -32.923  16.804  -3.038  1.00 20.00    -0.178 SA
HETATM    5  H25 UNL     1     -32.129  15.730  -3.095  1.00 20.00     0.102 HD
ENDBRANCH   2   4
ENDBRANCH   1   2
BRANCH   1   6
HETATM    6  C7  UNL     1     -35.454  14.878  -5.161  1.00 20.00     0.054 C 
HETATM    7  C2  UNL     1     -36.157  13.689  -4.504  1.00 20.00     0.045 C 
HETATM    8  C3  UNL     1     -36.232  15.318  -6.409  1.00 20.00     0.045 C 
BRANCH   6   9
HETATM    9  O8  UNL     1     -34.160  14.462  -5.599  1.00 20.00    -0.386 OA
HETATM   10  C4  UNL     1     -33.832  15.038  -6.853  1.00 20.00     0.202 C 
ENDBRANCH   6   9
ENDBRANCH   1   6
TORSDOF 4
ENDMDL
MODEL 9
REMARK VINA RESULT:      -3.1     18.577     19.735
REMARK  4 active torsions:
REMARK  status: ('A' for Active; 'I' for Inactive)
REMARK    1  A    between atoms: C5_5  and  C6_6 
REMARK    2  A    between atoms: C5_5  and  C7_7 
REMARK    3  A    between atoms: C6_6  and  S9_9 
REMARK    4  A    between atoms: C7_7  and  O8_8 
ROOT
HETATM    1  C5  UNL     1     -35.122  15.729  -5.564  1.00 20.00     0.051 C 
ENDROOT
BRANCH   1   2
HETATM    2  C6  UNL     1     -35.202  15.193  -7.008  1.00 20.00     0.043 C 
HETATM    3  C1  UNL     1     -33.925  15.371  -7.821  1.00 20.00     0.021 C 
BRANCH   2   4
HETATM    4  S9  UNL     1     -36.563  16.067  -7.873  1.00 20.00    -0.178 SA
HETATM    5  H25 UNL     1     -37.495  15.150  -7.595  1.00 20.00     0.102 HD
ENDBRANCH   2   4
ENDBRANCH   1   2
BRANCH   1   6
HETATM    6  C7  UNL     1     -35.019  14.679  -4.432  1.00 20.00     0.054 C 
HETATM    7  C2  UNL     1     -34.947  15.313  -3.042  1.00 20.00     0.045 C 
HETATM    8  C3  UNL     1     -36.224  13.730  -4.510  1.00 20.00     0.045 C 
BRANCH   6   9
HETATM    9  O8  UNL     1     -33.848  13.887  -4.637  1.00 20.00    -0.386 OA
HETATM   10  C4  UNL     1     -32.673  14.615  -4.320  1.00 20.00     0.202 C 
ENDBRANCH   6   9
ENDBRANCH   1   6
TORSDOF 4
ENDMDL
