MODEL 1
REMARK VINA RESULT:      -4.5      0.000      0.000
REMARK  1 active torsions:
REMARK  status: ('A' for Active; 'I' for Inactive)
REMARK    1  A    between atoms: C9_9  and  O10_10 
ROOT
HETATM    1  C1  UNL     1     -33.537  16.308  -2.685  1.00 20.00     0.001 C 
HETATM    2  C2  UNL     1     -34.945  15.938  -2.226  1.00 20.00     0.005 C 
HETATM    3  C3  UNL     1     -33.455  17.032  -4.025  1.00 20.00     0.007 C 
HETATM    4  C4  UNL     1     -36.622  16.083  -4.127  1.00 20.00     0.005 C 
HETATM    5  C5  UNL     1     -35.769  16.931  -5.068  1.00 20.00     0.007 C 
HETATM    6  C6  UNL     1     -34.956  14.203  -4.113  1.00 20.00     0.036 C 
HETATM    7  C7  UNL     1     -35.795  15.148  -3.240  1.00 20.00    -0.012 C 
HETATM    8  C8  UNL     1     -34.313  16.456  -5.170  1.00 20.00     0.014 C 
HETATM    9  C9  UNL     1     -34.262  14.923  -5.280  1.00 20.00     0.122 C 
ENDROOT
BRANCH   9  10
HETATM   10  O10 UNL     1     -32.911  14.490  -5.391  1.00 20.00    -0.395 OA
HETATM   11  H26 UNL     1     -32.380  15.094  -4.848  1.00 20.00     0.210 HD
ENDBRANCH   9  10
TORSDOF 1
ENDMDL
MODEL 2
REMARK VINA RESULT:      -4.5     17.709     18.826
REMARK  1 active torsions:
REMARK  status: ('A' for Active; 'I' for Inactive)
REMARK    1  A    between atoms: C9_9  and  O10_10 
ROOT
HETATM    1  C1  UNL     1     -24.320  18.485   9.498  1.00 20.00     0.001 C 
HETATM    2  C2  UNL     1     -25.404  18.875  10.498  1.00 20.00     0.005 C 
HETATM    3  C3  UNL     1     -23.911  17.016   9.516  1.00 20.00     0.007 C 
HETATM    4  C4  UNL     1     -25.719  17.099  12.284  1.00 20.00     0.005 C 
HETATM    5  C5  UNL     1     -25.012  15.963  11.548  1.00 20.00     0.007 C 
HETATM    6  C6  UNL     1     -23.648  18.521  12.332  1.00 20.00     0.036 C 
HETATM    7  C7  UNL     1     -25.139  18.480  11.964  1.00 20.00    -0.012 C 
HETATM    8  C8  UNL     1     -23.684  16.384  10.903  1.00 20.00     0.014 C 
HETATM    9  C9  UNL     1     -22.882  17.270  11.871  1.00 20.00     0.122 C 
ENDROOT
BRANCH   9  10
HETATM   10  O10 UNL     1     -21.645  17.644  11.275  1.00 20.00    -0.395 OA
HETATM   11  H26 UNL     1     -21.384  18.484  11.682  1.00 20.00     0.210 HD
ENDBRANCH   9  10
TORSDOF 1
ENDMDL
MODEL 3
REMARK VINA RESULT:      -4.5      0.884      2.248
REMARK  1 active torsions:
REMARK  status: ('A' for Active; 'I' for Inactive)
REMARK    1  A    between atoms: C9_9  and  O10_10 
ROOT
HETATM    1  C1  UNL     1     -34.467  17.403  -5.333  1.00 20.00     0.001 C 
HETATM    2  C2  UNL     1     -34.284  17.719  -3.851  1.00 20.00     0.005 C 
HETATM    3  C3  UNL     1     -35.372  16.215  -5.642  1.00 20.00     0.007 C 
HETATM    4  C4  UNL     1     -35.030  15.789  -2.380  1.00 20.00     0.005 C 
HETATM    5  C5  UNL     1     -35.854  15.054  -3.435  1.00 20.00     0.007 C 
HETATM    6  C6  UNL     1     -32.906  15.562  -3.703  1.00 20.00     0.036 C 
HETATM    7  C7  UNL     1     -33.831  16.542  -2.966  1.00 20.00    -0.012 C 
HETATM    8  C8  UNL     1     -35.151  14.946  -4.795  1.00 20.00     0.014 C 
HETATM    9  C9  UNL     1     -33.671  14.574  -4.599  1.00 20.00     0.122 C 
ENDROOT
BRANCH   9  10
HETATM   10  O10 UNL     1     -33.028  14.459  -5.864  1.00 20.00    -0.395 OA
HETATM   11  H26 UNL     1     -32.240  15.023  -5.826  1.00 20.00     0.210 HD
ENDBRANCH   9  10
TORSDOF 1
ENDMDL
MODEL 4
REMARK VINA RESULT:      -4.4      1.622      2.031
REMARK  1 active torsions:
REMARK  status: ('A' for Active; 'I' for Inactive)
REMARK    1  A    between atoms: C9_9  and  O10_10 
ROOT
HETATM    1  C1  UNL     1     -34.719  15.349  -2.847  1.00 20.00     0.001 C 
HETATM    2  C2  UNL     1     -35.808  16.408  -2.987  1.00 20.00     0.005 C 
HETATM    3  C3  UNL     1     -34.011  14.963  -4.141  1.00 20.00     0.007 C 
HETATM    4  C4  UNL     1     -36.514  16.717  -5.406  1.00 20.00     0.005 C 
HETATM    5  C5  UNL     1     -35.302  16.042  -6.045  1.00 20.00     0.007 C 
HETATM    6  C6  UNL     1     -37.197  14.624  -4.195  1.00 20.00     0.036 C 
HETATM    7  C7  UNL     1     -36.891  16.122  -4.046  1.00 20.00    -0.012 C 
HETATM    8  C8  UNL     1     -34.911  14.720  -5.369  1.00 20.00     0.014 C 
HETATM    9  C9  UNL     1     -36.168  13.886  -5.068  1.00 20.00     0.122 C 
ENDROOT
BRANCH   9  10
HETATM   10  O10 UNL     1     -35.799  12.655  -4.457  1.00 20.00    -0.395 OA
HETATM   11  H26 UNL     1     -36.191  12.657  -3.570  1.00 20.00     0.210 HD
ENDBRANCH   9  10
TORSDOF 1
ENDMDL
MODEL 5
REMARK VINA RESULT:      -4.4      1.097      2.623
REMARK  1 active torsions:
REMARK  status: ('A' for Active; 'I' for Inactive)
REMARK    1  A    between atoms: C9_9  and  O10_10 
ROOT
HETATM    1  C1  UNL     1     -36.184  13.594  -4.646  1.00 20.00     0.001 C 
HETATM    2  C2  UNL     1     -37.016  14.834  -4.328  1.00 20.00     0.005 C 
HETATM    3  C3  UNL     1     -34.862  13.483  -3.893  1.00 20.00     0.007 C 
HETATM    4  C4  UNL     1     -35.645  16.606  -3.135  1.00 20.00     0.005 C 
HETATM    5  C5  UNL     1     -34.494  15.699  -2.706  1.00 20.00     0.007 C 
HETATM    6  C6  UNL     1     -35.229  16.184  -5.577  1.00 20.00     0.036 C 
HETATM    7  C7  UNL     1     -36.286  16.184  -4.461  1.00 20.00    -0.012 C 
HETATM    8  C8  UNL     1     -34.004  14.762  -3.820  1.00 20.00     0.014 C 
HETATM    9  C9  UNL     1     -33.907  15.527  -5.150  1.00 20.00     0.122 C 
ENDROOT
BRANCH   9  10
HETATM   10  O10 UNL     1     -33.436  14.659  -6.175  1.00 20.00    -0.395 OA
HETATM   11  H26 UNL     1     -32.656  14.206  -5.818  1.00 20.00     0.210 HD
ENDBRANCH   9  10
TORSDOF 1
ENDMDL
MODEL 6
REMARK VINA RESULT:      -4.4      1.493      2.134
REMARK  1 active torsions:
REMARK  status: ('A' for Active; 'I' for Inactive)
REMARK    1  A    between atoms: C9_9  and  O10_10 
ROOT
HETATM    1  C1  UNL     1     -33.038  14.608  -4.478  1.00 20.00     0.001 C 
HETATM    2  C2  UNL     1     -33.293  15.764  -3.514  1.00 20.00     0.005 C 
HETATM    3  C3  UNL     1     -33.835  14.654  -5.778  1.00 20.00     0.007 C 
HETATM    4  C4  UNL     1     -35.410  17.033  -4.106  1.00 20.00     0.005 C 
HETATM    5  C5  UNL     1     -35.554  16.508  -5.533  1.00 20.00     0.007 C 
HETATM    6  C6  UNL     1     -35.606  14.735  -3.109  1.00 20.00     0.036 C 
HETATM    7  C7  UNL     1     -34.768  16.022  -3.151  1.00 20.00    -0.012 C 
HETATM    8  C8  UNL     1     -35.333  14.993  -5.653  1.00 20.00     0.014 C 
HETATM    9  C9  UNL     1     -36.047  14.262  -4.504  1.00 20.00     0.122 C 
ENDROOT
BRANCH   9  10
HETATM   10  O10 UNL     1     -35.854  12.857  -4.629  1.00 20.00    -0.395 OA
HETATM   11  H26 UNL     1     -35.548  12.541  -3.764  1.00 20.00     0.210 HD
ENDBRANCH   9  10
TORSDOF 1
ENDMDL
MODEL 7
REMARK VINA RESULT:      -4.3      1.067      2.834
REMARK  1 active torsions:
REMARK  status: ('A' for Active; 'I' for Inactive)
REMARK    1  A    between atoms: C9_9  and  O10_10 
ROOT
HETATM    1  C1  UNL     1     -35.463  16.606  -5.402  1.00 20.00     0.001 C 
HETATM    2  C2  UNL     1     -34.131  17.149  -4.892  1.00 20.00     0.005 C 
HETATM    3  C3  UNL     1     -36.403  16.065  -4.329  1.00 20.00     0.007 C 
HETATM    4  C4  UNL     1     -33.659  16.400  -2.512  1.00 20.00     0.005 C 
HETATM    5  C5  UNL     1     -35.085  15.980  -2.159  1.00 20.00     0.007 C 
HETATM    6  C6  UNL     1     -33.495  14.720  -4.374  1.00 20.00     0.036 C 
HETATM    7  C7  UNL     1     -33.319  16.198  -3.992  1.00 20.00    -0.012 C 
HETATM    8  C8  UNL     1     -35.770  15.155  -3.258  1.00 20.00     0.014 C 
HETATM    9  C9  UNL     1     -34.793  14.109  -3.822  1.00 20.00     0.122 C 
ENDROOT
BRANCH   9  10
HETATM   10  O10 UNL     1     -35.439  13.336  -4.828  1.00 20.00    -0.395 OA
HETATM   11  H26 UNL     1     -34.995  12.473  -4.841  1.00 20.00     0.210 HD
ENDBRANCH   9  10
TORSDOF 1
ENDMDL
MODEL 8
REMARK VINA RESULT:      -4.2      1.965      3.223
REMARK  1 active torsions:
REMARK  status: ('A' for Active; 'I' for Inactive)
REMARK    1  A    between atoms: C9_9  and  O10_10 
ROOT
HETATM    1  C1  UNL     1     -36.125  16.723  -4.394  1.00 20.00     0.001 C 
HETATM    2  C2  UNL     1     -35.144  16.786  -5.561  1.00 20.00     0.005 C 
HETATM    3  C3  UNL     1     -35.752  15.752  -3.279  1.00 20.00     0.007 C 
HETATM    4  C4  UNL     1     -33.554  14.807  -5.562  1.00 20.00     0.005 C 
HETATM    5  C5  UNL     1     -33.790  14.374  -4.116  1.00 20.00     0.007 C 
HETATM    6  C6  UNL     1     -35.957  14.439  -6.194  1.00 20.00     0.036 C 
HETATM    7  C7  UNL     1     -34.789  15.436  -6.214  1.00 20.00    -0.012 C 
HETATM    8  C8  UNL     1     -35.272  14.354  -3.717  1.00 20.00     0.014 C 
HETATM    9  C9  UNL     1     -36.115  13.727  -4.840  1.00 20.00     0.122 C 
ENDROOT
BRANCH   9  10
HETATM   10  O10 UNL     1     -37.486  13.696  -4.458  1.00 20.00    -0.395 OA
HETATM   11  H26 UNL     1     -37.987  14.085  -5.192  1.00 20.00     0.210 HD
ENDBRANCH   9  10
TORSDOF 1
ENDMDL
MODEL 9
REMARK VINA RESULT:      -4.2     11.809     12.961
REMARK  1 active torsions:
REMARK  status: ('A' for Active; 'I' for Inactive)
REMARK    1  A    between atoms: C9_9  and  O10_10 
ROOT
HETATM    1  C1  UNL     1     -40.580   6.525   0.329  1.00 20.00     0.001 C 
HETATM    2  C2  UNL     1     -41.207   7.901   0.536  1.00 20.00     0.005 C 
HETATM    3  C3  UNL     1     -41.158   5.709  -0.823  1.00 20.00     0.007 C 
HETATM    4  C4  UNL     1     -43.417   8.122  -0.693  1.00 20.00     0.005 C 
HETATM    5  C5  UNL     1     -43.230   6.935  -1.635  1.00 20.00     0.007 C 
HETATM    6  C6  UNL     1     -43.302   6.672   1.355  1.00 20.00     0.036 C 
HETATM    7  C7  UNL     1     -42.742   7.926   0.668  1.00 20.00    -0.012 C 
HETATM    8  C8  UNL     1     -42.695   5.676  -0.936  1.00 20.00     0.014 C 
HETATM    9  C9  UNL     1     -43.417   5.468   0.405  1.00 20.00     0.122 C 
ENDROOT
BRANCH   9  10
HETATM   10  O10 UNL     1     -42.930   4.292   1.041  1.00 20.00    -0.395 OA
HETATM   11  H26 UNL     1     -42.844   3.618   0.348  1.00 20.00     0.210 HD
ENDBRANCH   9  10
TORSDOF 1
ENDMDL
