MODEL 1
REMARK VINA RESULT:      -5.6      0.000      0.000
REMARK  3 active torsions:
REMARK  status: ('A' for Active; 'I' for Inactive)
REMARK    1  A    between atoms: C1_1  and  C7_7 
REMARK    2  A    between atoms: C1_1  and  C9_9 
REMARK    3  A    between atoms: C8_8  and  C9_9 
ROOT
HETATM    1  C1  UNL     1     -32.569   7.130   2.524  1.00 20.00     0.131 C 
HETATM    2  O10 UNL     1     -31.639   7.640   3.146  1.00 20.00    -0.298 OA
ENDROOT
BRANCH   1   3
HETATM    3  C7  UNL     1     -33.131   7.789   1.290  1.00 20.00     0.055 A 
HETATM    4  C3  UNL     1     -32.921   9.250   1.120  1.00 20.00     0.013 A 
HETATM    5  C4  UNL     1     -32.176   8.273   0.261  1.00 20.00     0.013 A 
ENDBRANCH   1   3
BRANCH   1   6
HETATM    6  C9  UNL     1     -33.215   5.820   2.939  1.00 20.00     0.083 C 
BRANCH   6   7
HETATM    7  C8  UNL     1     -34.294   6.004   3.986  1.00 20.00    -0.008 C 
HETATM    8  C5  UNL     1     -33.837   6.541   5.367  1.00 20.00     0.005 C 
HETATM    9  C2  UNL     1     -34.889   5.604   5.997  1.00 20.00     0.001 C 
HETATM   10  C6  UNL     1     -34.761   4.728   4.733  1.00 20.00     0.005 C 
ENDBRANCH   6   7
ENDBRANCH   1   6
TORSDOF 3
ENDMDL
MODEL 2
REMARK VINA RESULT:      -5.1      0.654      1.281
REMARK  3 active torsions:
REMARK  status: ('A' for Active; 'I' for Inactive)
REMARK    1  A    between atoms: C1_1  and  C7_7 
REMARK    2  A    between atoms: C1_1  and  C9_9 
REMARK    3  A    between atoms: C8_8  and  C9_9 
ROOT
HETATM    1  C1  UNL     1     -32.372   7.360   2.404  1.00 20.00     0.131 C 
HETATM    2  O10 UNL     1     -31.581   7.565   3.323  1.00 20.00    -0.298 OA
ENDROOT
BRANCH   1   3
HETATM    3  C7  UNL     1     -32.190   8.020   1.062  1.00 20.00     0.055 A 
HETATM    4  C3  UNL     1     -33.360   8.079   0.147  1.00 20.00     0.013 A 
HETATM    5  C4  UNL     1     -32.868   9.322   0.827  1.00 20.00     0.013 A 
ENDBRANCH   1   3
BRANCH   1   6
HETATM    6  C9  UNL     1     -33.573   6.440   2.542  1.00 20.00     0.083 C 
BRANCH   6   7
HETATM    7  C8  UNL     1     -33.639   5.762   3.896  1.00 20.00    -0.008 C 
HETATM    8  C5  UNL     1     -34.876   4.867   4.165  1.00 20.00     0.005 C 
HETATM    9  C2  UNL     1     -34.835   5.376   5.621  1.00 20.00     0.001 C 
HETATM   10  C6  UNL     1     -34.117   6.633   5.086  1.00 20.00     0.005 C 
ENDBRANCH   6   7
ENDBRANCH   1   6
TORSDOF 3
ENDMDL
MODEL 3
REMARK VINA RESULT:      -5.1      1.195      4.798
REMARK  3 active torsions:
REMARK  status: ('A' for Active; 'I' for Inactive)
REMARK    1  A    between atoms: C1_1  and  C7_7 
REMARK    2  A    between atoms: C1_1  and  C9_9 
REMARK    3  A    between atoms: C8_8  and  C9_9 
ROOT
HETATM    1  C1  UNL     1     -33.492   6.009   3.373  1.00 20.00     0.131 C 
HETATM    2  O10 UNL     1     -33.503   4.858   2.941  1.00 20.00    -0.298 OA
ENDROOT
BRANCH   1   3
HETATM    3  C7  UNL     1     -34.425   6.433   4.477  1.00 20.00     0.055 A 
HETATM    4  C3  UNL     1     -34.776   5.433   5.519  1.00 20.00     0.013 A 
HETATM    5  C4  UNL     1     -33.866   6.579   5.846  1.00 20.00     0.013 A 
ENDBRANCH   1   3
BRANCH   1   6
HETATM    6  C9  UNL     1     -32.553   7.077   2.840  1.00 20.00     0.083 C 
BRANCH   6   7
HETATM    7  C8  UNL     1     -33.033   7.682   1.536  1.00 20.00    -0.008 C 
HETATM    8  C5  UNL     1     -31.971   7.860   0.420  1.00 20.00     0.005 C 
HETATM    9  C2  UNL     1     -32.688   9.175   0.050  1.00 20.00     0.001 C 
HETATM   10  C6  UNL     1     -33.198   9.224   1.506  1.00 20.00     0.005 C 
ENDBRANCH   6   7
ENDBRANCH   1   6
TORSDOF 3
ENDMDL
MODEL 4
REMARK VINA RESULT:      -4.8      1.758      4.555
REMARK  3 active torsions:
REMARK  status: ('A' for Active; 'I' for Inactive)
REMARK    1  A    between atoms: C1_1  and  C7_7 
REMARK    2  A    between atoms: C1_1  and  C9_9 
REMARK    3  A    between atoms: C8_8  and  C9_9 
ROOT
HETATM    1  C1  UNL     1     -34.106   4.805   3.820  1.00 20.00     0.131 C 
HETATM    2  O10 UNL     1     -34.272   3.621   4.107  1.00 20.00    -0.298 OA
ENDROOT
BRANCH   1   3
HETATM    3  C7  UNL     1     -34.690   5.900   4.675  1.00 20.00     0.055 A 
HETATM    4  C3  UNL     1     -35.007   5.587   6.093  1.00 20.00     0.013 A 
HETATM    5  C4  UNL     1     -33.843   6.469   5.755  1.00 20.00     0.013 A 
ENDBRANCH   1   3
BRANCH   1   6
HETATM    6  C9  UNL     1     -33.313   5.253   2.605  1.00 20.00     0.083 C 
BRANCH   6   7
HETATM    7  C8  UNL     1     -33.237   6.761   2.478  1.00 20.00    -0.008 C 
HETATM    8  C5  UNL     1     -33.081   7.330   1.044  1.00 20.00     0.005 C 
HETATM    9  C2  UNL     1     -32.163   8.411   1.653  1.00 20.00     0.001 C 
HETATM   10  C6  UNL     1     -31.868   7.415   2.794  1.00 20.00     0.005 C 
ENDBRANCH   6   7
ENDBRANCH   1   6
TORSDOF 3
ENDMDL
MODEL 5
REMARK VINA RESULT:      -4.7     10.773     11.628
REMARK  3 active torsions:
REMARK  status: ('A' for Active; 'I' for Inactive)
REMARK    1  A    between atoms: C1_1  and  C7_7 
REMARK    2  A    between atoms: C1_1  and  C9_9 
REMARK    3  A    between atoms: C8_8  and  C9_9 
ROOT
HETATM    1  C1  UNL     1     -35.948  13.915  -4.817  1.00 20.00     0.131 C 
HETATM    2  O10 UNL     1     -35.849  12.736  -4.480  1.00 20.00    -0.298 OA
ENDROOT
BRANCH   1   3
HETATM    3  C7  UNL     1     -35.904  14.312  -6.270  1.00 20.00     0.055 A 
HETATM    4  C3  UNL     1     -35.989  15.758  -6.602  1.00 20.00     0.013 A 
HETATM    5  C4  UNL     1     -34.694  15.020  -6.763  1.00 20.00     0.013 A 
ENDBRANCH   1   3
BRANCH   1   6
HETATM    6  C9  UNL     1     -36.122  15.044  -3.817  1.00 20.00     0.083 C 
BRANCH   6   7
HETATM    7  C8  UNL     1     -34.880  15.285  -2.983  1.00 20.00    -0.008 C 
HETATM    8  C5  UNL     1     -34.992  16.351  -1.863  1.00 20.00     0.005 C 
HETATM    9  C2  UNL     1     -33.538  16.746  -2.196  1.00 20.00     0.001 C 
HETATM   10  C6  UNL     1     -33.786  16.185  -3.612  1.00 20.00     0.005 C 
ENDBRANCH   6   7
ENDBRANCH   1   6
TORSDOF 3
ENDMDL
MODEL 6
REMARK VINA RESULT:      -4.5     10.648     11.751
REMARK  3 active torsions:
REMARK  status: ('A' for Active; 'I' for Inactive)
REMARK    1  A    between atoms: C1_1  and  C7_7 
REMARK    2  A    between atoms: C1_1  and  C9_9 
REMARK    3  A    between atoms: C8_8  and  C9_9 
ROOT
HETATM    1  C1  UNL     1     -35.589  14.203  -5.044  1.00 20.00     0.131 C 
HETATM    2  O10 UNL     1     -36.331  13.256  -5.300  1.00 20.00    -0.298 OA
ENDROOT
BRANCH   1   3
HETATM    3  C7  UNL     1     -35.340  15.291  -6.056  1.00 20.00     0.055 A 
HETATM    4  C3  UNL     1     -34.191  15.132  -6.985  1.00 20.00     0.013 A 
HETATM    5  C4  UNL     1     -35.596  14.983  -7.487  1.00 20.00     0.013 A 
ENDBRANCH   1   3
BRANCH   1   6
HETATM    6  C9  UNL     1     -34.878  14.352  -3.710  1.00 20.00     0.083 C 
BRANCH   6   7
HETATM    7  C8  UNL     1     -34.659  15.800  -3.321  1.00 20.00    -0.008 C 
HETATM    8  C5  UNL     1     -33.194  16.232  -3.050  1.00 20.00     0.005 C 
HETATM    9  C2  UNL     1     -33.747  17.134  -1.927  1.00 20.00     0.001 C 
HETATM   10  C6  UNL     1     -34.952  16.174  -1.845  1.00 20.00     0.005 C 
ENDBRANCH   6   7
ENDBRANCH   1   6
TORSDOF 3
ENDMDL
MODEL 7
REMARK VINA RESULT:      -4.5     10.649     11.361
REMARK  3 active torsions:
REMARK  status: ('A' for Active; 'I' for Inactive)
REMARK    1  A    between atoms: C1_1  and  C7_7 
REMARK    2  A    between atoms: C1_1  and  C9_9 
REMARK    3  A    between atoms: C8_8  and  C9_9 
ROOT
HETATM    1  C1  UNL     1     -34.974  13.994  -4.366  1.00 20.00     0.131 C 
HETATM    2  O10 UNL     1     -34.563  12.924  -3.923  1.00 20.00    -0.298 OA
ENDROOT
BRANCH   1   3
HETATM    3  C7  UNL     1     -36.306  14.085  -5.065  1.00 20.00     0.055 A 
HETATM    4  C3  UNL     1     -37.484  14.524  -4.272  1.00 20.00     0.013 A 
HETATM    5  C4  UNL     1     -36.881  15.435  -5.300  1.00 20.00     0.013 A 
ENDBRANCH   1   3
BRANCH   1   6
HETATM    6  C9  UNL     1     -34.189  15.289  -4.248  1.00 20.00     0.083 C 
BRANCH   6   7
HETATM    7  C8  UNL     1     -33.939  15.693  -2.809  1.00 20.00    -0.008 C 
HETATM    8  C5  UNL     1     -35.141  16.295  -2.037  1.00 20.00     0.005 C 
HETATM    9  C2  UNL     1     -34.132  17.239  -1.350  1.00 20.00     0.001 C 
HETATM   10  C6  UNL     1     -33.225  17.051  -2.584  1.00 20.00     0.005 C 
ENDBRANCH   6   7
ENDBRANCH   1   6
TORSDOF 3
ENDMDL
MODEL 8
REMARK VINA RESULT:      -4.4     15.767     16.892
REMARK  3 active torsions:
REMARK  status: ('A' for Active; 'I' for Inactive)
REMARK    1  A    between atoms: C1_1  and  C7_7 
REMARK    2  A    between atoms: C1_1  and  C9_9 
REMARK    3  A    between atoms: C8_8  and  C9_9 
ROOT
HETATM    1  C1  UNL     1     -24.423  17.281  11.995  1.00 20.00     0.131 C 
HETATM    2  O10 UNL     1     -24.840  16.124  11.973  1.00 20.00    -0.298 OA
ENDROOT
BRANCH   1   3
HETATM    3  C7  UNL     1     -25.339  18.429  12.329  1.00 20.00     0.055 A 
HETATM    4  C3  UNL     1     -26.177  18.995  11.240  1.00 20.00     0.013 A 
HETATM    5  C4  UNL     1     -26.803  18.177  12.330  1.00 20.00     0.013 A 
ENDBRANCH   1   3
BRANCH   1   6
HETATM    6  C9  UNL     1     -22.978  17.639  11.695  1.00 20.00     0.083 C 
BRANCH   6   7
HETATM    7  C8  UNL     1     -22.763  18.048  10.252  1.00 20.00    -0.008 C 
HETATM    8  C5  UNL     1     -22.964  16.945   9.181  1.00 20.00     0.005 C 
HETATM    9  C2  UNL     1     -21.787  17.580   8.412  1.00 20.00     0.001 C 
HETATM   10  C6  UNL     1     -21.293  18.130   9.767  1.00 20.00     0.005 C 
ENDBRANCH   6   7
ENDBRANCH   1   6
TORSDOF 3
ENDMDL
MODEL 9
REMARK VINA RESULT:      -4.4     10.845     11.965
REMARK  3 active torsions:
REMARK  status: ('A' for Active; 'I' for Inactive)
REMARK    1  A    between atoms: C1_1  and  C7_7 
REMARK    2  A    between atoms: C1_1  and  C9_9 
REMARK    3  A    between atoms: C8_8  and  C9_9 
ROOT
HETATM    1  C1  UNL     1     -36.960  14.544  -4.330  1.00 20.00     0.131 C 
HETATM    2  O10 UNL     1     -37.767  13.620  -4.411  1.00 20.00    -0.298 OA
ENDROOT
BRANCH   1   3
HETATM    3  C7  UNL     1     -37.351  15.952  -4.697  1.00 20.00     0.055 A 
HETATM    4  C3  UNL     1     -38.714  16.178  -5.246  1.00 20.00     0.013 A 
HETATM    5  C4  UNL     1     -38.372  16.633  -3.858  1.00 20.00     0.013 A 
ENDBRANCH   1   3
BRANCH   1   6
HETATM    6  C9  UNL     1     -35.529  14.345  -3.860  1.00 20.00     0.083 C 
BRANCH   6   7
HETATM    7  C8  UNL     1     -34.807  15.654  -3.612  1.00 20.00    -0.008 C 
HETATM    8  C5  UNL     1     -33.257  15.609  -3.645  1.00 20.00     0.005 C 
HETATM    9  C2  UNL     1     -33.277  16.643  -2.499  1.00 20.00     0.001 C 
HETATM   10  C6  UNL     1     -34.677  16.106  -2.135  1.00 20.00     0.005 C 
ENDBRANCH   6   7
ENDBRANCH   1   6
TORSDOF 3
ENDMDL
