MODEL 1
REMARK VINA RESULT:      -3.8      0.000      0.000
REMARK  2 active torsions:
REMARK  status: ('A' for Active; 'I' for Inactive)
REMARK    1  A    between atoms: C1_1  and  C2_2 
REMARK    2  A    between atoms: C2_2  and  O3_3 
ROOT
HETATM    1  C2  UNL     1     -34.695   5.349   4.474  1.00 20.00     0.226 C 
HETATM    2 CL5  UNL     1     -34.030   3.858   3.762  1.00 20.00    -0.070 Cl
HETATM    3 CL6  UNL     1     -34.644   5.208   6.255  1.00 20.00    -0.070 Cl
ENDROOT
BRANCH   1   4
HETATM    4  C1  UNL     1     -33.911   6.589   4.048  1.00 20.00     0.187 C 
HETATM    5 CL4  UNL     1     -32.852   6.283   2.642  1.00 20.00    -0.125 Cl
ENDBRANCH   1   4
BRANCH   1   6
HETATM    6  O3  UNL     1     -36.056   5.479   4.088  1.00 20.00    -0.361 OA
HETATM    7  H9  UNL     1     -36.407   6.244   4.574  1.00 20.00     0.213 HD
ENDBRANCH   1   6
TORSDOF 2
ENDMDL
MODEL 2
REMARK VINA RESULT:      -3.7      1.202      2.054
REMARK  2 active torsions:
REMARK  status: ('A' for Active; 'I' for Inactive)
REMARK    1  A    between atoms: C1_1  and  C2_2 
REMARK    2  A    between atoms: C2_2  and  O3_3 
ROOT
HETATM    1  C2  UNL     1     -34.728   5.327   4.517  1.00 20.00     0.226 C 
HETATM    2 CL5  UNL     1     -34.682   5.135   6.287  1.00 20.00    -0.070 Cl
HETATM    3 CL6  UNL     1     -33.851   6.822   4.078  1.00 20.00    -0.070 Cl
ENDROOT
BRANCH   1   4
HETATM    4  C1  UNL     1     -34.090   4.143   3.794  1.00 20.00     0.187 C 
HETATM    5 CL4  UNL     1     -33.112   4.645   2.385  1.00 20.00    -0.125 Cl
ENDBRANCH   1   4
BRANCH   1   6
HETATM    6  O3  UNL     1     -36.078   5.479   4.103  1.00 20.00    -0.361 OA
HETATM    7  H9  UNL     1     -36.346   4.628   3.719  1.00 20.00     0.213 HD
ENDBRANCH   1   6
TORSDOF 2
ENDMDL
MODEL 3
REMARK VINA RESULT:      -3.3      1.183      2.417
REMARK  2 active torsions:
REMARK  status: ('A' for Active; 'I' for Inactive)
REMARK    1  A    between atoms: C1_1  and  C2_2 
REMARK    2  A    between atoms: C2_2  and  O3_3 
ROOT
HETATM    1  C2  UNL     1     -34.693   5.339   4.410  1.00 20.00     0.226 C 
HETATM    2 CL5  UNL     1     -33.758   6.534   3.477  1.00 20.00    -0.070 Cl
HETATM    3 CL6  UNL     1     -34.083   3.703   4.024  1.00 20.00    -0.070 Cl
ENDROOT
BRANCH   1   4
HETATM    4  C1  UNL     1     -34.583   5.570   5.915  1.00 20.00     0.187 C 
HETATM    5 CL4  UNL     1     -33.823   7.138   6.316  1.00 20.00    -0.125 Cl
ENDBRANCH   1   4
BRANCH   1   6
HETATM    6  O3  UNL     1     -36.054   5.399   4.008  1.00 20.00    -0.361 OA
HETATM    7  H9  UNL     1     -36.543   5.789   4.751  1.00 20.00     0.213 HD
ENDBRANCH   1   6
TORSDOF 2
ENDMDL
MODEL 4
REMARK VINA RESULT:      -3.3      8.700      8.899
REMARK  2 active torsions:
REMARK  status: ('A' for Active; 'I' for Inactive)
REMARK    1  A    between atoms: C1_1  and  C2_2 
REMARK    2  A    between atoms: C2_2  and  O3_3 
ROOT
HETATM    1  C2  UNL     1     -41.689   7.647   0.300  1.00 20.00     0.226 C 
HETATM    2 CL5  UNL     1     -41.396   9.404   0.313  1.00 20.00    -0.070 Cl
HETATM    3 CL6  UNL     1     -43.326   7.333   0.948  1.00 20.00    -0.070 Cl
ENDROOT
BRANCH   1   4
HETATM    4  C1  UNL     1     -41.586   7.057  -1.104  1.00 20.00     0.187 C 
HETATM    5 CL4  UNL     1     -40.919   5.400  -1.106  1.00 20.00    -0.125 Cl
ENDBRANCH   1   4
BRANCH   1   6
HETATM    6  O3  UNL     1     -40.754   7.015   1.163  1.00 20.00    -0.361 OA
HETATM    7  H9  UNL     1     -41.273   6.573   1.855  1.00 20.00     0.213 HD
ENDBRANCH   1   6
TORSDOF 2
ENDMDL
MODEL 5
REMARK VINA RESULT:      -3.3     12.195     12.833
REMARK  2 active torsions:
REMARK  status: ('A' for Active; 'I' for Inactive)
REMARK    1  A    between atoms: C1_1  and  C2_2 
REMARK    2  A    between atoms: C2_2  and  O3_3 
ROOT
HETATM    1  C2  UNL     1     -33.659  14.441  -4.543  1.00 20.00     0.226 C 
HETATM    2 CL5  UNL     1     -35.209  13.772  -3.975  1.00 20.00    -0.070 Cl
HETATM    3 CL6  UNL     1     -33.851  14.977  -6.238  1.00 20.00    -0.070 Cl
ENDROOT
BRANCH   1   4
HETATM    4  C1  UNL     1     -33.197  15.623  -3.695  1.00 20.00     0.187 C 
HETATM    5 CL4  UNL     1     -34.311  15.975  -2.342  1.00 20.00    -0.125 Cl
ENDBRANCH   1   4
BRANCH   1   6
HETATM    6  O3  UNL     1     -32.677  13.414  -4.522  1.00 20.00    -0.361 OA
HETATM    7  H9  UNL     1     -33.158  12.572  -4.576  1.00 20.00     0.213 HD
ENDBRANCH   1   6
TORSDOF 2
ENDMDL
MODEL 6
REMARK VINA RESULT:      -3.3     17.362     17.766
REMARK  2 active torsions:
REMARK  status: ('A' for Active; 'I' for Inactive)
REMARK    1  A    between atoms: C1_1  and  C2_2 
REMARK    2  A    between atoms: C2_2  and  O3_3 
ROOT
HETATM    1  C2  UNL     1     -23.519  17.040  11.660  1.00 20.00     0.226 C 
HETATM    2 CL5  UNL     1     -22.046  17.781  12.332  1.00 20.00    -0.070 Cl
HETATM    3 CL6  UNL     1     -24.942  17.928  12.278  1.00 20.00    -0.070 Cl
ENDROOT
BRANCH   1   4
HETATM    4  C1  UNL     1     -23.534  17.072  10.134  1.00 20.00     0.187 C 
HETATM    5 CL4  UNL     1     -22.676  18.491   9.467  1.00 20.00    -0.125 Cl
ENDBRANCH   1   4
BRANCH   1   6
HETATM    6  O3  UNL     1     -23.613  15.698  12.119  1.00 20.00    -0.361 OA
HETATM    7  H9  UNL     1     -23.046  15.168  11.535  1.00 20.00     0.213 HD
ENDBRANCH   1   6
TORSDOF 2
ENDMDL
MODEL 7
REMARK VINA RESULT:      -3.3     16.986     17.629
REMARK  2 active torsions:
REMARK  status: ('A' for Active; 'I' for Inactive)
REMARK    1  A    between atoms: C1_1  and  C2_2 
REMARK    2  A    between atoms: C2_2  and  O3_3 
ROOT
HETATM    1  C2  UNL     1     -23.017  17.145   9.688  1.00 20.00     0.226 C 
HETATM    2 CL5  UNL     1     -24.302  16.316  10.601  1.00 20.00    -0.070 Cl
HETATM    3 CL6  UNL     1     -23.775  18.257   8.510  1.00 20.00    -0.070 Cl
ENDROOT
BRANCH   1   4
HETATM    4  C1  UNL     1     -22.086  17.941  10.599  1.00 20.00     0.187 C 
HETATM    5 CL4  UNL     1     -22.384  17.624  12.332  1.00 20.00    -0.125 Cl
ENDBRANCH   1   4
BRANCH   1   6
HETATM    6  O3  UNL     1     -22.273  16.181   8.955  1.00 20.00    -0.361 OA
HETATM    7  H9  UNL     1     -22.686  16.124   8.078  1.00 20.00     0.213 HD
ENDBRANCH   1   6
TORSDOF 2
ENDMDL
MODEL 8
REMARK VINA RESULT:      -3.3     16.939     17.591
REMARK  2 active torsions:
REMARK  status: ('A' for Active; 'I' for Inactive)
REMARK    1  A    between atoms: C1_1  and  C2_2 
REMARK    2  A    between atoms: C2_2  and  O3_3 
ROOT
HETATM    1  C2  UNL     1     -22.947  17.452  10.135  1.00 20.00     0.226 C 
HETATM    2 CL5  UNL     1     -22.809  18.956   9.190  1.00 20.00    -0.070 Cl
HETATM    3 CL6  UNL     1     -22.117  17.679  11.702  1.00 20.00    -0.070 Cl
ENDROOT
BRANCH   1   4
HETATM    4  C1  UNL     1     -24.402  17.065  10.391  1.00 20.00     0.187 C 
HETATM    5 CL4  UNL     1     -24.559  15.703  11.537  1.00 20.00    -0.125 Cl
ENDBRANCH   1   4
BRANCH   1   6
HETATM    6  O3  UNL     1     -22.282  16.406   9.440  1.00 20.00    -0.361 OA
HETATM    7  H9  UNL     1     -22.973  15.880   9.006  1.00 20.00     0.213 HD
ENDBRANCH   1   6
TORSDOF 2
ENDMDL
MODEL 9
REMARK VINA RESULT:      -3.2     12.201     12.822
REMARK  2 active torsions:
REMARK  status: ('A' for Active; 'I' for Inactive)
REMARK    1  A    between atoms: C1_1  and  C2_2 
REMARK    2  A    between atoms: C2_2  and  O3_3 
ROOT
HETATM    1  C2  UNL     1     -35.979  14.024  -4.644  1.00 20.00     0.226 C 
HETATM    2 CL5  UNL     1     -34.901  14.797  -3.454  1.00 20.00    -0.070 Cl
HETATM    3 CL6  UNL     1     -37.671  14.437  -4.240  1.00 20.00    -0.070 Cl
ENDROOT
BRANCH   1   4
HETATM    4  C1  UNL     1     -35.680  14.479  -6.070  1.00 20.00     0.187 C 
HETATM    5 CL4  UNL     1     -33.969  14.937  -6.302  1.00 20.00    -0.125 Cl
ENDBRANCH   1   4
BRANCH   1   6
HETATM    6  O3  UNL     1     -35.842  12.613  -4.545  1.00 20.00    -0.361 OA
HETATM    7  H9  UNL     1     -35.005  12.387  -4.982  1.00 20.00     0.213 HD
ENDBRANCH   1   6
TORSDOF 2
ENDMDL
