MODEL 1
REMARK VINA RESULT:      -4.2      0.000      0.000
REMARK  2 active torsions:
REMARK  status: ('A' for Active; 'I' for Inactive)
REMARK    1  A    between atoms: C1_1  and  C3_3 
REMARK    2  A    between atoms: C2_2  and  C7_7 
ROOT
HETATM    1  C1  UNL     1     -32.988   6.298   2.675  1.00 20.00     0.038 C 
HETATM    2  C2  UNL     1     -33.724   6.471   3.781  1.00 20.00    -0.015 C 
ENDROOT
BRANCH   2   3
HETATM    3  C7  UNL     1     -34.574   5.425   4.488  1.00 20.00    -0.034 C 
HETATM    4  C4  UNL     1     -34.034   4.032   4.114  1.00 20.00     0.018 C 
HETATM    5  C5  UNL     1     -34.582   5.549   6.023  1.00 20.00     0.018 C 
HETATM    6  C6  UNL     1     -36.021   5.555   3.980  1.00 20.00     0.018 C 
ENDBRANCH   2   3
BRANCH   1   7
HETATM    7  C3  UNL     1     -32.226   7.442   2.134  1.00 20.00     0.258 C 
HETATM    8  O8  UNL     1     -32.613   8.076   1.160  1.00 20.00    -0.302 OA
ENDBRANCH   1   7
TORSDOF 2
ENDMDL
MODEL 2
REMARK VINA RESULT:      -4.1     15.838     16.858
REMARK  2 active torsions:
REMARK  status: ('A' for Active; 'I' for Inactive)
REMARK    1  A    between atoms: C1_1  and  C3_3 
REMARK    2  A    between atoms: C2_2  and  C7_7 
ROOT
HETATM    1  C1  UNL     1     -22.143  17.604   9.301  1.00 20.00     0.038 C 
HETATM    2  C2  UNL     1     -23.228  16.957   9.749  1.00 20.00    -0.015 C 
ENDROOT
BRANCH   2   3
HETATM    3  C7  UNL     1     -23.863  17.080  11.127  1.00 20.00    -0.034 C 
HETATM    4  C4  UNL     1     -24.920  18.198  11.072  1.00 20.00     0.018 C 
HETATM    5  C5  UNL     1     -24.539  15.791  11.627  1.00 20.00     0.018 C 
HETATM    6  C6  UNL     1     -22.765  17.477  12.130  1.00 20.00     0.018 C 
ENDBRANCH   2   3
BRANCH   1   7
HETATM    7  C3  UNL     1     -21.675  17.350   7.924  1.00 20.00     0.258 C 
HETATM    8  O8  UNL     1     -22.219  17.856   6.950  1.00 20.00    -0.302 OA
ENDBRANCH   1   7
TORSDOF 2
ENDMDL
MODEL 3
REMARK VINA RESULT:      -4.0     15.842     16.712
REMARK  2 active torsions:
REMARK  status: ('A' for Active; 'I' for Inactive)
REMARK    1  A    between atoms: C1_1  and  C3_3 
REMARK    2  A    between atoms: C2_2  and  C7_7 
ROOT
HETATM    1  C1  UNL     1     -24.566  18.730   9.224  1.00 20.00     0.038 C 
HETATM    2  C2  UNL     1     -24.077  17.685   9.907  1.00 20.00    -0.015 C 
ENDROOT
BRANCH   2   3
HETATM    3  C7  UNL     1     -24.218  17.420  11.399  1.00 20.00    -0.034 C 
HETATM    4  C4  UNL     1     -22.849  17.657  12.061  1.00 20.00     0.018 C 
HETATM    5  C5  UNL     1     -25.261  18.308  12.102  1.00 20.00     0.018 C 
HETATM    6  C6  UNL     1     -24.621  15.947  11.592  1.00 20.00     0.018 C 
ENDBRANCH   2   3
BRANCH   1   7
HETATM    7  C3  UNL     1     -24.323  18.813   7.770  1.00 20.00     0.258 C 
HETATM    8  O8  UNL     1     -23.286  18.405   7.262  1.00 20.00    -0.302 OA
ENDBRANCH   1   7
TORSDOF 2
ENDMDL
MODEL 4
REMARK VINA RESULT:      -3.9     11.341     12.163
REMARK  2 active torsions:
REMARK  status: ('A' for Active; 'I' for Inactive)
REMARK    1  A    between atoms: C1_1  and  C3_3 
REMARK    2  A    between atoms: C2_2  and  C7_7 
ROOT
HETATM    1  C1  UNL     1     -35.088  14.674  -3.844  1.00 20.00     0.038 C 
HETATM    2  C2  UNL     1     -35.592  15.696  -3.138  1.00 20.00    -0.015 C 
ENDROOT
BRANCH   2   3
HETATM    3  C7  UNL     1     -34.810  16.806  -2.450  1.00 20.00    -0.034 C 
HETATM    4  C4  UNL     1     -33.308  16.514  -2.620  1.00 20.00     0.018 C 
HETATM    5  C5  UNL     1     -35.099  18.216  -2.999  1.00 20.00     0.018 C 
HETATM    6  C6  UNL     1     -35.159  16.785  -0.950  1.00 20.00     0.018 C 
ENDBRANCH   2   3
BRANCH   1   7
HETATM    7  C3  UNL     1     -36.014  13.689  -4.439  1.00 20.00     0.258 C 
HETATM    8  O8  UNL     1     -35.767  12.490  -4.445  1.00 20.00    -0.302 OA
ENDBRANCH   1   7
TORSDOF 2
ENDMDL
MODEL 5
REMARK VINA RESULT:      -3.9     11.426     12.226
REMARK  2 active torsions:
REMARK  status: ('A' for Active; 'I' for Inactive)
REMARK    1  A    between atoms: C1_1  and  C3_3 
REMARK    2  A    between atoms: C2_2  and  C7_7 
ROOT
HETATM    1  C1  UNL     1     -35.311  14.833  -4.207  1.00 20.00     0.038 C 
HETATM    2  C2  UNL     1     -35.482  15.480  -3.046  1.00 20.00    -0.015 C 
ENDROOT
BRANCH   2   3
HETATM    3  C7  UNL     1     -34.699  16.686  -2.547  1.00 20.00    -0.034 C 
HETATM    4  C4  UNL     1     -35.146  17.919  -3.354  1.00 20.00     0.018 C 
HETATM    5  C5  UNL     1     -34.892  16.988  -1.049  1.00 20.00     0.018 C 
HETATM    6  C6  UNL     1     -33.203  16.432  -2.805  1.00 20.00     0.018 C 
ENDBRANCH   2   3
BRANCH   1   7
HETATM    7  C3  UNL     1     -36.173  13.675  -4.516  1.00 20.00     0.258 C 
HETATM    8  O8  UNL     1     -35.759  12.524  -4.455  1.00 20.00    -0.302 OA
ENDBRANCH   1   7
TORSDOF 2
ENDMDL
MODEL 6
REMARK VINA RESULT:      -3.9     11.320     12.167
REMARK  2 active torsions:
REMARK  status: ('A' for Active; 'I' for Inactive)
REMARK    1  A    between atoms: C1_1  and  C3_3 
REMARK    2  A    between atoms: C2_2  and  C7_7 
ROOT
HETATM    1  C1  UNL     1     -35.076  14.631  -3.733  1.00 20.00     0.038 C 
HETATM    2  C2  UNL     1     -35.562  15.741  -3.162  1.00 20.00    -0.015 C 
ENDROOT
BRANCH   2   3
HETATM    3  C7  UNL     1     -34.770  16.815  -2.429  1.00 20.00    -0.034 C 
HETATM    4  C4  UNL     1     -35.173  16.781  -0.943  1.00 20.00     0.018 C 
HETATM    5  C5  UNL     1     -33.242  16.650  -2.526  1.00 20.00     0.018 C 
HETATM    6  C6  UNL     1     -35.152  18.184  -3.021  1.00 20.00     0.018 C 
ENDBRANCH   2   3
BRANCH   1   7
HETATM    7  C3  UNL     1     -36.009  13.701  -4.401  1.00 20.00     0.258 C 
HETATM    8  O8  UNL     1     -35.788  12.498  -4.469  1.00 20.00    -0.302 OA
ENDBRANCH   1   7
TORSDOF 2
ENDMDL
MODEL 7
REMARK VINA RESULT:      -3.8     11.840     12.882
REMARK  2 active torsions:
REMARK  status: ('A' for Active; 'I' for Inactive)
REMARK    1  A    between atoms: C1_1  and  C3_3 
REMARK    2  A    between atoms: C2_2  and  C7_7 
ROOT
HETATM    1  C1  UNL     1     -32.772  17.744  -1.410  1.00 20.00     0.038 C 
HETATM    2  C2  UNL     1     -32.879  17.387  -2.696  1.00 20.00    -0.015 C 
ENDROOT
BRANCH   2   3
HETATM    3  C7  UNL     1     -33.900  16.432  -3.299  1.00 20.00    -0.034 C 
HETATM    4  C4  UNL     1     -34.697  17.194  -4.373  1.00 20.00     0.018 C 
HETATM    5  C5  UNL     1     -33.285  15.177  -3.946  1.00 20.00     0.018 C 
HETATM    6  C6  UNL     1     -34.861  15.984  -2.183  1.00 20.00     0.018 C 
ENDBRANCH   2   3
BRANCH   1   7
HETATM    7  C3  UNL     1     -31.708  18.689  -1.014  1.00 20.00     0.258 C 
HETATM    8  O8  UNL     1     -30.628  18.305  -0.583  1.00 20.00    -0.302 OA
ENDBRANCH   1   7
TORSDOF 2
ENDMDL
MODEL 8
REMARK VINA RESULT:      -3.7     11.883     12.906
REMARK  2 active torsions:
REMARK  status: ('A' for Active; 'I' for Inactive)
REMARK    1  A    between atoms: C1_1  and  C3_3 
REMARK    2  A    between atoms: C2_2  and  C7_7 
ROOT
HETATM    1  C1  UNL     1     -32.784  18.458  -1.091  1.00 20.00     0.038 C 
HETATM    2  C2  UNL     1     -32.708  17.421  -1.936  1.00 20.00    -0.015 C 
ENDROOT
BRANCH   2   3
HETATM    3  C7  UNL     1     -33.850  16.799  -2.726  1.00 20.00    -0.034 C 
HETATM    4  C4  UNL     1     -33.272  15.672  -3.602  1.00 20.00     0.018 C 
HETATM    5  C5  UNL     1     -34.975  16.211  -1.854  1.00 20.00     0.018 C 
HETATM    6  C6  UNL     1     -34.455  17.883  -3.637  1.00 20.00     0.018 C 
ENDBRANCH   2   3
BRANCH   1   7
HETATM    7  C3  UNL     1     -31.558  18.922  -0.412  1.00 20.00     0.258 C 
HETATM    8  O8  UNL     1     -30.495  18.322  -0.513  1.00 20.00    -0.302 OA
ENDBRANCH   1   7
TORSDOF 2
ENDMDL
MODEL 9
REMARK VINA RESULT:      -3.6      8.662      9.338
REMARK  2 active torsions:
REMARK  status: ('A' for Active; 'I' for Inactive)
REMARK    1  A    between atoms: C1_1  and  C3_3 
REMARK    2  A    between atoms: C2_2  and  C7_7 
ROOT
HETATM    1  C1  UNL     1     -41.415   7.926   0.570  1.00 20.00     0.038 C 
HETATM    2  C2  UNL     1     -41.820   7.292  -0.539  1.00 20.00    -0.015 C 
ENDROOT
BRANCH   2   3
HETATM    3  C7  UNL     1     -42.207   5.825  -0.664  1.00 20.00    -0.034 C 
HETATM    4  C4  UNL     1     -42.569   5.301   0.737  1.00 20.00     0.018 C 
HETATM    5  C5  UNL     1     -43.398   5.565  -1.605  1.00 20.00     0.018 C 
HETATM    6  C6  UNL     1     -40.988   5.047  -1.193  1.00 20.00     0.018 C 
ENDBRANCH   2   3
BRANCH   1   7
HETATM    7  C3  UNL     1     -41.079   9.362   0.492  1.00 20.00     0.258 C 
HETATM    8  O8  UNL     1     -41.869  10.190   0.054  1.00 20.00    -0.302 OA
ENDBRANCH   1   7
TORSDOF 2
ENDMDL
