MODEL 1
REMARK VINA RESULT:      -5.0      0.000      0.000
REMARK  5 active torsions:
REMARK  status: ('A' for Active; 'I' for Inactive)
REMARK    1  A    between atoms: C3_3  and  C8_8 
REMARK    2  A    between atoms: C6_6  and  C7_7 
REMARK    3  A    between atoms: C7_7  and  C9_9 
REMARK    4  A    between atoms: C8_8  and  C9_9 
REMARK    5  A    between atoms: C8_8  and  O10_10 
ROOT
HETATM    1  C8  UNL     1     -34.559   5.193   3.752  1.00 20.00     0.126 C 
ENDROOT
BRANCH   1   2
HETATM    2  C3  UNL     1     -34.925   6.007   4.959  1.00 20.00     0.015 A 
HETATM    3  C1  UNL     1     -34.797   5.418   6.338  1.00 20.00     0.007 A 
HETATM    4  C2  UNL     1     -33.853   6.500   5.892  1.00 20.00     0.007 A 
ENDBRANCH   1   2
BRANCH   1   5
HETATM    5  C9  UNL     1     -33.245   5.622   3.055  1.00 20.00     0.011 C 
HETATM    6  C5  UNL     1     -32.899   4.738   1.849  1.00 20.00     0.012 C 
BRANCH   5   7
HETATM    7  C7  UNL     1     -33.280   7.120   2.685  1.00 20.00     0.006 C 
BRANCH   7   8
HETATM    8  C6  UNL     1     -32.337   7.482   1.534  1.00 20.00    -0.004 C 
HETATM    9  C4  UNL     1     -32.862   8.670   0.741  1.00 20.00     0.005 C 
ENDBRANCH   7   8
ENDBRANCH   5   7
ENDBRANCH   1   5
BRANCH   1  10
HETATM   10  O10 UNL     1     -34.444   3.820   4.132  1.00 20.00    -0.395 OA
HETATM   11  H28 UNL     1     -34.784   3.302   3.388  1.00 20.00     0.210 HD
ENDBRANCH   1  10
TORSDOF 5
ENDMDL
MODEL 2
REMARK VINA RESULT:      -5.0     15.697     16.574
REMARK  5 active torsions:
REMARK  status: ('A' for Active; 'I' for Inactive)
REMARK    1  A    between atoms: C3_3  and  C8_8 
REMARK    2  A    between atoms: C6_6  and  C7_7 
REMARK    3  A    between atoms: C7_7  and  C9_9 
REMARK    4  A    between atoms: C8_8  and  C9_9 
REMARK    5  A    between atoms: C8_8  and  O10_10 
ROOT
HETATM    1  C8  UNL     1     -23.661  17.117   9.960  1.00 20.00     0.126 C 
ENDROOT
BRANCH   1   2
HETATM    2  C3  UNL     1     -23.951  16.859  11.411  1.00 20.00     0.015 A 
HETATM    3  C1  UNL     1     -25.369  16.870  11.913  1.00 20.00     0.007 A 
HETATM    4  C2  UNL     1     -24.611  15.574  11.833  1.00 20.00     0.007 A 
ENDBRANCH   1   2
BRANCH   1   5
HETATM    5  C9  UNL     1     -22.846  18.403   9.682  1.00 20.00     0.011 C 
HETATM    6  C5  UNL     1     -21.376  18.111   9.349  1.00 20.00     0.012 C 
BRANCH   5   7
HETATM    7  C7  UNL     1     -23.527  19.263   8.595  1.00 20.00     0.006 C 
BRANCH   7   8
HETATM    8  C6  UNL     1     -25.055  19.258   8.686  1.00 20.00    -0.004 C 
HETATM    9  C4  UNL     1     -25.690  18.989   7.330  1.00 20.00     0.005 C 
ENDBRANCH   7   8
ENDBRANCH   5   7
ENDBRANCH   1   5
BRANCH   1  10
HETATM   10  O10 UNL     1     -22.949  16.001   9.421  1.00 20.00    -0.395 OA
HETATM   11  H28 UNL     1     -22.994  16.090   8.457  1.00 20.00     0.210 HD
ENDBRANCH   1  10
TORSDOF 5
ENDMDL
MODEL 3
REMARK VINA RESULT:      -4.9     11.226     12.067
REMARK  5 active torsions:
REMARK  status: ('A' for Active; 'I' for Inactive)
REMARK    1  A    between atoms: C3_3  and  C8_8 
REMARK    2  A    between atoms: C6_6  and  C7_7 
REMARK    3  A    between atoms: C7_7  and  C9_9 
REMARK    4  A    between atoms: C8_8  and  C9_9 
REMARK    5  A    between atoms: C8_8  and  O10_10 
ROOT
HETATM    1  C8  UNL     1     -35.714  14.193  -4.515  1.00 20.00     0.126 C 
ENDROOT
BRANCH   1   2
HETATM    2  C3  UNL     1     -36.901  14.958  -4.006  1.00 20.00     0.015 A 
HETATM    3  C1  UNL     1     -37.726  15.793  -4.948  1.00 20.00     0.007 A 
HETATM    4  C2  UNL     1     -38.294  14.525  -4.373  1.00 20.00     0.007 A 
ENDBRANCH   1   2
BRANCH   1   5
HETATM    5  C9  UNL     1     -34.414  14.397  -3.700  1.00 20.00     0.011 C 
HETATM    6  C5  UNL     1     -33.169  14.509  -4.591  1.00 20.00     0.012 C 
BRANCH   5   7
HETATM    7  C7  UNL     1     -34.548  15.595  -2.737  1.00 20.00     0.006 C 
BRANCH   7   8
HETATM    8  C6  UNL     1     -33.338  16.533  -2.764  1.00 20.00    -0.004 C 
HETATM    9  C4  UNL     1     -33.392  17.541  -1.625  1.00 20.00     0.005 C 
ENDBRANCH   7   8
ENDBRANCH   5   7
ENDBRANCH   1   5
BRANCH   1  10
HETATM   10  O10 UNL     1     -36.028  12.799  -4.530  1.00 20.00    -0.395 OA
HETATM   11  H28 UNL     1     -36.768  12.680  -3.917  1.00 20.00     0.210 HD
ENDBRANCH   1  10
TORSDOF 5
ENDMDL
MODEL 4
REMARK VINA RESULT:      -4.8      1.723      4.652
REMARK  5 active torsions:
REMARK  status: ('A' for Active; 'I' for Inactive)
REMARK    1  A    between atoms: C3_3  and  C8_8 
REMARK    2  A    between atoms: C6_6  and  C7_7 
REMARK    3  A    between atoms: C7_7  and  C9_9 
REMARK    4  A    between atoms: C8_8  and  C9_9 
REMARK    5  A    between atoms: C8_8  and  O10_10 
ROOT
HETATM    1  C8  UNL     1     -32.719   7.594   2.511  1.00 20.00     0.126 C 
ENDROOT
BRANCH   1   2
HETATM    2  C3  UNL     1     -32.369   7.896   1.082  1.00 20.00     0.015 A 
HETATM    3  C1  UNL     1     -33.456   8.160   0.076  1.00 20.00     0.007 A 
HETATM    4  C2  UNL     1     -32.565   9.282   0.533  1.00 20.00     0.007 A 
ENDBRANCH   1   2
BRANCH   1   5
HETATM    5  C9  UNL     1     -33.658   6.379   2.705  1.00 20.00     0.011 C 
HETATM    6  C5  UNL     1     -32.942   5.038   2.488  1.00 20.00     0.012 C 
BRANCH   5   7
HETATM    7  C7  UNL     1     -34.368   6.442   4.074  1.00 20.00     0.006 C 
BRANCH   7   8
HETATM    8  C6  UNL     1     -34.795   5.069   4.599  1.00 20.00    -0.004 C 
HETATM    9  C4  UNL     1     -34.735   5.014   6.119  1.00 20.00     0.005 C 
ENDBRANCH   7   8
ENDBRANCH   5   7
ENDBRANCH   1   5
BRANCH   1  10
HETATM   10  O10 UNL     1     -31.517   7.362   3.247  1.00 20.00    -0.395 OA
HETATM   11  H28 UNL     1     -30.807   7.801   2.755  1.00 20.00     0.210 HD
ENDBRANCH   1  10
TORSDOF 5
ENDMDL
MODEL 5
REMARK VINA RESULT:      -4.7      1.213      1.863
REMARK  5 active torsions:
REMARK  status: ('A' for Active; 'I' for Inactive)
REMARK    1  A    between atoms: C3_3  and  C8_8 
REMARK    2  A    between atoms: C6_6  and  C7_7 
REMARK    3  A    between atoms: C7_7  and  C9_9 
REMARK    4  A    between atoms: C8_8  and  C9_9 
REMARK    5  A    between atoms: C8_8  and  O10_10 
ROOT
HETATM    1  C8  UNL     1     -33.773   6.135   3.422  1.00 20.00     0.126 C 
ENDROOT
BRANCH   1   2
HETATM    2  C3  UNL     1     -33.661   5.761   4.871  1.00 20.00     0.015 A 
HETATM    3  C1  UNL     1     -34.361   6.580   5.921  1.00 20.00     0.007 A 
HETATM    4  C2  UNL     1     -34.847   5.193   5.600  1.00 20.00     0.007 A 
ENDBRANCH   1   2
BRANCH   1   5
HETATM    5  C9  UNL     1     -32.925   7.358   3.000  1.00 20.00     0.011 C 
HETATM    6  C5  UNL     1     -31.658   7.522   3.852  1.00 20.00     0.012 C 
BRANCH   5   7
HETATM    7  C7  UNL     1     -32.606   7.316   1.490  1.00 20.00     0.006 C 
BRANCH   7   8
HETATM    8  C6  UNL     1     -32.602   8.699   0.833  1.00 20.00    -0.004 C 
HETATM    9  C4  UNL     1     -33.453   8.716  -0.428  1.00 20.00     0.005 C 
ENDBRANCH   7   8
ENDBRANCH   5   7
ENDBRANCH   1   5
BRANCH   1  10
HETATM   10  O10 UNL     1     -33.388   5.016   2.620  1.00 20.00    -0.395 OA
HETATM   11  H28 UNL     1     -32.710   4.541   3.123  1.00 20.00     0.210 HD
ENDBRANCH   1  10
TORSDOF 5
ENDMDL
MODEL 6
REMARK VINA RESULT:      -4.7     11.875     12.671
REMARK  5 active torsions:
REMARK  status: ('A' for Active; 'I' for Inactive)
REMARK    1  A    between atoms: C3_3  and  C8_8 
REMARK    2  A    between atoms: C6_6  and  C7_7 
REMARK    3  A    between atoms: C7_7  and  C9_9 
REMARK    4  A    between atoms: C8_8  and  C9_9 
REMARK    5  A    between atoms: C8_8  and  O10_10 
ROOT
HETATM    1  C8  UNL     1     -33.941  15.106  -4.689  1.00 20.00     0.126 C 
ENDROOT
BRANCH   1   2
HETATM    2  C3  UNL     1     -34.053  16.305  -3.792  1.00 20.00     0.015 A 
HETATM    3  C1  UNL     1     -34.480  16.142  -2.358  1.00 20.00     0.007 A 
HETATM    4  C2  UNL     1     -33.059  16.514  -2.682  1.00 20.00     0.007 A 
ENDBRANCH   1   2
BRANCH   1   5
HETATM    5  C9  UNL     1     -34.657  15.249  -6.054  1.00 20.00     0.011 C 
HETATM    6  C5  UNL     1     -33.705  15.059  -7.243  1.00 20.00     0.012 C 
BRANCH   5   7
HETATM    7  C7  UNL     1     -35.881  14.313  -6.136  1.00 20.00     0.006 C 
BRANCH   7   8
HETATM    8  C6  UNL     1     -36.323  13.771  -4.774  1.00 20.00    -0.004 C 
HETATM    9  C4  UNL     1     -37.574  14.480  -4.275  1.00 20.00     0.005 C 
ENDBRANCH   7   8
ENDBRANCH   5   7
ENDBRANCH   1   5
BRANCH   1  10
HETATM   10  O10 UNL     1     -32.560  14.828  -4.926  1.00 20.00    -0.395 OA
HETATM   11  H28 UNL     1     -32.277  14.230  -4.218  1.00 20.00     0.210 HD
ENDBRANCH   1  10
TORSDOF 5
ENDMDL
MODEL 7
REMARK VINA RESULT:      -4.7      1.350      3.826
REMARK  5 active torsions:
REMARK  status: ('A' for Active; 'I' for Inactive)
REMARK    1  A    between atoms: C3_3  and  C8_8 
REMARK    2  A    between atoms: C6_6  and  C7_7 
REMARK    3  A    between atoms: C7_7  and  C9_9 
REMARK    4  A    between atoms: C8_8  and  C9_9 
REMARK    5  A    between atoms: C8_8  and  O10_10 
ROOT
HETATM    1  C8  UNL     1     -33.248   5.208   2.728  1.00 20.00     0.126 C 
ENDROOT
BRANCH   1   2
HETATM    2  C3  UNL     1     -33.218   6.705   2.833  1.00 20.00     0.015 A 
HETATM    3  C1  UNL     1     -31.944   7.412   3.208  1.00 20.00     0.007 A 
HETATM    4  C2  UNL     1     -32.479   7.519   1.807  1.00 20.00     0.007 A 
ENDBRANCH   1   2
BRANCH   1   5
HETATM    5  C9  UNL     1     -34.287   4.515   3.644  1.00 20.00     0.011 C 
HETATM    6  C5  UNL     1     -33.654   3.468   4.570  1.00 20.00     0.012 C 
BRANCH   5   7
HETATM    7  C7  UNL     1     -35.115   5.557   4.426  1.00 20.00     0.006 C 
BRANCH   7   8
HETATM    8  C6  UNL     1     -34.771   5.608   5.918  1.00 20.00    -0.004 C 
HETATM    9  C4  UNL     1     -33.959   6.848   6.257  1.00 20.00     0.005 C 
ENDBRANCH   7   8
ENDBRANCH   5   7
ENDBRANCH   1   5
BRANCH   1  10
HETATM   10  O10 UNL     1     -33.519   4.839   1.374  1.00 20.00    -0.395 OA
HETATM   11  H28 UNL     1     -34.394   5.197   1.164  1.00 20.00     0.210 HD
ENDBRANCH   1  10
TORSDOF 5
ENDMDL
MODEL 8
REMARK VINA RESULT:      -4.7     11.787     13.133
REMARK  5 active torsions:
REMARK  status: ('A' for Active; 'I' for Inactive)
REMARK    1  A    between atoms: C3_3  and  C8_8 
REMARK    2  A    between atoms: C6_6  and  C7_7 
REMARK    3  A    between atoms: C7_7  and  C9_9 
REMARK    4  A    between atoms: C8_8  and  C9_9 
REMARK    5  A    between atoms: C8_8  and  O10_10 
ROOT
HETATM    1  C8  UNL     1     -34.190  15.048  -5.944  1.00 20.00     0.126 C 
ENDROOT
BRANCH   1   2
HETATM    2  C3  UNL     1     -35.571  14.771  -6.463  1.00 20.00     0.015 A 
HETATM    3  C1  UNL     1     -36.527  15.905  -6.716  1.00 20.00     0.007 A 
HETATM    4  C2  UNL     1     -35.938  15.146  -7.873  1.00 20.00     0.007 A 
ENDBRANCH   1   2
BRANCH   1   5
HETATM    5  C9  UNL     1     -33.877  14.416  -4.566  1.00 20.00     0.011 C 
HETATM    6  C5  UNL     1     -32.397  14.544  -4.179  1.00 20.00     0.012 C 
BRANCH   5   7
HETATM    7  C7  UNL     1     -34.812  14.980  -3.475  1.00 20.00     0.006 C 
BRANCH   7   8
HETATM    8  C6  UNL     1     -34.131  16.004  -2.563  1.00 20.00    -0.004 C 
HETATM    9  C4  UNL     1     -35.093  16.533  -1.509  1.00 20.00     0.005 C 
ENDBRANCH   7   8
ENDBRANCH   5   7
ENDBRANCH   1   5
BRANCH   1  10
HETATM   10  O10 UNL     1     -33.231  14.571  -6.890  1.00 20.00    -0.395 OA
HETATM   11  H28 UNL     1     -33.601  14.751  -7.767  1.00 20.00     0.210 HD
ENDBRANCH   1  10
TORSDOF 5
ENDMDL
MODEL 9
REMARK VINA RESULT:      -4.6     11.551     12.774
REMARK  5 active torsions:
REMARK  status: ('A' for Active; 'I' for Inactive)
REMARK    1  A    between atoms: C3_3  and  C8_8 
REMARK    2  A    between atoms: C6_6  and  C7_7 
REMARK    3  A    between atoms: C7_7  and  C9_9 
REMARK    4  A    between atoms: C8_8  and  C9_9 
REMARK    5  A    between atoms: C8_8  and  O10_10 
ROOT
HETATM    1  C8  UNL     1     -32.876  16.907  -2.752  1.00 20.00     0.126 C 
ENDROOT
BRANCH   1   2
HETATM    2  C3  UNL     1     -32.917  17.953  -1.676  1.00 20.00     0.015 A 
HETATM    3  C1  UNL     1     -31.684  18.261  -0.872  1.00 20.00     0.007 A 
HETATM    4  C2  UNL     1     -32.201  19.262  -1.867  1.00 20.00     0.007 A 
ENDBRANCH   1   2
BRANCH   1   5
HETATM    5  C9  UNL     1     -33.987  15.833  -2.654  1.00 20.00     0.011 C 
HETATM    6  C5  UNL     1     -35.223  16.329  -1.891  1.00 20.00     0.012 C 
BRANCH   5   7
HETATM    7  C7  UNL     1     -34.349  15.284  -4.050  1.00 20.00     0.006 C 
BRANCH   7   8
HETATM    8  C6  UNL     1     -34.916  13.862  -4.015  1.00 20.00    -0.004 C 
HETATM    9  C4  UNL     1     -36.349  13.825  -4.522  1.00 20.00     0.005 C 
ENDBRANCH   7   8
ENDBRANCH   5   7
ENDBRANCH   1   5
BRANCH   1  10
HETATM   10  O10 UNL     1     -32.971  17.544  -4.027  1.00 20.00    -0.395 OA
HETATM   11  H28 UNL     1     -33.446  18.376  -3.882  1.00 20.00     0.210 HD
ENDBRANCH   1  10
TORSDOF 5
ENDMDL
