MODEL 1
REMARK VINA RESULT:      -4.6      0.000      0.000
REMARK  3 active torsions:
REMARK  status: ('A' for Active; 'I' for Inactive)
REMARK    1  A    between atoms: C2_2  and  C5_5 
REMARK    2  A    between atoms: C2_2  and  C8_8 
REMARK    3  A    between atoms: C7_7  and  C8_8 
ROOT
HETATM    1  C1  UNL     1     -22.197  17.581   8.271  1.00 20.00     0.071 C 
HETATM    2  C8  UNL     1     -22.697  18.455   9.348  1.00 20.00     0.162 C 
HETATM    3  N9  UNL     1     -21.801  16.895   7.423  1.00 20.00    -0.196 NA
ENDROOT
BRANCH   2   4
HETATM    4  C2  UNL     1     -22.986  17.661  10.613  1.00 20.00     0.148 C 
HETATM    5  O10 UNL     1     -22.277  17.674  11.613  1.00 20.00    -0.296 OA
BRANCH   4   6
HETATM    6  C5  UNL     1     -24.217  16.817  10.592  1.00 20.00     0.057 A 
HETATM    7  C3  UNL     1     -24.402  15.801  11.667  1.00 20.00     0.013 A 
HETATM    8  C4  UNL     1     -25.247  17.038  11.649  1.00 20.00     0.013 A 
ENDBRANCH   4   6
ENDBRANCH   2   4
BRANCH   2   9
HETATM    9  C7  UNL     1     -23.923  19.263   8.900  1.00 20.00     0.022 C 
HETATM   10  C6  UNL     1     -24.435  18.923   7.503  1.00 20.00     0.007 C 
ENDBRANCH   2   9
TORSDOF 3
ENDMDL
MODEL 2
REMARK VINA RESULT:      -4.5     17.401     18.966
REMARK  3 active torsions:
REMARK  status: ('A' for Active; 'I' for Inactive)
REMARK    1  A    between atoms: C2_2  and  C5_5 
REMARK    2  A    between atoms: C2_2  and  C8_8 
REMARK    3  A    between atoms: C7_7  and  C8_8 
ROOT
HETATM    1  C1  UNL     1     -36.831  14.105  -4.830  1.00 20.00     0.071 C 
HETATM    2  C8  UNL     1     -35.536  14.218  -5.525  1.00 20.00     0.162 C 
HETATM    3  N9  UNL     1     -37.851  14.014  -4.284  1.00 20.00    -0.196 NA
ENDROOT
BRANCH   2   4
HETATM    4  C2  UNL     1     -34.416  14.557  -4.553  1.00 20.00     0.148 C 
HETATM    5  O10 UNL     1     -33.446  13.839  -4.339  1.00 20.00    -0.296 OA
BRANCH   4   6
HETATM    6  C5  UNL     1     -34.548  15.855  -3.826  1.00 20.00     0.057 A 
HETATM    7  C3  UNL     1     -34.724  15.826  -2.345  1.00 20.00     0.013 A 
HETATM    8  C4  UNL     1     -33.429  16.289  -2.941  1.00 20.00     0.013 A 
ENDBRANCH   4   6
ENDBRANCH   2   4
BRANCH   2   9
HETATM    9  C7  UNL     1     -35.598  15.225  -6.683  1.00 20.00     0.022 C 
HETATM   10  C6  UNL     1     -34.298  15.377  -7.466  1.00 20.00     0.007 C 
ENDBRANCH   2   9
TORSDOF 3
ENDMDL
MODEL 3
REMARK VINA RESULT:      -4.5     16.287     17.912
REMARK  3 active torsions:
REMARK  status: ('A' for Active; 'I' for Inactive)
REMARK    1  A    between atoms: C2_2  and  C5_5 
REMARK    2  A    between atoms: C2_2  and  C8_8 
REMARK    3  A    between atoms: C7_7  and  C8_8 
ROOT
HETATM    1  C1  UNL     1     -35.927  13.981  -4.267  1.00 20.00     0.071 C 
HETATM    2  C8  UNL     1     -34.538  14.341  -3.930  1.00 20.00     0.162 C 
HETATM    3  N9  UNL     1     -37.019  13.695  -4.532  1.00 20.00    -0.196 NA
ENDROOT
BRANCH   2   4
HETATM    4  C2  UNL     1     -34.489  15.535  -2.990  1.00 20.00     0.148 C 
HETATM    5  O10 UNL     1     -35.413  15.879  -2.262  1.00 20.00    -0.296 OA
BRANCH   4   6
HETATM    6  C5  UNL     1     -33.219  16.321  -2.990  1.00 20.00     0.057 A 
HETATM    7  C3  UNL     1     -33.268  17.754  -3.399  1.00 20.00     0.013 A 
HETATM    8  C4  UNL     1     -33.044  17.388  -1.963  1.00 20.00     0.013 A 
ENDBRANCH   4   6
ENDBRANCH   2   4
BRANCH   2   9
HETATM    9  C7  UNL     1     -33.692  14.583  -5.189  1.00 20.00     0.022 C 
HETATM   10  C6  UNL     1     -34.426  15.292  -6.323  1.00 20.00     0.007 C 
ENDBRANCH   2   9
TORSDOF 3
ENDMDL
MODEL 4
REMARK VINA RESULT:      -4.4     17.331     19.052
REMARK  3 active torsions:
REMARK  status: ('A' for Active; 'I' for Inactive)
REMARK    1  A    between atoms: C2_2  and  C5_5 
REMARK    2  A    between atoms: C2_2  and  C8_8 
REMARK    3  A    between atoms: C7_7  and  C8_8 
ROOT
HETATM    1  C1  UNL     1     -36.842  14.510  -4.159  1.00 20.00     0.071 C 
HETATM    2  C8  UNL     1     -35.561  15.230  -4.035  1.00 20.00     0.162 C 
HETATM    3  N9  UNL     1     -37.851  13.947  -4.258  1.00 20.00    -0.196 NA
ENDROOT
BRANCH   2   4
HETATM    4  C2  UNL     1     -34.428  14.458  -4.693  1.00 20.00     0.148 C 
HETATM    5  O10 UNL     1     -33.951  13.420  -4.250  1.00 20.00    -0.296 OA
BRANCH   4   6
HETATM    6  C5  UNL     1     -33.882  15.041  -5.955  1.00 20.00     0.057 A 
HETATM    7  C3  UNL     1     -34.767  15.093  -7.155  1.00 20.00     0.013 A 
HETATM    8  C4  UNL     1     -34.418  16.353  -6.421  1.00 20.00     0.013 A 
ENDBRANCH   4   6
ENDBRANCH   2   4
BRANCH   2   9
HETATM    9  C7  UNL     1     -35.237  15.564  -2.571  1.00 20.00     0.022 C 
HETATM   10  C6  UNL     1     -33.982  16.408  -2.373  1.00 20.00     0.007 C 
ENDBRANCH   2   9
TORSDOF 3
ENDMDL
MODEL 5
REMARK VINA RESULT:      -4.4     15.702     16.504
REMARK  3 active torsions:
REMARK  status: ('A' for Active; 'I' for Inactive)
REMARK    1  A    between atoms: C2_2  and  C5_5 
REMARK    2  A    between atoms: C2_2  and  C8_8 
REMARK    3  A    between atoms: C7_7  and  C8_8 
ROOT
HETATM    1  C1  UNL     1     -33.959   5.148   3.496  1.00 20.00     0.071 C 
HETATM    2  C8  UNL     1     -33.840   6.593   3.760  1.00 20.00     0.162 C 
HETATM    3  N9  UNL     1     -34.057   4.011   3.287  1.00 20.00    -0.196 NA
ENDROOT
BRANCH   2   4
HETATM    4  C2  UNL     1     -32.698   7.207   2.965  1.00 20.00     0.148 C 
HETATM    5  O10 UNL     1     -31.600   7.484   3.435  1.00 20.00    -0.296 OA
BRANCH   4   6
HETATM    6  C5  UNL     1     -32.975   7.483   1.524  1.00 20.00     0.057 A 
HETATM    7  C3  UNL     1     -33.011   8.902   1.066  1.00 20.00     0.013 A 
HETATM    8  C4  UNL     1     -31.867   8.014   0.678  1.00 20.00     0.013 A 
ENDBRANCH   4   6
ENDBRANCH   2   4
BRANCH   2   9
HETATM    9  C7  UNL     1     -33.699   6.886   5.262  1.00 20.00     0.022 C 
HETATM   10  C6  UNL     1     -34.508   5.964   6.169  1.00 20.00     0.007 C 
ENDBRANCH   2   9
TORSDOF 3
ENDMDL
MODEL 6
REMARK VINA RESULT:      -4.2     17.200     18.743
REMARK  3 active torsions:
REMARK  status: ('A' for Active; 'I' for Inactive)
REMARK    1  A    between atoms: C2_2  and  C5_5 
REMARK    2  A    between atoms: C2_2  and  C8_8 
REMARK    3  A    between atoms: C7_7  and  C8_8 
ROOT
HETATM    1  C1  UNL     1     -36.059  13.830  -4.661  1.00 20.00     0.071 C 
HETATM    2  C8  UNL     1     -36.274  15.274  -4.866  1.00 20.00     0.162 C 
HETATM    3  N9  UNL     1     -35.891  12.693  -4.503  1.00 20.00    -0.196 NA
ENDROOT
BRANCH   2   4
HETATM    4  C2  UNL     1     -35.068  16.081  -4.412  1.00 20.00     0.148 C 
HETATM    5  O10 UNL     1     -34.617  17.049  -5.014  1.00 20.00    -0.296 OA
BRANCH   4   6
HETATM    6  C5  UNL     1     -34.411  15.627  -3.149  1.00 20.00     0.057 A 
HETATM    7  C3  UNL     1     -33.483  16.564  -2.453  1.00 20.00     0.013 A 
HETATM    8  C4  UNL     1     -34.828  16.261  -1.865  1.00 20.00     0.013 A 
ENDBRANCH   4   6
ENDBRANCH   2   4
BRANCH   2   9
HETATM    9  C7  UNL     1     -37.562  15.759  -4.185  1.00 20.00     0.022 C 
HETATM   10  C6  UNL     1     -38.732  14.783  -4.265  1.00 20.00     0.007 C 
ENDBRANCH   2   9
TORSDOF 3
ENDMDL
MODEL 7
REMARK VINA RESULT:      -4.2     16.384     17.961
REMARK  3 active torsions:
REMARK  status: ('A' for Active; 'I' for Inactive)
REMARK    1  A    between atoms: C2_2  and  C5_5 
REMARK    2  A    between atoms: C2_2  and  C8_8 
REMARK    3  A    between atoms: C7_7  and  C8_8 
ROOT
HETATM    1  C1  UNL     1     -33.201  17.187  -3.448  1.00 20.00     0.071 C 
HETATM    2  C8  UNL     1     -33.647  15.812  -3.156  1.00 20.00     0.162 C 
HETATM    3  N9  UNL     1     -32.849  18.268  -3.674  1.00 20.00    -0.196 NA
ENDROOT
BRANCH   2   4
HETATM    4  C2  UNL     1     -33.685  14.965  -4.419  1.00 20.00     0.148 C 
HETATM    5  O10 UNL     1     -33.208  13.840  -4.512  1.00 20.00    -0.296 OA
BRANCH   4   6
HETATM    6  C5  UNL     1     -34.348  15.585  -5.606  1.00 20.00     0.057 A 
HETATM    7  C3  UNL     1     -33.984  15.089  -6.964  1.00 20.00     0.013 A 
HETATM    8  C4  UNL     1     -35.326  14.767  -6.380  1.00 20.00     0.013 A 
ENDBRANCH   4   6
ENDBRANCH   2   4
BRANCH   2   9
HETATM    9  C7  UNL     1     -34.999  15.795  -2.428  1.00 20.00     0.022 C 
HETATM   10  C6  UNL     1     -35.088  16.733  -1.228  1.00 20.00     0.007 C 
ENDBRANCH   2   9
TORSDOF 3
ENDMDL
MODEL 8
REMARK VINA RESULT:      -4.1     17.659     19.245
REMARK  3 active torsions:
REMARK  status: ('A' for Active; 'I' for Inactive)
REMARK    1  A    between atoms: C2_2  and  C5_5 
REMARK    2  A    between atoms: C2_2  and  C8_8 
REMARK    3  A    between atoms: C7_7  and  C8_8 
ROOT
HETATM    1  C1  UNL     1     -34.436  14.614  -5.119  1.00 20.00     0.071 C 
HETATM    2  C8  UNL     1     -35.227  14.495  -3.881  1.00 20.00     0.162 C 
HETATM    3  N9  UNL     1     -33.812  14.705  -6.092  1.00 20.00    -0.196 NA
ENDROOT
BRANCH   2   4
HETATM    4  C2  UNL     1     -36.719  14.565  -4.170  1.00 20.00     0.148 C 
HETATM    5  O10 UNL     1     -37.409  13.600  -4.476  1.00 20.00    -0.296 OA
BRANCH   4   6
HETATM    6  C5  UNL     1     -37.344  15.917  -4.072  1.00 20.00     0.057 A 
HETATM    7  C3  UNL     1     -37.421  16.756  -5.303  1.00 20.00     0.013 A 
HETATM    8  C4  UNL     1     -38.663  16.139  -4.733  1.00 20.00     0.013 A 
ENDBRANCH   4   6
ENDBRANCH   2   4
BRANCH   2   9
HETATM    9  C7  UNL     1     -34.808  15.540  -2.836  1.00 20.00     0.022 C 
HETATM   10  C6  UNL     1     -33.412  16.119  -3.039  1.00 20.00     0.007 C 
ENDBRANCH   2   9
TORSDOF 3
ENDMDL
MODEL 9
REMARK VINA RESULT:      -4.1     17.553     19.304
REMARK  3 active torsions:
REMARK  status: ('A' for Active; 'I' for Inactive)
REMARK    1  A    between atoms: C2_2  and  C5_5 
REMARK    2  A    between atoms: C2_2  and  C8_8 
REMARK    3  A    between atoms: C7_7  and  C8_8 
ROOT
HETATM    1  C1  UNL     1     -35.606  13.818  -4.305  1.00 20.00     0.071 C 
HETATM    2  C8  UNL     1     -35.340  15.255  -4.106  1.00 20.00     0.162 C 
HETATM    3  N9  UNL     1     -35.818  12.689  -4.460  1.00 20.00    -0.196 NA
ENDROOT
BRANCH   2   4
HETATM    4  C2  UNL     1     -34.778  15.892  -5.368  1.00 20.00     0.148 C 
HETATM    5  O10 UNL     1     -34.480  17.076  -5.470  1.00 20.00    -0.296 OA
BRANCH   4   6
HETATM    6  C5  UNL     1     -34.601  14.983  -6.540  1.00 20.00     0.057 A 
HETATM    7  C3  UNL     1     -35.442  15.210  -7.750  1.00 20.00     0.013 A 
HETATM    8  C4  UNL     1     -33.979  15.534  -7.778  1.00 20.00     0.013 A 
ENDBRANCH   4   6
ENDBRANCH   2   4
BRANCH   2   9
HETATM    9  C7  UNL     1     -34.425  15.501  -2.898  1.00 20.00     0.022 C 
HETATM   10  C6  UNL     1     -35.046  16.347  -1.791  1.00 20.00     0.007 C 
ENDBRANCH   2   9
TORSDOF 3
ENDMDL
