MODEL 1
REMARK VINA RESULT:      -4.1      0.000      0.000
REMARK  3 active torsions:
REMARK  status: ('A' for Active; 'I' for Inactive)
REMARK    1  A    between atoms: C4_4  and  C8_8 
REMARK    2  A    between atoms: C7_7  and  N10_10 
REMARK    3  A    between atoms: C8_8  and  N10_10 
ROOT
HETATM    1  C1  UNL     1     -36.629  13.917  -4.349  1.00 20.00     0.089 C 
HETATM    2  C7  UNL     1     -35.177  13.843  -4.207  1.00 20.00     0.395 C 
HETATM    3  N9  UNL     1     -37.782  13.972  -4.461  1.00 20.00    -0.195 NA
ENDROOT
BRANCH   2   4
HETATM    4  N10 UNL     1     -34.533  14.977  -4.853  1.00 20.00     0.101 N 
HETATM    5  C6  UNL     1     -35.015  15.151  -6.215  1.00 20.00     0.311 C 
BRANCH   4   6
HETATM    6  C8  UNL     1     -34.790  16.210  -4.070  1.00 20.00     0.223 C 
HETATM    7  C5  UNL     1     -34.147  17.390  -4.785  1.00 20.00     0.043 C 
BRANCH   6   8
HETATM    8  C4  UNL     1     -34.236  16.032  -2.664  1.00 20.00     0.018 A 
HETATM    9  C2  UNL     1     -33.815  17.229  -1.858  1.00 20.00     0.007 A 
HETATM   10  C3  UNL     1     -35.047  16.460  -1.471  1.00 20.00     0.007 A 
ENDBRANCH   6   8
ENDBRANCH   4   6
ENDBRANCH   2   4
TORSDOF 3
ENDMDL
MODEL 2
REMARK VINA RESULT:      -4.0      1.581      2.093
REMARK  3 active torsions:
REMARK  status: ('A' for Active; 'I' for Inactive)
REMARK    1  A    between atoms: C4_4  and  C8_8 
REMARK    2  A    between atoms: C7_7  and  N10_10 
REMARK    3  A    between atoms: C8_8  and  N10_10 
ROOT
HETATM    1  C1  UNL     1     -35.803  13.894  -4.245  1.00 20.00     0.089 C 
HETATM    2  C7  UNL     1     -35.673  15.265  -3.755  1.00 20.00     0.395 C 
HETATM    3  N9  UNL     1     -35.910  12.807  -4.635  1.00 20.00    -0.195 NA
ENDROOT
BRANCH   2   4
HETATM    4  N10 UNL     1     -34.426  15.439  -3.025  1.00 20.00     0.101 N 
HETATM    5  C6  UNL     1     -33.276  15.310  -3.907  1.00 20.00     0.311 C 
BRANCH   4   6
HETATM    6  C8  UNL     1     -34.411  16.772  -2.375  1.00 20.00     0.223 C 
HETATM    7  C5  UNL     1     -32.965  17.212  -2.190  1.00 20.00     0.043 C 
BRANCH   6   8
HETATM    8  C4  UNL     1     -35.150  16.688  -1.047  1.00 20.00     0.018 A 
HETATM    9  C2  UNL     1     -34.872  17.688   0.040  1.00 20.00     0.007 A 
HETATM   10  C3  UNL     1     -36.185  17.720  -0.691  1.00 20.00     0.007 A 
ENDBRANCH   6   8
ENDBRANCH   4   6
ENDBRANCH   2   4
TORSDOF 3
ENDMDL
MODEL 3
REMARK VINA RESULT:      -3.9      1.621      2.165
REMARK  3 active torsions:
REMARK  status: ('A' for Active; 'I' for Inactive)
REMARK    1  A    between atoms: C4_4  and  C8_8 
REMARK    2  A    between atoms: C7_7  and  N10_10 
REMARK    3  A    between atoms: C8_8  and  N10_10 
ROOT
HETATM    1  C1  UNL     1     -35.784  13.865  -4.188  1.00 20.00     0.089 C 
HETATM    2  C7  UNL     1     -35.654  15.191  -3.589  1.00 20.00     0.395 C 
HETATM    3  N9  UNL     1     -35.892  12.812  -4.664  1.00 20.00    -0.195 NA
ENDROOT
BRANCH   2   4
HETATM    4  N10 UNL     1     -34.352  15.350  -2.958  1.00 20.00     0.101 N 
HETATM    5  C6  UNL     1     -33.278  15.280  -3.938  1.00 20.00     0.311 C 
BRANCH   4   6
HETATM    6  C8  UNL     1     -34.296  16.651  -2.248  1.00 20.00     0.223 C 
HETATM    7  C5  UNL     1     -35.401  17.551  -2.783  1.00 20.00     0.043 C 
BRANCH   6   8
HETATM    8  C4  UNL     1     -32.920  17.268  -2.445  1.00 20.00     0.018 A 
HETATM    9  C2  UNL     1     -32.758  18.762  -2.489  1.00 20.00     0.007 A 
HETATM   10  C3  UNL     1     -32.242  17.986  -1.310  1.00 20.00     0.007 A 
ENDBRANCH   6   8
ENDBRANCH   4   6
ENDBRANCH   2   4
TORSDOF 3
ENDMDL
MODEL 4
REMARK VINA RESULT:      -3.9     10.991     11.997
REMARK  3 active torsions:
REMARK  status: ('A' for Active; 'I' for Inactive)
REMARK    1  A    between atoms: C4_4  and  C8_8 
REMARK    2  A    between atoms: C7_7  and  N10_10 
REMARK    3  A    between atoms: C8_8  and  N10_10 
ROOT
HETATM    1  C1  UNL     1     -32.669   8.221   1.131  1.00 20.00     0.089 C 
HETATM    2  C7  UNL     1     -32.270   7.293   2.188  1.00 20.00     0.395 C 
HETATM    3  N9  UNL     1     -32.983   8.959   0.293  1.00 20.00    -0.195 NA
ENDROOT
BRANCH   2   4
HETATM    4  N10 UNL     1     -33.374   6.419   2.556  1.00 20.00     0.101 N 
HETATM    5  C6  UNL     1     -32.999   5.018   2.440  1.00 20.00     0.311 C 
BRANCH   4   6
HETATM    6  C8  UNL     1     -33.798   6.710   3.948  1.00 20.00     0.223 C 
HETATM    7  C5  UNL     1     -32.698   7.501   4.641  1.00 20.00     0.043 C 
BRANCH   6   8
HETATM    8  C4  UNL     1     -34.089   5.399   4.664  1.00 20.00     0.018 A 
HETATM    9  C2  UNL     1     -34.683   5.405   6.044  1.00 20.00     0.007 A 
HETATM   10  C3  UNL     1     -35.509   4.951   4.874  1.00 20.00     0.007 A 
ENDBRANCH   6   8
ENDBRANCH   4   6
ENDBRANCH   2   4
TORSDOF 3
ENDMDL
MODEL 5
REMARK VINA RESULT:      -3.8      2.863      5.034
REMARK  3 active torsions:
REMARK  status: ('A' for Active; 'I' for Inactive)
REMARK    1  A    between atoms: C4_4  and  C8_8 
REMARK    2  A    between atoms: C7_7  and  N10_10 
REMARK    3  A    between atoms: C8_8  and  N10_10 
ROOT
HETATM    1  C1  UNL     1     -31.655  18.358  -0.898  1.00 20.00     0.089 C 
HETATM    2  C7  UNL     1     -32.988  18.368  -1.496  1.00 20.00     0.395 C 
HETATM    3  N9  UNL     1     -30.596  18.354  -0.424  1.00 20.00    -0.195 NA
ENDROOT
BRANCH   2   4
HETATM    4  N10 UNL     1     -33.406  17.020  -1.855  1.00 20.00     0.101 N 
HETATM    5  C6  UNL     1     -34.813  16.806  -1.550  1.00 20.00     0.311 C 
BRANCH   4   6
HETATM    6  C8  UNL     1     -33.167  16.792  -3.301  1.00 20.00     0.223 C 
HETATM    7  C5  UNL     1     -33.735  17.966  -4.084  1.00 20.00     0.043 C 
BRANCH   6   8
HETATM    8  C4  UNL     1     -33.811  15.475  -3.710  1.00 20.00     0.018 A 
HETATM    9  C2  UNL     1     -34.051  15.168  -5.162  1.00 20.00     0.007 A 
HETATM   10  C3  UNL     1     -32.996  14.417  -4.401  1.00 20.00     0.007 A 
ENDBRANCH   6   8
ENDBRANCH   4   6
ENDBRANCH   2   4
TORSDOF 3
ENDMDL
MODEL 6
REMARK VINA RESULT:      -3.8      1.716      2.326
REMARK  3 active torsions:
REMARK  status: ('A' for Active; 'I' for Inactive)
REMARK    1  A    between atoms: C4_4  and  C8_8 
REMARK    2  A    between atoms: C7_7  and  N10_10 
REMARK    3  A    between atoms: C8_8  and  N10_10 
ROOT
HETATM    1  C1  UNL     1     -36.504  13.762  -4.513  1.00 20.00     0.089 C 
HETATM    2  C7  UNL     1     -37.352  14.948  -4.409  1.00 20.00     0.395 C 
HETATM    3  N9  UNL     1     -35.834  12.819  -4.595  1.00 20.00    -0.195 NA
ENDROOT
BRANCH   2   4
HETATM    4  N10 UNL     1     -36.555  16.164  -4.470  1.00 20.00     0.101 N 
HETATM    5  C6  UNL     1     -37.401  17.347  -4.533  1.00 20.00     0.311 C 
BRANCH   4   6
HETATM    6  C8  UNL     1     -35.672  16.243  -3.281  1.00 20.00     0.223 C 
HETATM    7  C5  UNL     1     -36.222  17.298  -2.331  1.00 20.00     0.043 C 
BRANCH   6   8
HETATM    8  C4  UNL     1     -34.257  16.571  -3.731  1.00 20.00     0.018 A 
HETATM    9  C2  UNL     1     -33.145  16.674  -2.724  1.00 20.00     0.007 A 
HETATM   10  C3  UNL     1     -33.184  15.518  -3.684  1.00 20.00     0.007 A 
ENDBRANCH   6   8
ENDBRANCH   4   6
ENDBRANCH   2   4
TORSDOF 3
ENDMDL
MODEL 7
REMARK VINA RESULT:      -3.7      1.483      1.746
REMARK  3 active torsions:
REMARK  status: ('A' for Active; 'I' for Inactive)
REMARK    1  A    between atoms: C4_4  and  C8_8 
REMARK    2  A    between atoms: C7_7  and  N10_10 
REMARK    3  A    between atoms: C8_8  and  N10_10 
ROOT
HETATM    1  C1  UNL     1     -36.089  13.868  -4.311  1.00 20.00     0.089 C 
HETATM    2  C7  UNL     1     -36.348  15.254  -3.926  1.00 20.00     0.395 C 
HETATM    3  N9  UNL     1     -35.885  12.767  -4.613  1.00 20.00    -0.195 NA
ENDROOT
BRANCH   2   4
HETATM    4  N10 UNL     1     -35.298  16.134  -4.416  1.00 20.00     0.101 N 
HETATM    5  C6  UNL     1     -35.833  17.143  -5.318  1.00 20.00     0.311 C 
BRANCH   4   6
HETATM    6  C8  UNL     1     -34.625  16.794  -3.270  1.00 20.00     0.223 C 
HETATM    7  C5  UNL     1     -33.239  16.190  -3.099  1.00 20.00     0.043 C 
BRANCH   6   8
HETATM    8  C4  UNL     1     -35.477  16.615  -2.022  1.00 20.00     0.018 A 
HETATM    9  C2  UNL     1     -34.975  17.090  -0.687  1.00 20.00     0.007 A 
HETATM   10  C3  UNL     1     -36.110  17.809  -1.360  1.00 20.00     0.007 A 
ENDBRANCH   6   8
ENDBRANCH   4   6
ENDBRANCH   2   4
TORSDOF 3
ENDMDL
MODEL 8
REMARK VINA RESULT:      -3.7      1.255      1.516
REMARK  3 active torsions:
REMARK  status: ('A' for Active; 'I' for Inactive)
REMARK    1  A    between atoms: C4_4  and  C8_8 
REMARK    2  A    between atoms: C7_7  and  N10_10 
REMARK    3  A    between atoms: C8_8  and  N10_10 
ROOT
HETATM    1  C1  UNL     1     -37.363  14.441  -4.136  1.00 20.00     0.089 C 
HETATM    2  C7  UNL     1     -36.048  14.905  -3.699  1.00 20.00     0.395 C 
HETATM    3  N9  UNL     1     -38.407  14.072  -4.480  1.00 20.00    -0.195 NA
ENDROOT
BRANCH   2   4
HETATM    4  N10 UNL     1     -35.252  15.355  -4.832  1.00 20.00     0.101 N 
HETATM    5  C6  UNL     1     -35.922  16.427  -5.554  1.00 20.00     0.311 C 
BRANCH   4   6
HETATM    6  C8  UNL     1     -33.927  15.824  -4.357  1.00 20.00     0.223 C 
HETATM    7  C5  UNL     1     -32.955  14.652  -4.378  1.00 20.00     0.043 C 
BRANCH   6   8
HETATM    8  C4  UNL     1     -34.077  16.408  -2.960  1.00 20.00     0.018 A 
HETATM    9  C2  UNL     1     -32.905  17.065  -2.284  1.00 20.00     0.007 A 
HETATM   10  C3  UNL     1     -34.063  17.898  -2.758  1.00 20.00     0.007 A 
ENDBRANCH   6   8
ENDBRANCH   4   6
ENDBRANCH   2   4
TORSDOF 3
ENDMDL
MODEL 9
REMARK VINA RESULT:      -3.7      1.476      3.499
REMARK  3 active torsions:
REMARK  status: ('A' for Active; 'I' for Inactive)
REMARK    1  A    between atoms: C4_4  and  C8_8 
REMARK    2  A    between atoms: C7_7  and  N10_10 
REMARK    3  A    between atoms: C8_8  and  N10_10 
ROOT
HETATM    1  C1  UNL     1     -37.341  14.919  -4.297  1.00 20.00     0.089 C 
HETATM    2  C7  UNL     1     -36.677  16.220  -4.273  1.00 20.00     0.395 C 
HETATM    3  N9  UNL     1     -37.872  13.887  -4.317  1.00 20.00    -0.195 NA
ENDROOT
BRANCH   2   4
HETATM    4  N10 UNL     1     -35.253  16.072  -4.006  1.00 20.00     0.101 N 
HETATM    5  C6  UNL     1     -35.017  15.609  -2.646  1.00 20.00     0.311 C 
BRANCH   4   6
HETATM    6  C8  UNL     1     -34.662  15.112  -4.970  1.00 20.00     0.223 C 
HETATM    7  C5  UNL     1     -33.321  14.636  -4.430  1.00 20.00     0.043 C 
BRANCH   6   8
HETATM    8  C4  UNL     1     -34.516  15.792  -6.324  1.00 20.00     0.018 A 
HETATM    9  C2  UNL     1     -33.772  15.110  -7.438  1.00 20.00     0.007 A 
HETATM   10  C3  UNL     1     -35.265  15.268  -7.518  1.00 20.00     0.007 A 
ENDBRANCH   6   8
ENDBRANCH   4   6
ENDBRANCH   2   4
TORSDOF 3
ENDMDL
