MODEL 1
REMARK VINA RESULT:      -4.6      0.000      0.000
REMARK  3 active torsions:
REMARK  status: ('A' for Active; 'I' for Inactive)
REMARK    1  A    between atoms: C5_5  and  C9_9 
REMARK    2  A    between atoms: C8_8  and  N10_10 
REMARK    3  A    between atoms: C9_9  and  N10_10 
ROOT
HETATM    1  C1  UNL     1     -33.108   8.761   0.149  1.00 20.00     0.013 C 
HETATM    2  C2  UNL     1     -32.712   8.150   1.104  1.00 20.00    -0.087 C 
HETATM    3  C8  UNL     1     -32.225   7.407   2.268  1.00 20.00     0.364 C 
ENDROOT
BRANCH   3   4
HETATM    4  N10 UNL     1     -33.260   6.524   2.786  1.00 20.00     0.099 N 
HETATM    5  C7  UNL     1     -33.123   5.179   2.248  1.00 20.00     0.311 C 
BRANCH   4   6
HETATM    6  C9  UNL     1     -33.185   6.481   4.267  1.00 20.00     0.223 C 
HETATM    7  C6  UNL     1     -32.565   7.778   4.766  1.00 20.00     0.043 C 
BRANCH   6   8
HETATM    8  C5  UNL     1     -34.582   6.271   4.830  1.00 20.00     0.018 A 
HETATM    9  C3  UNL     1     -35.269   4.942   4.678  1.00 20.00     0.007 A 
HETATM   10  C4  UNL     1     -34.790   5.389   6.031  1.00 20.00     0.007 A 
ENDBRANCH   6   8
ENDBRANCH   4   6
ENDBRANCH   3   4
TORSDOF 3
ENDMDL
MODEL 2
REMARK VINA RESULT:      -4.0     15.884     16.292
REMARK  3 active torsions:
REMARK  status: ('A' for Active; 'I' for Inactive)
REMARK    1  A    between atoms: C5_5  and  C9_9 
REMARK    2  A    between atoms: C8_8  and  N10_10 
REMARK    3  A    between atoms: C9_9  and  N10_10 
ROOT
HETATM    1  C1  UNL     1     -21.729  17.290   7.705  1.00 20.00     0.013 C 
HETATM    2  C2  UNL     1     -22.095  17.462   8.835  1.00 20.00    -0.087 C 
HETATM    3  C8  UNL     1     -22.539  17.669  10.215  1.00 20.00     0.364 C 
ENDROOT
BRANCH   3   4
HETATM    4  N10 UNL     1     -23.866  18.266  10.245  1.00 20.00     0.099 N 
HETATM    5  C7  UNL     1     -24.382  18.473   8.901  1.00 20.00     0.311 C 
BRANCH   4   6
HETATM    6  C9  UNL     1     -24.790  17.389  11.006  1.00 20.00     0.223 C 
HETATM    7  C6  UNL     1     -23.990  16.258  11.634  1.00 20.00     0.043 C 
BRANCH   6   8
HETATM    8  C5  UNL     1     -25.511  18.220  12.058  1.00 20.00     0.018 A 
HETATM    9  C3  UNL     1     -26.523  19.252  11.647  1.00 20.00     0.007 A 
HETATM   10  C4  UNL     1     -26.972  17.992  12.332  1.00 20.00     0.007 A 
ENDBRANCH   6   8
ENDBRANCH   4   6
ENDBRANCH   3   4
TORSDOF 3
ENDMDL
MODEL 3
REMARK VINA RESULT:      -3.9     11.226     12.530
REMARK  3 active torsions:
REMARK  status: ('A' for Active; 'I' for Inactive)
REMARK    1  A    between atoms: C5_5  and  C9_9 
REMARK    2  A    between atoms: C8_8  and  N10_10 
REMARK    3  A    between atoms: C9_9  and  N10_10 
ROOT
HETATM    1  C1  UNL     1     -33.671  15.150  -7.850  1.00 20.00     0.013 C 
HETATM    2  C2  UNL     1     -34.664  15.207  -7.177  1.00 20.00    -0.087 C 
HETATM    3  C8  UNL     1     -35.877  15.272  -6.359  1.00 20.00     0.364 C 
ENDROOT
BRANCH   3   4
HETATM    4  N10 UNL     1     -35.671  16.131  -5.201  1.00 20.00     0.099 N 
HETATM    5  C7  UNL     1     -36.500  17.325  -5.276  1.00 20.00     0.311 C 
BRANCH   4   6
HETATM    6  C9  UNL     1     -35.986  15.380  -3.961  1.00 20.00     0.223 C 
HETATM    7  C6  UNL     1     -36.646  14.062  -4.338  1.00 20.00     0.043 C 
BRANCH   6   8
HETATM    8  C5  UNL     1     -34.704  15.163  -3.171  1.00 20.00     0.018 A 
HETATM    9  C3  UNL     1     -33.443  15.886  -3.557  1.00 20.00     0.007 A 
HETATM   10  C4  UNL     1     -34.163  16.255  -2.290  1.00 20.00     0.007 A 
ENDBRANCH   6   8
ENDBRANCH   4   6
ENDBRANCH   3   4
TORSDOF 3
ENDMDL
MODEL 4
REMARK VINA RESULT:      -3.9     11.113     11.909
REMARK  3 active torsions:
REMARK  status: ('A' for Active; 'I' for Inactive)
REMARK    1  A    between atoms: C5_5  and  C9_9 
REMARK    2  A    between atoms: C8_8  and  N10_10 
REMARK    3  A    between atoms: C9_9  and  N10_10 
ROOT
HETATM    1  C1  UNL     1     -35.255  17.009  -0.616  1.00 20.00     0.013 C 
HETATM    2  C2  UNL     1     -34.535  16.843  -1.563  1.00 20.00    -0.087 C 
HETATM    3  C8  UNL     1     -33.655  16.641  -2.715  1.00 20.00     0.364 C 
ENDROOT
BRANCH   3   4
HETATM    4  N10 UNL     1     -34.426  16.577  -3.947  1.00 20.00     0.099 N 
HETATM    5  C7  UNL     1     -34.019  17.618  -4.880  1.00 20.00     0.311 C 
BRANCH   4   6
HETATM    6  C9  UNL     1     -34.250  15.245  -4.577  1.00 20.00     0.223 C 
HETATM    7  C6  UNL     1     -32.835  14.756  -4.308  1.00 20.00     0.043 C 
BRANCH   6   8
HETATM    8  C5  UNL     1     -35.293  14.288  -4.017  1.00 20.00     0.018 A 
HETATM    9  C3  UNL     1     -36.729  14.715  -3.900  1.00 20.00     0.007 A 
HETATM   10  C4  UNL     1     -36.333  13.687  -4.922  1.00 20.00     0.007 A 
ENDBRANCH   6   8
ENDBRANCH   4   6
ENDBRANCH   3   4
TORSDOF 3
ENDMDL
MODEL 5
REMARK VINA RESULT:      -3.8     11.056     12.147
REMARK  3 active torsions:
REMARK  status: ('A' for Active; 'I' for Inactive)
REMARK    1  A    between atoms: C5_5  and  C9_9 
REMARK    2  A    between atoms: C8_8  and  N10_10 
REMARK    3  A    between atoms: C9_9  and  N10_10 
ROOT
HETATM    1  C1  UNL     1     -34.801  17.454  -7.271  1.00 20.00     0.013 C 
HETATM    2  C2  UNL     1     -34.670  16.368  -6.776  1.00 20.00    -0.087 C 
HETATM    3  C8  UNL     1     -34.506  15.042  -6.177  1.00 20.00     0.364 C 
ENDROOT
BRANCH   3   4
HETATM    4  N10 UNL     1     -35.237  14.951  -4.921  1.00 20.00     0.099 N 
HETATM    5  C7  UNL     1     -36.191  13.852  -4.943  1.00 20.00     0.311 C 
BRANCH   4   6
HETATM    6  C9  UNL     1     -34.283  14.763  -3.801  1.00 20.00     0.223 C 
HETATM    7  C6  UNL     1     -32.931  14.360  -4.369  1.00 20.00     0.043 C 
BRANCH   6   8
HETATM    8  C5  UNL     1     -34.195  16.053  -2.999  1.00 20.00     0.018 A 
HETATM    9  C3  UNL     1     -35.333  17.036  -3.015  1.00 20.00     0.007 A 
HETATM   10  C4  UNL     1     -35.045  16.242  -1.772  1.00 20.00     0.007 A 
ENDBRANCH   6   8
ENDBRANCH   4   6
ENDBRANCH   3   4
TORSDOF 3
ENDMDL
MODEL 6
REMARK VINA RESULT:      -3.8     11.234     12.473
REMARK  3 active torsions:
REMARK  status: ('A' for Active; 'I' for Inactive)
REMARK    1  A    between atoms: C5_5  and  C9_9 
REMARK    2  A    between atoms: C8_8  and  N10_10 
REMARK    3  A    between atoms: C9_9  and  N10_10 
ROOT
HETATM    1  C1  UNL     1     -30.994  18.245   0.551  1.00 20.00     0.013 C 
HETATM    2  C2  UNL     1     -31.518  18.493  -0.501  1.00 20.00    -0.087 C 
HETATM    3  C8  UNL     1     -32.152  18.796  -1.786  1.00 20.00     0.364 C 
ENDROOT
BRANCH   3   4
HETATM    4  N10 UNL     1     -33.598  18.663  -1.689  1.00 20.00     0.099 N 
HETATM    5  C7  UNL     1     -34.259  19.238  -2.852  1.00 20.00     0.311 C 
BRANCH   4   6
HETATM    6  C9  UNL     1     -33.961  17.231  -1.566  1.00 20.00     0.223 C 
HETATM    7  C6  UNL     1     -35.192  17.110  -0.680  1.00 20.00     0.043 C 
BRANCH   6   8
HETATM    8  C5  UNL     1     -34.208  16.657  -2.954  1.00 20.00     0.018 A 
HETATM    9  C3  UNL     1     -33.201  15.736  -3.583  1.00 20.00     0.007 A 
HETATM   10  C4  UNL     1     -34.527  15.197  -3.124  1.00 20.00     0.007 A 
ENDBRANCH   6   8
ENDBRANCH   4   6
ENDBRANCH   3   4
TORSDOF 3
ENDMDL
MODEL 7
REMARK VINA RESULT:      -3.7     11.258     12.689
REMARK  3 active torsions:
REMARK  status: ('A' for Active; 'I' for Inactive)
REMARK    1  A    between atoms: C5_5  and  C9_9 
REMARK    2  A    between atoms: C8_8  and  N10_10 
REMARK    3  A    between atoms: C9_9  and  N10_10 
ROOT
HETATM    1  C1  UNL     1     -33.086  16.765  -2.677  1.00 20.00     0.013 C 
HETATM    2  C2  UNL     1     -33.459  15.897  -3.417  1.00 20.00    -0.087 C 
HETATM    3  C8  UNL     1     -33.912  14.834  -4.317  1.00 20.00     0.364 C 
ENDROOT
BRANCH   3   4
HETATM    4  N10 UNL     1     -34.653  15.392  -5.439  1.00 20.00     0.099 N 
HETATM    5  C7  UNL     1     -34.056  15.008  -6.710  1.00 20.00     0.311 C 
BRANCH   4   6
HETATM    6  C9  UNL     1     -36.061  14.927  -5.388  1.00 20.00     0.223 C 
HETATM    7  C6  UNL     1     -36.124  13.639  -4.580  1.00 20.00     0.043 C 
BRANCH   6   8
HETATM    8  C5  UNL     1     -36.924  16.019  -4.775  1.00 20.00     0.018 A 
HETATM    9  C3  UNL     1     -36.630  17.467  -5.056  1.00 20.00     0.007 A 
HETATM   10  C4  UNL     1     -37.857  16.823  -5.639  1.00 20.00     0.007 A 
ENDBRANCH   6   8
ENDBRANCH   4   6
ENDBRANCH   3   4
TORSDOF 3
ENDMDL
MODEL 8
REMARK VINA RESULT:      -3.7     11.084     12.600
REMARK  3 active torsions:
REMARK  status: ('A' for Active; 'I' for Inactive)
REMARK    1  A    between atoms: C5_5  and  C9_9 
REMARK    2  A    between atoms: C8_8  and  N10_10 
REMARK    3  A    between atoms: C9_9  and  N10_10 
ROOT
HETATM    1  C1  UNL     1     -34.016  17.162  -1.610  1.00 20.00     0.013 C 
HETATM    2  C2  UNL     1     -34.479  16.279  -2.278  1.00 20.00    -0.087 C 
HETATM    3  C8  UNL     1     -35.047  15.201  -3.090  1.00 20.00     0.364 C 
ENDROOT
BRANCH   3   4
HETATM    4  N10 UNL     1     -34.468  15.202  -4.426  1.00 20.00     0.099 N 
HETATM    5  C7  UNL     1     -33.152  14.580  -4.431  1.00 20.00     0.311 C 
BRANCH   4   6
HETATM    6  C9  UNL     1     -35.366  14.480  -5.360  1.00 20.00     0.223 C 
HETATM    7  C6  UNL     1     -36.462  13.795  -4.558  1.00 20.00     0.043 C 
BRANCH   6   8
HETATM    8  C5  UNL     1     -35.938  15.469  -6.365  1.00 20.00     0.018 A 
HETATM    9  C3  UNL     1     -35.037  16.449  -7.063  1.00 20.00     0.007 A 
HETATM   10  C4  UNL     1     -35.648  15.312  -7.832  1.00 20.00     0.007 A 
ENDBRANCH   6   8
ENDBRANCH   4   6
ENDBRANCH   3   4
TORSDOF 3
ENDMDL
MODEL 9
REMARK VINA RESULT:      -3.7      9.240     10.261
REMARK  3 active torsions:
REMARK  status: ('A' for Active; 'I' for Inactive)
REMARK    1  A    between atoms: C5_5  and  C9_9 
REMARK    2  A    between atoms: C8_8  and  N10_10 
REMARK    3  A    between atoms: C9_9  and  N10_10 
ROOT
HETATM    1  C1  UNL     1     -42.146   2.859  -3.233  1.00 20.00     0.013 C 
HETATM    2  C2  UNL     1     -42.588   3.754  -2.566  1.00 20.00    -0.087 C 
HETATM    3  C8  UNL     1     -43.129   4.847  -1.756  1.00 20.00     0.364 C 
ENDROOT
BRANCH   3   4
HETATM    4  N10 UNL     1     -42.292   5.087  -0.590  1.00 20.00     0.099 N 
HETATM    5  C7  UNL     1     -40.902   5.291  -0.971  1.00 20.00     0.311 C 
BRANCH   4   6
HETATM    6  C9  UNL     1     -42.789   6.275   0.145  1.00 20.00     0.223 C 
HETATM    7  C6  UNL     1     -43.238   5.843   1.533  1.00 20.00     0.043 C 
BRANCH   6   8
HETATM    8  C5  UNL     1     -41.684   7.319   0.210  1.00 20.00     0.018 A 
HETATM    9  C3  UNL     1     -41.477   8.277  -0.930  1.00 20.00     0.007 A 
HETATM   10  C4  UNL     1     -42.025   8.774   0.379  1.00 20.00     0.007 A 
ENDBRANCH   6   8
ENDBRANCH   4   6
ENDBRANCH   3   4
TORSDOF 3
ENDMDL
