MODEL 1
REMARK VINA RESULT:      -5.0      0.000      0.000
REMARK  1 active torsions:
REMARK  status: ('A' for Active; 'I' for Inactive)
REMARK    1  A    between atoms: C6_6  and  N7_7 
ROOT
HETATM    1  C1  UNL     1     -34.774   5.325   5.796  1.00 20.00     0.003 C 
HETATM    2  C2  UNL     1     -34.243   6.751   5.889  1.00 20.00     0.030 C 
HETATM    3  C3  UNL     1     -35.097   4.969   4.350  1.00 20.00     0.030 C 
HETATM    4  C4  UNL     1     -33.081   6.976   4.919  1.00 20.00     0.274 C 
HETATM    5  C5  UNL     1     -33.908   5.251   3.429  1.00 20.00     0.274 C 
HETATM    6  N7  UNL     1     -33.471   6.650   3.541  1.00 20.00     0.101 N 
ENDROOT
BRANCH   6   7
HETATM    7  C6  UNL     1     -32.366   6.915   2.620  1.00 20.00     0.386 C 
HETATM    8 CL8  UNL     1     -32.876   8.170   1.491  1.00 20.00    -0.098 Cl
ENDBRANCH   6   7
TORSDOF 1
ENDMDL
MODEL 2
REMARK VINA RESULT:      -4.4      0.909      1.892
REMARK  1 active torsions:
REMARK  status: ('A' for Active; 'I' for Inactive)
REMARK    1  A    between atoms: C6_6  and  N7_7 
ROOT
HETATM    1  C1  UNL     1     -34.810   6.012   6.139  1.00 20.00     0.003 C 
HETATM    2  C2  UNL     1     -34.733   4.676   5.408  1.00 20.00     0.030 C 
HETATM    3  C3  UNL     1     -33.614   6.885   5.780  1.00 20.00     0.030 C 
HETATM    4  C4  UNL     1     -34.538   4.876   3.904  1.00 20.00     0.274 C 
HETATM    5  C5  UNL     1     -33.454   7.015   4.265  1.00 20.00     0.274 C 
HETATM    6  N7  UNL     1     -33.349   5.694   3.628  1.00 20.00     0.101 N 
ENDROOT
BRANCH   6   7
HETATM    7  C6  UNL     1     -33.148   5.836   2.186  1.00 20.00     0.386 C 
HETATM    8 CL8  UNL     1     -32.466   7.432   1.877  1.00 20.00    -0.098 Cl
ENDBRANCH   6   7
TORSDOF 1
ENDMDL
MODEL 3
REMARK VINA RESULT:      -4.2      0.775      1.861
REMARK  1 active torsions:
REMARK  status: ('A' for Active; 'I' for Inactive)
REMARK    1  A    between atoms: C6_6  and  N7_7 
ROOT
HETATM    1  C1  UNL     1     -35.237   5.020   4.940  1.00 20.00     0.003 C 
HETATM    2  C2  UNL     1     -34.364   4.522   3.795  1.00 20.00     0.030 C 
HETATM    3  C3  UNL     1     -34.429   5.911   5.877  1.00 20.00     0.030 C 
HETATM    4  C4  UNL     1     -33.653   5.680   3.092  1.00 20.00     0.274 C 
HETATM    5  C5  UNL     1     -33.716   7.025   5.109  1.00 20.00     0.274 C 
HETATM    6  N7  UNL     1     -32.865   6.474   4.045  1.00 20.00     0.101 N 
ENDROOT
BRANCH   6   7
HETATM    7  C6  UNL     1     -32.154   7.548   3.352  1.00 20.00     0.386 C 
HETATM    8 CL8  UNL     1     -32.537   7.447   1.634  1.00 20.00    -0.098 Cl
ENDBRANCH   6   7
TORSDOF 1
ENDMDL
MODEL 4
REMARK VINA RESULT:      -3.7     16.286     16.577
REMARK  1 active torsions:
REMARK  status: ('A' for Active; 'I' for Inactive)
REMARK    1  A    between atoms: C6_6  and  N7_7 
ROOT
HETATM    1  C1  UNL     1     -23.949  18.525   7.957  1.00 20.00     0.003 C 
HETATM    2  C2  UNL     1     -24.566  19.263   9.139  1.00 20.00     0.030 C 
HETATM    3  C3  UNL     1     -22.628  17.880   8.361  1.00 20.00     0.030 C 
HETATM    4  C4  UNL     1     -24.667  18.359  10.369  1.00 20.00     0.274 C 
HETATM    5  C5  UNL     1     -22.790  17.020   9.616  1.00 20.00     0.274 C 
HETATM    6  N7  UNL     1     -23.355  17.801  10.725  1.00 20.00     0.101 N 
ENDROOT
BRANCH   6   7
HETATM    7  C6  UNL     1     -23.458  16.978  11.930  1.00 20.00     0.386 C 
HETATM    8 CL8  UNL     1     -24.576  15.655  11.601  1.00 20.00    -0.098 Cl
ENDBRANCH   6   7
TORSDOF 1
ENDMDL
MODEL 5
REMARK VINA RESULT:      -3.7     11.742     12.084
REMARK  1 active torsions:
REMARK  status: ('A' for Active; 'I' for Inactive)
REMARK    1  A    between atoms: C6_6  and  N7_7 
ROOT
HETATM    1  C1  UNL     1     -33.355  16.395  -3.071  1.00 20.00     0.003 C 
HETATM    2  C2  UNL     1     -34.599  16.019  -2.274  1.00 20.00     0.030 C 
HETATM    3  C3  UNL     1     -32.903  15.225  -3.937  1.00 20.00     0.030 C 
HETATM    4  C4  UNL     1     -35.694  15.460  -3.184  1.00 20.00     0.274 C 
HETATM    5  C5  UNL     1     -34.052  14.691  -4.794  1.00 20.00     0.274 C 
HETATM    6  N7  UNL     1     -35.203  14.315  -3.961  1.00 20.00     0.101 N 
ENDROOT
BRANCH   6   7
HETATM    7  C6  UNL     1     -36.274  13.762  -4.791  1.00 20.00     0.386 C 
HETATM    8 CL8  UNL     1     -37.799  14.482  -4.277  1.00 20.00    -0.098 Cl
ENDBRANCH   6   7
TORSDOF 1
ENDMDL
MODEL 6
REMARK VINA RESULT:      -3.7     15.639     16.073
REMARK  1 active torsions:
REMARK  status: ('A' for Active; 'I' for Inactive)
REMARK    1  A    between atoms: C6_6  and  N7_7 
ROOT
HETATM    1  C1  UNL     1     -25.654  16.607  12.295  1.00 20.00     0.003 C 
HETATM    2  C2  UNL     1     -24.363  16.042  11.716  1.00 20.00     0.030 C 
HETATM    3  C3  UNL     1     -25.638  18.130  12.251  1.00 20.00     0.030 C 
HETATM    4  C4  UNL     1     -24.075  16.621  10.329  1.00 20.00     0.274 C 
HETATM    5  C5  UNL     1     -25.310  18.643  10.848  1.00 20.00     0.274 C 
HETATM    6  N7  UNL     1     -24.036  18.089  10.366  1.00 20.00     0.101 N 
ENDROOT
BRANCH   6   7
HETATM    7  C6  UNL     1     -23.714  18.626   9.044  1.00 20.00     0.386 C 
HETATM    8 CL8  UNL     1     -22.575  17.529   8.264  1.00 20.00    -0.098 Cl
ENDBRANCH   6   7
TORSDOF 1
ENDMDL
MODEL 7
REMARK VINA RESULT:      -3.5     16.345     16.775
REMARK  1 active torsions:
REMARK  status: ('A' for Active; 'I' for Inactive)
REMARK    1  A    between atoms: C6_6  and  N7_7 
ROOT
HETATM    1  C1  UNL     1     -23.586  18.834   7.968  1.00 20.00     0.003 C 
HETATM    2  C2  UNL     1     -22.656  17.639   8.138  1.00 20.00     0.030 C 
HETATM    3  C3  UNL     1     -24.880  18.617   8.743  1.00 20.00     0.030 C 
HETATM    4  C4  UNL     1     -22.446  17.302   9.616  1.00 20.00     0.274 C 
HETATM    5  C5  UNL     1     -24.600  18.250  10.202  1.00 20.00     0.274 C 
HETATM    6  N7  UNL     1     -23.729  17.070  10.293  1.00 20.00     0.101 N 
ENDROOT
BRANCH   6   7
HETATM    7  C6  UNL     1     -23.511  16.704  11.692  1.00 20.00     0.386 C 
HETATM    8 CL8  UNL     1     -22.202  17.699  12.327  1.00 20.00    -0.098 Cl
ENDBRANCH   6   7
TORSDOF 1
ENDMDL
MODEL 8
REMARK VINA RESULT:      -3.4     11.962     12.567
REMARK  1 active torsions:
REMARK  status: ('A' for Active; 'I' for Inactive)
REMARK    1  A    between atoms: C6_6  and  N7_7 
ROOT
HETATM    1  C1  UNL     1     -35.275  15.968  -2.562  1.00 20.00     0.003 C 
HETATM    2  C2  UNL     1     -33.858  15.693  -3.052  1.00 20.00     0.030 C 
HETATM    3  C3  UNL     1     -35.246  16.616  -1.183  1.00 20.00     0.030 C 
HETATM    4  C4  UNL     1     -32.989  16.949  -2.974  1.00 20.00     0.274 C 
HETATM    5  C5  UNL     1     -34.332  17.843  -1.164  1.00 20.00     0.274 C 
HETATM    6  N7  UNL     1     -32.975  17.501  -1.613  1.00 20.00     0.101 N 
ENDROOT
BRANCH   6   7
HETATM    7  C6  UNL     1     -32.103  18.673  -1.543  1.00 20.00     0.386 C 
HETATM    8 CL8  UNL     1     -30.935  18.417  -0.248  1.00 20.00    -0.098 Cl
ENDBRANCH   6   7
TORSDOF 1
ENDMDL
MODEL 9
REMARK VINA RESULT:      -3.4      9.325      9.962
REMARK  1 active torsions:
REMARK  status: ('A' for Active; 'I' for Inactive)
REMARK    1  A    between atoms: C6_6  and  N7_7 
ROOT
HETATM    1  C1  UNL     1     -43.066   8.822   0.065  1.00 20.00     0.003 C 
HETATM    2  C2  UNL     1     -41.602   8.631   0.444  1.00 20.00     0.030 C 
HETATM    3  C3  UNL     1     -43.352   8.191  -1.293  1.00 20.00     0.030 C 
HETATM    4  C4  UNL     1     -41.187   7.162   0.342  1.00 20.00     0.274 C 
HETATM    5  C5  UNL     1     -42.882   6.736  -1.340  1.00 20.00     0.274 C 
HETATM    6  N7  UNL     1     -41.456   6.628  -1.000  1.00 20.00     0.101 N 
ENDROOT
BRANCH   6   7
HETATM    7  C6  UNL     1     -41.011   5.238  -1.097  1.00 20.00     0.386 C 
HETATM    8 CL8  UNL     1     -42.236   4.325  -1.977  1.00 20.00    -0.098 Cl
ENDBRANCH   6   7
TORSDOF 1
ENDMDL
