MODEL 1
REMARK VINA RESULT:      -4.5      0.000      0.000
REMARK  3 active torsions:
REMARK  status: ('A' for Active; 'I' for Inactive)
REMARK    1  A    between atoms: C4_4  and  C6_6 
REMARK    2  A    between atoms: C5_5  and  C7_7 
REMARK    3  A    between atoms: C6_6  and  C7_7 
ROOT
HETATM    1  C1  UNL     1     -33.694   6.764   4.710  1.00 20.00     0.064 C 
HETATM    2  C7  UNL     1     -33.552   6.605   3.248  1.00 20.00     0.092 C 
HETATM    3  N8  UNL     1     -33.807   6.889   5.858  1.00 20.00    -0.197 NA
ENDROOT
BRANCH   2   4
HETATM    4  C5  UNL     1     -33.508   5.111   2.868  1.00 20.00     0.014 C 
HETATM    5  C3  UNL     1     -34.261   4.180   3.811  1.00 20.00     0.006 C 
ENDBRANCH   2   4
BRANCH   2   6
HETATM    6  C6  UNL     1     -32.330   7.378   2.719  1.00 20.00     0.019 C 
BRANCH   6   7
HETATM    7  C4  UNL     1     -32.383   7.603   1.204  1.00 20.00    -0.003 C 
HETATM    8  C2  UNL     1     -32.924   8.984   0.867  1.00 20.00     0.005 C 
ENDBRANCH   6   7
ENDBRANCH   2   6
TORSDOF 3
ENDMDL
MODEL 2
REMARK VINA RESULT:      -4.4      2.006      3.578
REMARK  3 active torsions:
REMARK  status: ('A' for Active; 'I' for Inactive)
REMARK    1  A    between atoms: C4_4  and  C6_6 
REMARK    2  A    between atoms: C5_5  and  C7_7 
REMARK    3  A    between atoms: C6_6  and  C7_7 
ROOT
HETATM    1  C1  UNL     1     -32.663   7.312   2.049  1.00 20.00     0.064 C 
HETATM    2  C7  UNL     1     -32.970   6.323   3.102  1.00 20.00     0.092 C 
HETATM    3  N8  UNL     1     -32.421   8.089   1.222  1.00 20.00    -0.197 NA
ENDROOT
BRANCH   2   4
HETATM    4  C5  UNL     1     -33.237   4.937   2.482  1.00 20.00     0.014 C 
HETATM    5  C3  UNL     1     -33.964   3.950   3.389  1.00 20.00     0.006 C 
ENDBRANCH   2   4
BRANCH   2   6
HETATM    6  C6  UNL     1     -34.133   6.798   3.993  1.00 20.00     0.019 C 
BRANCH   6   7
HETATM    7  C4  UNL     1     -33.771   6.810   5.482  1.00 20.00    -0.003 C 
HETATM    8  C2  UNL     1     -34.589   5.791   6.260  1.00 20.00     0.005 C 
ENDBRANCH   6   7
ENDBRANCH   2   6
TORSDOF 3
ENDMDL
MODEL 3
REMARK VINA RESULT:      -4.3      2.008      4.159
REMARK  3 active torsions:
REMARK  status: ('A' for Active; 'I' for Inactive)
REMARK    1  A    between atoms: C4_4  and  C6_6 
REMARK    2  A    between atoms: C5_5  and  C7_7 
REMARK    3  A    between atoms: C6_6  and  C7_7 
ROOT
HETATM    1  C1  UNL     1     -33.207   5.080   2.492  1.00 20.00     0.064 C 
HETATM    2  C7  UNL     1     -33.514   6.485   2.827  1.00 20.00     0.092 C 
HETATM    3  N8  UNL     1     -32.967   3.976   2.227  1.00 20.00    -0.197 NA
ENDROOT
BRANCH   2   4
HETATM    4  C5  UNL     1     -32.339   7.404   2.438  1.00 20.00     0.014 C 
HETATM    5  C3  UNL     1     -32.533   8.192   1.147  1.00 20.00     0.006 C 
ENDBRANCH   2   4
BRANCH   2   6
HETATM    6  C6  UNL     1     -33.905   6.632   4.309  1.00 20.00     0.019 C 
BRANCH   6   7
HETATM    7  C4  UNL     1     -34.976   5.624   4.741  1.00 20.00    -0.003 C 
HETATM    8  C2  UNL     1     -34.736   5.135   6.161  1.00 20.00     0.005 C 
ENDBRANCH   6   7
ENDBRANCH   2   6
TORSDOF 3
ENDMDL
MODEL 4
REMARK VINA RESULT:      -4.1     10.925     11.885
REMARK  3 active torsions:
REMARK  status: ('A' for Active; 'I' for Inactive)
REMARK    1  A    between atoms: C4_4  and  C6_6 
REMARK    2  A    between atoms: C5_5  and  C7_7 
REMARK    3  A    between atoms: C6_6  and  C7_7 
ROOT
HETATM    1  C1  UNL     1     -37.147  14.448  -4.532  1.00 20.00     0.064 C 
HETATM    2  C7  UNL     1     -35.808  14.998  -4.828  1.00 20.00     0.092 C 
HETATM    3  N8  UNL     1     -38.199  14.018  -4.299  1.00 20.00    -0.197 NA
ENDROOT
BRANCH   2   4
HETATM    4  C5  UNL     1     -35.387  14.650  -6.270  1.00 20.00     0.014 C 
HETATM    5  C3  UNL     1     -33.967  15.058  -6.647  1.00 20.00     0.006 C 
ENDBRANCH   2   4
BRANCH   2   6
HETATM    6  C6  UNL     1     -34.772  14.533  -3.789  1.00 20.00     0.019 C 
BRANCH   6   7
HETATM    7  C4  UNL     1     -34.462  15.608  -2.740  1.00 20.00    -0.003 C 
HETATM    8  C2  UNL     1     -33.191  16.369  -3.086  1.00 20.00     0.005 C 
ENDBRANCH   6   7
ENDBRANCH   2   6
TORSDOF 3
ENDMDL
MODEL 5
REMARK VINA RESULT:      -4.0     10.797     11.701
REMARK  3 active torsions:
REMARK  status: ('A' for Active; 'I' for Inactive)
REMARK    1  A    between atoms: C4_4  and  C6_6 
REMARK    2  A    between atoms: C5_5  and  C7_7 
REMARK    3  A    between atoms: C6_6  and  C7_7 
ROOT
HETATM    1  C1  UNL     1     -36.037  13.989  -4.231  1.00 20.00     0.064 C 
HETATM    2  C7  UNL     1     -34.700  14.424  -3.778  1.00 20.00     0.092 C 
HETATM    3  N8  UNL     1     -37.088  13.646  -4.586  1.00 20.00    -0.197 NA
ENDROOT
BRANCH   2   4
HETATM    4  C5  UNL     1     -34.820  15.599  -2.787  1.00 20.00     0.014 C 
HETATM    5  C3  UNL     1     -33.547  16.416  -2.593  1.00 20.00     0.006 C 
ENDBRANCH   2   4
BRANCH   2   6
HETATM    6  C6  UNL     1     -33.787  14.756  -4.972  1.00 20.00     0.019 C 
BRANCH   6   7
HETATM    7  C4  UNL     1     -34.515  15.537  -6.073  1.00 20.00    -0.003 C 
HETATM    8  C2  UNL     1     -33.925  15.241  -7.443  1.00 20.00     0.005 C 
ENDBRANCH   6   7
ENDBRANCH   2   6
TORSDOF 3
ENDMDL
MODEL 6
REMARK VINA RESULT:      -3.9     15.795     16.720
REMARK  3 active torsions:
REMARK  status: ('A' for Active; 'I' for Inactive)
REMARK    1  A    between atoms: C4_4  and  C6_6 
REMARK    2  A    between atoms: C5_5  and  C7_7 
REMARK    3  A    between atoms: C6_6  and  C7_7 
ROOT
HETATM    1  C1  UNL     1     -22.342  17.359   8.206  1.00 20.00     0.064 C 
HETATM    2  C7  UNL     1     -23.201  17.805   9.322  1.00 20.00     0.092 C 
HETATM    3  N8  UNL     1     -21.667  17.008   7.329  1.00 20.00    -0.197 NA
ENDROOT
BRANCH   2   4
HETATM    4  C5  UNL     1     -23.841  19.171   9.000  1.00 20.00     0.014 C 
HETATM    5  C3  UNL     1     -25.340  19.263   9.265  1.00 20.00     0.006 C 
ENDBRANCH   2   4
BRANCH   2   6
HETATM    6  C6  UNL     1     -22.426  17.822  10.651  1.00 20.00     0.019 C 
BRANCH   6   7
HETATM    7  C4  UNL     1     -23.238  17.245  11.817  1.00 20.00    -0.003 C 
HETATM    8  C2  UNL     1     -24.287  16.259  11.327  1.00 20.00     0.005 C 
ENDBRANCH   6   7
ENDBRANCH   2   6
TORSDOF 3
ENDMDL
MODEL 7
REMARK VINA RESULT:      -3.9     15.647     16.189
REMARK  3 active torsions:
REMARK  status: ('A' for Active; 'I' for Inactive)
REMARK    1  A    between atoms: C4_4  and  C6_6 
REMARK    2  A    between atoms: C5_5  and  C7_7 
REMARK    3  A    between atoms: C6_6  and  C7_7 
ROOT
HETATM    1  C1  UNL     1     -22.060  17.351   8.082  1.00 20.00     0.064 C 
HETATM    2  C7  UNL     1     -22.765  17.913   9.252  1.00 20.00     0.092 C 
HETATM    3  N8  UNL     1     -21.505  16.909   7.163  1.00 20.00    -0.197 NA
ENDROOT
BRANCH   2   4
HETATM    4  C5  UNL     1     -23.642  16.837   9.924  1.00 20.00     0.014 C 
HETATM    5  C3  UNL     1     -23.533  16.768  11.443  1.00 20.00     0.006 C 
ENDBRANCH   2   4
BRANCH   2   6
HETATM    6  C6  UNL     1     -23.571  19.167   8.868  1.00 20.00     0.019 C 
BRANCH   6   7
HETATM    7  C4  UNL     1     -24.935  18.830   8.253  1.00 20.00    -0.003 C 
HETATM    8  C2  UNL     1     -25.000  19.240   6.791  1.00 20.00     0.005 C 
ENDBRANCH   6   7
ENDBRANCH   2   6
TORSDOF 3
ENDMDL
MODEL 8
REMARK VINA RESULT:      -3.8     10.804     11.838
REMARK  3 active torsions:
REMARK  status: ('A' for Active; 'I' for Inactive)
REMARK    1  A    between atoms: C4_4  and  C6_6 
REMARK    2  A    between atoms: C5_5  and  C7_7 
REMARK    3  A    between atoms: C6_6  and  C7_7 
ROOT
HETATM    1  C1  UNL     1     -35.876  13.888  -4.242  1.00 20.00     0.064 C 
HETATM    2  C7  UNL     1     -35.917  15.306  -3.831  1.00 20.00     0.092 C 
HETATM    3  N8  UNL     1     -35.845  12.774  -4.565  1.00 20.00    -0.197 NA
ENDROOT
BRANCH   2   4
HETATM    4  C5  UNL     1     -35.657  16.228  -5.039  1.00 20.00     0.014 C 
HETATM    5  C3  UNL     1     -36.532  15.961  -6.259  1.00 20.00     0.006 C 
ENDBRANCH   2   4
BRANCH   2   6
HETATM    6  C6  UNL     1     -34.946  15.578  -2.668  1.00 20.00     0.019 C 
BRANCH   6   7
HETATM    7  C4  UNL     1     -33.539  15.955  -3.148  1.00 20.00    -0.003 C 
HETATM    8  C2  UNL     1     -33.000  17.160  -2.393  1.00 20.00     0.005 C 
ENDBRANCH   6   7
ENDBRANCH   2   6
TORSDOF 3
ENDMDL
MODEL 9
REMARK VINA RESULT:      -3.8      1.820      2.179
REMARK  3 active torsions:
REMARK  status: ('A' for Active; 'I' for Inactive)
REMARK    1  A    between atoms: C4_4  and  C6_6 
REMARK    2  A    between atoms: C5_5  and  C7_7 
REMARK    3  A    between atoms: C6_6  and  C7_7 
ROOT
HETATM    1  C1  UNL     1     -33.193   5.282   2.704  1.00 20.00     0.064 C 
HETATM    2  C7  UNL     1     -32.981   6.388   3.660  1.00 20.00     0.092 C 
HETATM    3  N8  UNL     1     -33.359   4.412   1.953  1.00 20.00    -0.197 NA
ENDROOT
BRANCH   2   4
HETATM    4  C5  UNL     1     -34.252   6.628   4.500  1.00 20.00     0.014 C 
HETATM    5  C3  UNL     1     -34.837   5.384   5.160  1.00 20.00     0.006 C 
ENDBRANCH   2   4
BRANCH   2   6
HETATM    6  C6  UNL     1     -32.507   7.663   2.941  1.00 20.00     0.019 C 
BRANCH   6   7
HETATM    7  C4  UNL     1     -32.524   7.523   1.414  1.00 20.00    -0.003 C 
HETATM    8  C2  UNL     1     -32.881   8.839   0.741  1.00 20.00     0.005 C 
ENDBRANCH   6   7
ENDBRANCH   2   6
TORSDOF 3
ENDMDL
