MODEL 1
REMARK VINA RESULT:      -4.6      0.000      0.000
REMARK  1 active torsions:
REMARK  status: ('A' for Active; 'I' for Inactive)
REMARK    1  A    between atoms: C1_1  and  C3_3 
ROOT
HETATM    1  C2  UNL     1     -34.709   4.999   5.370  1.00 20.00     0.054 A 
HETATM    2  C3  UNL     1     -34.587   6.083   4.328  1.00 20.00     0.109 A 
HETATM    3  C4  UNL     1     -34.440   6.408   5.785  1.00 20.00     0.183 A 
HETATM    4  F6  UNL     1     -33.176   6.701   6.267  1.00 20.00    -0.249 F 
ENDROOT
BRANCH   2   5
HETATM    5  C1  UNL     1     -33.408   6.112   3.456  1.00 20.00     0.225 C 
HETATM    6  O5  UNL     1     -32.629   7.061   3.455  1.00 20.00    -0.279 OA
HETATM    7 CL7  UNL     1     -33.285   4.682   2.477  1.00 20.00    -0.043 Cl
ENDBRANCH   2   5
TORSDOF 1
ENDMDL
MODEL 2
REMARK VINA RESULT:      -4.6      1.468      1.468
REMARK  1 active torsions:
REMARK  status: ('A' for Active; 'I' for Inactive)
REMARK    1  A    between atoms: C1_1  and  C3_3 
ROOT
HETATM    1  C2  UNL     1     -34.743   5.124   5.862  1.00 20.00     0.054 A 
HETATM    2  C3  UNL     1     -34.807   5.827   4.529  1.00 20.00     0.109 A 
HETATM    3  C4  UNL     1     -34.373   6.568   5.758  1.00 20.00     0.183 A 
HETATM    4  F6  UNL     1     -33.034   6.894   5.888  1.00 20.00    -0.249 F 
ENDROOT
BRANCH   2   5
HETATM    5  C1  UNL     1     -33.821   5.497   3.495  1.00 20.00     0.225 C 
HETATM    6  O5  UNL     1     -33.696   4.354   3.063  1.00 20.00    -0.279 OA
HETATM    7 CL7  UNL     1     -32.905   6.887   2.997  1.00 20.00    -0.043 Cl
ENDBRANCH   2   5
TORSDOF 1
ENDMDL
MODEL 3
REMARK VINA RESULT:      -4.5      1.597      1.685
REMARK  1 active torsions:
REMARK  status: ('A' for Active; 'I' for Inactive)
REMARK    1  A    between atoms: C1_1  and  C3_3 
ROOT
HETATM    1  C2  UNL     1     -34.395   4.350   4.098  1.00 20.00     0.054 A 
HETATM    2  C3  UNL     1     -34.617   5.841   4.147  1.00 20.00     0.109 A 
HETATM    3  C4  UNL     1     -35.041   4.971   5.292  1.00 20.00     0.183 A 
HETATM    4  F6  UNL     1     -34.303   5.023   6.462  1.00 20.00    -0.249 F 
ENDROOT
BRANCH   2   5
HETATM    5  C1  UNL     1     -33.464   6.734   4.302  1.00 20.00     0.225 C 
HETATM    6  O5  UNL     1     -33.191   7.255   5.380  1.00 20.00    -0.279 OA
HETATM    7 CL7  UNL     1     -32.589   6.936   2.815  1.00 20.00    -0.043 Cl
ENDBRANCH   2   5
TORSDOF 1
ENDMDL
MODEL 4
REMARK VINA RESULT:      -4.4      2.783      3.327
REMARK  1 active torsions:
REMARK  status: ('A' for Active; 'I' for Inactive)
REMARK    1  A    between atoms: C1_1  and  C3_3 
ROOT
HETATM    1  C2  UNL     1     -32.696   6.814   3.499  1.00 20.00     0.054 A 
HETATM    2  C3  UNL     1     -34.102   6.267   3.513  1.00 20.00     0.109 A 
HETATM    3  C4  UNL     1     -33.135   5.851   2.445  1.00 20.00     0.183 A 
HETATM    4  F6  UNL     1     -32.615   4.569   2.497  1.00 20.00    -0.249 F 
ENDROOT
BRANCH   2   5
HETATM    5  C1  UNL     1     -34.490   5.311   4.554  1.00 20.00     0.225 C 
HETATM    6  O5  UNL     1     -34.783   4.148   4.286  1.00 20.00    -0.279 OA
HETATM    7 CL7  UNL     1     -34.476   6.026   6.138  1.00 20.00    -0.043 Cl
ENDBRANCH   2   5
TORSDOF 1
ENDMDL
MODEL 5
REMARK VINA RESULT:      -4.1      1.935      2.018
REMARK  1 active torsions:
REMARK  status: ('A' for Active; 'I' for Inactive)
REMARK    1  A    between atoms: C1_1  and  C3_3 
ROOT
HETATM    1  C2  UNL     1     -34.365   4.213   4.060  1.00 20.00     0.054 A 
HETATM    2  C3  UNL     1     -34.650   5.694   4.040  1.00 20.00     0.109 A 
HETATM    3  C4  UNL     1     -35.034   4.862   5.227  1.00 20.00     0.183 A 
HETATM    4  F6  UNL     1     -34.296   5.001   6.390  1.00 20.00    -0.249 F 
ENDROOT
BRANCH   2   5
HETATM    5  C1  UNL     1     -33.536   6.641   4.147  1.00 20.00     0.225 C 
HETATM    6  O5  UNL     1     -32.795   6.877   3.197  1.00 20.00    -0.279 OA
HETATM    7 CL7  UNL     1     -33.426   7.344   5.732  1.00 20.00    -0.043 Cl
ENDBRANCH   2   5
TORSDOF 1
ENDMDL
MODEL 6
REMARK VINA RESULT:      -4.1      2.277      3.009
REMARK  1 active torsions:
REMARK  status: ('A' for Active; 'I' for Inactive)
REMARK    1  A    between atoms: C1_1  and  C3_3 
ROOT
HETATM    1  C2  UNL     1     -32.414   6.905   2.986  1.00 20.00     0.054 A 
HETATM    2  C3  UNL     1     -33.834   6.726   3.460  1.00 20.00     0.109 A 
HETATM    3  C4  UNL     1     -33.240   5.774   2.465  1.00 20.00     0.183 A 
HETATM    4  F6  UNL     1     -32.916   4.498   2.893  1.00 20.00    -0.249 F 
ENDROOT
BRANCH   2   5
HETATM    5  C1  UNL     1     -34.082   6.279   4.834  1.00 20.00     0.225 C 
HETATM    6  O5  UNL     1     -33.630   6.885   5.802  1.00 20.00    -0.279 OA
HETATM    7 CL7  UNL     1     -35.056   4.841   4.889  1.00 20.00    -0.043 Cl
ENDBRANCH   2   5
TORSDOF 1
ENDMDL
MODEL 7
REMARK VINA RESULT:      -3.9      2.141      2.219
REMARK  1 active torsions:
REMARK  status: ('A' for Active; 'I' for Inactive)
REMARK    1  A    between atoms: C1_1  and  C3_3 
ROOT
HETATM    1  C2  UNL     1     -35.514   5.534   4.112  1.00 20.00     0.054 A 
HETATM    2  C3  UNL     1     -34.083   6.010   4.115  1.00 20.00     0.109 A 
HETATM    3  C4  UNL     1     -34.491   4.827   4.940  1.00 20.00     0.183 A 
HETATM    4  F6  UNL     1     -34.093   3.569   4.522  1.00 20.00    -0.249 F 
ENDROOT
BRANCH   2   5
HETATM    5  C1  UNL     1     -33.258   5.811   2.918  1.00 20.00     0.225 C 
HETATM    6  O5  UNL     1     -33.153   4.712   2.383  1.00 20.00    -0.279 OA
HETATM    7 CL7  UNL     1     -32.493   7.283   2.399  1.00 20.00    -0.043 Cl
ENDBRANCH   2   5
TORSDOF 1
ENDMDL
MODEL 8
REMARK VINA RESULT:      -3.8      1.895      2.028
REMARK  1 active torsions:
REMARK  status: ('A' for Active; 'I' for Inactive)
REMARK    1  A    between atoms: C1_1  and  C3_3 
ROOT
HETATM    1  C2  UNL     1     -34.211   6.468   5.689  1.00 20.00     0.054 A 
HETATM    2  C3  UNL     1     -34.659   5.909   4.361  1.00 20.00     0.109 A 
HETATM    3  C4  UNL     1     -33.843   7.166   4.420  1.00 20.00     0.183 A 
HETATM    4  F6  UNL     1     -32.519   7.107   4.020  1.00 20.00    -0.249 F 
ENDROOT
BRANCH   2   5
HETATM    5  C1  UNL     1     -34.051   4.672   3.861  1.00 20.00     0.225 C 
HETATM    6  O5  UNL     1     -34.106   3.622   4.496  1.00 20.00    -0.279 OA
HETATM    7 CL7  UNL     1     -33.282   4.898   2.319  1.00 20.00    -0.043 Cl
ENDBRANCH   2   5
TORSDOF 1
ENDMDL
MODEL 9
REMARK VINA RESULT:      -3.5     12.102     12.269
REMARK  1 active torsions:
REMARK  status: ('A' for Active; 'I' for Inactive)
REMARK    1  A    between atoms: C1_1  and  C3_3 
ROOT
HETATM    1  C2  UNL     1     -34.723  15.362  -3.019  1.00 20.00     0.054 A 
HETATM    2  C3  UNL     1     -35.367  15.032  -4.343  1.00 20.00     0.109 A 
HETATM    3  C4  UNL     1     -33.907  14.772  -4.122  1.00 20.00     0.183 A 
HETATM    4  F6  UNL     1     -33.490  13.460  -3.976  1.00 20.00    -0.249 F 
ENDROOT
BRANCH   2   5
HETATM    5  C1  UNL     1     -36.301  13.905  -4.426  1.00 20.00     0.225 C 
HETATM    6  O5  UNL     1     -35.910  12.755  -4.605  1.00 20.00    -0.279 OA
HETATM    7 CL7  UNL     1     -37.953  14.410  -4.246  1.00 20.00    -0.043 Cl
ENDBRANCH   2   5
TORSDOF 1
ENDMDL
