MODEL 1
REMARK VINA RESULT:      -4.8      0.000      0.000
REMARK  0 active torsions:
REMARK  status: ('A' for Active; 'I' for Inactive)
ROOT
HETATM    1  C1  UNL     1     -38.215  16.386  -4.073  1.00 20.00    -0.071 C 
HETATM    2  C2  UNL     1     -35.436  14.633  -5.545  1.00 20.00     0.220 C 
HETATM    3  C3  UNL     1     -39.338  16.679  -4.745  1.00 20.00     0.016 C 
HETATM    4  C4  UNL     1     -37.585  17.382  -3.135  1.00 20.00     0.037 C 
HETATM    5  C5  UNL     1     -37.507  15.072  -4.240  1.00 20.00     0.159 C 
HETATM    6  C6  UNL     1     -33.954  14.933  -5.607  1.00 20.00     0.103 C 
HETATM    7  C7  UNL     1     -36.240  16.891  -2.589  1.00 20.00     0.030 C 
HETATM    8  C8  UNL     1     -33.348  14.802  -4.215  1.00 20.00     0.015 C 
HETATM    9  C9  UNL     1     -34.037  15.706  -3.169  1.00 20.00     0.005 C 
HETATM   10  C10 UNL     1     -35.359  16.305  -3.705  1.00 20.00     0.091 C 
HETATM   11  C11 UNL     1     -33.073  16.802  -2.703  1.00 20.00     0.012 C 
HETATM   12  N12 UNL     1     -36.090  15.312  -4.515  1.00 20.00    -0.343 N 
HETATM   13  O13 UNL     1     -35.966  13.866  -6.347  1.00 20.00    -0.273 OA
ENDROOT
TORSDOF 0
ENDMDL
MODEL 2
REMARK VINA RESULT:      -4.7      3.303      4.943
REMARK  0 active torsions:
REMARK  status: ('A' for Active; 'I' for Inactive)
ROOT
HETATM    1  C1  UNL     1     -35.092  15.900  -3.104  1.00 20.00    -0.071 C 
HETATM    2  C2  UNL     1     -35.443  17.629   0.034  1.00 20.00     0.220 C 
HETATM    3  C3  UNL     1     -35.874  14.874  -3.469  1.00 20.00     0.016 C 
HETATM    4  C4  UNL     1     -33.609  15.883  -3.366  1.00 20.00     0.037 C 
HETATM    5  C5  UNL     1     -35.638  17.103  -2.388  1.00 20.00     0.159 C 
HETATM    6  C6  UNL     1     -34.454  17.984   1.124  1.00 20.00     0.103 C 
HETATM    7  C7  UNL     1     -32.897  17.087  -2.741  1.00 20.00     0.030 C 
HETATM    8  C8  UNL     1     -33.483  19.039   0.608  1.00 20.00     0.015 C 
HETATM    9  C9  UNL     1     -32.739  18.600  -0.672  1.00 20.00     0.005 C 
HETATM   10  C10 UNL     1     -33.364  17.329  -1.296  1.00 20.00     0.091 C 
HETATM   11  C11 UNL     1     -31.249  18.406  -0.375  1.00 20.00     0.012 C 
HETATM   12  N12 UNL     1     -34.835  17.367  -1.194  1.00 20.00    -0.343 N 
HETATM   13  O13 UNL     1     -36.652  17.585   0.260  1.00 20.00    -0.273 OA
ENDROOT
TORSDOF 0
ENDMDL
MODEL 3
REMARK VINA RESULT:      -4.6      1.548      1.934
REMARK  0 active torsions:
REMARK  status: ('A' for Active; 'I' for Inactive)
ROOT
HETATM    1  C1  UNL     1     -37.672  18.037  -4.197  1.00 20.00    -0.071 C 
HETATM    2  C2  UNL     1     -37.239  14.469  -4.398  1.00 20.00     0.220 C 
HETATM    3  C3  UNL     1     -38.695  18.687  -4.772  1.00 20.00     0.016 C 
HETATM    4  C4  UNL     1     -36.273  18.594  -4.237  1.00 20.00     0.037 C 
HETATM    5  C5  UNL     1     -37.853  16.711  -3.516  1.00 20.00     0.159 C 
HETATM    6  C6  UNL     1     -36.064  13.601  -4.796  1.00 20.00     0.103 C 
HETATM    7  C7  UNL     1     -35.247  17.623  -3.645  1.00 20.00     0.030 C 
HETATM    8  C8  UNL     1     -34.966  13.714  -3.746  1.00 20.00     0.015 C 
HETATM    9  C9  UNL     1     -34.505  15.168  -3.509  1.00 20.00     0.005 C 
HETATM   10  C10 UNL     1     -35.460  16.192  -4.167  1.00 20.00     0.091 C 
HETATM   11  C11 UNL     1     -33.064  15.350  -3.996  1.00 20.00     0.012 C 
HETATM   12  N12 UNL     1     -36.864  15.761  -4.025  1.00 20.00    -0.343 N 
HETATM   13  O13 UNL     1     -38.389  14.035  -4.421  1.00 20.00    -0.273 OA
ENDROOT
TORSDOF 0
ENDMDL
MODEL 4
REMARK VINA RESULT:      -4.6      1.881      3.773
REMARK  0 active torsions:
REMARK  status: ('A' for Active; 'I' for Inactive)
ROOT
HETATM    1  C1  UNL     1     -34.616  16.260  -2.415  1.00 20.00    -0.071 C 
HETATM    2  C2  UNL     1     -36.959  16.622  -5.124  1.00 20.00     0.220 C 
HETATM    3  C3  UNL     1     -34.655  17.010  -1.304  1.00 20.00     0.016 C 
HETATM    4  C4  UNL     1     -33.309  15.924  -3.083  1.00 20.00     0.037 C 
HETATM    5  C5  UNL     1     -35.864  15.743  -3.072  1.00 20.00     0.159 C 
HETATM    6  C6  UNL     1     -36.779  16.795  -6.617  1.00 20.00     0.103 C 
HETATM    7  C7  UNL     1     -33.511  15.181  -4.408  1.00 20.00     0.030 C 
HETATM    8  C8  UNL     1     -36.226  15.508  -7.217  1.00 20.00     0.015 C 
HETATM    9  C9  UNL     1     -34.901  15.058  -6.563  1.00 20.00     0.005 C 
HETATM   10  C10 UNL     1     -34.601  15.845  -5.265  1.00 20.00     0.091 C 
HETATM   11  C11 UNL     1     -33.751  15.175  -7.569  1.00 20.00     0.012 C 
HETATM   12  N12 UNL     1     -35.839  16.074  -4.497  1.00 20.00    -0.343 N 
HETATM   13  O13 UNL     1     -38.004  16.951  -4.566  1.00 20.00    -0.273 OA
ENDROOT
TORSDOF 0
ENDMDL
MODEL 5
REMARK VINA RESULT:      -4.5      2.553      4.228
REMARK  0 active torsions:
REMARK  status: ('A' for Active; 'I' for Inactive)
ROOT
HETATM    1  C1  UNL     1     -35.285  15.174  -3.888  1.00 20.00    -0.071 C 
HETATM    2  C2  UNL     1     -36.118  17.691  -1.452  1.00 20.00     0.220 C 
HETATM    3  C3  UNL     1     -36.082  14.134  -4.172  1.00 20.00     0.016 C 
HETATM    4  C4  UNL     1     -33.793  15.003  -3.765  1.00 20.00     0.037 C 
HETATM    5  C5  UNL     1     -35.830  16.553  -3.644  1.00 20.00     0.159 C 
HETATM    6  C6  UNL     1     -35.361  18.265  -0.274  1.00 20.00     0.103 C 
HETATM    7  C7  UNL     1     -33.100  16.287  -3.298  1.00 20.00     0.030 C 
HETATM    8  C8  UNL     1     -34.181  19.088  -0.776  1.00 20.00     0.015 C 
HETATM    9  C9  UNL     1     -33.229  18.283  -1.687  1.00 20.00     0.005 C 
HETATM   10  C10 UNL     1     -33.845  16.930  -2.115  1.00 20.00     0.091 C 
HETATM   11  C11 UNL     1     -31.876  18.091  -0.995  1.00 20.00     0.012 C 
HETATM   12  N12 UNL     1     -35.287  17.078  -2.391  1.00 20.00    -0.343 N 
HETATM   13  O13 UNL     1     -37.343  17.777  -1.526  1.00 20.00    -0.273 OA
ENDROOT
TORSDOF 0
ENDMDL
MODEL 6
REMARK VINA RESULT:      -4.4      1.988      4.408
REMARK  0 active torsions:
REMARK  status: ('A' for Active; 'I' for Inactive)
ROOT
HETATM    1  C1  UNL     1     -33.766  17.006  -1.947  1.00 20.00    -0.071 C 
HETATM    2  C2  UNL     1     -37.202  17.119  -3.017  1.00 20.00     0.220 C 
HETATM    3  C3  UNL     1     -33.159  18.021  -1.315  1.00 20.00     0.016 C 
HETATM    4  C4  UNL     1     -33.058  16.221  -3.021  1.00 20.00     0.037 C 
HETATM    5  C5  UNL     1     -35.186  16.617  -1.651  1.00 20.00     0.159 C 
HETATM    6  C6  UNL     1     -37.871  16.833  -4.345  1.00 20.00     0.103 C 
HETATM    7  C7  UNL     1     -33.983  15.207  -3.702  1.00 20.00     0.030 C 
HETATM    8  C8  UNL     1     -37.785  15.342  -4.649  1.00 20.00     0.015 C 
HETATM    9  C9  UNL     1     -36.336  14.809  -4.650  1.00 20.00     0.005 C 
HETATM   10  C10 UNL     1     -35.342  15.835  -4.055  1.00 20.00     0.091 C 
HETATM   11  C11 UNL     1     -35.930  14.390  -6.067  1.00 20.00     0.012 C 
HETATM   12  N12 UNL     1     -35.941  16.531  -2.901  1.00 20.00    -0.343 N 
HETATM   13  O13 UNL     1     -37.753  17.809  -2.162  1.00 20.00    -0.273 OA
ENDROOT
TORSDOF 0
ENDMDL
MODEL 7
REMARK VINA RESULT:      -4.4      2.283      3.308
REMARK  0 active torsions:
REMARK  status: ('A' for Active; 'I' for Inactive)
ROOT
HETATM    1  C1  UNL     1     -34.674  16.777  -2.280  1.00 20.00    -0.071 C 
HETATM    2  C2  UNL     1     -35.322  14.353  -4.861  1.00 20.00     0.220 C 
HETATM    3  C3  UNL     1     -35.172  16.680  -1.039  1.00 20.00     0.016 C 
HETATM    4  C4  UNL     1     -34.628  18.099  -3.001  1.00 20.00     0.037 C 
HETATM    5  C5  UNL     1     -34.168  15.579  -3.032  1.00 20.00     0.159 C 
HETATM    6  C6  UNL     1     -35.815  14.482  -6.287  1.00 20.00     0.103 C 
HETATM    7  C7  UNL     1     -34.154  17.951  -4.450  1.00 20.00     0.030 C 
HETATM    8  C8  UNL     1     -34.748  15.159  -7.137  1.00 20.00     0.015 C 
HETATM    9  C9  UNL     1     -34.323  16.538  -6.587  1.00 20.00     0.005 C 
HETATM   10  C10 UNL     1     -34.856  16.778  -5.155  1.00 20.00     0.091 C 
HETATM   11  C11 UNL     1     -34.769  17.647  -7.546  1.00 20.00     0.012 C 
HETATM   12  N12 UNL     1     -34.784  15.539  -4.358  1.00 20.00    -0.343 N 
HETATM   13  O13 UNL     1     -35.412  13.290  -4.249  1.00 20.00    -0.273 OA
ENDROOT
TORSDOF 0
ENDMDL
MODEL 8
REMARK VINA RESULT:      -4.4      3.304      5.694
REMARK  0 active torsions:
REMARK  status: ('A' for Active; 'I' for Inactive)
ROOT
HETATM    1  C1  UNL     1     -31.901  18.502   0.147  1.00 20.00    -0.071 C 
HETATM    2  C2  UNL     1     -33.727  16.592  -2.298  1.00 20.00     0.220 C 
HETATM    3  C3  UNL     1     -30.664  18.184   0.555  1.00 20.00     0.016 C 
HETATM    4  C4  UNL     1     -32.948  18.971   1.124  1.00 20.00     0.037 C 
HETATM    5  C5  UNL     1     -32.324  18.380  -1.289  1.00 20.00     0.159 C 
HETATM    6  C6  UNL     1     -35.120  15.999  -2.302  1.00 20.00     0.103 C 
HETATM    7  C7  UNL     1     -34.320  19.141   0.464  1.00 20.00     0.030 C 
HETATM    8  C8  UNL     1     -36.152  17.119  -2.351  1.00 20.00     0.015 C 
HETATM    9  C9  UNL     1     -36.000  18.130  -1.193  1.00 20.00     0.005 C 
HETATM   10  C10 UNL     1     -34.667  17.940  -0.432  1.00 20.00     0.091 C 
HETATM   11  C11 UNL     1     -37.204  18.035  -0.251  1.00 20.00     0.012 C 
HETATM   12  N12 UNL     1     -33.572  17.622  -1.368  1.00 20.00    -0.343 N 
HETATM   13  O13 UNL     1     -32.852  16.171  -3.054  1.00 20.00    -0.273 OA
ENDROOT
TORSDOF 0
ENDMDL
MODEL 9
REMARK VINA RESULT:      -4.3      2.380      3.859
REMARK  0 active torsions:
REMARK  status: ('A' for Active; 'I' for Inactive)
ROOT
HETATM    1  C1  UNL     1     -33.537  17.858  -3.008  1.00 20.00    -0.071 C 
HETATM    2  C2  UNL     1     -34.379  16.823  -6.351  1.00 20.00     0.220 C 
HETATM    3  C3  UNL     1     -32.523  18.690  -2.729  1.00 20.00     0.016 C 
HETATM    4  C4  UNL     1     -33.808  16.646  -2.154  1.00 20.00     0.037 C 
HETATM    5  C5  UNL     1     -34.433  18.061  -4.196  1.00 20.00     0.159 C 
HETATM    6  C6  UNL     1     -34.605  15.462  -6.976  1.00 20.00     0.103 C 
HETATM    7  C7  UNL     1     -34.918  15.765  -2.736  1.00 20.00     0.030 C 
HETATM    8  C8  UNL     1     -35.888  14.853  -6.423  1.00 20.00     0.015 C 
HETATM    9  C9  UNL     1     -35.890  14.746  -4.883  1.00 20.00     0.005 C 
HETATM   10  C10 UNL     1     -34.729  15.546  -4.246  1.00 20.00     0.091 C 
HETATM   11  C11 UNL     1     -35.859  13.275  -4.457  1.00 20.00     0.012 C 
HETATM   12  N12 UNL     1     -34.518  16.818  -4.962  1.00 20.00    -0.343 N 
HETATM   13  O13 UNL     1     -34.099  17.802  -7.041  1.00 20.00    -0.273 OA
ENDROOT
TORSDOF 0
ENDMDL
