MODEL 1
REMARK VINA RESULT:      -5.1      0.000      0.000
REMARK  0 active torsions:
REMARK  status: ('A' for Active; 'I' for Inactive)
ROOT
HETATM    1  C1  UNL     1     -32.988  15.325  -3.999  1.00 20.00    -0.030 C 
HETATM    2  C2  UNL     1     -33.817  14.297  -4.231  1.00 20.00    -0.020 C 
HETATM    3  C3  UNL     1     -35.659  16.327  -2.660  1.00 20.00    -0.021 C 
HETATM    4  C4  UNL     1     -36.051  15.280  -3.397  1.00 20.00    -0.050 C 
HETATM    5  C5  UNL     1     -33.204  16.553  -3.164  1.00 20.00     0.030 C 
HETATM    6  C6  UNL     1     -34.287  16.465  -2.090  1.00 20.00     0.031 C 
HETATM    7  C7  UNL     1     -37.424  15.137  -3.966  1.00 20.00     0.202 C 
HETATM    8  C8  UNL     1     -36.093  13.536  -4.928  1.00 20.00     0.180 C 
HETATM    9  C9  UNL     1     -35.237  14.083  -3.786  1.00 20.00     0.062 C 
HETATM   10  O10 UNL     1     -37.449  13.838  -4.576  1.00 20.00    -0.386 OA
ENDROOT
TORSDOF 0
ENDMDL
MODEL 2
REMARK VINA RESULT:      -5.0     11.563     12.297
REMARK  0 active torsions:
REMARK  status: ('A' for Active; 'I' for Inactive)
ROOT
HETATM    1  C1  UNL     1     -34.703   4.431   4.809  1.00 20.00    -0.030 C 
HETATM    2  C2  UNL     1     -34.471   4.941   3.590  1.00 20.00    -0.020 C 
HETATM    3  C3  UNL     1     -33.298   7.165   5.503  1.00 20.00    -0.021 C 
HETATM    4  C4  UNL     1     -33.059   7.013   4.194  1.00 20.00    -0.050 C 
HETATM    5  C5  UNL     1     -34.518   5.063   6.157  1.00 20.00     0.030 C 
HETATM    6  C6  UNL     1     -34.489   6.590   6.195  1.00 20.00     0.031 C 
HETATM    7  C7  UNL     1     -31.871   7.590   3.498  1.00 20.00     0.202 C 
HETATM    8  C8  UNL     1     -32.882   6.116   2.061  1.00 20.00     0.180 C 
HETATM    9  C9  UNL     1     -33.895   6.271   3.195  1.00 20.00     0.062 C 
HETATM   10  O10 UNL     1     -32.064   7.291   2.108  1.00 20.00    -0.386 OA
ENDROOT
TORSDOF 0
ENDMDL
MODEL 3
REMARK VINA RESULT:      -5.0     16.599     18.272
REMARK  0 active torsions:
REMARK  status: ('A' for Active; 'I' for Inactive)
ROOT
HETATM    1  C1  UNL     1     -25.565  18.507  11.290  1.00 20.00    -0.030 C 
HETATM    2  C2  UNL     1     -25.293  19.042  10.090  1.00 20.00    -0.020 C 
HETATM    3  C3  UNL     1     -22.604  17.545  10.803  1.00 20.00    -0.021 C 
HETATM    4  C4  UNL     1     -22.993  17.984   9.600  1.00 20.00    -0.050 C 
HETATM    5  C5  UNL     1     -24.653  17.794  12.244  1.00 20.00     0.030 C 
HETATM    6  C6  UNL     1     -23.157  18.066  12.088  1.00 20.00     0.031 C 
HETATM    7  C7  UNL     1     -22.439  17.468   8.313  1.00 20.00     0.202 C 
HETATM    8  C8  UNL     1     -24.282  18.742   7.825  1.00 20.00     0.180 C 
HETATM    9  C9  UNL     1     -24.015  19.039   9.300  1.00 20.00     0.062 C 
HETATM   10  O10 UNL     1     -23.037  18.278   7.290  1.00 20.00    -0.386 OA
ENDROOT
TORSDOF 0
ENDMDL
MODEL 4
REMARK VINA RESULT:      -4.8     16.660     18.050
REMARK  0 active torsions:
REMARK  status: ('A' for Active; 'I' for Inactive)
ROOT
HETATM    1  C1  UNL     1     -23.506  17.739  12.079  1.00 20.00    -0.030 C 
HETATM    2  C2  UNL     1     -23.065  17.204  10.930  1.00 20.00    -0.020 C 
HETATM    3  C3  UNL     1     -25.467  19.015   9.968  1.00 20.00    -0.021 C 
HETATM    4  C4  UNL     1     -24.487  18.501   9.215  1.00 20.00    -0.050 C 
HETATM    5  C5  UNL     1     -24.724  18.577  12.332  1.00 20.00     0.030 C 
HETATM    6  C6  UNL     1     -25.850  18.472  11.305  1.00 20.00     0.031 C 
HETATM    7  C7  UNL     1     -24.104  19.039   7.875  1.00 20.00     0.202 C 
HETATM    8  C8  UNL     1     -22.484  17.551   8.525  1.00 20.00     0.180 C 
HETATM    9  C9  UNL     1     -23.609  17.329   9.536  1.00 20.00     0.062 C 
HETATM   10  O10 UNL     1     -23.106  18.138   7.375  1.00 20.00    -0.386 OA
ENDROOT
TORSDOF 0
ENDMDL
MODEL 5
REMARK VINA RESULT:      -4.6     11.519     12.173
REMARK  0 active torsions:
REMARK  status: ('A' for Active; 'I' for Inactive)
ROOT
HETATM    1  C1  UNL     1     -32.212   7.910   4.657  1.00 20.00    -0.030 C 
HETATM    2  C2  UNL     1     -33.337   7.411   5.191  1.00 20.00    -0.020 C 
HETATM    3  C3  UNL     1     -33.083   5.797   2.487  1.00 20.00    -0.021 C 
HETATM    4  C4  UNL     1     -33.842   5.490   3.547  1.00 20.00    -0.050 C 
HETATM    5  C5  UNL     1     -31.614   7.671   3.302  1.00 20.00     0.030 C 
HETATM    6  C6  UNL     1     -32.565   7.171   2.216  1.00 20.00     0.031 C 
HETATM    7  C7  UNL     1     -34.365   4.118   3.819  1.00 20.00     0.202 C 
HETATM    8  C8  UNL     1     -34.720   5.391   5.693  1.00 20.00     0.180 C 
HETATM    9  C9  UNL     1     -34.310   6.413   4.632  1.00 20.00     0.062 C 
HETATM   10  O10 UNL     1     -35.210   4.256   4.970  1.00 20.00    -0.386 OA
ENDROOT
TORSDOF 0
ENDMDL
MODEL 6
REMARK VINA RESULT:      -4.5      0.662      2.296
REMARK  0 active torsions:
REMARK  status: ('A' for Active; 'I' for Inactive)
ROOT
HETATM    1  C1  UNL     1     -35.288  17.116  -2.161  1.00 20.00    -0.030 C 
HETATM    2  C2  UNL     1     -36.305  16.782  -2.970  1.00 20.00    -0.020 C 
HETATM    3  C3  UNL     1     -34.060  14.721  -3.800  1.00 20.00    -0.021 C 
HETATM    4  C4  UNL     1     -35.370  14.643  -4.064  1.00 20.00    -0.050 C 
HETATM    5  C5  UNL     1     -33.874  16.616  -2.154  1.00 20.00     0.030 C 
HETATM    6  C6  UNL     1     -33.364  15.995  -3.454  1.00 20.00     0.031 C 
HETATM    7  C7  UNL     1     -36.068  13.371  -4.415  1.00 20.00     0.202 C 
HETATM    8  C8  UNL     1     -37.668  14.962  -4.006  1.00 20.00     0.180 C 
HETATM    9  C9  UNL     1     -36.367  15.762  -4.071  1.00 20.00     0.062 C 
HETATM   10  O10 UNL     1     -37.416  13.751  -4.729  1.00 20.00    -0.386 OA
ENDROOT
TORSDOF 0
ENDMDL
MODEL 7
REMARK VINA RESULT:      -4.5      1.301      1.803
REMARK  0 active torsions:
REMARK  status: ('A' for Active; 'I' for Inactive)
ROOT
HETATM    1  C1  UNL     1     -32.949  16.904  -2.666  1.00 20.00    -0.030 C 
HETATM    2  C2  UNL     1     -32.880  15.889  -3.540  1.00 20.00    -0.020 C 
HETATM    3  C3  UNL     1     -35.950  15.950  -2.797  1.00 20.00    -0.021 C 
HETATM    4  C4  UNL     1     -35.381  15.344  -3.847  1.00 20.00    -0.050 C 
HETATM    5  C5  UNL     1     -34.105  17.358  -1.824  1.00 20.00     0.030 C 
HETATM    6  C6  UNL     1     -35.202  16.328  -1.561  1.00 20.00     0.031 C 
HETATM    7  C7  UNL     1     -36.127  14.960  -5.082  1.00 20.00     0.202 C 
HETATM    8  C8  UNL     1     -33.886  14.728  -5.511  1.00 20.00     0.180 C 
HETATM    9  C9  UNL     1     -33.947  14.936  -3.998  1.00 20.00     0.062 C 
HETATM   10  O10 UNL     1     -35.180  14.245  -5.890  1.00 20.00    -0.386 OA
ENDROOT
TORSDOF 0
ENDMDL
MODEL 8
REMARK VINA RESULT:      -4.4      1.610      2.990
REMARK  0 active torsions:
REMARK  status: ('A' for Active; 'I' for Inactive)
ROOT
HETATM    1  C1  UNL     1     -35.182  16.767  -1.183  1.00 20.00    -0.030 C 
HETATM    2  C2  UNL     1     -35.604  16.042  -2.230  1.00 20.00    -0.020 C 
HETATM    3  C3  UNL     1     -32.638  16.761  -3.043  1.00 20.00    -0.021 C 
HETATM    4  C4  UNL     1     -33.414  15.807  -3.571  1.00 20.00    -0.050 C 
HETATM    5  C5  UNL     1     -33.904  17.535  -1.011  1.00 20.00     0.030 C 
HETATM    6  C6  UNL     1     -33.172  17.935  -2.290  1.00 20.00     0.031 C 
HETATM    7  C7  UNL     1     -32.884  14.634  -4.329  1.00 20.00     0.202 C 
HETATM    8  C8  UNL     1     -35.103  14.248  -3.895  1.00 20.00     0.180 C 
HETATM    9  C9  UNL     1     -34.910  15.718  -3.522  1.00 20.00     0.062 C 
HETATM   10  O10 UNL     1     -34.043  13.937  -4.807  1.00 20.00    -0.386 OA
ENDROOT
TORSDOF 0
ENDMDL
MODEL 9
REMARK VINA RESULT:      -4.3      1.654      2.169
REMARK  0 active torsions:
REMARK  status: ('A' for Active; 'I' for Inactive)
ROOT
HETATM    1  C1  UNL     1     -33.844  16.251  -2.534  1.00 20.00    -0.030 C 
HETATM    2  C2  UNL     1     -34.842  15.395  -2.801  1.00 20.00    -0.020 C 
HETATM    3  C3  UNL     1     -34.454  16.884  -5.561  1.00 20.00    -0.021 C 
HETATM    4  C4  UNL     1     -35.098  15.730  -5.345  1.00 20.00    -0.050 C 
HETATM    5  C5  UNL     1     -33.281  17.352  -3.384  1.00 20.00     0.030 C 
HETATM    6  C6  UNL     1     -34.187  17.890  -4.490  1.00 20.00     0.031 C 
HETATM    7  C7  UNL     1     -35.371  14.723  -6.414  1.00 20.00     0.202 C 
HETATM    8  C8  UNL     1     -35.843  13.749  -4.393  1.00 20.00     0.180 C 
HETATM    9  C9  UNL     1     -35.661  15.227  -4.050  1.00 20.00     0.062 C 
HETATM   10  O10 UNL     1     -36.171  13.711  -5.787  1.00 20.00    -0.386 OA
ENDROOT
TORSDOF 0
ENDMDL
