MODEL 1
REMARK VINA RESULT:      -4.6      0.000      0.000
REMARK  1 active torsions:
REMARK  status: ('A' for Active; 'I' for Inactive)
REMARK    1  A    between atoms: C7_7  and  O11_11 
ROOT
HETATM    1  C1  UNL     1     -35.158  15.219  -7.026  1.00 20.00    -0.027 C 
HETATM    2  C2  UNL     1     -35.927  14.310  -6.399  1.00 20.00     0.001 C 
HETATM    3  C3  UNL     1     -34.320  16.251  -6.303  1.00 20.00     0.036 C 
HETATM    4  C4  UNL     1     -34.021  16.409  -2.504  1.00 20.00     0.001 C 
HETATM    5  C5  UNL     1     -34.945  15.200  -2.735  1.00 20.00     0.008 C 
HETATM    6  C6  UNL     1     -33.665  16.970  -3.894  1.00 20.00     0.010 C 
HETATM    7  C7  UNL     1     -36.017  14.192  -4.894  1.00 20.00     0.145 C 
HETATM    8  C8  UNL     1     -34.883  14.978  -4.241  1.00 20.00     0.026 C 
HETATM    9  C9  UNL     1     -34.737  16.393  -4.827  1.00 20.00    -0.035 C 
HETATM   10  C10 UNL     1     -36.018  17.257  -4.730  1.00 20.00     0.016 C 
ENDROOT
BRANCH   7  11
HETATM   11  O11 UNL     1     -35.909  12.818  -4.539  1.00 20.00    -0.391 OA
HETATM   12  H27 UNL     1     -36.378  12.711  -3.697  1.00 20.00     0.210 HD
ENDBRANCH   7  11
TORSDOF 1
ENDMDL
MODEL 2
REMARK VINA RESULT:      -4.6     17.865     18.879
REMARK  1 active torsions:
REMARK  status: ('A' for Active; 'I' for Inactive)
REMARK    1  A    between atoms: C7_7  and  O11_11 
ROOT
HETATM    1  C1  UNL     1     -22.880  18.093   8.642  1.00 20.00    -0.027 C 
HETATM    2  C2  UNL     1     -23.848  19.027   8.689  1.00 20.00     0.001 C 
HETATM    3  C3  UNL     1     -22.781  16.938   9.614  1.00 20.00     0.036 C 
HETATM    4  C4  UNL     1     -25.372  16.267  12.332  1.00 20.00     0.001 C 
HETATM    5  C5  UNL     1     -25.927  17.510  11.614  1.00 20.00     0.008 C 
HETATM    6  C6  UNL     1     -24.056  15.894  11.623  1.00 20.00     0.010 C 
HETATM    7  C7  UNL     1     -24.971  19.011   9.701  1.00 20.00     0.145 C 
HETATM    8  C8  UNL     1     -25.037  17.649  10.386  1.00 20.00     0.026 C 
HETATM    9  C9  UNL     1     -23.657  17.164  10.861  1.00 20.00    -0.035 C 
HETATM   10  C10 UNL     1     -22.940  18.137  11.829  1.00 20.00     0.016 C 
ENDROOT
BRANCH   7  11
HETATM   11  O11 UNL     1     -26.197  19.262   9.022  1.00 20.00    -0.391 OA
HETATM   12  H27 UNL     1     -26.014  19.167   8.074  1.00 20.00     0.210 HD
ENDBRANCH   7  11
TORSDOF 1
ENDMDL
MODEL 3
REMARK VINA RESULT:      -4.6      3.188      5.234
REMARK  1 active torsions:
REMARK  status: ('A' for Active; 'I' for Inactive)
REMARK    1  A    between atoms: C7_7  and  O11_11 
ROOT
HETATM    1  C1  UNL     1     -34.636  18.190   0.240  1.00 20.00    -0.027 C 
HETATM    2  C2  UNL     1     -33.577  18.848  -0.267  1.00 20.00     0.001 C 
HETATM    3  C3  UNL     1     -35.296  17.012  -0.443  1.00 20.00     0.036 C 
HETATM    4  C4  UNL     1     -33.999  15.483  -3.688  1.00 20.00     0.001 C 
HETATM    5  C5  UNL     1     -32.992  16.610  -3.402  1.00 20.00     0.008 C 
HETATM    6  C6  UNL     1     -35.034  15.510  -2.547  1.00 20.00     0.010 C 
HETATM    7  C7  UNL     1     -32.902  18.466  -1.564  1.00 20.00     0.145 C 
HETATM    8  C8  UNL     1     -33.353  17.073  -1.996  1.00 20.00     0.026 C 
HETATM    9  C9  UNL     1     -34.880  16.903  -1.922  1.00 20.00    -0.035 C 
HETATM   10  C10 UNL     1     -35.676  17.931  -2.762  1.00 20.00     0.016 C 
ENDROOT
BRANCH   7  11
HETATM   11  O11 UNL     1     -31.493  18.467  -1.360  1.00 20.00    -0.391 OA
HETATM   12  H27 UNL     1     -31.351  18.534  -0.403  1.00 20.00     0.210 HD
ENDBRANCH   7  11
TORSDOF 1
ENDMDL
MODEL 4
REMARK VINA RESULT:      -4.5      1.621      3.349
REMARK  1 active torsions:
REMARK  status: ('A' for Active; 'I' for Inactive)
REMARK    1  A    between atoms: C7_7  and  O11_11 
ROOT
HETATM    1  C1  UNL     1     -33.592  16.439  -2.512  1.00 20.00    -0.027 C 
HETATM    2  C2  UNL     1     -32.920  15.778  -3.472  1.00 20.00     0.001 C 
HETATM    3  C3  UNL     1     -35.099  16.411  -2.372  1.00 20.00     0.036 C 
HETATM    4  C4  UNL     1     -37.363  14.296  -4.597  1.00 20.00     0.001 C 
HETATM    5  C5  UNL     1     -35.952  13.964  -5.113  1.00 20.00     0.008 C 
HETATM    6  C6  UNL     1     -37.191  15.309  -3.449  1.00 20.00     0.010 C 
HETATM    7  C7  UNL     1     -33.590  14.903  -4.507  1.00 20.00     0.145 C 
HETATM    8  C8  UNL     1     -35.029  14.610  -4.088  1.00 20.00     0.026 C 
HETATM    9  C9  UNL     1     -35.780  15.878  -3.647  1.00 20.00    -0.035 C 
HETATM   10  C10 UNL     1     -35.826  16.995  -4.718  1.00 20.00     0.016 C 
ENDROOT
BRANCH   7  11
HETATM   11  O11 UNL     1     -32.866  13.681  -4.605  1.00 20.00    -0.391 OA
HETATM   12  H27 UNL     1     -32.107  13.855  -5.184  1.00 20.00     0.210 HD
ENDBRANCH   7  11
TORSDOF 1
ENDMDL
MODEL 5
REMARK VINA RESULT:      -4.5      1.667      2.211
REMARK  1 active torsions:
REMARK  status: ('A' for Active; 'I' for Inactive)
REMARK    1  A    between atoms: C7_7  and  O11_11 
ROOT
HETATM    1  C1  UNL     1     -33.793  14.590  -4.710  1.00 20.00    -0.027 C 
HETATM    2  C2  UNL     1     -35.138  14.608  -4.773  1.00 20.00     0.001 C 
HETATM    3  C3  UNL     1     -32.987  15.448  -3.759  1.00 20.00     0.036 C 
HETATM    4  C4  UNL     1     -34.576  17.739  -1.156  1.00 20.00     0.001 C 
HETATM    5  C5  UNL     1     -35.790  17.084  -1.838  1.00 20.00     0.008 C 
HETATM    6  C6  UNL     1     -33.320  17.168  -1.840  1.00 20.00     0.010 C 
HETATM    7  C7  UNL     1     -36.003  15.464  -3.877  1.00 20.00     0.145 C 
HETATM    8  C8  UNL     1     -35.176  15.997  -2.709  1.00 20.00     0.026 C 
HETATM    9  C9  UNL     1     -33.832  16.591  -3.166  1.00 20.00    -0.035 C 
HETATM   10  C10 UNL     1     -33.962  17.733  -4.204  1.00 20.00     0.016 C 
ENDROOT
BRANCH   7  11
HETATM   11  O11 UNL     1     -37.070  14.665  -3.377  1.00 20.00    -0.391 OA
HETATM   12  H27 UNL     1     -37.408  14.152  -4.129  1.00 20.00     0.210 HD
ENDBRANCH   7  11
TORSDOF 1
ENDMDL
MODEL 6
REMARK VINA RESULT:      -4.4      1.532      2.893
REMARK  1 active torsions:
REMARK  status: ('A' for Active; 'I' for Inactive)
REMARK    1  A    between atoms: C7_7  and  O11_11 
ROOT
HETATM    1  C1  UNL     1     -33.952  15.322  -3.401  1.00 20.00    -0.027 C 
HETATM    2  C2  UNL     1     -34.279  14.205  -4.077  1.00 20.00     0.001 C 
HETATM    3  C3  UNL     1     -34.936  16.424  -3.076  1.00 20.00     0.036 C 
HETATM    4  C4  UNL     1     -38.649  16.225  -3.926  1.00 20.00     0.001 C 
HETATM    5  C5  UNL     1     -38.100  14.879  -4.429  1.00 20.00     0.008 C 
HETATM    6  C6  UNL     1     -37.458  16.999  -3.330  1.00 20.00     0.010 C 
HETATM    7  C7  UNL     1     -35.678  13.906  -4.564  1.00 20.00     0.145 C 
HETATM    8  C8  UNL     1     -36.677  14.841  -3.887  1.00 20.00     0.026 C 
HETATM    9  C9  UNL     1     -36.220  16.310  -3.920  1.00 20.00    -0.035 C 
HETATM   10  C10 UNL     1     -35.957  16.862  -5.342  1.00 20.00     0.016 C 
ENDROOT
BRANCH   7  11
HETATM   11  O11 UNL     1     -35.994  12.557  -4.238  1.00 20.00    -0.391 OA
HETATM   12  H27 UNL     1     -36.944  12.447  -4.400  1.00 20.00     0.210 HD
ENDBRANCH   7  11
TORSDOF 1
ENDMDL
MODEL 7
REMARK VINA RESULT:      -4.4      1.662      3.572
REMARK  1 active torsions:
REMARK  status: ('A' for Active; 'I' for Inactive)
REMARK    1  A    between atoms: C7_7  and  O11_11 
ROOT
HETATM    1  C1  UNL     1     -34.896  15.736  -2.587  1.00 20.00    -0.027 C 
HETATM    2  C2  UNL     1     -33.604  15.689  -2.959  1.00 20.00     0.001 C 
HETATM    3  C3  UNL     1     -36.053  15.658  -3.559  1.00 20.00     0.036 C 
HETATM    4  C4  UNL     1     -35.597  15.107  -7.306  1.00 20.00     0.001 C 
HETATM    5  C5  UNL     1     -34.155  15.086  -6.769  1.00 20.00     0.008 C 
HETATM    6  C6  UNL     1     -36.520  15.338  -6.095  1.00 20.00     0.010 C 
HETATM    7  C7  UNL     1     -33.156  15.518  -4.393  1.00 20.00     0.145 C 
HETATM    8  C8  UNL     1     -34.331  15.065  -5.256  1.00 20.00     0.026 C 
HETATM    9  C9  UNL     1     -35.596  15.905  -5.010  1.00 20.00    -0.035 C 
HETATM   10  C10 UNL     1     -35.406  17.424  -5.243  1.00 20.00     0.016 C 
ENDROOT
BRANCH   7  11
HETATM   11  O11 UNL     1     -32.129  14.533  -4.434  1.00 20.00    -0.391 OA
HETATM   12  H27 UNL     1     -31.761  14.552  -5.332  1.00 20.00     0.210 HD
ENDBRANCH   7  11
TORSDOF 1
ENDMDL
MODEL 8
REMARK VINA RESULT:      -4.4      1.619      2.073
REMARK  1 active torsions:
REMARK  status: ('A' for Active; 'I' for Inactive)
REMARK    1  A    between atoms: C7_7  and  O11_11 
ROOT
HETATM    1  C1  UNL     1     -36.347  16.225  -6.891  1.00 20.00    -0.027 C 
HETATM    2  C2  UNL     1     -35.410  15.275  -7.062  1.00 20.00     0.001 C 
HETATM    3  C3  UNL     1     -36.707  16.815  -5.544  1.00 20.00     0.036 C 
HETATM    4  C4  UNL     1     -34.903  15.893  -2.312  1.00 20.00     0.001 C 
HETATM    5  C5  UNL     1     -34.166  15.062  -3.376  1.00 20.00     0.008 C 
HETATM    6  C6  UNL     1     -36.000  16.686  -3.047  1.00 20.00     0.010 C 
HETATM    7  C7  UNL     1     -34.581  14.708  -5.932  1.00 20.00     0.145 C 
HETATM    8  C8  UNL     1     -34.711  15.594  -4.695  1.00 20.00     0.026 C 
HETATM    9  C9  UNL     1     -36.174  15.953  -4.383  1.00 20.00    -0.035 C 
HETATM   10  C10 UNL     1     -37.100  14.729  -4.178  1.00 20.00     0.016 C 
ENDROOT
BRANCH   7  11
HETATM   11  O11 UNL     1     -33.219  14.665  -6.344  1.00 20.00    -0.391 OA
HETATM   12  H27 UNL     1     -32.689  14.940  -5.580  1.00 20.00     0.210 HD
ENDBRANCH   7  11
TORSDOF 1
ENDMDL
MODEL 9
REMARK VINA RESULT:      -4.3      1.759      3.620
REMARK  1 active torsions:
REMARK  status: ('A' for Active; 'I' for Inactive)
REMARK    1  A    between atoms: C7_7  and  O11_11 
ROOT
HETATM    1  C1  UNL     1     -33.855  16.284  -2.327  1.00 20.00    -0.027 C 
HETATM    2  C2  UNL     1     -35.169  16.311  -2.036  1.00 20.00     0.001 C 
HETATM    3  C3  UNL     1     -33.302  15.843  -3.665  1.00 20.00     0.036 C 
HETATM    4  C4  UNL     1     -35.508  14.876  -6.622  1.00 20.00     0.001 C 
HETATM    5  C5  UNL     1     -36.526  15.262  -5.534  1.00 20.00     0.008 C 
HETATM    6  C6  UNL     1     -34.108  15.060  -6.008  1.00 20.00     0.010 C 
HETATM    7  C7  UNL     1     -36.249  15.932  -3.024  1.00 20.00     0.145 C 
HETATM    8  C8  UNL     1     -35.668  15.874  -4.434  1.00 20.00     0.026 C 
HETATM    9  C9  UNL     1     -34.352  15.079  -4.493  1.00 20.00    -0.035 C 
HETATM   10  C10 UNL     1     -34.465  13.624  -3.976  1.00 20.00     0.016 C 
ENDROOT
BRANCH   7  11
HETATM   11  O11 UNL     1     -37.276  16.918  -2.974  1.00 20.00    -0.391 OA
HETATM   12  H27 UNL     1     -37.885  16.647  -2.269  1.00 20.00     0.210 HD
ENDBRANCH   7  11
TORSDOF 1
ENDMDL
