MODEL 1
REMARK VINA RESULT:      -4.2      0.000      0.000
REMARK  2 active torsions:
REMARK  status: ('A' for Active; 'I' for Inactive)
REMARK    1  A    between atoms: C1_1  and  C3_3 
REMARK    2  A    between atoms: C1_1  and  C8_8 
ROOT
HETATM    1  C2  UNL     1     -24.071  16.647  10.530  1.00 20.00     0.022 A 
HETATM    2  C3  UNL     1     -23.718  17.987   9.937  1.00 20.00     0.064 A 
HETATM    3  C4  UNL     1     -23.767  17.809  11.444  1.00 20.00    -0.037 A 
HETATM    4  C5  UNL     1     -24.916  18.448  12.179  1.00 20.00     0.015 C 
HETATM    5  C6  UNL     1     -22.486  17.761  12.235  1.00 20.00     0.015 C 
ENDROOT
BRANCH   2   6
HETATM    6  C1  UNL     1     -22.438  18.151   9.237  1.00 20.00     0.131 C 
HETATM    7  O9  UNL     1     -21.914  19.257   9.122  1.00 20.00    -0.298 OA
BRANCH   6   8
HETATM    8  C8  UNL     1     -21.817  16.884   8.676  1.00 20.00     0.074 C 
HETATM    9  C7  UNL     1     -21.300  17.066   7.260  1.00 20.00     0.013 C 
ENDBRANCH   6   8
ENDBRANCH   2   6
TORSDOF 2
ENDMDL
MODEL 2
REMARK VINA RESULT:      -4.0     17.721     18.569
REMARK  2 active torsions:
REMARK  status: ('A' for Active; 'I' for Inactive)
REMARK    1  A    between atoms: C1_1  and  C3_3 
REMARK    2  A    between atoms: C1_1  and  C8_8 
ROOT
HETATM    1  C2  UNL     1     -34.440  16.807  -4.377  1.00 20.00     0.022 A 
HETATM    2  C3  UNL     1     -33.825  15.444  -4.193  1.00 20.00     0.064 A 
HETATM    3  C4  UNL     1     -34.044  16.350  -2.994  1.00 20.00    -0.037 A 
HETATM    4  C5  UNL     1     -32.825  16.975  -2.368  1.00 20.00     0.015 C 
HETATM    5  C6  UNL     1     -35.148  16.044  -2.015  1.00 20.00     0.015 C 
ENDROOT
BRANCH   2   6
HETATM    6  C1  UNL     1     -34.650  14.247  -4.395  1.00 20.00     0.131 C 
HETATM    7  O9  UNL     1     -34.334  13.166  -3.901  1.00 20.00    -0.298 OA
BRANCH   6   8
HETATM    8  C8  UNL     1     -35.897  14.431  -5.241  1.00 20.00     0.074 C 
HETATM    9  C7  UNL     1     -37.176  14.233  -4.447  1.00 20.00     0.013 C 
ENDBRANCH   6   8
ENDBRANCH   2   6
TORSDOF 2
ENDMDL
MODEL 3
REMARK VINA RESULT:      -3.9     18.666     19.546
REMARK  2 active torsions:
REMARK  status: ('A' for Active; 'I' for Inactive)
REMARK    1  A    between atoms: C1_1  and  C3_3 
REMARK    2  A    between atoms: C1_1  and  C8_8 
ROOT
HETATM    1  C2  UNL     1     -33.555  14.399  -4.406  1.00 20.00     0.022 A 
HETATM    2  C3  UNL     1     -34.968  14.372  -3.883  1.00 20.00     0.064 A 
HETATM    3  C4  UNL     1     -34.189  15.675  -3.907  1.00 20.00    -0.037 A 
HETATM    4  C5  UNL     1     -33.721  16.225  -2.585  1.00 20.00     0.015 C 
HETATM    5  C6  UNL     1     -34.529  16.732  -4.925  1.00 20.00     0.015 C 
ENDROOT
BRANCH   2   6
HETATM    6  C1  UNL     1     -36.078  14.138  -4.815  1.00 20.00     0.131 C 
HETATM    7  O9  UNL     1     -35.872  13.729  -5.957  1.00 20.00    -0.298 OA
BRANCH   6   8
HETATM    8  C8  UNL     1     -37.469  14.429  -4.284  1.00 20.00     0.074 C 
HETATM    9  C7  UNL     1     -38.046  15.720  -4.836  1.00 20.00     0.013 C 
ENDBRANCH   6   8
ENDBRANCH   2   6
TORSDOF 2
ENDMDL
MODEL 4
REMARK VINA RESULT:      -3.9     18.458     19.375
REMARK  2 active torsions:
REMARK  status: ('A' for Active; 'I' for Inactive)
REMARK    1  A    between atoms: C1_1  and  C3_3 
REMARK    2  A    between atoms: C1_1  and  C8_8 
ROOT
HETATM    1  C2  UNL     1     -35.155  14.862  -3.243  1.00 20.00     0.022 A 
HETATM    2  C3  UNL     1     -35.183  15.633  -4.537  1.00 20.00     0.064 A 
HETATM    3  C4  UNL     1     -33.865  15.386  -3.825  1.00 20.00    -0.037 A 
HETATM    4  C5  UNL     1     -33.213  16.564  -3.148  1.00 20.00     0.015 C 
HETATM    5  C6  UNL     1     -32.889  14.382  -4.382  1.00 20.00     0.015 C 
ENDROOT
BRANCH   2   6
HETATM    6  C1  UNL     1     -35.510  14.935  -5.786  1.00 20.00     0.131 C 
HETATM    7  O9  UNL     1     -35.978  13.797  -5.773  1.00 20.00    -0.298 OA
BRANCH   6   8
HETATM    8  C8  UNL     1     -35.235  15.697  -7.069  1.00 20.00     0.074 C 
HETATM    9  C7  UNL     1     -33.919  15.300  -7.713  1.00 20.00     0.013 C 
ENDBRANCH   6   8
ENDBRANCH   2   6
TORSDOF 2
ENDMDL
MODEL 5
REMARK VINA RESULT:      -3.8     23.916     24.835
REMARK  2 active torsions:
REMARK  status: ('A' for Active; 'I' for Inactive)
REMARK    1  A    between atoms: C1_1  and  C3_3 
REMARK    2  A    between atoms: C1_1  and  C8_8 
ROOT
HETATM    1  C2  UNL     1     -42.914   7.804  -1.414  1.00 20.00     0.022 A 
HETATM    2  C3  UNL     1     -41.572   7.125  -1.314  1.00 20.00     0.064 A 
HETATM    3  C4  UNL     1     -42.127   7.896  -0.129  1.00 20.00    -0.037 A 
HETATM    4  C5  UNL     1     -41.474   9.212   0.206  1.00 20.00     0.015 C 
HETATM    5  C6  UNL     1     -42.654   7.151   1.069  1.00 20.00     0.015 C 
ENDROOT
BRANCH   2   6
HETATM    6  C1  UNL     1     -41.507   5.659  -1.297  1.00 20.00     0.131 C 
HETATM    7  O9  UNL     1     -40.449   5.073  -1.070  1.00 20.00    -0.298 OA
BRANCH   6   8
HETATM    8  C8  UNL     1     -42.808   4.928  -1.573  1.00 20.00     0.074 C 
HETATM    9  C7  UNL     1     -42.626   3.742  -2.503  1.00 20.00     0.013 C 
ENDBRANCH   6   8
ENDBRANCH   2   6
TORSDOF 2
ENDMDL
MODEL 6
REMARK VINA RESULT:      -3.8     17.724     18.495
REMARK  2 active torsions:
REMARK  status: ('A' for Active; 'I' for Inactive)
REMARK    1  A    between atoms: C1_1  and  C3_3 
REMARK    2  A    between atoms: C1_1  and  C8_8 
ROOT
HETATM    1  C2  UNL     1     -33.816  16.812  -3.402  1.00 20.00     0.022 A 
HETATM    2  C3  UNL     1     -34.033  15.348  -3.116  1.00 20.00     0.064 A 
HETATM    3  C4  UNL     1     -35.042  16.377  -2.636  1.00 20.00    -0.037 A 
HETATM    4  C5  UNL     1     -35.087  16.664  -1.157  1.00 20.00     0.015 C 
HETATM    5  C6  UNL     1     -36.377  16.496  -3.324  1.00 20.00     0.015 C 
ENDROOT
BRANCH   2   6
HETATM    6  C1  UNL     1     -34.353  14.437  -4.221  1.00 20.00     0.131 C 
HETATM    7  O9  UNL     1     -34.883  13.347  -4.013  1.00 20.00    -0.298 OA
BRANCH   6   8
HETATM    8  C8  UNL     1     -33.989  14.922  -5.613  1.00 20.00     0.074 C 
HETATM    9  C7  UNL     1     -35.164  14.872  -6.573  1.00 20.00     0.013 C 
ENDBRANCH   6   8
ENDBRANCH   2   6
TORSDOF 2
ENDMDL
MODEL 7
REMARK VINA RESULT:      -3.8     16.540     17.477
REMARK  2 active torsions:
REMARK  status: ('A' for Active; 'I' for Inactive)
REMARK    1  A    between atoms: C1_1  and  C3_3 
REMARK    2  A    between atoms: C1_1  and  C8_8 
ROOT
HETATM    1  C2  UNL     1     -35.540   5.684   3.876  1.00 20.00     0.022 A 
HETATM    2  C3  UNL     1     -34.162   6.290   3.946  1.00 20.00     0.064 A 
HETATM    3  C4  UNL     1     -34.532   5.129   4.853  1.00 20.00    -0.037 A 
HETATM    4  C5  UNL     1     -34.728   5.430   6.316  1.00 20.00     0.015 C 
HETATM    5  C6  UNL     1     -33.974   3.757   4.579  1.00 20.00     0.015 C 
ENDROOT
BRANCH   2   6
HETATM    6  C1  UNL     1     -33.236   6.105   2.823  1.00 20.00     0.131 C 
HETATM    7  O9  UNL     1     -33.272   5.090   2.130  1.00 20.00    -0.298 OA
BRANCH   6   8
HETATM    8  C8  UNL     1     -32.247   7.231   2.579  1.00 20.00     0.074 C 
HETATM    9  C7  UNL     1     -32.592   8.055   1.351  1.00 20.00     0.013 C 
ENDBRANCH   6   8
ENDBRANCH   2   6
TORSDOF 2
ENDMDL
MODEL 8
REMARK VINA RESULT:      -3.8      1.869      4.036
REMARK  2 active torsions:
REMARK  status: ('A' for Active; 'I' for Inactive)
REMARK    1  A    between atoms: C1_1  and  C3_3 
REMARK    2  A    between atoms: C1_1  and  C8_8 
ROOT
HETATM    1  C2  UNL     1     -23.738  18.912   9.312  1.00 20.00     0.022 A 
HETATM    2  C3  UNL     1     -24.092  17.480   9.618  1.00 20.00     0.064 A 
HETATM    3  C4  UNL     1     -22.657  17.858   9.295  1.00 20.00    -0.037 A 
HETATM    4  C5  UNL     1     -22.113  17.427   7.958  1.00 20.00     0.015 C 
HETATM    5  C6  UNL     1     -21.627  17.895  10.393  1.00 20.00     0.015 C 
ENDROOT
BRANCH   2   6
HETATM    6  C1  UNL     1     -24.487  17.111  10.983  1.00 20.00     0.131 C 
HETATM    7  O9  UNL     1     -24.474  15.938  11.353  1.00 20.00    -0.298 OA
BRANCH   6   8
HETATM    8  C8  UNL     1     -24.906  18.254  11.889  1.00 20.00     0.074 C 
HETATM    9  C7  UNL     1     -26.413  18.426  11.955  1.00 20.00     0.013 C 
ENDBRANCH   6   8
ENDBRANCH   2   6
TORSDOF 2
ENDMDL
MODEL 9
REMARK VINA RESULT:      -3.8     18.518     19.467
REMARK  2 active torsions:
REMARK  status: ('A' for Active; 'I' for Inactive)
REMARK    1  A    between atoms: C1_1  and  C3_3 
REMARK    2  A    between atoms: C1_1  and  C8_8 
ROOT
HETATM    1  C2  UNL     1     -35.107  14.790  -6.538  1.00 20.00     0.022 A 
HETATM    2  C3  UNL     1     -34.711  15.610  -5.337  1.00 20.00     0.064 A 
HETATM    3  C4  UNL     1     -36.124  15.065  -5.457  1.00 20.00    -0.037 A 
HETATM    4  C5  UNL     1     -37.222  16.052  -5.757  1.00 20.00     0.015 C 
HETATM    5  C6  UNL     1     -36.558  13.910  -4.593  1.00 20.00     0.015 C 
ENDROOT
BRANCH   2   6
HETATM    6  C1  UNL     1     -33.767  15.051  -4.362  1.00 20.00     0.131 C 
HETATM    7  O9  UNL     1     -33.238  13.956  -4.546  1.00 20.00    -0.298 OA
BRANCH   6   8
HETATM    8  C8  UNL     1     -33.493  15.901  -3.135  1.00 20.00     0.074 C 
HETATM    9  C7  UNL     1     -34.704  16.022  -2.226  1.00 20.00     0.013 C 
ENDBRANCH   6   8
ENDBRANCH   2   6
TORSDOF 2
ENDMDL
