MODEL 1
REMARK VINA RESULT:      -4.5      0.000      0.000
REMARK  1 active torsions:
REMARK  status: ('A' for Active; 'I' for Inactive)
REMARK    1  A    between atoms: C4_4  and  C8_8 
ROOT
HETATM    1  C1  UNL     1     -33.867   6.503   4.500  1.00 20.00    -0.057 C 
HETATM    2  C2  UNL     1     -33.409   7.369   5.418  1.00 20.00     0.017 C 
HETATM    3  C5  UNL     1     -34.858   5.428   4.880  1.00 20.00     0.038 C 
HETATM    4  C6  UNL     1     -34.376   4.069   4.379  1.00 20.00     0.030 C 
HETATM    5  C7  UNL     1     -33.989   4.139   2.906  1.00 20.00     0.169 C 
HETATM    6  C8  UNL     1     -33.476   6.465   3.036  1.00 20.00     0.171 C 
HETATM    7  O9  UNL     1     -33.001   5.151   2.701  1.00 20.00    -0.378 OA
ENDROOT
BRANCH   6   8
HETATM    8  C4  UNL     1     -32.408   7.431   2.636  1.00 20.00    -0.001 C 
HETATM    9  C3  UNL     1     -32.342   8.019   1.437  1.00 20.00     0.010 C 
ENDBRANCH   6   8
TORSDOF 1
ENDMDL
MODEL 2
REMARK VINA RESULT:      -4.4      1.361      3.925
REMARK  1 active torsions:
REMARK  status: ('A' for Active; 'I' for Inactive)
REMARK    1  A    between atoms: C4_4  and  C8_8 
ROOT
HETATM    1  C1  UNL     1     -33.382   5.891   2.923  1.00 20.00    -0.057 C 
HETATM    2  C2  UNL     1     -33.460   4.667   2.377  1.00 20.00     0.017 C 
HETATM    3  C5  UNL     1     -32.480   6.946   2.326  1.00 20.00     0.038 C 
HETATM    4  C6  UNL     1     -31.604   7.562   3.415  1.00 20.00     0.030 C 
HETATM    5  C7  UNL     1     -32.445   7.993   4.611  1.00 20.00     0.169 C 
HETATM    6  C8  UNL     1     -34.132   6.369   4.151  1.00 20.00     0.171 C 
HETATM    7  O9  UNL     1     -33.197   6.885   5.112  1.00 20.00    -0.378 OA
ENDROOT
BRANCH   6   8
HETATM    8  C4  UNL     1     -34.946   5.328   4.847  1.00 20.00    -0.001 C 
HETATM    9  C3  UNL     1     -34.805   5.006   6.137  1.00 20.00     0.010 C 
ENDBRANCH   6   8
TORSDOF 1
ENDMDL
MODEL 3
REMARK VINA RESULT:      -4.3      1.116      2.363
REMARK  1 active torsions:
REMARK  status: ('A' for Active; 'I' for Inactive)
REMARK    1  A    between atoms: C4_4  and  C8_8 
ROOT
HETATM    1  C1  UNL     1     -33.473   5.000   2.892  1.00 20.00    -0.057 C 
HETATM    2  C2  UNL     1     -33.473   4.481   1.654  1.00 20.00     0.017 C 
HETATM    3  C5  UNL     1     -34.173   4.290   4.026  1.00 20.00     0.038 C 
HETATM    4  C6  UNL     1     -35.094   5.260   4.764  1.00 20.00     0.030 C 
HETATM    5  C7  UNL     1     -34.355   6.544   5.125  1.00 20.00     0.169 C 
HETATM    6  C8  UNL     1     -32.822   6.304   3.312  1.00 20.00     0.171 C 
HETATM    7  O9  UNL     1     -33.798   7.142   3.952  1.00 20.00    -0.378 OA
ENDROOT
BRANCH   6   8
HETATM    8  C4  UNL     1     -32.219   7.103   2.203  1.00 20.00    -0.001 C 
HETATM    9  C3  UNL     1     -32.876   8.044   1.516  1.00 20.00     0.010 C 
ENDBRANCH   6   8
TORSDOF 1
ENDMDL
MODEL 4
REMARK VINA RESULT:      -4.3     16.302     17.026
REMARK  1 active torsions:
REMARK  status: ('A' for Active; 'I' for Inactive)
REMARK    1  A    between atoms: C4_4  and  C8_8 
ROOT
HETATM    1  C1  UNL     1     -25.171  18.450  11.289  1.00 20.00    -0.057 C 
HETATM    2  C2  UNL     1     -26.221  19.215  11.627  1.00 20.00     0.017 C 
HETATM    3  C5  UNL     1     -24.447  17.630  12.331  1.00 20.00     0.038 C 
HETATM    4  C6  UNL     1     -22.943  17.881  12.243  1.00 20.00     0.030 C 
HETATM    5  C7  UNL     1     -22.450  17.734  10.807  1.00 20.00     0.169 C 
HETATM    6  C8  UNL     1     -24.580  18.308   9.899  1.00 20.00     0.171 C 
HETATM    7  O9  UNL     1     -23.177  18.611   9.943  1.00 20.00    -0.378 OA
ENDROOT
BRANCH   6   8
HETATM    8  C4  UNL     1     -25.186  19.190   8.856  1.00 20.00    -0.001 C 
HETATM    9  C3  UNL     1     -25.019  19.017   7.541  1.00 20.00     0.010 C 
ENDBRANCH   6   8
TORSDOF 1
ENDMDL
MODEL 5
REMARK VINA RESULT:      -4.2     16.520     17.247
REMARK  1 active torsions:
REMARK  status: ('A' for Active; 'I' for Inactive)
REMARK    1  A    between atoms: C4_4  and  C8_8 
ROOT
HETATM    1  C1  UNL     1     -23.181  17.710  11.121  1.00 20.00    -0.057 C 
HETATM    2  C2  UNL     1     -22.611  17.811  12.332  1.00 20.00     0.017 C 
HETATM    3  C5  UNL     1     -22.352  17.375   9.903  1.00 20.00     0.038 C 
HETATM    4  C6  UNL     1     -22.635  18.376   8.784  1.00 20.00     0.030 C 
HETATM    5  C7  UNL     1     -24.135  18.527   8.558  1.00 20.00     0.169 C 
HETATM    6  C8  UNL     1     -24.650  17.917  10.806  1.00 20.00     0.171 C 
HETATM    7  O9  UNL     1     -24.784  18.907   9.774  1.00 20.00    -0.378 OA
ENDROOT
BRANCH   6   8
HETATM    8  C4  UNL     1     -25.492  18.367  11.956  1.00 20.00    -0.001 C 
HETATM    9  C3  UNL     1     -26.525  19.208  11.843  1.00 20.00     0.010 C 
ENDBRANCH   6   8
TORSDOF 1
ENDMDL
MODEL 6
REMARK VINA RESULT:      -4.1     16.730     17.197
REMARK  1 active torsions:
REMARK  status: ('A' for Active; 'I' for Inactive)
REMARK    1  A    between atoms: C4_4  and  C8_8 
ROOT
HETATM    1  C1  UNL     1     -24.255  18.319   9.852  1.00 20.00    -0.057 C 
HETATM    2  C2  UNL     1     -24.754  19.184   8.955  1.00 20.00     0.017 C 
HETATM    3  C5  UNL     1     -25.024  17.980  11.107  1.00 20.00     0.038 C 
HETATM    4  C6  UNL     1     -24.124  18.132  12.332  1.00 20.00     0.030 C 
HETATM    5  C7  UNL     1     -22.804  17.396  12.130  1.00 20.00     0.169 C 
HETATM    6  C8  UNL     1     -22.921  17.603   9.756  1.00 20.00     0.171 C 
HETATM    7  O9  UNL     1     -22.154  17.859  10.943  1.00 20.00    -0.378 OA
ENDROOT
BRANCH   6   8
HETATM    8  C4  UNL     1     -22.070  17.995   8.592  1.00 20.00    -0.001 C 
HETATM    9  C3  UNL     1     -21.293  17.145   7.913  1.00 20.00     0.010 C 
ENDBRANCH   6   8
TORSDOF 1
ENDMDL
MODEL 7
REMARK VINA RESULT:      -4.0     11.337     12.154
REMARK  1 active torsions:
REMARK  status: ('A' for Active; 'I' for Inactive)
REMARK    1  A    between atoms: C4_4  and  C8_8 
ROOT
HETATM    1  C1  UNL     1     -34.766  16.286  -2.400  1.00 20.00    -0.057 C 
HETATM    2  C2  UNL     1     -35.177  16.616  -1.166  1.00 20.00     0.017 C 
HETATM    3  C5  UNL     1     -35.595  15.368  -3.269  1.00 20.00     0.038 C 
HETATM    4  C6  UNL     1     -34.724  14.244  -3.825  1.00 20.00     0.030 C 
HETATM    5  C7  UNL     1     -33.452  14.802  -4.454  1.00 20.00     0.169 C 
HETATM    6  C8  UNL     1     -33.483  16.743  -3.066  1.00 20.00     0.171 C 
HETATM    7  O9  UNL     1     -32.736  15.596  -3.505  1.00 20.00    -0.378 OA
ENDROOT
BRANCH   6   8
HETATM    8  C4  UNL     1     -32.572  17.555  -2.205  1.00 20.00    -0.001 C 
HETATM    9  C3  UNL     1     -32.459  18.885  -2.280  1.00 20.00     0.010 C 
ENDBRANCH   6   8
TORSDOF 1
ENDMDL
MODEL 8
REMARK VINA RESULT:      -3.9     11.566     12.166
REMARK  1 active torsions:
REMARK  status: ('A' for Active; 'I' for Inactive)
REMARK    1  A    between atoms: C4_4  and  C8_8 
ROOT
HETATM    1  C1  UNL     1     -33.566  16.338  -2.906  1.00 20.00    -0.057 C 
HETATM    2  C2  UNL     1     -32.919  17.505  -2.759  1.00 20.00     0.017 C 
HETATM    3  C5  UNL     1     -33.039  15.276  -3.842  1.00 20.00     0.038 C 
HETATM    4  C6  UNL     1     -34.151  14.797  -4.772  1.00 20.00     0.030 C 
HETATM    5  C7  UNL     1     -35.404  14.436  -3.980  1.00 20.00     0.169 C 
HETATM    6  C8  UNL     1     -34.852  15.937  -2.209  1.00 20.00     0.171 C 
HETATM    7  O9  UNL     1     -35.828  15.550  -3.189  1.00 20.00    -0.378 OA
ENDROOT
BRANCH   6   8
HETATM    8  C4  UNL     1     -35.478  16.998  -1.364  1.00 20.00    -0.001 C 
HETATM    9  C3  UNL     1     -35.373  17.054  -0.032  1.00 20.00     0.010 C 
ENDBRANCH   6   8
TORSDOF 1
ENDMDL
MODEL 9
REMARK VINA RESULT:      -3.9      1.379      2.543
REMARK  1 active torsions:
REMARK  status: ('A' for Active; 'I' for Inactive)
REMARK    1  A    between atoms: C4_4  and  C8_8 
ROOT
HETATM    1  C1  UNL     1     -33.327   6.756   4.006  1.00 20.00    -0.057 C 
HETATM    2  C2  UNL     1     -32.200   7.267   3.486  1.00 20.00     0.017 C 
HETATM    3  C5  UNL     1     -33.871   7.267   5.319  1.00 20.00     0.038 C 
HETATM    4  C6  UNL     1     -34.165   6.097   6.256  1.00 20.00     0.030 C 
HETATM    5  C7  UNL     1     -34.997   5.031   5.550  1.00 20.00     0.169 C 
HETATM    6  C8  UNL     1     -34.168   5.649   3.399  1.00 20.00     0.171 C 
HETATM    7  O9  UNL     1     -34.335   4.594   4.360  1.00 20.00    -0.378 OA
ENDROOT
BRANCH   6   8
HETATM    8  C4  UNL     1     -33.608   5.029   2.161  1.00 20.00    -0.001 C 
HETATM    9  C3  UNL     1     -32.897   3.896   2.147  1.00 20.00     0.010 C 
ENDBRANCH   6   8
TORSDOF 1
ENDMDL
