MODEL 1
REMARK VINA RESULT:      -5.9      0.000      0.000
REMARK  1 active torsions:
REMARK  status: ('A' for Active; 'I' for Inactive)
REMARK    1  A    between atoms: C5_5  and  C6_6 
ROOT
HETATM    1  C1  UNL     1     -34.092   4.909   3.736  1.00 20.00     0.139 C 
HETATM    2  C2  UNL     1     -33.076   5.008   2.626  1.00 20.00     0.079 C 
HETATM    3  C3  UNL     1     -32.890   6.515   2.502  1.00 20.00     0.008 C 
HETATM    4  C4  UNL     1     -33.114   7.043   3.913  1.00 20.00     0.021 C 
HETATM    5  C5  UNL     1     -34.312   6.241   4.424  1.00 20.00     0.163 C 
HETATM    6  O7  UNL     1     -34.667   3.870   4.038  1.00 20.00    -0.297 OA
ENDROOT
BRANCH   5   7
HETATM    7  C6  UNL     1     -34.348   6.128   5.935  1.00 20.00     0.398 C 
HETATM    8  F8  UNL     1     -35.477   5.516   6.336  1.00 20.00    -0.170 F 
HETATM    9  F9  UNL     1     -33.297   5.415   6.379  1.00 20.00    -0.170 F 
HETATM   10  F10 UNL     1     -34.303   7.348   6.501  1.00 20.00    -0.170 F 
ENDBRANCH   5   7
TORSDOF 1
ENDMDL
MODEL 2
REMARK VINA RESULT:      -5.5      2.756      3.644
REMARK  1 active torsions:
REMARK  status: ('A' for Active; 'I' for Inactive)
REMARK    1  A    between atoms: C5_5  and  C6_6 
ROOT
HETATM    1  C1  UNL     1     -33.830   6.674   5.248  1.00 20.00     0.139 C 
HETATM    2  C2  UNL     1     -34.483   5.535   5.990  1.00 20.00     0.079 C 
HETATM    3  C3  UNL     1     -35.283   4.856   4.886  1.00 20.00     0.008 C 
HETATM    4  C4  UNL     1     -34.465   5.094   3.623  1.00 20.00     0.021 C 
HETATM    5  C5  UNL     1     -34.001   6.546   3.749  1.00 20.00     0.163 C 
HETATM    6  O7  UNL     1     -33.235   7.590   5.802  1.00 20.00    -0.297 OA
ENDROOT
BRANCH   5   7
HETATM    7  C6  UNL     1     -32.725   6.828   2.981  1.00 20.00     0.398 C 
HETATM    8  F8  UNL     1     -31.785   7.335   3.799  1.00 20.00    -0.170 F 
HETATM    9  F9  UNL     1     -32.246   5.698   2.431  1.00 20.00    -0.170 F 
HETATM   10  F10 UNL     1     -32.954   7.716   1.996  1.00 20.00    -0.170 F 
ENDBRANCH   5   7
TORSDOF 1
ENDMDL
MODEL 3
REMARK VINA RESULT:      -5.1      2.835      3.841
REMARK  1 active torsions:
REMARK  status: ('A' for Active; 'I' for Inactive)
REMARK    1  A    between atoms: C5_5  and  C6_6 
ROOT
HETATM    1  C1  UNL     1     -33.453   6.695   4.753  1.00 20.00     0.139 C 
HETATM    2  C2  UNL     1     -33.866   6.254   6.134  1.00 20.00     0.079 C 
HETATM    3  C3  UNL     1     -35.080   5.384   5.838  1.00 20.00     0.008 C 
HETATM    4  C4  UNL     1     -34.790   4.778   4.471  1.00 20.00     0.021 C 
HETATM    5  C5  UNL     1     -34.193   5.937   3.670  1.00 20.00     0.163 C 
HETATM    6  O7  UNL     1     -32.616   7.564   4.541  1.00 20.00    -0.297 OA
ENDROOT
BRANCH   5   7
HETATM    7  C6  UNL     1     -33.288   5.475   2.545  1.00 20.00     0.398 C 
HETATM    8  F8  UNL     1     -32.545   6.499   2.087  1.00 20.00    -0.170 F 
HETATM    9  F9  UNL     1     -32.459   4.507   2.975  1.00 20.00    -0.170 F 
HETATM   10  F10 UNL     1     -34.017   4.988   1.524  1.00 20.00    -0.170 F 
ENDBRANCH   5   7
TORSDOF 1
ENDMDL
MODEL 4
REMARK VINA RESULT:      -4.8      1.545      2.230
REMARK  1 active torsions:
REMARK  status: ('A' for Active; 'I' for Inactive)
REMARK    1  A    between atoms: C5_5  and  C6_6 
ROOT
HETATM    1  C1  UNL     1     -33.378   6.100   3.081  1.00 20.00     0.139 C 
HETATM    2  C2  UNL     1     -32.086   6.876   3.141  1.00 20.00     0.079 C 
HETATM    3  C3  UNL     1     -32.351   7.843   4.287  1.00 20.00     0.008 C 
HETATM    4  C4  UNL     1     -33.284   7.081   5.219  1.00 20.00     0.021 C 
HETATM    5  C5  UNL     1     -34.266   6.385   4.275  1.00 20.00     0.163 C 
HETATM    6  O7  UNL     1     -33.665   5.331   2.172  1.00 20.00    -0.297 OA
ENDROOT
BRANCH   5   7
HETATM    7  C6  UNL     1     -34.876   5.133   4.873  1.00 20.00     0.398 C 
HETATM    8  F8  UNL     1     -35.065   5.286   6.196  1.00 20.00    -0.170 F 
HETATM    9  F9  UNL     1     -36.064   4.868   4.301  1.00 20.00    -0.170 F 
HETATM   10  F10 UNL     1     -34.065   4.076   4.680  1.00 20.00    -0.170 F 
ENDBRANCH   5   7
TORSDOF 1
ENDMDL
MODEL 5
REMARK VINA RESULT:      -4.6      2.516      3.318
REMARK  1 active torsions:
REMARK  status: ('A' for Active; 'I' for Inactive)
REMARK    1  A    between atoms: C5_5  and  C6_6 
ROOT
HETATM    1  C1  UNL     1     -34.137   5.175   3.688  1.00 20.00     0.139 C 
HETATM    2  C2  UNL     1     -35.271   5.054   4.675  1.00 20.00     0.079 C 
HETATM    3  C3  UNL     1     -34.709   5.776   5.893  1.00 20.00     0.008 C 
HETATM    4  C4  UNL     1     -33.793   6.845   5.312  1.00 20.00     0.021 C 
HETATM    5  C5  UNL     1     -33.066   6.132   4.170  1.00 20.00     0.163 C 
HETATM    6  O7  UNL     1     -34.096   4.568   2.625  1.00 20.00    -0.297 OA
ENDROOT
BRANCH   5   7
HETATM    7  C6  UNL     1     -32.588   7.080   3.089  1.00 20.00     0.398 C 
HETATM    8  F8  UNL     1     -32.113   6.392   2.034  1.00 20.00    -0.170 F 
HETATM    9  F9  UNL     1     -33.598   7.862   2.667  1.00 20.00    -0.170 F 
HETATM   10  F10 UNL     1     -31.605   7.872   3.556  1.00 20.00    -0.170 F 
ENDBRANCH   5   7
TORSDOF 1
ENDMDL
MODEL 6
REMARK VINA RESULT:      -4.6     12.305     12.909
REMARK  1 active torsions:
REMARK  status: ('A' for Active; 'I' for Inactive)
REMARK    1  A    between atoms: C5_5  and  C6_6 
ROOT
HETATM    1  C1  UNL     1     -33.894  14.997  -4.753  1.00 20.00     0.139 C 
HETATM    2  C2  UNL     1     -32.966  15.508  -3.680  1.00 20.00     0.079 C 
HETATM    3  C3  UNL     1     -33.936  16.180  -2.716  1.00 20.00     0.008 C 
HETATM    4  C4  UNL     1     -35.220  15.370  -2.844  1.00 20.00     0.021 C 
HETATM    5  C5  UNL     1     -35.349  15.111  -4.346  1.00 20.00     0.163 C 
HETATM    6  O7  UNL     1     -33.507  14.546  -5.824  1.00 20.00    -0.297 OA
ENDROOT
BRANCH   5   7
HETATM    7  C6  UNL     1     -36.152  13.866  -4.666  1.00 20.00     0.398 C 
HETATM    8  F8  UNL     1     -36.204  13.667  -5.996  1.00 20.00    -0.170 F 
HETATM    9  F9  UNL     1     -35.592  12.785  -4.095  1.00 20.00    -0.170 F 
HETATM   10  F10 UNL     1     -37.411  13.986  -4.206  1.00 20.00    -0.170 F 
ENDBRANCH   5   7
TORSDOF 1
ENDMDL
MODEL 7
REMARK VINA RESULT:      -4.5     12.097     12.859
REMARK  1 active torsions:
REMARK  status: ('A' for Active; 'I' for Inactive)
REMARK    1  A    between atoms: C5_5  and  C6_6 
ROOT
HETATM    1  C1  UNL     1     -35.913  13.843  -4.281  1.00 20.00     0.139 C 
HETATM    2  C2  UNL     1     -37.205  14.589  -4.502  1.00 20.00     0.079 C 
HETATM    3  C3  UNL     1     -36.943  15.899  -3.771  1.00 20.00     0.008 C 
HETATM    4  C4  UNL     1     -35.443  16.120  -3.913  1.00 20.00     0.021 C 
HETATM    5  C5  UNL     1     -34.839  14.733  -3.689  1.00 20.00     0.163 C 
HETATM    6  O7  UNL     1     -35.759  12.658  -4.551  1.00 20.00    -0.297 OA
ENDROOT
BRANCH   5   7
HETATM    7  C6  UNL     1     -33.490  14.559  -4.358  1.00 20.00     0.398 C 
HETATM    8  F8  UNL     1     -32.988  13.338  -4.097  1.00 20.00    -0.170 F 
HETATM    9  F9  UNL     1     -33.605  14.695  -5.691  1.00 20.00    -0.170 F 
HETATM   10  F10 UNL     1     -32.618  15.481  -3.909  1.00 20.00    -0.170 F 
ENDBRANCH   5   7
TORSDOF 1
ENDMDL
MODEL 8
REMARK VINA RESULT:      -4.4      9.420      9.909
REMARK  1 active torsions:
REMARK  status: ('A' for Active; 'I' for Inactive)
REMARK    1  A    between atoms: C5_5  and  C6_6 
ROOT
HETATM    1  C1  UNL     1     -42.698   7.124  -1.488  1.00 20.00     0.139 C 
HETATM    2  C2  UNL     1     -42.984   5.660  -1.708  1.00 20.00     0.079 C 
HETATM    3  C3  UNL     1     -41.685   5.011  -1.247  1.00 20.00     0.008 C 
HETATM    4  C4  UNL     1     -41.167   5.935  -0.152  1.00 20.00     0.021 C 
HETATM    5  C5  UNL     1     -41.422   7.340  -0.700  1.00 20.00     0.163 C 
HETATM    6  O7  UNL     1     -43.417   8.024  -1.902  1.00 20.00    -0.297 OA
ENDROOT
BRANCH   5   7
HETATM    7  C6  UNL     1     -41.569   8.383   0.390  1.00 20.00     0.398 C 
HETATM    8  F8  UNL     1     -40.793   8.074   1.446  1.00 20.00    -0.170 F 
HETATM    9  F9  UNL     1     -41.206   9.595  -0.065  1.00 20.00    -0.170 F 
HETATM   10  F10 UNL     1     -42.847   8.451   0.809  1.00 20.00    -0.170 F 
ENDBRANCH   5   7
TORSDOF 1
ENDMDL
MODEL 9
REMARK VINA RESULT:      -4.3     16.384     16.803
REMARK  1 active torsions:
REMARK  status: ('A' for Active; 'I' for Inactive)
REMARK    1  A    between atoms: C5_5  and  C6_6 
ROOT
HETATM    1  C1  UNL     1     -23.099  17.388   8.948  1.00 20.00     0.139 C 
HETATM    2  C2  UNL     1     -23.389  18.381   7.850  1.00 20.00     0.079 C 
HETATM    3  C3  UNL     1     -24.781  18.872   8.228  1.00 20.00     0.008 C 
HETATM    4  C4  UNL     1     -24.812  18.789   9.749  1.00 20.00     0.021 C 
HETATM    5  C5  UNL     1     -24.121  17.462  10.064  1.00 20.00     0.163 C 
HETATM    6  O7  UNL     1     -22.147  16.617   8.930  1.00 20.00    -0.297 OA
ENDROOT
BRANCH   5   7
HETATM    7  C6  UNL     1     -23.494  17.433  11.443  1.00 20.00     0.398 C 
HETATM    8  F8  UNL     1     -23.326  16.164  11.859  1.00 20.00    -0.170 F 
HETATM    9  F9  UNL     1     -22.293  18.038  11.428  1.00 20.00    -0.170 F 
HETATM   10  F10 UNL     1     -24.279  18.070  12.332  1.00 20.00    -0.170 F 
ENDBRANCH   5   7
TORSDOF 1
ENDMDL
