MODEL 1
REMARK VINA RESULT:      -5.0      0.000      0.000
REMARK  1 active torsions:
REMARK  status: ('A' for Active; 'I' for Inactive)
REMARK    1  A    between atoms: C4_4  and  C6_6 
ROOT
HETATM    1  C1  UNL     1     -35.873  14.368  -5.839  1.00 20.00     0.089 A 
HETATM    2  C2  UNL     1     -34.098  15.582  -4.761  1.00 20.00     0.044 A 
HETATM    3  C3  UNL     1     -34.693  14.994  -5.934  1.00 20.00    -0.053 A 
HETATM    4  C4  UNL     1     -34.743  15.489  -3.593  1.00 20.00     0.080 A 
HETATM    5  C5  UNL     1     -36.581  14.267  -4.545  1.00 20.00     0.288 A 
HETATM    6  C8  UNL     1     -33.940  15.121  -7.223  1.00 20.00     0.048 C 
HETATM    7  O11 UNL     1     -37.661  13.692  -4.467  1.00 20.00    -0.260 OA
HETATM    8  O12 UNL     1     -35.983  14.840  -3.455  1.00 20.00    -0.276 OA
ENDROOT
BRANCH   4   9
HETATM    9  C6  UNL     1     -34.237  16.040  -2.367  1.00 20.00     0.039 C 
HETATM   10  C7  UNL     1     -34.543  17.264  -1.861  1.00 20.00    -0.085 C 
HETATM   11  C9  UNL     1     -34.009  17.833  -0.576  1.00 20.00     0.043 C 
HETATM   12  C10 UNL     1     -35.489  18.184  -2.589  1.00 20.00     0.043 C 
ENDBRANCH   4   9
TORSDOF 1
ENDMDL
MODEL 2
REMARK VINA RESULT:      -4.8      1.476      1.603
REMARK  1 active torsions:
REMARK  status: ('A' for Active; 'I' for Inactive)
REMARK    1  A    between atoms: C4_4  and  C6_6 
ROOT
HETATM    1  C1  UNL     1     -36.007  14.303  -5.700  1.00 20.00     0.089 A 
HETATM    2  C2  UNL     1     -34.789  16.338  -5.296  1.00 20.00     0.044 A 
HETATM    3  C3  UNL     1     -35.742  15.567  -6.054  1.00 20.00    -0.053 A 
HETATM    4  C4  UNL     1     -34.185  15.769  -4.248  1.00 20.00     0.080 A 
HETATM    5  C5  UNL     1     -35.336  13.679  -4.540  1.00 20.00     0.288 A 
HETATM    6  C8  UNL     1     -36.398  16.240  -7.220  1.00 20.00     0.048 C 
HETATM    7  O11 UNL     1     -35.584  12.521  -4.223  1.00 20.00    -0.260 OA
HETATM    8  O12 UNL     1     -34.438  14.446  -3.846  1.00 20.00    -0.276 OA
ENDROOT
BRANCH   4   9
HETATM    9  C6  UNL     1     -33.221  16.450  -3.428  1.00 20.00     0.039 C 
HETATM   10  C7  UNL     1     -33.467  17.016  -2.217  1.00 20.00    -0.085 C 
HETATM   11  C9  UNL     1     -32.452  17.726  -1.365  1.00 20.00     0.043 C 
HETATM   12  C10 UNL     1     -34.846  16.968  -1.610  1.00 20.00     0.043 C 
ENDBRANCH   4   9
TORSDOF 1
ENDMDL
MODEL 3
REMARK VINA RESULT:      -4.8      2.552      5.441
REMARK  1 active torsions:
REMARK  status: ('A' for Active; 'I' for Inactive)
REMARK    1  A    between atoms: C4_4  and  C6_6 
ROOT
HETATM    1  C1  UNL     1     -33.565  18.100  -0.504  1.00 20.00     0.089 A 
HETATM    2  C2  UNL     1     -34.796  16.448  -1.748  1.00 20.00     0.044 A 
HETATM    3  C3  UNL     1     -34.673  17.358  -0.637  1.00 20.00    -0.053 A 
HETATM    4  C4  UNL     1     -33.794  16.363  -2.628  1.00 20.00     0.080 A 
HETATM    5  C5  UNL     1     -32.460  18.001  -1.481  1.00 20.00     0.288 A 
HETATM    6  C8  UNL     1     -35.817  17.425   0.327  1.00 20.00     0.048 C 
HETATM    7  O11 UNL     1     -31.449  18.683  -1.352  1.00 20.00    -0.260 OA
HETATM    8  O12 UNL     1     -32.617  17.125  -2.523  1.00 20.00    -0.276 OA
ENDROOT
BRANCH   4   9
HETATM    9  C6  UNL     1     -33.818  15.489  -3.768  1.00 20.00     0.039 C 
HETATM   10  C7  UNL     1     -34.187  15.838  -5.029  1.00 20.00    -0.085 C 
HETATM   11  C9  UNL     1     -34.208  14.916  -6.216  1.00 20.00     0.043 C 
HETATM   12  C10 UNL     1     -34.622  17.247  -5.342  1.00 20.00     0.043 C 
ENDBRANCH   4   9
TORSDOF 1
ENDMDL
MODEL 4
REMARK VINA RESULT:      -4.7      1.822      2.391
REMARK  1 active torsions:
REMARK  status: ('A' for Active; 'I' for Inactive)
REMARK    1  A    between atoms: C4_4  and  C6_6 
ROOT
HETATM    1  C1  UNL     1     -37.281  14.405  -4.546  1.00 20.00     0.089 A 
HETATM    2  C2  UNL     1     -36.323  16.505  -3.864  1.00 20.00     0.044 A 
HETATM    3  C3  UNL     1     -37.437  15.718  -4.331  1.00 20.00    -0.053 A 
HETATM    4  C4  UNL     1     -35.149  15.902  -3.654  1.00 20.00     0.080 A 
HETATM    5  C5  UNL     1     -35.979  13.744  -4.313  1.00 20.00     0.288 A 
HETATM    6  C8  UNL     1     -38.736  16.430  -4.553  1.00 20.00     0.048 C 
HETATM    7  O11 UNL     1     -35.844  12.542  -4.512  1.00 20.00    -0.260 OA
HETATM    8  O12 UNL     1     -34.947  14.527  -3.868  1.00 20.00    -0.276 OA
ENDROOT
BRANCH   4   9
HETATM    9  C6  UNL     1     -33.979  16.595  -3.190  1.00 20.00     0.039 C 
HETATM   10  C7  UNL     1     -33.815  17.134  -1.953  1.00 20.00    -0.085 C 
HETATM   11  C9  UNL     1     -32.586  17.857  -1.475  1.00 20.00     0.043 C 
HETATM   12  C10 UNL     1     -34.908  17.041  -0.920  1.00 20.00     0.043 C 
ENDBRANCH   4   9
TORSDOF 1
ENDMDL
MODEL 5
REMARK VINA RESULT:      -4.5      2.975      4.359
REMARK  1 active torsions:
REMARK  status: ('A' for Active; 'I' for Inactive)
REMARK    1  A    between atoms: C4_4  and  C6_6 
ROOT
HETATM    1  C1  UNL     1     -32.940  16.739  -2.881  1.00 20.00     0.089 A 
HETATM    2  C2  UNL     1     -35.014  16.108  -1.835  1.00 20.00     0.044 A 
HETATM    3  C3  UNL     1     -34.001  15.921  -2.844  1.00 20.00    -0.053 A 
HETATM    4  C4  UNL     1     -34.870  17.100  -0.951  1.00 20.00     0.080 A 
HETATM    5  C5  UNL     1     -32.788  17.835  -1.900  1.00 20.00     0.288 A 
HETATM    6  C8  UNL     1     -34.197  14.799  -3.815  1.00 20.00     0.048 C 
HETATM    7  O11 UNL     1     -31.814  18.579  -1.941  1.00 20.00    -0.260 OA
HETATM    8  O12 UNL     1     -33.771  17.977  -0.957  1.00 20.00    -0.276 OA
ENDROOT
BRANCH   4   9
HETATM    9  C6  UNL     1     -35.821  17.369   0.092  1.00 20.00     0.039 C 
HETATM   10  C7  UNL     1     -36.910  18.176  -0.015  1.00 20.00    -0.085 C 
HETATM   11  C9  UNL     1     -37.900  18.452   1.083  1.00 20.00     0.043 C 
HETATM   12  C10 UNL     1     -37.218  18.887  -1.308  1.00 20.00     0.043 C 
ENDBRANCH   4   9
TORSDOF 1
ENDMDL
MODEL 6
REMARK VINA RESULT:      -4.5      1.653      1.905
REMARK  1 active torsions:
REMARK  status: ('A' for Active; 'I' for Inactive)
REMARK    1  A    between atoms: C4_4  and  C6_6 
ROOT
HETATM    1  C1  UNL     1     -36.233  14.359  -5.315  1.00 20.00     0.089 A 
HETATM    2  C2  UNL     1     -36.238  16.477  -4.172  1.00 20.00     0.044 A 
HETATM    3  C3  UNL     1     -36.558  15.659  -5.315  1.00 20.00    -0.053 A 
HETATM    4  C4  UNL     1     -35.619  15.915  -3.128  1.00 20.00     0.080 A 
HETATM    5  C5  UNL     1     -35.547  13.744  -4.158  1.00 20.00     0.288 A 
HETATM    6  C8  UNL     1     -37.253  16.324  -6.463  1.00 20.00     0.048 C 
HETATM    7  O11 UNL     1     -35.253  12.554  -4.166  1.00 20.00    -0.260 OA
HETATM    8  O12 UNL     1     -35.262  14.555  -3.092  1.00 20.00    -0.276 OA
ENDROOT
BRANCH   4   9
HETATM    9  C6  UNL     1     -35.257  16.641  -1.943  1.00 20.00     0.039 C 
HETATM   10  C7  UNL     1     -34.053  17.227  -1.707  1.00 20.00    -0.085 C 
HETATM   11  C9  UNL     1     -33.683  17.986  -0.463  1.00 20.00     0.043 C 
HETATM   12  C10 UNL     1     -32.947  17.155  -2.729  1.00 20.00     0.043 C 
ENDBRANCH   4   9
TORSDOF 1
ENDMDL
MODEL 7
REMARK VINA RESULT:      -4.5      3.027      4.547
REMARK  1 active torsions:
REMARK  status: ('A' for Active; 'I' for Inactive)
REMARK    1  A    between atoms: C4_4  and  C6_6 
ROOT
HETATM    1  C1  UNL     1     -33.000  16.802  -2.894  1.00 20.00     0.089 A 
HETATM    2  C2  UNL     1     -35.027  16.208  -1.741  1.00 20.00     0.044 A 
HETATM    3  C3  UNL     1     -34.041  15.968  -2.764  1.00 20.00    -0.053 A 
HETATM    4  C4  UNL     1     -34.880  17.267  -0.938  1.00 20.00     0.080 A 
HETATM    5  C5  UNL     1     -32.844  17.971  -2.003  1.00 20.00     0.288 A 
HETATM    6  C8  UNL     1     -34.240  14.772  -3.643  1.00 20.00     0.048 C 
HETATM    7  O11 UNL     1     -31.888  18.729  -2.129  1.00 20.00    -0.260 OA
HETATM    8  O12 UNL     1     -33.801  18.163  -1.043  1.00 20.00    -0.276 OA
ENDROOT
BRANCH   4   9
HETATM    9  C6  UNL     1     -35.805  17.594   0.111  1.00 20.00     0.039 C 
HETATM   10  C7  UNL     1     -35.476  17.886   1.398  1.00 20.00    -0.085 C 
HETATM   11  C9  UNL     1     -36.452  18.228   2.489  1.00 20.00     0.043 C 
HETATM   12  C10 UNL     1     -34.036  17.887   1.843  1.00 20.00     0.043 C 
ENDBRANCH   4   9
TORSDOF 1
ENDMDL
MODEL 8
REMARK VINA RESULT:      -4.5      2.031      4.809
REMARK  1 active torsions:
REMARK  status: ('A' for Active; 'I' for Inactive)
REMARK    1  A    between atoms: C4_4  and  C6_6 
ROOT
HETATM    1  C1  UNL     1     -33.988  18.010  -0.328  1.00 20.00     0.089 A 
HETATM    2  C2  UNL     1     -33.294  16.876  -2.335  1.00 20.00     0.044 A 
HETATM    3  C3  UNL     1     -33.074  17.850  -1.295  1.00 20.00    -0.053 A 
HETATM    4  C4  UNL     1     -34.415  16.148  -2.311  1.00 20.00     0.080 A 
HETATM    5  C5  UNL     1     -35.226  17.201  -0.308  1.00 20.00     0.288 A 
HETATM    6  C8  UNL     1     -31.807  18.646  -1.356  1.00 20.00     0.048 C 
HETATM    7  O11 UNL     1     -36.057  17.354   0.581  1.00 20.00    -0.260 OA
HETATM    8  O12 UNL     1     -35.396  16.286  -1.312  1.00 20.00    -0.276 OA
ENDROOT
BRANCH   4   9
HETATM    9  C6  UNL     1     -34.729  15.152  -3.297  1.00 20.00     0.039 C 
HETATM   10  C7  UNL     1     -35.527  15.333  -4.383  1.00 20.00    -0.085 C 
HETATM   11  C9  UNL     1     -35.850  14.285  -5.411  1.00 20.00     0.043 C 
HETATM   12  C10 UNL     1     -36.178  16.667  -4.646  1.00 20.00     0.043 C 
ENDBRANCH   4   9
TORSDOF 1
ENDMDL
MODEL 9
REMARK VINA RESULT:      -4.4      2.451      3.789
REMARK  1 active torsions:
REMARK  status: ('A' for Active; 'I' for Inactive)
REMARK    1  A    between atoms: C4_4  and  C6_6 
ROOT
HETATM    1  C1  UNL     1     -34.566  14.372  -3.786  1.00 20.00     0.089 A 
HETATM    2  C2  UNL     1     -35.741  16.441  -3.428  1.00 20.00     0.044 A 
HETATM    3  C3  UNL     1     -34.533  15.655  -3.402  1.00 20.00    -0.053 A 
HETATM    4  C4  UNL     1     -36.876  15.868  -3.839  1.00 20.00     0.080 A 
HETATM    5  C5  UNL     1     -35.825  13.744  -4.240  1.00 20.00     0.288 A 
HETATM    6  C8  UNL     1     -33.282  16.333  -2.936  1.00 20.00     0.048 C 
HETATM    7  O11 UNL     1     -35.846  12.569  -4.590  1.00 20.00    -0.260 OA
HETATM    8  O12 UNL     1     -36.950  14.526  -4.251  1.00 20.00    -0.276 OA
ENDROOT
BRANCH   4   9
HETATM    9  C6  UNL     1     -38.132  16.563  -3.903  1.00 20.00     0.039 C 
HETATM   10  C7  UNL     1     -38.669  17.133  -5.015  1.00 20.00    -0.085 C 
HETATM   11  C9  UNL     1     -39.984  17.858  -5.072  1.00 20.00     0.043 C 
HETATM   12  C10 UNL     1     -37.946  17.074  -6.336  1.00 20.00     0.043 C 
ENDBRANCH   4   9
TORSDOF 1
ENDMDL
