MODEL 1
REMARK VINA RESULT:      -4.2      0.000      0.000
REMARK  1 active torsions:
REMARK  status: ('A' for Active; 'I' for Inactive)
REMARK    1  A    between atoms: C2_2  and  C3_3 
ROOT
HETATM    1  C1  UNL     1     -33.215   7.023   3.267  1.00 20.00     0.112 C 
HETATM    2  C2  UNL     1     -33.647   5.775   3.471  1.00 20.00     0.090 C 
HETATM    3 CL6  UNL     1     -32.248   7.537   1.943  1.00 20.00    -0.095 Cl
HETATM    4 CL7  UNL     1     -33.275   4.474   2.391  1.00 20.00    -0.080 Cl
ENDROOT
BRANCH   2   5
HETATM    5  C3  UNL     1     -34.488   5.413   4.658  1.00 20.00     0.167 C 
HETATM    6  C4  UNL     1     -34.347   6.209   5.932  1.00 20.00     0.097 C 
HETATM    7  O5  UNL     1     -35.284   4.476   4.600  1.00 20.00    -0.292 OA
ENDBRANCH   2   5
TORSDOF 1
ENDMDL
MODEL 2
REMARK VINA RESULT:      -4.1      2.479      3.564
REMARK  1 active torsions:
REMARK  status: ('A' for Active; 'I' for Inactive)
REMARK    1  A    between atoms: C2_2  and  C3_3 
ROOT
HETATM    1  C1  UNL     1     -34.107   6.312   4.366  1.00 20.00     0.112 C 
HETATM    2  C2  UNL     1     -33.306   6.139   3.309  1.00 20.00     0.090 C 
HETATM    3 CL6  UNL     1     -35.199   5.140   4.988  1.00 20.00    -0.095 Cl
HETATM    4 CL7  UNL     1     -33.268   4.665   2.403  1.00 20.00    -0.080 Cl
ENDROOT
BRANCH   2   5
HETATM    5  C3  UNL     1     -32.383   7.219   2.832  1.00 20.00     0.167 C 
HETATM    6  C4  UNL     1     -32.563   7.784   1.445  1.00 20.00     0.097 C 
HETATM    7  O5  UNL     1     -31.484   7.641   3.560  1.00 20.00    -0.292 OA
ENDBRANCH   2   5
TORSDOF 1
ENDMDL
MODEL 3
REMARK VINA RESULT:      -3.9      1.451      1.699
REMARK  1 active torsions:
REMARK  status: ('A' for Active; 'I' for Inactive)
REMARK    1  A    between atoms: C2_2  and  C3_3 
ROOT
HETATM    1  C1  UNL     1     -33.278   6.197   2.714  1.00 20.00     0.112 C 
HETATM    2  C2  UNL     1     -33.599   6.178   4.012  1.00 20.00     0.090 C 
HETATM    3 CL6  UNL     1     -32.378   7.433   1.930  1.00 20.00    -0.095 Cl
HETATM    4 CL7  UNL     1     -33.131   7.437   5.104  1.00 20.00    -0.080 Cl
ENDROOT
BRANCH   2   5
HETATM    5  C3  UNL     1     -34.391   5.058   4.614  1.00 20.00     0.167 C 
HETATM    6  C4  UNL     1     -34.954   5.217   6.005  1.00 20.00     0.097 C 
HETATM    7  O5  UNL     1     -34.581   4.016   3.986  1.00 20.00    -0.292 OA
ENDBRANCH   2   5
TORSDOF 1
ENDMDL
MODEL 4
REMARK VINA RESULT:      -3.9     11.570     11.808
REMARK  1 active torsions:
REMARK  status: ('A' for Active; 'I' for Inactive)
REMARK    1  A    between atoms: C2_2  and  C3_3 
ROOT
HETATM    1  C1  UNL     1     -34.988  15.586  -2.794  1.00 20.00     0.112 C 
HETATM    2  C2  UNL     1     -34.804  14.655  -3.737  1.00 20.00     0.090 C 
HETATM    3 CL6  UNL     1     -33.763  16.598  -2.142  1.00 20.00    -0.095 Cl
HETATM    4 CL7  UNL     1     -33.254  14.342  -4.442  1.00 20.00    -0.080 Cl
ENDROOT
BRANCH   2   5
HETATM    5  C3  UNL     1     -35.932  13.813  -4.248  1.00 20.00     0.167 C 
HETATM    6  C4  UNL     1     -37.294  14.436  -4.430  1.00 20.00     0.097 C 
HETATM    7  O5  UNL     1     -35.756  12.624  -4.517  1.00 20.00    -0.292 OA
ENDBRANCH   2   5
TORSDOF 1
ENDMDL
MODEL 5
REMARK VINA RESULT:      -3.7     16.805     17.610
REMARK  1 active torsions:
REMARK  status: ('A' for Active; 'I' for Inactive)
REMARK    1  A    between atoms: C2_2  and  C3_3 
ROOT
HETATM    1  C1  UNL     1     -24.130  16.776  10.372  1.00 20.00     0.112 C 
HETATM    2  C2  UNL     1     -23.153  17.683  10.478  1.00 20.00     0.090 C 
HETATM    3 CL6  UNL     1     -24.553  15.625  11.575  1.00 20.00    -0.095 Cl
HETATM    4 CL7  UNL     1     -22.157  17.815  11.888  1.00 20.00    -0.080 Cl
ENDROOT
BRANCH   2   5
HETATM    5  C3  UNL     1     -22.850  18.652   9.376  1.00 20.00     0.167 C 
HETATM    6  C4  UNL     1     -23.989  19.263   8.597  1.00 20.00     0.097 C 
HETATM    7  O5  UNL     1     -21.687  18.948   9.104  1.00 20.00    -0.292 OA
ENDBRANCH   2   5
TORSDOF 1
ENDMDL
MODEL 6
REMARK VINA RESULT:      -3.6      2.627      3.211
REMARK  1 active torsions:
REMARK  status: ('A' for Active; 'I' for Inactive)
REMARK    1  A    between atoms: C2_2  and  C3_3 
ROOT
HETATM    1  C1  UNL     1     -33.471   6.821   5.014  1.00 20.00     0.112 C 
HETATM    2  C2  UNL     1     -33.870   6.011   4.028  1.00 20.00     0.090 C 
HETATM    3 CL6  UNL     1     -34.264   7.012   6.527  1.00 20.00    -0.095 Cl
HETATM    4 CL7  UNL     1     -35.283   5.019   4.154  1.00 20.00    -0.080 Cl
ENDROOT
BRANCH   2   5
HETATM    5  C3  UNL     1     -33.117   5.908   2.737  1.00 20.00     0.167 C 
HETATM    6  C4  UNL     1     -32.525   7.154   2.126  1.00 20.00     0.097 C 
HETATM    7  O5  UNL     1     -32.982   4.821   2.174  1.00 20.00    -0.292 OA
ENDBRANCH   2   5
TORSDOF 1
ENDMDL
MODEL 7
REMARK VINA RESULT:      -3.5      2.862      3.865
REMARK  1 active torsions:
REMARK  status: ('A' for Active; 'I' for Inactive)
REMARK    1  A    between atoms: C2_2  and  C3_3 
ROOT
HETATM    1  C1  UNL     1     -34.070   5.486   3.530  1.00 20.00     0.112 C 
HETATM    2  C2  UNL     1     -33.386   6.534   4.001  1.00 20.00     0.090 C 
HETATM    3 CL6  UNL     1     -35.249   4.594   4.405  1.00 20.00    -0.095 Cl
HETATM    4 CL7  UNL     1     -33.610   7.146   5.605  1.00 20.00    -0.080 Cl
ENDROOT
BRANCH   2   5
HETATM    5  C3  UNL     1     -32.371   7.255   3.167  1.00 20.00     0.167 C 
HETATM    6  C4  UNL     1     -32.655   7.498   1.705  1.00 20.00     0.097 C 
HETATM    7  O5  UNL     1     -31.314   7.646   3.664  1.00 20.00    -0.292 OA
ENDBRANCH   2   5
TORSDOF 1
ENDMDL
MODEL 8
REMARK VINA RESULT:      -3.4     16.276     16.925
REMARK  1 active torsions:
REMARK  status: ('A' for Active; 'I' for Inactive)
REMARK    1  A    between atoms: C2_2  and  C3_3 
ROOT
HETATM    1  C1  UNL     1     -23.841  16.604  10.218  1.00 20.00     0.112 C 
HETATM    2  C2  UNL     1     -23.819  17.678   9.420  1.00 20.00     0.090 C 
HETATM    3 CL6  UNL     1     -24.958  16.337  11.495  1.00 20.00    -0.095 Cl
HETATM    4 CL7  UNL     1     -24.951  18.977   9.581  1.00 20.00    -0.080 Cl
ENDROOT
BRANCH   2   5
HETATM    5  C3  UNL     1     -22.805  17.831   8.328  1.00 20.00     0.167 C 
HETATM    6  C4  UNL     1     -21.386  17.378   8.570  1.00 20.00     0.097 C 
HETATM    7  O5  UNL     1     -23.121  18.321   7.244  1.00 20.00    -0.292 OA
ENDBRANCH   2   5
TORSDOF 1
ENDMDL
MODEL 9
REMARK VINA RESULT:      -3.4     16.749     17.364
REMARK  1 active torsions:
REMARK  status: ('A' for Active; 'I' for Inactive)
REMARK    1  A    between atoms: C2_2  and  C3_3 
ROOT
HETATM    1  C1  UNL     1     -22.583  17.950  10.232  1.00 20.00     0.112 C 
HETATM    2  C2  UNL     1     -23.691  18.322   9.582  1.00 20.00     0.090 C 
HETATM    3 CL6  UNL     1     -22.445  17.762  11.934  1.00 20.00    -0.095 Cl
HETATM    4 CL7  UNL     1     -25.176  18.673  10.401  1.00 20.00    -0.080 Cl
ENDROOT
BRANCH   2   5
HETATM    5  C3  UNL     1     -23.723  18.463   8.091  1.00 20.00     0.167 C 
HETATM    6  C4  UNL     1     -24.953  19.034   7.430  1.00 20.00     0.097 C 
HETATM    7  O5  UNL     1     -22.759  18.116   7.407  1.00 20.00    -0.292 OA
ENDBRANCH   2   5
TORSDOF 1
ENDMDL
