MODEL 1
REMARK VINA RESULT:      -4.1      0.000      0.000
REMARK  4 active torsions:
REMARK  status: ('A' for Active; 'I' for Inactive)
REMARK    1  A    between atoms: C2_2  and  C5_5 
REMARK    2  A    between atoms: C2_2  and  C6_6 
REMARK    3  A    between atoms: C5_5  and  C7_7 
REMARK    4  A    between atoms: C6_6  and  C8_8 
ROOT
HETATM    1  C1  UNL     1     -32.959   4.741   2.814  1.00 20.00     0.207 A 
HETATM    2  C2  UNL     1     -33.315   6.196   3.003  1.00 20.00     0.082 A 
HETATM    3  O9  UNL     1     -33.762   5.453   1.861  1.00 20.00    -0.375 OA
ENDROOT
BRANCH   2   4
HETATM    4  C5  UNL     1     -34.432   6.575   3.962  1.00 20.00     0.040 C 
BRANCH   4   5
HETATM    5  C7  UNL     1     -33.981   6.469   5.418  1.00 20.00    -0.002 C 
HETATM    6  C3  UNL     1     -34.662   5.310   6.129  1.00 20.00     0.005 C 
ENDBRANCH   4   5
ENDBRANCH   2   4
BRANCH   2   7
HETATM    7  C6  UNL     1     -32.307   7.250   2.679  1.00 20.00     0.040 C 
BRANCH   7   8
HETATM    8  C8  UNL     1     -32.349   7.664   1.199  1.00 20.00    -0.002 C 
HETATM    9  C4  UNL     1     -32.987   9.029   0.999  1.00 20.00     0.005 C 
ENDBRANCH   7   8
ENDBRANCH   2   7
TORSDOF 4
ENDMDL
MODEL 2
REMARK VINA RESULT:      -3.9     10.785     12.287
REMARK  4 active torsions:
REMARK  status: ('A' for Active; 'I' for Inactive)
REMARK    1  A    between atoms: C2_2  and  C5_5 
REMARK    2  A    between atoms: C2_2  and  C6_6 
REMARK    3  A    between atoms: C5_5  and  C7_7 
REMARK    4  A    between atoms: C6_6  and  C8_8 
ROOT
HETATM    1  C1  UNL     1     -37.362  14.450  -4.148  1.00 20.00     0.207 A 
HETATM    2  C2  UNL     1     -35.958  14.665  -4.661  1.00 20.00     0.082 A 
HETATM    3  O9  UNL     1     -36.756  13.553  -5.091  1.00 20.00    -0.375 OA
ENDROOT
BRANCH   2   4
HETATM    4  C5  UNL     1     -35.707  15.696  -5.749  1.00 20.00     0.040 C 
BRANCH   4   5
HETATM    5  C7  UNL     1     -35.322  15.032  -7.071  1.00 20.00    -0.002 C 
HETATM    6  C3  UNL     1     -33.833  15.164  -7.347  1.00 20.00     0.005 C 
ENDBRANCH   4   5
ENDBRANCH   2   4
BRANCH   2   7
HETATM    7  C6  UNL     1     -34.794  14.276  -3.808  1.00 20.00     0.040 C 
BRANCH   7   8
HETATM    8  C8  UNL     1     -33.928  15.484  -3.415  1.00 20.00    -0.002 C 
HETATM    9  C4  UNL     1     -34.475  16.218  -2.202  1.00 20.00     0.005 C 
ENDBRANCH   7   8
ENDBRANCH   2   7
TORSDOF 4
ENDMDL
MODEL 3
REMARK VINA RESULT:      -3.8     10.972     12.089
REMARK  4 active torsions:
REMARK  status: ('A' for Active; 'I' for Inactive)
REMARK    1  A    between atoms: C2_2  and  C5_5 
REMARK    2  A    between atoms: C2_2  and  C6_6 
REMARK    3  A    between atoms: C5_5  and  C7_7 
REMARK    4  A    between atoms: C6_6  and  C8_8 
ROOT
HETATM    1  C1  UNL     1     -35.168  14.887  -6.488  1.00 20.00     0.207 A 
HETATM    2  C2  UNL     1     -35.721  14.753  -5.089  1.00 20.00     0.082 A 
HETATM    3  O9  UNL     1     -35.926  13.738  -6.081  1.00 20.00    -0.375 OA
ENDROOT
BRANCH   2   4
HETATM    4  C5  UNL     1     -34.800  14.325  -3.958  1.00 20.00     0.040 C 
BRANCH   4   5
HETATM    5  C7  UNL     1     -34.650  15.427  -2.910  1.00 20.00    -0.002 C 
HETATM    6  C3  UNL     1     -33.346  16.188  -3.084  1.00 20.00     0.005 C 
ENDBRANCH   4   5
ENDBRANCH   2   4
BRANCH   2   7
HETATM    7  C6  UNL     1     -36.966  15.489  -4.714  1.00 20.00     0.040 C 
BRANCH   7   8
HETATM    8  C8  UNL     1     -38.077  14.547  -4.223  1.00 20.00    -0.002 C 
HETATM    9  C4  UNL     1     -39.460  15.164  -4.358  1.00 20.00     0.005 C 
ENDBRANCH   7   8
ENDBRANCH   2   7
TORSDOF 4
ENDMDL
MODEL 4
REMARK VINA RESULT:      -3.8      0.860      3.986
REMARK  4 active torsions:
REMARK  status: ('A' for Active; 'I' for Inactive)
REMARK    1  A    between atoms: C2_2  and  C5_5 
REMARK    2  A    between atoms: C2_2  and  C6_6 
REMARK    3  A    between atoms: C5_5  and  C7_7 
REMARK    4  A    between atoms: C6_6  and  C8_8 
ROOT
HETATM    1  C1  UNL     1     -33.523   4.775   2.084  1.00 20.00     0.207 A 
HETATM    2  C2  UNL     1     -33.262   6.052   2.847  1.00 20.00     0.082 A 
HETATM    3  O9  UNL     1     -32.706   4.797   3.264  1.00 20.00    -0.375 OA
ENDROOT
BRANCH   2   4
HETATM    4  C5  UNL     1     -32.227   7.037   2.328  1.00 20.00     0.040 C 
BRANCH   4   5
HETATM    5  C7  UNL     1     -32.879   8.335   1.856  1.00 20.00    -0.002 C 
HETATM    6  C3  UNL     1     -32.760   8.503   0.349  1.00 20.00     0.005 C 
ENDBRANCH   4   5
ENDBRANCH   2   4
BRANCH   2   7
HETATM    7  C6  UNL     1     -34.307   6.584   3.773  1.00 20.00     0.040 C 
BRANCH   7   8
HETATM    8  C8  UNL     1     -33.866   6.534   5.245  1.00 20.00    -0.002 C 
HETATM    9  C4  UNL     1     -34.657   5.516   6.050  1.00 20.00     0.005 C 
ENDBRANCH   7   8
ENDBRANCH   2   7
TORSDOF 4
ENDMDL
MODEL 5
REMARK VINA RESULT:      -3.8      9.181      9.929
REMARK  4 active torsions:
REMARK  status: ('A' for Active; 'I' for Inactive)
REMARK    1  A    between atoms: C2_2  and  C5_5 
REMARK    2  A    between atoms: C2_2  and  C6_6 
REMARK    3  A    between atoms: C5_5  and  C7_7 
REMARK    4  A    between atoms: C6_6  and  C8_8 
ROOT
HETATM    1  C1  UNL     1     -43.417   6.136   1.531  1.00 20.00     0.207 A 
HETATM    2  C2  UNL     1     -42.479   6.110   0.348  1.00 20.00     0.082 A 
HETATM    3  O9  UNL     1     -42.542   5.026   1.285  1.00 20.00    -0.375 OA
ENDROOT
BRANCH   2   4
HETATM    4  C5  UNL     1     -43.020   5.760  -1.029  1.00 20.00     0.040 C 
BRANCH   4   5
HETATM    5  C7  UNL     1     -42.146   4.718  -1.726  1.00 20.00    -0.002 C 
HETATM    6  C3  UNL     1     -42.987   3.681  -2.453  1.00 20.00     0.005 C 
ENDBRANCH   4   5
ENDBRANCH   2   4
BRANCH   2   7
HETATM    7  C6  UNL     1     -41.200   6.880   0.403  1.00 20.00     0.040 C 
BRANCH   7   8
HETATM    8  C8  UNL     1     -41.228   8.125  -0.499  1.00 20.00    -0.002 C 
HETATM    9  C4  UNL     1     -41.524   9.397   0.279  1.00 20.00     0.005 C 
ENDBRANCH   7   8
ENDBRANCH   2   7
TORSDOF 4
ENDMDL
MODEL 6
REMARK VINA RESULT:      -3.7     10.971     11.901
REMARK  4 active torsions:
REMARK  status: ('A' for Active; 'I' for Inactive)
REMARK    1  A    between atoms: C2_2  and  C5_5 
REMARK    2  A    between atoms: C2_2  and  C6_6 
REMARK    3  A    between atoms: C5_5  and  C7_7 
REMARK    4  A    between atoms: C6_6  and  C8_8 
ROOT
HETATM    1  C1  UNL     1     -36.343  13.523  -4.660  1.00 20.00     0.207 A 
HETATM    2  C2  UNL     1     -35.702  14.863  -4.386  1.00 20.00     0.082 A 
HETATM    3  O9  UNL     1     -36.940  14.480  -3.772  1.00 20.00    -0.375 OA
ENDROOT
BRANCH   2   4
HETATM    4  C5  UNL     1     -34.538  14.952  -3.413  1.00 20.00     0.040 C 
BRANCH   4   5
HETATM    5  C7  UNL     1     -34.822  15.949  -2.290  1.00 20.00    -0.002 C 
HETATM    6  C3  UNL     1     -33.696  16.961  -2.146  1.00 20.00     0.005 C 
ENDBRANCH   4   5
ENDBRANCH   2   4
BRANCH   2   7
HETATM    7  C6  UNL     1     -35.842  15.965  -5.385  1.00 20.00     0.040 C 
BRANCH   7   8
HETATM    8  C8  UNL     1     -34.505  16.320  -6.056  1.00 20.00    -0.002 C 
HETATM    9  C4  UNL     1     -34.093  15.297  -7.102  1.00 20.00     0.005 C 
ENDBRANCH   7   8
ENDBRANCH   2   7
TORSDOF 4
ENDMDL
MODEL 7
REMARK VINA RESULT:      -3.7     11.246     12.121
REMARK  4 active torsions:
REMARK  status: ('A' for Active; 'I' for Inactive)
REMARK    1  A    between atoms: C2_2  and  C5_5 
REMARK    2  A    between atoms: C2_2  and  C6_6 
REMARK    3  A    between atoms: C5_5  and  C7_7 
REMARK    4  A    between atoms: C6_6  and  C8_8 
ROOT
HETATM    1  C1  UNL     1     -34.226  15.023  -6.421  1.00 20.00     0.207 A 
HETATM    2  C2  UNL     1     -35.027  15.203  -5.153  1.00 20.00     0.082 A 
HETATM    3  O9  UNL     1     -34.249  16.271  -5.712  1.00 20.00    -0.375 OA
ENDROOT
BRANCH   2   4
HETATM    4  C5  UNL     1     -36.528  15.428  -5.242  1.00 20.00     0.040 C 
BRANCH   4   5
HETATM    5  C7  UNL     1     -37.296  14.427  -4.381  1.00 20.00    -0.002 C 
HETATM    6  C3  UNL     1     -38.747  14.844  -4.201  1.00 20.00     0.005 C 
ENDBRANCH   4   5
ENDBRANCH   2   4
BRANCH   2   7
HETATM    7  C6  UNL     1     -34.491  14.679  -3.861  1.00 20.00     0.040 C 
BRANCH   7   8
HETATM    8  C8  UNL     1     -34.013  15.803  -2.928  1.00 20.00    -0.002 C 
HETATM    9  C4  UNL     1     -35.056  16.171  -1.885  1.00 20.00     0.005 C 
ENDBRANCH   7   8
ENDBRANCH   2   7
TORSDOF 4
ENDMDL
MODEL 8
REMARK VINA RESULT:      -3.7     11.228     12.238
REMARK  4 active torsions:
REMARK  status: ('A' for Active; 'I' for Inactive)
REMARK    1  A    between atoms: C2_2  and  C5_5 
REMARK    2  A    between atoms: C2_2  and  C6_6 
REMARK    3  A    between atoms: C5_5  and  C7_7 
REMARK    4  A    between atoms: C6_6  and  C8_8 
ROOT
HETATM    1  C1  UNL     1     -33.975  15.182  -6.864  1.00 20.00     0.207 A 
HETATM    2  C2  UNL     1     -34.730  15.182  -5.555  1.00 20.00     0.082 A 
HETATM    3  O9  UNL     1     -33.599  14.327  -5.774  1.00 20.00    -0.375 OA
ENDROOT
BRANCH   2   4
HETATM    4  C5  UNL     1     -34.474  16.287  -4.543  1.00 20.00     0.040 C 
BRANCH   4   5
HETATM    5  C7  UNL     1     -33.997  15.722  -3.206  1.00 20.00    -0.002 C 
HETATM    6  C3  UNL     1     -34.967  16.053  -2.083  1.00 20.00     0.005 C 
ENDBRANCH   4   5
ENDBRANCH   2   4
BRANCH   2   7
HETATM    7  C6  UNL     1     -36.028  14.450  -5.453  1.00 20.00     0.040 C 
BRANCH   7   8
HETATM    8  C8  UNL     1     -37.197  15.380  -5.089  1.00 20.00    -0.002 C 
HETATM    9  C4  UNL     1     -38.250  14.682  -4.245  1.00 20.00     0.005 C 
ENDBRANCH   7   8
ENDBRANCH   2   7
TORSDOF 4
ENDMDL
MODEL 9
REMARK VINA RESULT:      -3.6     11.182     12.135
REMARK  4 active torsions:
REMARK  status: ('A' for Active; 'I' for Inactive)
REMARK    1  A    between atoms: C2_2  and  C5_5 
REMARK    2  A    between atoms: C2_2  and  C6_6 
REMARK    3  A    between atoms: C5_5  and  C7_7 
REMARK    4  A    between atoms: C6_6  and  C8_8 
ROOT
HETATM    1  C1  UNL     1     -36.229  17.642  -1.487  1.00 20.00     0.207 A 
HETATM    2  C2  UNL     1     -34.794  17.210  -1.676  1.00 20.00     0.082 A 
HETATM    3  O9  UNL     1     -35.463  17.071  -0.416  1.00 20.00    -0.375 OA
ENDROOT
BRANCH   2   4
HETATM    4  C5  UNL     1     -34.494  15.885  -2.359  1.00 20.00     0.040 C 
BRANCH   4   5
HETATM    5  C7  UNL     1     -33.295  15.999  -3.299  1.00 20.00    -0.002 C 
HETATM    6  C3  UNL     1     -33.220  14.815  -4.251  1.00 20.00     0.005 C 
ENDBRANCH   4   5
ENDBRANCH   2   4
BRANCH   2   7
HETATM    7  C6  UNL     1     -33.708  18.236  -1.672  1.00 20.00     0.040 C 
BRANCH   7   8
HETATM    8  C8  UNL     1     -32.888  18.214  -0.371  1.00 20.00    -0.002 C 
HETATM    9  C4  UNL     1     -31.394  18.322  -0.629  1.00 20.00     0.005 C 
ENDBRANCH   7   8
ENDBRANCH   2   7
TORSDOF 4
ENDMDL
