MODEL 1
REMARK VINA RESULT:      -4.5      0.000      0.000
REMARK  2 active torsions:
REMARK  status: ('A' for Active; 'I' for Inactive)
REMARK    1  A    between atoms: C1_1  and  C3_3 
REMARK    2  A    between atoms: C3_3  and  C4_4 
ROOT
HETATM    1  C2  UNL     1     -34.814  14.650  -3.523  1.00 20.00     0.069 C 
HETATM    2  C3  UNL     1     -35.821  14.153  -4.572  1.00 20.00     0.264 C 
HETATM    3  O5  UNL     1     -35.836  12.835  -4.593  1.00 20.00    -0.210 OA
ENDROOT
BRANCH   2   4
HETATM    4  C1  UNL     1     -37.260  14.613  -4.259  1.00 20.00     0.265 C 
HETATM    5  O6  UNL     1     -38.228  13.871  -4.425  1.00 20.00    -0.276 OA
HETATM    6 CL10 UNL     1     -37.406  16.265  -3.681  1.00 20.00    -0.040 Cl
ENDBRANCH   2   4
BRANCH   2   7
HETATM    7  C4  UNL     1     -35.390  14.662  -5.957  1.00 20.00     0.429 C 
HETATM    8  F7  UNL     1     -35.704  15.968  -6.137  1.00 20.00    -0.167 F 
HETATM    9  F8  UNL     1     -35.966  13.970  -6.967  1.00 20.00    -0.167 F 
HETATM   10  F9  UNL     1     -34.049  14.556  -6.113  1.00 20.00    -0.167 F 
ENDBRANCH   2   7
TORSDOF 2
ENDMDL
MODEL 2
REMARK VINA RESULT:      -4.5      1.396      2.080
REMARK  2 active torsions:
REMARK  status: ('A' for Active; 'I' for Inactive)
REMARK    1  A    between atoms: C1_1  and  C3_3 
REMARK    2  A    between atoms: C3_3  and  C4_4 
ROOT
HETATM    1  C2  UNL     1     -34.346  15.674  -3.556  1.00 20.00     0.069 C 
HETATM    2  C3  UNL     1     -34.485  14.528  -4.571  1.00 20.00     0.264 C 
HETATM    3  O5  UNL     1     -33.487  13.679  -4.430  1.00 20.00    -0.210 OA
ENDROOT
BRANCH   2   4
HETATM    4  C1  UNL     1     -35.788  13.727  -4.369  1.00 20.00     0.265 C 
HETATM    5  O6  UNL     1     -35.809  12.498  -4.425  1.00 20.00    -0.276 OA
HETATM    6 CL10 UNL     1     -37.223  14.698  -4.082  1.00 20.00    -0.040 Cl
ENDBRANCH   2   4
BRANCH   2   7
HETATM    7  C4  UNL     1     -34.437  15.113  -5.992  1.00 20.00     0.429 C 
HETATM    8  F7  UNL     1     -33.315  14.740  -6.655  1.00 20.00    -0.167 F 
HETATM    9  F8  UNL     1     -34.475  16.465  -5.999  1.00 20.00    -0.167 F 
HETATM   10  F9  UNL     1     -35.490  14.679  -6.727  1.00 20.00    -0.167 F 
ENDBRANCH   2   7
TORSDOF 2
ENDMDL
MODEL 3
REMARK VINA RESULT:      -4.4      2.094      2.851
REMARK  2 active torsions:
REMARK  status: ('A' for Active; 'I' for Inactive)
REMARK    1  A    between atoms: C1_1  and  C3_3 
REMARK    2  A    between atoms: C3_3  and  C4_4 
ROOT
HETATM    1  C2  UNL     1     -34.682  14.870  -6.391  1.00 20.00     0.069 C 
HETATM    2  C3  UNL     1     -35.258  15.037  -4.977  1.00 20.00     0.264 C 
HETATM    3  O5  UNL     1     -35.921  16.174  -4.893  1.00 20.00    -0.210 OA
ENDROOT
BRANCH   2   4
HETATM    4  C1  UNL     1     -36.249  13.912  -4.615  1.00 20.00     0.265 C 
HETATM    5  O6  UNL     1     -35.911  12.730  -4.600  1.00 20.00    -0.276 OA
HETATM    6 CL10 UNL     1     -37.884  14.447  -4.260  1.00 20.00    -0.040 Cl
ENDBRANCH   2   4
BRANCH   2   7
HETATM    7  C4  UNL     1     -34.099  15.069  -3.967  1.00 20.00     0.429 C 
HETATM    8  F7  UNL     1     -33.237  14.040  -4.154  1.00 20.00    -0.167 F 
HETATM    9  F8  UNL     1     -34.525  15.005  -2.685  1.00 20.00    -0.167 F 
HETATM   10  F9  UNL     1     -33.381  16.211  -4.094  1.00 20.00    -0.167 F 
ENDBRANCH   2   7
TORSDOF 2
ENDMDL
MODEL 4
REMARK VINA RESULT:      -4.3     13.383     13.962
REMARK  2 active torsions:
REMARK  status: ('A' for Active; 'I' for Inactive)
REMARK    1  A    between atoms: C1_1  and  C3_3 
REMARK    2  A    between atoms: C3_3  and  C4_4 
ROOT
HETATM    1  C2  UNL     1     -33.754   6.996   3.999  1.00 20.00     0.069 C 
HETATM    2  C3  UNL     1     -34.548   5.752   4.427  1.00 20.00     0.264 C 
HETATM    3  O5  UNL     1     -35.806   5.872   4.053  1.00 20.00    -0.210 OA
ENDROOT
BRANCH   2   4
HETATM    4  C1  UNL     1     -34.007   4.464   3.773  1.00 20.00     0.265 C 
HETATM    5  O6  UNL     1     -34.253   3.350   4.234  1.00 20.00    -0.276 OA
HETATM    6 CL10 UNL     1     -33.004   4.714   2.353  1.00 20.00    -0.040 Cl
ENDBRANCH   2   4
BRANCH   2   7
HETATM    7  C4  UNL     1     -34.499   5.631   5.958  1.00 20.00     0.429 C 
HETATM    8  F7  UNL     1     -34.438   6.844   6.560  1.00 20.00    -0.167 F 
HETATM    9  F8  UNL     1     -33.434   4.917   6.389  1.00 20.00    -0.167 F 
HETATM   10  F9  UNL     1     -35.611   5.015   6.428  1.00 20.00    -0.167 F 
ENDBRANCH   2   7
TORSDOF 2
ENDMDL
MODEL 5
REMARK VINA RESULT:      -4.3     19.829     20.477
REMARK  2 active torsions:
REMARK  status: ('A' for Active; 'I' for Inactive)
REMARK    1  A    between atoms: C1_1  and  C3_3 
REMARK    2  A    between atoms: C3_3  and  C4_4 
ROOT
HETATM    1  C2  UNL     1     -22.478  17.748  12.309  1.00 20.00     0.069 C 
HETATM    2  C3  UNL     1     -23.785  17.781  11.503  1.00 20.00     0.264 C 
HETATM    3  O5  UNL     1     -24.685  18.509  12.135  1.00 20.00    -0.210 OA
ENDROOT
BRANCH   2   4
HETATM    4  C1  UNL     1     -23.594  18.415  10.110  1.00 20.00     0.265 C 
HETATM    5  O6  UNL     1     -22.479  18.550   9.606  1.00 20.00    -0.276 OA
HETATM    6 CL10 UNL     1     -25.072  18.946   9.324  1.00 20.00    -0.040 Cl
ENDBRANCH   2   4
BRANCH   2   7
HETATM    7  C4  UNL     1     -24.322  16.347  11.365  1.00 20.00     0.429 C 
HETATM    8  F7  UNL     1     -25.651  16.278  11.615  1.00 20.00    -0.167 F 
HETATM    9  F8  UNL     1     -23.710  15.481  12.206  1.00 20.00    -0.167 F 
HETATM   10  F9  UNL     1     -24.134  15.883  10.106  1.00 20.00    -0.167 F 
ENDBRANCH   2   7
TORSDOF 2
ENDMDL
MODEL 6
REMARK VINA RESULT:      -4.3     20.191     20.786
REMARK  2 active torsions:
REMARK  status: ('A' for Active; 'I' for Inactive)
REMARK    1  A    between atoms: C1_1  and  C3_3 
REMARK    2  A    between atoms: C3_3  and  C4_4 
ROOT
HETATM    1  C2  UNL     1     -24.616  18.350   9.944  1.00 20.00     0.069 C 
HETATM    2  C3  UNL     1     -23.326  17.519  10.034  1.00 20.00     0.264 C 
HETATM    3  O5  UNL     1     -23.566  16.276   9.667  1.00 20.00    -0.210 OA
ENDROOT
BRANCH   2   4
HETATM    4  C1  UNL     1     -22.222  18.057   9.101  1.00 20.00     0.265 C 
HETATM    5  O6  UNL     1     -22.018  19.263   8.965  1.00 20.00    -0.276 OA
HETATM    6 CL10 UNL     1     -21.311  16.827   8.239  1.00 20.00    -0.040 Cl
ENDBRANCH   2   4
BRANCH   2   7
HETATM    7  C4  UNL     1     -22.835  17.516  11.491  1.00 20.00     0.429 C 
HETATM    8  F7  UNL     1     -23.449  18.469  12.234  1.00 20.00    -0.167 F 
HETATM    9  F8  UNL     1     -21.503  17.727  11.590  1.00 20.00    -0.167 F 
HETATM   10  F9  UNL     1     -23.098  16.326  12.084  1.00 20.00    -0.167 F 
ENDBRANCH   2   7
TORSDOF 2
ENDMDL
MODEL 7
REMARK VINA RESULT:      -4.2      2.823      3.333
REMARK  2 active torsions:
REMARK  status: ('A' for Active; 'I' for Inactive)
REMARK    1  A    between atoms: C1_1  and  C3_3 
REMARK    2  A    between atoms: C3_3  and  C4_4 
ROOT
HETATM    1  C2  UNL     1     -34.535  16.986  -4.976  1.00 20.00     0.069 C 
HETATM    2  C3  UNL     1     -35.119  15.582  -4.759  1.00 20.00     0.264 C 
HETATM    3  O5  UNL     1     -36.376  15.673  -4.373  1.00 20.00    -0.210 OA
ENDROOT
BRANCH   2   4
HETATM    4  C1  UNL     1     -35.108  14.741  -6.053  1.00 20.00     0.265 C 
HETATM    5  O6  UNL     1     -36.013  13.952  -6.321  1.00 20.00    -0.276 OA
HETATM    6 CL10 UNL     1     -33.705  14.978  -7.082  1.00 20.00    -0.040 Cl
ENDBRANCH   2   4
BRANCH   2   7
HETATM    7  C4  UNL     1     -34.316  14.873  -3.657  1.00 20.00     0.429 C 
HETATM    8  F7  UNL     1     -34.645  15.321  -2.422  1.00 20.00    -0.167 F 
HETATM    9  F8  UNL     1     -32.980  15.038  -3.800  1.00 20.00    -0.167 F 
HETATM   10  F9  UNL     1     -34.558  13.540  -3.669  1.00 20.00    -0.167 F 
ENDBRANCH   2   7
TORSDOF 2
ENDMDL
MODEL 8
REMARK VINA RESULT:      -4.2      2.552      3.233
REMARK  2 active torsions:
REMARK  status: ('A' for Active; 'I' for Inactive)
REMARK    1  A    between atoms: C1_1  and  C3_3 
REMARK    2  A    between atoms: C3_3  and  C4_4 
ROOT
HETATM    1  C2  UNL     1     -36.691  14.390  -4.083  1.00 20.00     0.069 C 
HETATM    2  C3  UNL     1     -35.172  14.480  -4.299  1.00 20.00     0.264 C 
HETATM    3  O5  UNL     1     -34.610  13.318  -4.031  1.00 20.00    -0.210 OA
ENDROOT
BRANCH   2   4
HETATM    4  C1  UNL     1     -34.812  14.825  -5.760  1.00 20.00     0.265 C 
HETATM    5  O6  UNL     1     -33.706  14.570  -6.232  1.00 20.00    -0.276 OA
HETATM    6 CL10 UNL     1     -36.083  15.624  -6.670  1.00 20.00    -0.040 Cl
ENDBRANCH   2   4
BRANCH   2   7
HETATM    7  C4  UNL     1     -34.594  15.538  -3.346  1.00 20.00     0.429 C 
HETATM    8  F7  UNL     1     -35.106  15.427  -2.096  1.00 20.00    -0.167 F 
HETATM    9  F8  UNL     1     -34.833  16.802  -3.766  1.00 20.00    -0.167 F 
HETATM   10  F9  UNL     1     -33.251  15.401  -3.233  1.00 20.00    -0.167 F 
ENDBRANCH   2   7
TORSDOF 2
ENDMDL
MODEL 9
REMARK VINA RESULT:      -4.1     12.714     13.306
REMARK  2 active torsions:
REMARK  status: ('A' for Active; 'I' for Inactive)
REMARK    1  A    between atoms: C1_1  and  C3_3 
REMARK    2  A    between atoms: C3_3  and  C4_4 
ROOT
HETATM    1  C2  UNL     1     -33.408   6.855   5.639  1.00 20.00     0.069 C 
HETATM    2  C3  UNL     1     -34.161   6.306   4.418  1.00 20.00     0.264 C 
HETATM    3  O5  UNL     1     -35.062   7.179   4.014  1.00 20.00    -0.210 OA
ENDROOT
BRANCH   2   4
HETATM    4  C1  UNL     1     -33.220   6.048   3.222  1.00 20.00     0.265 C 
HETATM    5  O6  UNL     1     -33.339   5.054   2.506  1.00 20.00    -0.276 OA
HETATM    6 CL10 UNL     1     -31.967   7.255   2.987  1.00 20.00    -0.040 Cl
ENDBRANCH   2   4
BRANCH   2   7
HETATM    7  C4  UNL     1     -34.880   5.007   4.818  1.00 20.00     0.429 C 
HETATM    8  F7  UNL     1     -35.228   5.004   6.127  1.00 20.00    -0.167 F 
HETATM    9  F8  UNL     1     -34.123   3.907   4.602  1.00 20.00    -0.167 F 
HETATM   10  F9  UNL     1     -36.023   4.852   4.107  1.00 20.00    -0.167 F 
ENDBRANCH   2   7
TORSDOF 2
ENDMDL
