MODEL 1
REMARK VINA RESULT:      -4.6      0.000      0.000
REMARK  2 active torsions:
REMARK  status: ('A' for Active; 'I' for Inactive)
REMARK    1  A    between atoms: C1_1  and  C3_3 
REMARK    2  A    between atoms: C3_3  and  C4_4 
ROOT
HETATM    1  C2  UNL     1     -35.757  16.251  -5.327  1.00 20.00     0.069 C 
HETATM    2  C3  UNL     1     -35.109  14.884  -5.066  1.00 20.00     0.264 C 
HETATM    3  O5  UNL     1     -34.553  14.430  -6.171  1.00 20.00    -0.210 OA
ENDROOT
BRANCH   2   4
HETATM    4  C1  UNL     1     -36.140  13.826  -4.618  1.00 20.00     0.265 C 
HETATM    5  O6  UNL     1     -35.848  12.635  -4.524  1.00 20.00    -0.276 OA
HETATM    6 CL10 UNL     1     -37.748  14.448  -4.283  1.00 20.00    -0.040 Cl
ENDBRANCH   2   4
BRANCH   2   7
HETATM    7  C4  UNL     1     -34.017  15.047  -3.994  1.00 20.00     0.429 C 
HETATM    8  F7  UNL     1     -33.068  14.086  -4.088  1.00 20.00    -0.167 F 
HETATM    9  F8  UNL     1     -34.514  14.997  -2.735  1.00 20.00    -0.167 F 
HETATM   10  F9  UNL     1     -33.387  16.238  -4.129  1.00 20.00    -0.167 F 
ENDBRANCH   2   7
TORSDOF 2
ENDMDL
MODEL 2
REMARK VINA RESULT:      -4.6      0.022      1.193
REMARK  2 active torsions:
REMARK  status: ('A' for Active; 'I' for Inactive)
REMARK    1  A    between atoms: C1_1  and  C3_3 
REMARK    2  A    between atoms: C3_3  and  C4_4 
ROOT
HETATM    1  C2  UNL     1     -35.746  16.241  -5.342  1.00 20.00     0.069 C 
HETATM    2  C3  UNL     1     -35.099  14.875  -5.070  1.00 20.00     0.264 C 
HETATM    3  O5  UNL     1     -34.538  14.416  -6.170  1.00 20.00    -0.210 OA
ENDROOT
BRANCH   2   4
HETATM    4  C1  UNL     1     -36.133  13.821  -4.621  1.00 20.00     0.265 C 
HETATM    5  O6  UNL     1     -35.845  12.628  -4.532  1.00 20.00    -0.276 OA
HETATM    6 CL10 UNL     1     -37.737  14.448  -4.279  1.00 20.00    -0.040 Cl
ENDBRANCH   2   4
BRANCH   2   7
HETATM    7  C4  UNL     1     -34.013  15.044  -3.993  1.00 20.00     0.429 C 
HETATM    8  F7  UNL     1     -34.526  14.974  -2.742  1.00 20.00    -0.167 F 
HETATM    9  F8  UNL     1     -33.360  16.225  -4.093  1.00 20.00    -0.167 F 
HETATM   10  F9  UNL     1     -33.083  14.063  -4.092  1.00 20.00    -0.167 F 
ENDBRANCH   2   7
TORSDOF 2
ENDMDL
MODEL 3
REMARK VINA RESULT:      -4.6      1.232      1.523
REMARK  2 active torsions:
REMARK  status: ('A' for Active; 'I' for Inactive)
REMARK    1  A    between atoms: C1_1  and  C3_3 
REMARK    2  A    between atoms: C3_3  and  C4_4 
ROOT
HETATM    1  C2  UNL     1     -34.392  15.325  -5.929  1.00 20.00     0.069 C 
HETATM    2  C3  UNL     1     -34.441  14.584  -4.585  1.00 20.00     0.264 C 
HETATM    3  O5  UNL     1     -33.450  13.718  -4.512  1.00 20.00    -0.210 OA
ENDROOT
BRANCH   2   4
HETATM    4  C1  UNL     1     -35.749  13.782  -4.410  1.00 20.00     0.265 C 
HETATM    5  O6  UNL     1     -35.752  12.553  -4.346  1.00 20.00    -0.276 OA
HETATM    6 CL10 UNL     1     -37.212  14.749  -4.338  1.00 20.00    -0.040 Cl
ENDBRANCH   2   4
BRANCH   2   7
HETATM    7  C4  UNL     1     -34.291  15.606  -3.445  1.00 20.00     0.429 C 
HETATM    8  F7  UNL     1     -34.904  15.194  -2.311  1.00 20.00    -0.167 F 
HETATM    9  F8  UNL     1     -34.806  16.817  -3.762  1.00 20.00    -0.167 F 
HETATM   10  F9  UNL     1     -32.984  15.795  -3.140  1.00 20.00    -0.167 F 
ENDBRANCH   2   7
TORSDOF 2
ENDMDL
MODEL 4
REMARK VINA RESULT:      -4.5      1.402      2.094
REMARK  2 active torsions:
REMARK  status: ('A' for Active; 'I' for Inactive)
REMARK    1  A    between atoms: C1_1  and  C3_3 
REMARK    2  A    between atoms: C3_3  and  C4_4 
ROOT
HETATM    1  C2  UNL     1     -35.625  14.470  -6.341  1.00 20.00     0.069 C 
HETATM    2  C3  UNL     1     -35.945  14.127  -4.879  1.00 20.00     0.264 C 
HETATM    3  O5  UNL     1     -35.979  12.820  -4.720  1.00 20.00    -0.210 OA
ENDROOT
BRANCH   2   4
HETATM    4  C1  UNL     1     -37.324  14.667  -4.443  1.00 20.00     0.265 C 
HETATM    5  O6  UNL     1     -38.276  13.917  -4.234  1.00 20.00    -0.276 OA
HETATM    6 CL10 UNL     1     -37.429  16.413  -4.297  1.00 20.00    -0.040 Cl
ENDBRANCH   2   4
BRANCH   2   7
HETATM    7  C4  UNL     1     -34.840  14.706  -3.978  1.00 20.00     0.429 C 
HETATM    8  F7  UNL     1     -35.276  14.916  -2.714  1.00 20.00    -0.167 F 
HETATM    9  F8  UNL     1     -34.361  15.886  -4.437  1.00 20.00    -0.167 F 
HETATM   10  F9  UNL     1     -33.792  13.853  -3.896  1.00 20.00    -0.167 F 
ENDBRANCH   2   7
TORSDOF 2
ENDMDL
MODEL 5
REMARK VINA RESULT:      -4.5      1.405      1.710
REMARK  2 active torsions:
REMARK  status: ('A' for Active; 'I' for Inactive)
REMARK    1  A    between atoms: C1_1  and  C3_3 
REMARK    2  A    between atoms: C3_3  and  C4_4 
ROOT
HETATM    1  C2  UNL     1     -35.618  14.487  -6.337  1.00 20.00     0.069 C 
HETATM    2  C3  UNL     1     -35.952  14.131  -4.881  1.00 20.00     0.264 C 
HETATM    3  O5  UNL     1     -35.987  12.822  -4.735  1.00 20.00    -0.210 OA
ENDROOT
BRANCH   2   4
HETATM    4  C1  UNL     1     -37.336  14.665  -4.455  1.00 20.00     0.265 C 
HETATM    5  O6  UNL     1     -38.280  13.910  -4.225  1.00 20.00    -0.276 OA
HETATM    6 CL10 UNL     1     -37.460  16.413  -4.351  1.00 20.00    -0.040 Cl
ENDBRANCH   2   4
BRANCH   2   7
HETATM    7  C4  UNL     1     -34.857  14.702  -3.964  1.00 20.00     0.429 C 
HETATM    8  F7  UNL     1     -33.805  13.859  -3.846  1.00 20.00    -0.167 F 
HETATM    9  F8  UNL     1     -35.308  14.958  -2.714  1.00 20.00    -0.167 F 
HETATM   10  F9  UNL     1     -34.375  15.866  -4.461  1.00 20.00    -0.167 F 
ENDBRANCH   2   7
TORSDOF 2
ENDMDL
MODEL 6
REMARK VINA RESULT:      -4.2      1.789      2.031
REMARK  2 active torsions:
REMARK  status: ('A' for Active; 'I' for Inactive)
REMARK    1  A    between atoms: C1_1  and  C3_3 
REMARK    2  A    between atoms: C3_3  and  C4_4 
ROOT
HETATM    1  C2  UNL     1     -36.494  15.965  -5.799  1.00 20.00     0.069 C 
HETATM    2  C3  UNL     1     -35.599  14.717  -5.817  1.00 20.00     0.264 C 
HETATM    3  O5  UNL     1     -36.011  13.882  -6.750  1.00 20.00    -0.210 OA
ENDROOT
BRANCH   2   4
HETATM    4  C1  UNL     1     -35.644  13.950  -4.479  1.00 20.00     0.265 C 
HETATM    5  O6  UNL     1     -35.851  12.738  -4.433  1.00 20.00    -0.276 OA
HETATM    6 CL10 UNL     1     -35.406  14.936  -3.046  1.00 20.00    -0.040 Cl
ENDBRANCH   2   4
BRANCH   2   7
HETATM    7  C4  UNL     1     -34.156  15.142  -6.136  1.00 20.00     0.429 C 
HETATM    8  F7  UNL     1     -33.815  14.857  -7.415  1.00 20.00    -0.167 F 
HETATM    9  F8  UNL     1     -33.247  14.539  -5.335  1.00 20.00    -0.167 F 
HETATM   10  F9  UNL     1     -34.004  16.479  -5.978  1.00 20.00    -0.167 F 
ENDBRANCH   2   7
TORSDOF 2
ENDMDL
MODEL 7
REMARK VINA RESULT:      -4.2     18.650     19.290
REMARK  2 active torsions:
REMARK  status: ('A' for Active; 'I' for Inactive)
REMARK    1  A    between atoms: C1_1  and  C3_3 
REMARK    2  A    between atoms: C3_3  and  C4_4 
ROOT
HETATM    1  C2  UNL     1     -25.344  18.524  12.152  1.00 20.00     0.069 C 
HETATM    2  C3  UNL     1     -24.170  17.921  11.367  1.00 20.00     0.264 C 
HETATM    3  O5  UNL     1     -23.033  18.194  11.976  1.00 20.00    -0.210 OA
ENDROOT
BRANCH   2   4
HETATM    4  C1  UNL     1     -24.064  18.502   9.941  1.00 20.00     0.265 C 
HETATM    5  O6  UNL     1     -25.061  18.829   9.299  1.00 20.00    -0.276 OA
HETATM    6 CL10 UNL     1     -22.432  18.632   9.308  1.00 20.00    -0.040 Cl
ENDBRANCH   2   4
BRANCH   2   7
HETATM    7  C4  UNL     1     -24.343  16.394  11.305  1.00 20.00     0.429 C 
HETATM    8  F7  UNL     1     -24.088  15.905  10.068  1.00 20.00    -0.167 F 
HETATM    9  F8  UNL     1     -25.594  15.999  11.640  1.00 20.00    -0.167 F 
HETATM   10  F9  UNL     1     -23.487  15.778  12.155  1.00 20.00    -0.167 F 
ENDBRANCH   2   7
TORSDOF 2
ENDMDL
MODEL 8
REMARK VINA RESULT:      -4.1      2.025      2.179
REMARK  2 active torsions:
REMARK  status: ('A' for Active; 'I' for Inactive)
REMARK    1  A    between atoms: C1_1  and  C3_3 
REMARK    2  A    between atoms: C3_3  and  C4_4 
ROOT
HETATM    1  C2  UNL     1     -36.501  15.858  -4.240  1.00 20.00     0.069 C 
HETATM    2  C3  UNL     1     -35.081  15.590  -4.759  1.00 20.00     0.264 C 
HETATM    3  O5  UNL     1     -34.483  16.730  -5.040  1.00 20.00    -0.210 OA
ENDROOT
BRANCH   2   4
HETATM    4  C1  UNL     1     -35.084  14.754  -6.056  1.00 20.00     0.265 C 
HETATM    5  O6  UNL     1     -35.994  13.968  -6.318  1.00 20.00    -0.276 OA
HETATM    6 CL10 UNL     1     -33.692  14.990  -7.099  1.00 20.00    -0.040 Cl
ENDBRANCH   2   4
BRANCH   2   7
HETATM    7  C4  UNL     1     -34.279  14.867  -3.664  1.00 20.00     0.429 C 
HETATM    8  F7  UNL     1     -34.510  13.533  -3.664  1.00 20.00    -0.167 F 
HETATM    9  F8  UNL     1     -34.566  15.322  -2.422  1.00 20.00    -0.167 F 
HETATM   10  F9  UNL     1     -32.948  15.035  -3.854  1.00 20.00    -0.167 F 
ENDBRANCH   2   7
TORSDOF 2
ENDMDL
MODEL 9
REMARK VINA RESULT:      -4.1      2.635      3.059
REMARK  2 active torsions:
REMARK  status: ('A' for Active; 'I' for Inactive)
REMARK    1  A    between atoms: C1_1  and  C3_3 
REMARK    2  A    between atoms: C3_3  and  C4_4 
ROOT
HETATM    1  C2  UNL     1     -36.936  15.793  -3.859  1.00 20.00     0.069 C 
HETATM    2  C3  UNL     1     -36.312  14.593  -4.586  1.00 20.00     0.264 C 
HETATM    3  O5  UNL     1     -37.152  13.577  -4.581  1.00 20.00    -0.210 OA
ENDROOT
BRANCH   2   4
HETATM    4  C1  UNL     1     -35.017  14.106  -3.902  1.00 20.00     0.265 C 
HETATM    5  O6  UNL     1     -34.646  12.935  -3.976  1.00 20.00    -0.276 OA
HETATM    6 CL10 UNL     1     -34.144  15.333  -2.999  1.00 20.00    -0.040 Cl
ENDBRANCH   2   4
BRANCH   2   7
HETATM    7  C4  UNL     1     -36.024  14.989  -6.045  1.00 20.00     0.429 C 
HETATM    8  F7  UNL     1     -34.855  15.661  -6.165  1.00 20.00    -0.167 F 
HETATM    9  F8  UNL     1     -36.993  15.772  -6.572  1.00 20.00    -0.167 F 
HETATM   10  F9  UNL     1     -35.927  13.889  -6.830  1.00 20.00    -0.167 F 
ENDBRANCH   2   7
TORSDOF 2
ENDMDL
