MODEL 1
REMARK VINA RESULT:      -4.6      0.000      0.000
REMARK  0 active torsions:
REMARK  status: ('A' for Active; 'I' for Inactive)
ROOT
HETATM    1  C1  UNL     1     -22.656  17.740  10.570  1.00 20.00    -0.057 C 
HETATM    2  C2  UNL     1     -22.950  17.591  11.864  1.00 20.00     0.017 C 
HETATM    3  C3  UNL     1     -21.301  18.019  10.018  1.00 20.00     0.205 C 
HETATM    4  C4  UNL     1     -24.493  18.900   9.261  1.00 20.00     0.040 C 
HETATM    5  C5  UNL     1     -24.640  18.959   7.758  1.00 20.00     0.172 C 
HETATM    6  C6  UNL     1     -23.625  17.672   9.443  1.00 20.00     0.073 C 
HETATM    7  C7  UNL     1     -22.723  17.728   8.221  1.00 20.00     0.268 C 
HETATM    8  O8  UNL     1     -21.515  18.380   8.644  1.00 20.00    -0.356 OA
HETATM    9  O9  UNL     1     -23.406  18.482   7.211  1.00 20.00    -0.361 OA
ENDROOT
TORSDOF 0
ENDMDL
MODEL 2
REMARK VINA RESULT:      -4.5     16.771     18.468
REMARK  0 active torsions:
REMARK  status: ('A' for Active; 'I' for Inactive)
ROOT
HETATM    1  C1  UNL     1     -34.141  15.402  -3.425  1.00 20.00    -0.057 C 
HETATM    2  C2  UNL     1     -33.572  16.356  -2.683  1.00 20.00     0.017 C 
HETATM    3  C3  UNL     1     -33.490  14.685  -4.557  1.00 20.00     0.205 C 
HETATM    4  C4  UNL     1     -36.615  15.796  -3.822  1.00 20.00     0.040 C 
HETATM    5  C5  UNL     1     -37.623  14.795  -4.339  1.00 20.00     0.172 C 
HETATM    6  C6  UNL     1     -35.530  14.892  -3.273  1.00 20.00     0.073 C 
HETATM    7  C7  UNL     1     -35.564  13.719  -4.239  1.00 20.00     0.268 C 
HETATM    8  O8  UNL     1     -34.550  13.980  -5.223  1.00 20.00    -0.356 OA
HETATM    9  O9  UNL     1     -36.872  13.677  -4.825  1.00 20.00    -0.361 OA
ENDROOT
TORSDOF 0
ENDMDL
MODEL 3
REMARK VINA RESULT:      -4.4      1.270      2.293
REMARK  0 active torsions:
REMARK  status: ('A' for Active; 'I' for Inactive)
ROOT
HETATM    1  C1  UNL     1     -23.197  18.009  10.915  1.00 20.00    -0.057 C 
HETATM    2  C2  UNL     1     -22.722  17.724  12.131  1.00 20.00     0.017 C 
HETATM    3  C3  UNL     1     -24.637  18.087  10.546  1.00 20.00     0.205 C 
HETATM    4  C4  UNL     1     -21.768  17.062   9.045  1.00 20.00     0.040 C 
HETATM    5  C5  UNL     1     -21.822  17.436   7.581  1.00 20.00     0.172 C 
HETATM    6  C6  UNL     1     -22.379  18.283   9.703  1.00 20.00     0.073 C 
HETATM    7  C7  UNL     1     -23.422  18.714   8.685  1.00 20.00     0.268 C 
HETATM    8  O8  UNL     1     -24.663  18.129   9.111  1.00 20.00    -0.356 OA
HETATM    9  O9  UNL     1     -23.013  18.214   7.405  1.00 20.00    -0.361 OA
ENDROOT
TORSDOF 0
ENDMDL
MODEL 4
REMARK VINA RESULT:      -4.4     16.585     17.427
REMARK  0 active torsions:
REMARK  status: ('A' for Active; 'I' for Inactive)
ROOT
HETATM    1  C1  UNL     1     -33.425   5.477   2.750  1.00 20.00    -0.057 C 
HETATM    2  C2  UNL     1     -33.312   4.593   1.755  1.00 20.00     0.017 C 
HETATM    3  C3  UNL     1     -32.525   6.641   2.979  1.00 20.00     0.205 C 
HETATM    4  C4  UNL     1     -34.225   4.432   4.919  1.00 20.00     0.040 C 
HETATM    5  C5  UNL     1     -34.752   5.155   6.137  1.00 20.00     0.172 C 
HETATM    6  C6  UNL     1     -34.455   5.453   3.823  1.00 20.00     0.073 C 
HETATM    7  C7  UNL     1     -34.215   6.767   4.549  1.00 20.00     0.268 C 
HETATM    8  O8  UNL     1     -32.846   7.121   4.294  1.00 20.00    -0.356 OA
HETATM    9  O9  UNL     1     -34.453   6.543   5.944  1.00 20.00    -0.361 OA
ENDROOT
TORSDOF 0
ENDMDL
MODEL 5
REMARK VINA RESULT:      -4.2     16.458     17.208
REMARK  0 active torsions:
REMARK  status: ('A' for Active; 'I' for Inactive)
ROOT
HETATM    1  C1  UNL     1     -34.490   5.370   4.818  1.00 20.00    -0.057 C 
HETATM    2  C2  UNL     1     -35.001   5.443   6.050  1.00 20.00     0.017 C 
HETATM    3  C3  UNL     1     -34.262   4.114   4.049  1.00 20.00     0.205 C 
HETATM    4  C4  UNL     1     -32.696   7.110   4.383  1.00 20.00     0.040 C 
HETATM    5  C5  UNL     1     -32.132   7.518   3.041  1.00 20.00     0.172 C 
HETATM    6  C6  UNL     1     -34.037   6.522   3.993  1.00 20.00     0.073 C 
HETATM    7  C7  UNL     1     -33.730   5.875   2.652  1.00 20.00     0.268 C 
HETATM    8  O8  UNL     1     -33.447   4.494   2.929  1.00 20.00    -0.356 OA
HETATM    9  O9  UNL     1     -32.593   6.547   2.095  1.00 20.00    -0.361 OA
ENDROOT
TORSDOF 0
ENDMDL
MODEL 6
REMARK VINA RESULT:      -4.2     16.327     17.686
REMARK  0 active torsions:
REMARK  status: ('A' for Active; 'I' for Inactive)
ROOT
HETATM    1  C1  UNL     1     -34.580  15.989  -2.408  1.00 20.00    -0.057 C 
HETATM    2  C2  UNL     1     -35.134  16.607  -1.362  1.00 20.00     0.017 C 
HETATM    3  C3  UNL     1     -33.248  16.306  -2.994  1.00 20.00     0.205 C 
HETATM    4  C4  UNL     1     -36.275  15.311  -4.170  1.00 20.00     0.040 C 
HETATM    5  C5  UNL     1     -36.061  14.344  -5.312  1.00 20.00     0.172 C 
HETATM    6  C6  UNL     1     -35.196  14.886  -3.194  1.00 20.00     0.073 C 
HETATM    7  C7  UNL     1     -34.068  14.464  -4.121  1.00 20.00     0.268 C 
HETATM    8  O8  UNL     1     -33.204  15.605  -4.247  1.00 20.00    -0.356 OA
HETATM    9  O9  UNL     1     -34.651  14.100  -5.379  1.00 20.00    -0.361 OA
ENDROOT
TORSDOF 0
ENDMDL
MODEL 7
REMARK VINA RESULT:      -4.2      1.828      3.257
REMARK  0 active torsions:
REMARK  status: ('A' for Active; 'I' for Inactive)
ROOT
HETATM    1  C1  UNL     1     -23.315  18.418   9.059  1.00 20.00    -0.057 C 
HETATM    2  C2  UNL     1     -24.004  18.700   7.950  1.00 20.00     0.017 C 
HETATM    3  C3  UNL     1     -21.832  18.463   9.189  1.00 20.00     0.205 C 
HETATM    4  C4  UNL     1     -24.351  16.547  10.423  1.00 20.00     0.040 C 
HETATM    5  C5  UNL     1     -24.029  16.179  11.853  1.00 20.00     0.172 C 
HETATM    6  C6  UNL     1     -23.895  17.990  10.360  1.00 20.00     0.073 C 
HETATM    7  C7  UNL     1     -22.687  17.990  11.283  1.00 20.00     0.268 C 
HETATM    8  O8  UNL     1     -21.538  17.816  10.438  1.00 20.00    -0.356 OA
HETATM    9  O9  UNL     1     -22.840  16.899  12.199  1.00 20.00    -0.361 OA
ENDROOT
TORSDOF 0
ENDMDL
MODEL 8
REMARK VINA RESULT:      -4.0     22.825     23.997
REMARK  0 active torsions:
REMARK  status: ('A' for Active; 'I' for Inactive)
ROOT
HETATM    1  C1  UNL     1     -41.517   8.198   0.054  1.00 20.00    -0.057 C 
HETATM    2  C2  UNL     1     -41.539   9.505   0.329  1.00 20.00     0.017 C 
HETATM    3  C3  UNL     1     -41.170   7.597  -1.264  1.00 20.00     0.205 C 
HETATM    4  C4  UNL     1     -43.332   6.900   1.261  1.00 20.00     0.040 C 
HETATM    5  C5  UNL     1     -43.417   5.400   1.431  1.00 20.00     0.172 C 
HETATM    6  C6  UNL     1     -41.853   7.103   1.003  1.00 20.00     0.073 C 
HETATM    7  C7  UNL     1     -41.486   5.853   0.218  1.00 20.00     0.268 C 
HETATM    8  O8  UNL     1     -41.558   6.217  -1.170  1.00 20.00    -0.356 OA
HETATM    9  O9  UNL     1     -42.440   4.836   0.549  1.00 20.00    -0.361 OA
ENDROOT
TORSDOF 0
ENDMDL
MODEL 9
REMARK VINA RESULT:      -3.9     18.223     19.653
REMARK  0 active torsions:
REMARK  status: ('A' for Active; 'I' for Inactive)
ROOT
HETATM    1  C1  UNL     1     -37.592  16.018  -4.161  1.00 20.00    -0.057 C 
HETATM    2  C2  UNL     1     -37.872  17.276  -3.809  1.00 20.00     0.017 C 
HETATM    3  C3  UNL     1     -38.574  14.901  -4.230  1.00 20.00     0.205 C 
HETATM    4  C4  UNL     1     -35.307  15.251  -3.368  1.00 20.00     0.040 C 
HETATM    5  C5  UNL     1     -34.546  14.032  -3.835  1.00 20.00     0.172 C 
HETATM    6  C6  UNL     1     -36.249  15.496  -4.530  1.00 20.00     0.073 C 
HETATM    7  C7  UNL     1     -36.556  14.084  -5.002  1.00 20.00     0.268 C 
HETATM    8  O8  UNL     1     -37.787  13.707  -4.364  1.00 20.00    -0.356 OA
HETATM    9  O9  UNL     1     -35.470  13.243  -4.594  1.00 20.00    -0.361 OA
ENDROOT
TORSDOF 0
ENDMDL
