MODEL 1
REMARK VINA RESULT:      -4.6      0.000      0.000
REMARK  1 active torsions:
REMARK  status: ('A' for Active; 'I' for Inactive)
REMARK    1  A    between atoms: C4_4  and  C10_10 
ROOT
HETATM    1  C1  UNL     1     -35.398  16.441  -2.137  1.00 20.00     0.008 C 
HETATM    2  C2  UNL     1     -35.274  16.968  -0.706  1.00 20.00     0.035 C 
HETATM    3  C3  UNL     1     -33.009  17.014  -2.732  1.00 20.00     0.039 C 
HETATM    4  C4  UNL     1     -34.056  15.892  -2.644  1.00 20.00    -0.005 C 
HETATM    5  C5  UNL     1     -34.089  17.853  -0.502  1.00 20.00     0.151 A 
HETATM    6  C6  UNL     1     -32.951  17.842  -1.487  1.00 20.00     0.151 A 
HETATM    7  O11 UNL     1     -33.928  18.902  -1.458  1.00 20.00    -0.375 OA
ENDROOT
BRANCH   4   8
HETATM    8  C10 UNL     1     -34.227  15.215  -4.003  1.00 20.00    -0.048 C 
HETATM    9  C7  UNL     1     -34.567  16.270  -5.070  1.00 20.00     0.015 C 
HETATM   10  C8  UNL     1     -35.365  14.184  -3.930  1.00 20.00     0.015 C 
HETATM   11  C9  UNL     1     -32.922  14.502  -4.395  1.00 20.00     0.015 C 
ENDBRANCH   4   8
TORSDOF 1
ENDMDL
MODEL 2
REMARK VINA RESULT:      -4.5      2.304      4.442
REMARK  1 active torsions:
REMARK  status: ('A' for Active; 'I' for Inactive)
REMARK    1  A    between atoms: C4_4  and  C10_10 
ROOT
HETATM    1  C1  UNL     1     -34.332  14.895  -3.653  1.00 20.00     0.008 C 
HETATM    2  C2  UNL     1     -34.910  13.537  -4.057  1.00 20.00     0.035 C 
HETATM    3  C3  UNL     1     -36.589  16.032  -3.619  1.00 20.00     0.039 C 
HETATM    4  C4  UNL     1     -35.332  15.692  -2.802  1.00 20.00    -0.005 C 
HETATM    5  C5  UNL     1     -36.301  13.622  -4.595  1.00 20.00     0.151 A 
HETATM    6  C6  UNL     1     -37.143  14.844  -4.340  1.00 20.00     0.151 A 
HETATM    7  O11 UNL     1     -36.512  14.601  -5.614  1.00 20.00    -0.375 OA
ENDROOT
BRANCH   4   8
HETATM    8  C10 UNL     1     -34.687  16.967  -2.262  1.00 20.00    -0.048 C 
HETATM    9  C7  UNL     1     -33.162  16.898  -2.450  1.00 20.00     0.015 C 
HETATM   10  C8  UNL     1     -35.006  17.116  -0.765  1.00 20.00     0.015 C 
HETATM   11  C9  UNL     1     -35.236  18.188  -3.020  1.00 20.00     0.015 C 
ENDBRANCH   4   8
TORSDOF 1
ENDMDL
MODEL 3
REMARK VINA RESULT:      -4.4      1.868      4.214
REMARK  1 active torsions:
REMARK  status: ('A' for Active; 'I' for Inactive)
REMARK    1  A    between atoms: C4_4  and  C10_10 
ROOT
HETATM    1  C1  UNL     1     -33.136  16.254  -3.513  1.00 20.00     0.008 C 
HETATM    2  C2  UNL     1     -33.196  14.853  -4.123  1.00 20.00     0.035 C 
HETATM    3  C3  UNL     1     -35.507  16.157  -2.642  1.00 20.00     0.039 C 
HETATM    4  C4  UNL     1     -34.029  16.356  -2.268  1.00 20.00    -0.005 C 
HETATM    5  C5  UNL     1     -34.587  14.332  -4.275  1.00 20.00     0.151 A 
HETATM    6  C6  UNL     1     -35.722  14.955  -3.508  1.00 20.00     0.151 A 
HETATM    7  O11 UNL     1     -35.512  15.215  -4.911  1.00 20.00    -0.375 OA
ENDROOT
BRANCH   4   8
HETATM    8  C10 UNL     1     -33.834  17.700  -1.569  1.00 20.00    -0.048 C 
HETATM    9  C7  UNL     1     -32.332  17.975  -1.382  1.00 20.00     0.015 C 
HETATM   10  C8  UNL     1     -34.519  17.674  -0.192  1.00 20.00     0.015 C 
HETATM   11  C9  UNL     1     -34.451  18.823  -2.420  1.00 20.00     0.015 C 
ENDBRANCH   4   8
TORSDOF 1
ENDMDL
MODEL 4
REMARK VINA RESULT:      -4.2      2.331      4.344
REMARK  1 active torsions:
REMARK  status: ('A' for Active; 'I' for Inactive)
REMARK    1  A    between atoms: C4_4  and  C10_10 
ROOT
HETATM    1  C1  UNL     1     -35.158  14.736  -3.418  1.00 20.00     0.008 C 
HETATM    2  C2  UNL     1     -35.995  13.915  -4.402  1.00 20.00     0.035 C 
HETATM    3  C3  UNL     1     -34.768  16.616  -5.063  1.00 20.00     0.039 C 
HETATM    4  C4  UNL     1     -35.318  16.242  -3.677  1.00 20.00    -0.005 C 
HETATM    5  C5  UNL     1     -35.839  14.353  -5.821  1.00 20.00     0.151 A 
HETATM    6  C6  UNL     1     -35.268  15.708  -6.142  1.00 20.00     0.151 A 
HETATM    7  O11 UNL     1     -34.494  14.500  -6.279  1.00 20.00    -0.375 OA
ENDROOT
BRANCH   4   8
HETATM    8  C10 UNL     1     -34.618  17.055  -2.590  1.00 20.00    -0.048 C 
HETATM    9  C7  UNL     1     -35.177  16.667  -1.210  1.00 20.00     0.015 C 
HETATM   10  C8  UNL     1     -34.857  18.555  -2.828  1.00 20.00     0.015 C 
HETATM   11  C9  UNL     1     -33.107  16.772  -2.621  1.00 20.00     0.015 C 
ENDBRANCH   4   8
TORSDOF 1
ENDMDL
MODEL 5
REMARK VINA RESULT:      -4.1      1.093      2.254
REMARK  1 active torsions:
REMARK  status: ('A' for Active; 'I' for Inactive)
REMARK    1  A    between atoms: C4_4  and  C10_10 
ROOT
HETATM    1  C1  UNL     1     -33.198  16.366  -2.714  1.00 20.00     0.008 C 
HETATM    2  C2  UNL     1     -33.236  17.675  -1.921  1.00 20.00     0.035 C 
HETATM    3  C3  UNL     1     -35.715  16.167  -2.824  1.00 20.00     0.039 C 
HETATM    4  C4  UNL     1     -34.416  16.244  -3.642  1.00 20.00    -0.005 C 
HETATM    5  C5  UNL     1     -34.563  17.948  -1.295  1.00 20.00     0.151 A 
HETATM    6  C6  UNL     1     -35.795  17.228  -1.773  1.00 20.00     0.151 A 
HETATM    7  O11 UNL     1     -35.128  16.871  -0.546  1.00 20.00    -0.375 OA
ENDROOT
BRANCH   4   8
HETATM    8  C10 UNL     1     -34.284  15.023  -4.550  1.00 20.00    -0.048 C 
HETATM    9  C7  UNL     1     -35.340  13.973  -4.164  1.00 20.00     0.015 C 
HETATM   10  C8  UNL     1     -32.882  14.411  -4.397  1.00 20.00     0.015 C 
HETATM   11  C9  UNL     1     -34.498  15.440  -6.015  1.00 20.00     0.015 C 
ENDBRANCH   4   8
TORSDOF 1
ENDMDL
MODEL 6
REMARK VINA RESULT:      -4.1      2.136      4.058
REMARK  1 active torsions:
REMARK  status: ('A' for Active; 'I' for Inactive)
REMARK    1  A    between atoms: C4_4  and  C10_10 
ROOT
HETATM    1  C1  UNL     1     -35.791  15.818  -3.054  1.00 20.00     0.008 C 
HETATM    2  C2  UNL     1     -36.151  15.053  -4.330  1.00 20.00     0.035 C 
HETATM    3  C3  UNL     1     -33.310  15.786  -3.538  1.00 20.00     0.039 C 
HETATM    4  C4  UNL     1     -34.533  16.675  -3.258  1.00 20.00    -0.005 C 
HETATM    5  C5  UNL     1     -34.985  14.361  -4.954  1.00 20.00     0.151 A 
HETATM    6  C6  UNL     1     -33.579  14.755  -4.588  1.00 20.00     0.151 A 
HETATM    7  O11 UNL     1     -34.197  13.559  -4.072  1.00 20.00    -0.375 OA
ENDROOT
BRANCH   4   8
HETATM    8  C10 UNL     1     -34.279  17.562  -2.041  1.00 20.00    -0.048 C 
HETATM    9  C7  UNL     1     -35.018  16.991  -0.818  1.00 20.00     0.015 C 
HETATM   10  C8  UNL     1     -34.788  18.986  -2.320  1.00 20.00     0.015 C 
HETATM   11  C9  UNL     1     -32.771  17.614  -1.741  1.00 20.00     0.015 C 
ENDBRANCH   4   8
TORSDOF 1
ENDMDL
MODEL 7
REMARK VINA RESULT:      -4.1      1.101      1.873
REMARK  1 active torsions:
REMARK  status: ('A' for Active; 'I' for Inactive)
REMARK    1  A    between atoms: C4_4  and  C10_10 
ROOT
HETATM    1  C1  UNL     1     -33.217  16.344  -2.700  1.00 20.00     0.008 C 
HETATM    2  C2  UNL     1     -33.251  17.648  -1.900  1.00 20.00     0.035 C 
HETATM    3  C3  UNL     1     -35.735  16.163  -2.829  1.00 20.00     0.039 C 
HETATM    4  C4  UNL     1     -34.429  16.236  -3.637  1.00 20.00    -0.005 C 
HETATM    5  C5  UNL     1     -34.581  17.928  -1.281  1.00 20.00     0.151 A 
HETATM    6  C6  UNL     1     -35.815  17.219  -1.772  1.00 20.00     0.151 A 
HETATM    7  O11 UNL     1     -35.159  16.850  -0.543  1.00 20.00    -0.375 OA
ENDROOT
BRANCH   4   8
HETATM    8  C10 UNL     1     -34.300  15.019  -4.551  1.00 20.00    -0.048 C 
HETATM    9  C7  UNL     1     -34.520  15.443  -6.014  1.00 20.00     0.015 C 
HETATM   10  C8  UNL     1     -35.353  13.966  -4.166  1.00 20.00     0.015 C 
HETATM   11  C9  UNL     1     -32.897  14.408  -4.407  1.00 20.00     0.015 C 
ENDBRANCH   4   8
TORSDOF 1
ENDMDL
MODEL 8
REMARK VINA RESULT:      -4.1      2.440      4.473
REMARK  1 active torsions:
REMARK  status: ('A' for Active; 'I' for Inactive)
REMARK    1  A    between atoms: C4_4  and  C10_10 
ROOT
HETATM    1  C1  UNL     1     -36.075  16.476  -4.690  1.00 20.00     0.008 C 
HETATM    2  C2  UNL     1     -36.335  15.603  -5.919  1.00 20.00     0.035 C 
HETATM    3  C3  UNL     1     -35.109  14.573  -3.335  1.00 20.00     0.039 C 
HETATM    4  C4  UNL     1     -34.853  15.979  -3.904  1.00 20.00    -0.005 C 
HETATM    5  C5  UNL     1     -36.302  14.140  -5.622  1.00 20.00     0.151 A 
HETATM    6  C6  UNL     1     -35.658  13.632  -4.361  1.00 20.00     0.151 A 
HETATM    7  O11 UNL     1     -37.090  13.716  -4.508  1.00 20.00    -0.375 OA
ENDROOT
BRANCH   4   8
HETATM    8  C10 UNL     1     -34.500  16.951  -2.780  1.00 20.00    -0.048 C 
HETATM    9  C7  UNL     1     -35.156  16.489  -1.467  1.00 20.00     0.015 C 
HETATM   10  C8  UNL     1     -35.008  18.359  -3.132  1.00 20.00     0.015 C 
HETATM   11  C9  UNL     1     -32.974  16.996  -2.593  1.00 20.00     0.015 C 
ENDBRANCH   4   8
TORSDOF 1
ENDMDL
MODEL 9
REMARK VINA RESULT:      -4.1      2.364      4.582
REMARK  1 active torsions:
REMARK  status: ('A' for Active; 'I' for Inactive)
REMARK    1  A    between atoms: C4_4  and  C10_10 
ROOT
HETATM    1  C1  UNL     1     -34.581  16.406  -5.214  1.00 20.00     0.008 C 
HETATM    2  C2  UNL     1     -34.629  15.323  -6.294  1.00 20.00     0.035 C 
HETATM    3  C3  UNL     1     -35.966  15.069  -3.576  1.00 20.00     0.039 C 
HETATM    4  C4  UNL     1     -34.629  15.791  -3.808  1.00 20.00    -0.005 C 
HETATM    5  C5  UNL     1     -35.697  14.305  -6.063  1.00 20.00     0.151 A 
HETATM    6  C6  UNL     1     -36.327  14.156  -4.705  1.00 20.00     0.151 A 
HETATM    7  O11 UNL     1     -37.000  14.825  -5.791  1.00 20.00    -0.375 OA
ENDROOT
BRANCH   4   8
HETATM    8  C10 UNL     1     -34.409  16.861  -2.741  1.00 20.00    -0.048 C 
HETATM    9  C7  UNL     1     -34.974  18.206  -3.230  1.00 20.00     0.015 C 
HETATM   10  C8  UNL     1     -32.905  17.016  -2.462  1.00 20.00     0.015 C 
HETATM   11  C9  UNL     1     -35.126  16.455  -1.442  1.00 20.00     0.015 C 
ENDBRANCH   4   8
TORSDOF 1
ENDMDL
