MODEL 1
REMARK VINA RESULT:      -5.0      0.000      0.000
REMARK  1 active torsions:
REMARK  status: ('A' for Active; 'I' for Inactive)
REMARK    1  A    between atoms: C2_2  and  C4_4 
REMARK       I    between atoms: C2_2  and  N7_7 
ROOT
HETATM    1  C1  UNL     1     -32.762   7.631   2.001  1.00 20.00     0.166 C 
HETATM    2  C2  UNL     1     -33.410   5.815   3.036  1.00 20.00     0.249 C 
HETATM    3  N7  UNL     1     -32.914   7.101   3.037  1.00 20.00    -0.199 NA
HETATM    4  O8  UNL     1     -32.918   4.824   2.508  1.00 20.00    -0.271 OA
HETATM    5  S9  UNL     1     -32.543   8.383   0.613  1.00 20.00    -0.055 SA
ENDROOT
BRANCH   2   6
HETATM    6  C4  UNL     1     -34.677   5.673   3.763  1.00 20.00     0.084 A 
HETATM    7  C3  UNL     1     -34.792   4.638   4.853  1.00 20.00     0.019 A 
HETATM    8  C5  UNL     1     -34.796   6.098   5.208  1.00 20.00    -0.005 A 
HETATM    9  C6  UNL     1     -33.649   6.687   5.957  1.00 20.00     0.011 C 
ENDBRANCH   2   6
TORSDOF 1
ENDMDL
MODEL 2
REMARK VINA RESULT:      -4.8     11.615     12.289
REMARK  1 active torsions:
REMARK  status: ('A' for Active; 'I' for Inactive)
REMARK    1  A    between atoms: C2_2  and  C4_4 
REMARK       I    between atoms: C2_2  and  N7_7 
ROOT
HETATM    1  C1  UNL     1     -36.191  15.025  -6.759  1.00 20.00     0.166 C 
HETATM    2  C2  UNL     1     -36.226  13.872  -4.899  1.00 20.00     0.249 C 
HETATM    3  N7  UNL     1     -35.786  14.083  -6.188  1.00 20.00    -0.199 NA
HETATM    4  O8  UNL     1     -37.381  13.707  -4.520  1.00 20.00    -0.271 OA
HETATM    5  S9  UNL     1     -36.719  16.295  -7.564  1.00 20.00    -0.055 SA
ENDROOT
BRANCH   2   6
HETATM    6  C4  UNL     1     -35.147  13.854  -3.905  1.00 20.00     0.084 A 
HETATM    7  C3  UNL     1     -33.850  14.561  -4.208  1.00 20.00     0.019 A 
HETATM    8  C5  UNL     1     -34.766  15.106  -3.149  1.00 20.00    -0.005 A 
HETATM    9  C6  UNL     1     -35.465  16.405  -3.363  1.00 20.00     0.011 C 
ENDBRANCH   2   6
TORSDOF 1
ENDMDL
MODEL 3
REMARK VINA RESULT:      -4.6     15.886     16.757
REMARK  1 active torsions:
REMARK  status: ('A' for Active; 'I' for Inactive)
REMARK    1  A    between atoms: C2_2  and  C4_4 
REMARK       I    between atoms: C2_2  and  N7_7 
ROOT
HETATM    1  C1  UNL     1     -23.969  18.918   8.702  1.00 20.00     0.166 C 
HETATM    2  C2  UNL     1     -22.544  17.578   9.684  1.00 20.00     0.249 C 
HETATM    3  N7  UNL     1     -22.969  18.835   9.312  1.00 20.00    -0.199 NA
HETATM    4  O8  UNL     1     -22.271  16.633   8.951  1.00 20.00    -0.271 OA
HETATM    5  S9  UNL     1     -25.323  19.069   7.875  1.00 20.00    -0.055 SA
ENDROOT
BRANCH   2   6
HETATM    6  C4  UNL     1     -22.422  17.404  11.136  1.00 20.00     0.084 A 
HETATM    7  C3  UNL     1     -23.368  18.139  12.052  1.00 20.00     0.019 A 
HETATM    8  C5  UNL     1     -23.468  16.646  11.919  1.00 20.00    -0.005 A 
HETATM    9  C6  UNL     1     -24.659  16.034  11.263  1.00 20.00     0.011 C 
ENDBRANCH   2   6
TORSDOF 1
ENDMDL
MODEL 4
REMARK VINA RESULT:      -4.5     11.626     12.107
REMARK  1 active torsions:
REMARK  status: ('A' for Active; 'I' for Inactive)
REMARK    1  A    between atoms: C2_2  and  C4_4 
REMARK       I    between atoms: C2_2  and  N7_7 
ROOT
HETATM    1  C1  UNL     1     -37.652  15.079  -4.867  1.00 20.00     0.166 C 
HETATM    2  C2  UNL     1     -35.821  13.884  -4.765  1.00 20.00     0.249 C 
HETATM    3  N7  UNL     1     -36.685  14.726  -5.432  1.00 20.00    -0.199 NA
HETATM    4  O8  UNL     1     -36.063  12.770  -4.312  1.00 20.00    -0.271 OA
HETATM    5  S9  UNL     1     -38.974  15.579  -4.131  1.00 20.00    -0.055 SA
ENDROOT
BRANCH   2   6
HETATM    6  C4  UNL     1     -34.470  14.434  -4.606  1.00 20.00     0.084 A 
HETATM    7  C3  UNL     1     -34.241  15.908  -4.825  1.00 20.00     0.019 A 
HETATM    8  C5  UNL     1     -34.130  15.334  -3.441  1.00 20.00    -0.005 A 
HETATM    9  C6  UNL     1     -35.134  15.696  -2.400  1.00 20.00     0.011 C 
ENDBRANCH   2   6
TORSDOF 1
ENDMDL
MODEL 5
REMARK VINA RESULT:      -4.4     11.730     12.189
REMARK  1 active torsions:
REMARK  status: ('A' for Active; 'I' for Inactive)
REMARK    1  A    between atoms: C2_2  and  C4_4 
REMARK       I    between atoms: C2_2  and  N7_7 
ROOT
HETATM    1  C1  UNL     1     -34.635  14.984  -6.405  1.00 20.00     0.166 C 
HETATM    2  C2  UNL     1     -33.998  14.363  -4.405  1.00 20.00     0.249 C 
HETATM    3  N7  UNL     1     -33.726  14.745  -5.701  1.00 20.00    -0.199 NA
HETATM    4  O8  UNL     1     -34.648  13.391  -4.032  1.00 20.00    -0.271 OA
HETATM    5  S9  UNL     1     -35.844  15.317  -7.388  1.00 20.00    -0.055 SA
ENDROOT
BRANCH   2   6
HETATM    6  C4  UNL     1     -33.421  15.257  -3.395  1.00 20.00     0.084 A 
HETATM    7  C3  UNL     1     -33.367  16.740  -3.663  1.00 20.00     0.019 A 
HETATM    8  C5  UNL     1     -34.294  16.206  -2.608  1.00 20.00    -0.005 A 
HETATM    9  C6  UNL     1     -35.770  16.276  -2.808  1.00 20.00     0.011 C 
ENDBRANCH   2   6
TORSDOF 1
ENDMDL
MODEL 6
REMARK VINA RESULT:      -4.3     11.926     12.540
REMARK  1 active torsions:
REMARK  status: ('A' for Active; 'I' for Inactive)
REMARK    1  A    between atoms: C2_2  and  C4_4 
REMARK       I    between atoms: C2_2  and  N7_7 
ROOT
HETATM    1  C1  UNL     1     -37.470  16.301  -5.549  1.00 20.00     0.166 C 
HETATM    2  C2  UNL     1     -36.780  14.336  -4.876  1.00 20.00     0.249 C 
HETATM    3  N7  UNL     1     -36.900  15.317  -5.838  1.00 20.00    -0.199 NA
HETATM    4  O8  UNL     1     -37.684  13.741  -4.299  1.00 20.00    -0.271 OA
HETATM    5  S9  UNL     1     -38.238  17.652  -5.193  1.00 20.00    -0.055 SA
ENDROOT
BRANCH   2   6
HETATM    6  C4  UNL     1     -35.390  14.007  -4.542  1.00 20.00     0.084 A 
HETATM    7  C3  UNL     1     -34.294  14.982  -4.889  1.00 20.00     0.019 A 
HETATM    8  C5  UNL     1     -34.657  14.749  -3.450  1.00 20.00    -0.005 A 
HETATM    9  C6  UNL     1     -35.302  15.835  -2.658  1.00 20.00     0.011 C 
ENDBRANCH   2   6
TORSDOF 1
ENDMDL
MODEL 7
REMARK VINA RESULT:      -4.3     11.123     12.245
REMARK  1 active torsions:
REMARK  status: ('A' for Active; 'I' for Inactive)
REMARK    1  A    between atoms: C2_2  and  C4_4 
REMARK       I    between atoms: C2_2  and  N7_7 
ROOT
HETATM    1  C1  UNL     1     -34.447  15.743  -3.012  1.00 20.00     0.166 C 
HETATM    2  C2  UNL     1     -35.238  14.014  -4.097  1.00 20.00     0.249 C 
HETATM    3  N7  UNL     1     -35.388  15.076  -3.230  1.00 20.00    -0.199 NA
HETATM    4  O8  UNL     1     -34.484  13.054  -3.980  1.00 20.00    -0.271 OA
HETATM    5  S9  UNL     1     -33.191  16.670  -2.693  1.00 20.00    -0.055 SA
ENDROOT
BRANCH   2   6
HETATM    6  C4  UNL     1     -36.105  14.092  -5.278  1.00 20.00     0.084 A 
HETATM    7  C3  UNL     1     -36.574  15.440  -5.764  1.00 20.00     0.019 A 
HETATM    8  C5  UNL     1     -35.591  14.653  -6.583  1.00 20.00    -0.005 A 
HETATM    9  C6  UNL     1     -34.191  15.140  -6.739  1.00 20.00     0.011 C 
ENDBRANCH   2   6
TORSDOF 1
ENDMDL
MODEL 8
REMARK VINA RESULT:      -4.1     11.558     12.399
REMARK  1 active torsions:
REMARK  status: ('A' for Active; 'I' for Inactive)
REMARK    1  A    between atoms: C2_2  and  C4_4 
REMARK       I    between atoms: C2_2  and  N7_7 
ROOT
HETATM    1  C1  UNL     1     -38.203  15.001  -4.667  1.00 20.00     0.166 C 
HETATM    2  C2  UNL     1     -36.202  14.116  -4.593  1.00 20.00     0.249 C 
HETATM    3  N7  UNL     1     -37.136  14.959  -5.156  1.00 20.00    -0.199 NA
HETATM    4  O8  UNL     1     -36.279  12.899  -4.457  1.00 20.00    -0.271 OA
HETATM    5  S9  UNL     1     -39.661  15.085  -4.029  1.00 20.00    -0.055 SA
ENDROOT
BRANCH   2   6
HETATM    6  C4  UNL     1     -34.998  14.806  -4.115  1.00 20.00     0.084 A 
HETATM    7  C3  UNL     1     -33.676  14.082  -4.130  1.00 20.00     0.019 A 
HETATM    8  C5  UNL     1     -33.910  15.224  -5.076  1.00 20.00    -0.005 A 
HETATM    9  C6  UNL     1     -34.008  14.971  -6.542  1.00 20.00     0.011 C 
ENDBRANCH   2   6
TORSDOF 1
ENDMDL
MODEL 9
REMARK VINA RESULT:      -4.1     11.881     12.748
REMARK  1 active torsions:
REMARK  status: ('A' for Active; 'I' for Inactive)
REMARK    1  A    between atoms: C2_2  and  C4_4 
REMARK       I    between atoms: C2_2  and  N7_7 
ROOT
HETATM    1  C1  UNL     1     -35.390  16.929  -6.144  1.00 20.00     0.166 C 
HETATM    2  C2  UNL     1     -33.964  15.337  -5.671  1.00 20.00     0.249 C 
HETATM    3  N7  UNL     1     -34.391  16.646  -5.595  1.00 20.00    -0.199 NA
HETATM    4  O8  UNL     1     -33.688  14.698  -6.680  1.00 20.00    -0.271 OA
HETATM    5  S9  UNL     1     -36.741  17.351  -6.875  1.00 20.00    -0.055 SA
ENDROOT
BRANCH   2   6
HETATM    6  C4  UNL     1     -33.846  14.681  -4.364  1.00 20.00     0.084 A 
HETATM    7  C3  UNL     1     -34.643  15.206  -3.197  1.00 20.00     0.019 A 
HETATM    8  C5  UNL     1     -34.987  13.871  -3.795  1.00 20.00    -0.005 A 
HETATM    9  C6  UNL     1     -36.273  13.690  -4.527  1.00 20.00     0.011 C 
ENDBRANCH   2   6
TORSDOF 1
ENDMDL
