MODEL 1
REMARK VINA RESULT:      -4.5      0.000      0.000
REMARK  2 active torsions:
REMARK  status: ('A' for Active; 'I' for Inactive)
REMARK    1  A    between atoms: C1_1  and  C5_5 
REMARK    2  A    between atoms: C4_4  and  C5_5 
ROOT
HETATM    1  C5  UNL     1     -33.337   6.019   3.310  1.00 20.00     0.101 C 
ENDROOT
BRANCH   1   2
HETATM    2  C1  UNL     1     -32.399   7.165   2.970  1.00 20.00     0.219 C 
HETATM    3  O6  UNL     1     -31.555   7.587   3.754  1.00 20.00    -0.280 OA
HETATM    4 CL7  UNL     1     -32.682   7.779   1.364  1.00 20.00    -0.044 Cl
ENDBRANCH   1   2
BRANCH   1   5
HETATM    5  C4  UNL     1     -34.369   6.368   4.325  1.00 20.00    -0.006 A 
HETATM    6  C2  UNL     1     -34.857   5.329   5.297  1.00 20.00     0.005 A 
HETATM    7  C3  UNL     1     -33.998   6.465   5.779  1.00 20.00     0.005 A 
ENDBRANCH   1   5
TORSDOF 2
ENDMDL
MODEL 2
REMARK VINA RESULT:      -4.5      2.956      3.834
REMARK  2 active torsions:
REMARK  status: ('A' for Active; 'I' for Inactive)
REMARK    1  A    between atoms: C1_1  and  C5_5 
REMARK    2  A    between atoms: C4_4  and  C5_5 
ROOT
HETATM    1  C5  UNL     1     -34.245   6.274   3.645  1.00 20.00     0.101 C 
ENDROOT
BRANCH   1   2
HETATM    2  C1  UNL     1     -34.469   5.012   4.460  1.00 20.00     0.219 C 
HETATM    3  O6  UNL     1     -34.411   3.888   3.971  1.00 20.00    -0.280 OA
HETATM    4 CL7  UNL     1     -34.808   5.371   6.131  1.00 20.00    -0.044 Cl
ENDBRANCH   1   2
BRANCH   1   5
HETATM    5  C4  UNL     1     -32.938   6.307   2.933  1.00 20.00    -0.006 A 
HETATM    6  C2  UNL     1     -32.636   7.408   1.953  1.00 20.00     0.005 A 
HETATM    7  C3  UNL     1     -31.918   7.358   3.273  1.00 20.00     0.005 A 
ENDBRANCH   1   5
TORSDOF 2
ENDMDL
MODEL 3
REMARK VINA RESULT:      -4.4      1.611      1.777
REMARK  2 active torsions:
REMARK  status: ('A' for Active; 'I' for Inactive)
REMARK    1  A    between atoms: C1_1  and  C5_5 
REMARK    2  A    between atoms: C4_4  and  C5_5 
ROOT
HETATM    1  C5  UNL     1     -33.591   6.762   3.957  1.00 20.00     0.101 C 
ENDROOT
BRANCH   1   2
HETATM    2  C1  UNL     1     -32.899   6.462   2.639  1.00 20.00     0.219 C 
HETATM    3  O6  UNL     1     -32.348   7.328   1.967  1.00 20.00    -0.280 OA
HETATM    4 CL7  UNL     1     -32.996   4.772   2.227  1.00 20.00    -0.044 Cl
ENDBRANCH   1   2
BRANCH   1   5
HETATM    5  C4  UNL     1     -33.961   5.545   4.733  1.00 20.00    -0.006 A 
HETATM    6  C2  UNL     1     -34.724   5.672   6.023  1.00 20.00     0.005 A 
HETATM    7  C3  UNL     1     -35.396   5.102   4.805  1.00 20.00     0.005 A 
ENDBRANCH   1   5
TORSDOF 2
ENDMDL
MODEL 4
REMARK VINA RESULT:      -4.3      1.414      1.433
REMARK  2 active torsions:
REMARK  status: ('A' for Active; 'I' for Inactive)
REMARK    1  A    between atoms: C1_1  and  C5_5 
REMARK    2  A    between atoms: C4_4  and  C5_5 
ROOT
HETATM    1  C5  UNL     1     -33.227   6.663   4.094  1.00 20.00     0.101 C 
ENDROOT
BRANCH   1   2
HETATM    2  C1  UNL     1     -32.938   6.276   2.654  1.00 20.00     0.219 C 
HETATM    3  O6  UNL     1     -32.985   5.117   2.256  1.00 20.00    -0.280 OA
HETATM    4 CL7  UNL     1     -32.542   7.665   1.678  1.00 20.00    -0.044 Cl
ENDBRANCH   1   2
BRANCH   1   5
HETATM    5  C4  UNL     1     -34.541   6.174   4.596  1.00 20.00    -0.006 A 
HETATM    6  C2  UNL     1     -34.717   4.730   4.978  1.00 20.00     0.005 A 
HETATM    7  C3  UNL     1     -34.704   5.793   6.041  1.00 20.00     0.005 A 
ENDBRANCH   1   5
TORSDOF 2
ENDMDL
MODEL 5
REMARK VINA RESULT:      -4.1     11.314     11.628
REMARK  2 active torsions:
REMARK  status: ('A' for Active; 'I' for Inactive)
REMARK    1  A    between atoms: C1_1  and  C5_5 
REMARK    2  A    between atoms: C4_4  and  C5_5 
ROOT
HETATM    1  C5  UNL     1     -35.069  14.858  -4.498  1.00 20.00     0.101 C 
ENDROOT
BRANCH   1   2
HETATM    2  C1  UNL     1     -36.121  13.763  -4.466  1.00 20.00     0.219 C 
HETATM    3  O6  UNL     1     -35.840  12.571  -4.525  1.00 20.00    -0.280 OA
HETATM    4 CL7  UNL     1     -37.732  14.417  -4.340  1.00 20.00    -0.044 Cl
ENDBRANCH   1   2
BRANCH   1   5
HETATM    5  C4  UNL     1     -34.356  15.045  -3.204  1.00 20.00    -0.006 A 
HETATM    6  C2  UNL     1     -33.593  16.313  -2.935  1.00 20.00     0.005 A 
HETATM    7  C3  UNL     1     -34.870  16.032  -2.193  1.00 20.00     0.005 A 
ENDBRANCH   1   5
TORSDOF 2
ENDMDL
MODEL 6
REMARK VINA RESULT:      -3.9      2.827      3.700
REMARK  2 active torsions:
REMARK  status: ('A' for Active; 'I' for Inactive)
REMARK    1  A    between atoms: C1_1  and  C5_5 
REMARK    2  A    between atoms: C4_4  and  C5_5 
ROOT
HETATM    1  C5  UNL     1     -34.721   5.339   4.109  1.00 20.00     0.101 C 
ENDROOT
BRANCH   1   2
HETATM    2  C1  UNL     1     -34.649   5.629   5.598  1.00 20.00     0.219 C 
HETATM    3  O6  UNL     1     -35.169   4.906   6.440  1.00 20.00    -0.280 OA
HETATM    4 CL7  UNL     1     -33.753   7.086   5.931  1.00 20.00    -0.044 Cl
ENDBRANCH   1   2
BRANCH   1   5
HETATM    5  C4  UNL     1     -33.389   5.204   3.457  1.00 20.00    -0.006 A 
HETATM    6  C2  UNL     1     -33.291   4.930   1.981  1.00 20.00     0.005 A 
HETATM    7  C3  UNL     1     -32.892   6.274   2.524  1.00 20.00     0.005 A 
ENDBRANCH   1   5
TORSDOF 2
ENDMDL
MODEL 7
REMARK VINA RESULT:      -3.9     11.450     11.811
REMARK  2 active torsions:
REMARK  status: ('A' for Active; 'I' for Inactive)
REMARK    1  A    between atoms: C1_1  and  C5_5 
REMARK    2  A    between atoms: C4_4  and  C5_5 
ROOT
HETATM    1  C5  UNL     1     -35.190  14.231  -3.760  1.00 20.00     0.101 C 
ENDROOT
BRANCH   1   2
HETATM    2  C1  UNL     1     -36.287  14.008  -4.786  1.00 20.00     0.219 C 
HETATM    3  O6  UNL     1     -37.400  13.588  -4.487  1.00 20.00    -0.280 OA
HETATM    4 CL7  UNL     1     -35.760  14.417  -6.396  1.00 20.00    -0.044 Cl
ENDBRANCH   1   2
BRANCH   1   5
HETATM    5  C4  UNL     1     -34.975  15.663  -3.411  1.00 20.00    -0.006 A 
HETATM    6  C2  UNL     1     -34.939  16.094  -1.970  1.00 20.00     0.005 A 
HETATM    7  C3  UNL     1     -33.679  16.103  -2.789  1.00 20.00     0.005 A 
ENDBRANCH   1   5
TORSDOF 2
ENDMDL
MODEL 8
REMARK VINA RESULT:      -3.9      2.474      4.073
REMARK  2 active torsions:
REMARK  status: ('A' for Active; 'I' for Inactive)
REMARK    1  A    between atoms: C1_1  and  C5_5 
REMARK    2  A    between atoms: C4_4  and  C5_5 
ROOT
HETATM    1  C5  UNL     1     -32.371   7.341   2.164  1.00 20.00     0.101 C 
ENDROOT
BRANCH   1   2
HETATM    2  C1  UNL     1     -33.113   6.384   3.082  1.00 20.00     0.219 C 
HETATM    3  O6  UNL     1     -33.601   6.736   4.150  1.00 20.00    -0.280 OA
HETATM    4 CL7  UNL     1     -33.169   4.771   2.426  1.00 20.00    -0.044 Cl
ENDBRANCH   1   2
BRANCH   1   5
HETATM    5  C4  UNL     1     -33.262   8.112   1.253  1.00 20.00    -0.006 A 
HETATM    6  C2  UNL     1     -32.871   9.493   0.801  1.00 20.00     0.005 A 
HETATM    7  C3  UNL     1     -32.858   8.350  -0.176  1.00 20.00     0.005 A 
ENDBRANCH   1   5
TORSDOF 2
ENDMDL
MODEL 9
REMARK VINA RESULT:      -3.8     11.410     11.791
REMARK  2 active torsions:
REMARK  status: ('A' for Active; 'I' for Inactive)
REMARK    1  A    between atoms: C1_1  and  C5_5 
REMARK    2  A    between atoms: C4_4  and  C5_5 
ROOT
HETATM    1  C5  UNL     1     -35.923  15.068  -3.878  1.00 20.00     0.101 C 
ENDROOT
BRANCH   1   2
HETATM    2  C1  UNL     1     -35.894  13.920  -4.871  1.00 20.00     0.219 C 
HETATM    3  O6  UNL     1     -35.988  12.745  -4.530  1.00 20.00    -0.280 OA
HETATM    4 CL7  UNL     1     -35.712  14.485  -6.509  1.00 20.00    -0.044 Cl
ENDBRANCH   1   2
BRANCH   1   5
HETATM    5  C4  UNL     1     -34.710  15.151  -3.017  1.00 20.00    -0.006 A 
HETATM    6  C2  UNL     1     -33.668  16.205  -3.274  1.00 20.00     0.005 A 
HETATM    7  C3  UNL     1     -34.542  16.293  -2.054  1.00 20.00     0.005 A 
ENDBRANCH   1   5
TORSDOF 2
ENDMDL
