MODEL 1
REMARK VINA RESULT:      -4.6      0.000      0.000
REMARK  2 active torsions:
REMARK  status: ('A' for Active; 'I' for Inactive)
REMARK    1  A    between atoms: C4_4  and  C11_11 
REMARK    2  A    between atoms: C10_10  and  C11_11 
ROOT
HETATM    1  C1  UNL     1     -33.174  17.007  -2.692  1.00 20.00     0.008 C 
HETATM    2  C2  UNL     1     -33.091  17.705  -1.335  1.00 20.00     0.035 C 
HETATM    3  C3  UNL     1     -35.630  16.477  -2.467  1.00 20.00     0.040 C 
HETATM    4  C4  UNL     1     -34.227  15.889  -2.687  1.00 20.00    -0.004 C 
HETATM    5  C5  UNL     1     -34.437  18.094  -0.810  1.00 20.00     0.151 A 
HETATM    6  C6  UNL     1     -35.693  17.459  -1.342  1.00 20.00     0.151 A 
HETATM    7  O12 UNL     1     -35.109  17.027  -0.111  1.00 20.00    -0.375 OA
ENDROOT
BRANCH   4   8
HETATM    8  C11 UNL     1     -34.181  15.094  -3.991  1.00 20.00    -0.044 C 
HETATM    9  C8  UNL     1     -34.693  15.984  -5.141  1.00 20.00     0.015 C 
HETATM   10  C9  UNL     1     -32.719  14.697  -4.284  1.00 20.00     0.015 C 
BRANCH   8  11
HETATM   11  C10 UNL     1     -35.073  13.829  -3.835  1.00 20.00     0.004 C 
HETATM   12  C7  UNL     1     -36.268  13.727  -4.774  1.00 20.00     0.006 C 
ENDBRANCH   8  11
ENDBRANCH   4   8
TORSDOF 2
ENDMDL
MODEL 2
REMARK VINA RESULT:      -4.6      0.969      1.743
REMARK  2 active torsions:
REMARK  status: ('A' for Active; 'I' for Inactive)
REMARK    1  A    between atoms: C4_4  and  C11_11 
REMARK    2  A    between atoms: C10_10  and  C11_11 
ROOT
HETATM    1  C1  UNL     1     -35.047  15.893  -2.050  1.00 20.00     0.008 C 
HETATM    2  C2  UNL     1     -35.278  17.077  -1.110  1.00 20.00     0.035 C 
HETATM    3  C3  UNL     1     -32.846  16.777  -2.908  1.00 20.00     0.040 C 
HETATM    4  C4  UNL     1     -34.257  16.311  -3.299  1.00 20.00    -0.004 C 
HETATM    5  C5  UNL     1     -34.024  17.849  -0.848  1.00 20.00     0.151 A 
HETATM    6  C6  UNL     1     -32.832  17.732  -1.759  1.00 20.00     0.151 A 
HETATM    7  O12 UNL     1     -33.736  18.835  -1.860  1.00 20.00    -0.375 OA
ENDROOT
BRANCH   4   8
HETATM    8  C11 UNL     1     -34.181  15.162  -4.303  1.00 20.00    -0.044 C 
HETATM    9  C8  UNL     1     -34.551  15.692  -5.702  1.00 20.00     0.015 C 
HETATM   10  C9  UNL     1     -32.736  14.624  -4.341  1.00 20.00     0.015 C 
BRANCH   8  11
HETATM   11  C10 UNL     1     -35.171  14.047  -3.859  1.00 20.00     0.004 C 
HETATM   12  C7  UNL     1     -36.333  13.762  -4.801  1.00 20.00     0.006 C 
ENDBRANCH   8  11
ENDBRANCH   4   8
TORSDOF 2
ENDMDL
MODEL 3
REMARK VINA RESULT:      -4.6      1.870      4.573
REMARK  2 active torsions:
REMARK  status: ('A' for Active; 'I' for Inactive)
REMARK    1  A    between atoms: C4_4  and  C11_11 
REMARK    2  A    between atoms: C10_10  and  C11_11 
ROOT
HETATM    1  C1  UNL     1     -36.296  16.039  -3.423  1.00 20.00     0.008 C 
HETATM    2  C2  UNL     1     -36.685  14.720  -4.091  1.00 20.00     0.035 C 
HETATM    3  C3  UNL     1     -33.826  15.527  -3.449  1.00 20.00     0.040 C 
HETATM    4  C4  UNL     1     -35.032  15.884  -2.565  1.00 20.00    -0.004 C 
HETATM    5  C5  UNL     1     -35.526  14.060  -4.769  1.00 20.00     0.151 A 
HETATM    6  C6  UNL     1     -34.109  14.431  -4.425  1.00 20.00     0.151 A 
HETATM    7  O12 UNL     1     -34.721  13.261  -3.880  1.00 20.00    -0.375 OA
ENDROOT
BRANCH   4   8
HETATM    8  C11 UNL     1     -34.753  17.162  -1.774  1.00 20.00    -0.044 C 
HETATM    9  C8  UNL     1     -35.515  18.332  -2.426  1.00 20.00     0.015 C 
HETATM   10  C9  UNL     1     -35.265  16.979  -0.330  1.00 20.00     0.015 C 
BRANCH   8  11
HETATM   11  C10 UNL     1     -33.221  17.430  -1.784  1.00 20.00     0.004 C 
HETATM   12  C7  UNL     1     -32.680  18.293  -0.651  1.00 20.00     0.006 C 
ENDBRANCH   8  11
ENDBRANCH   4   8
TORSDOF 2
ENDMDL
MODEL 4
REMARK VINA RESULT:      -4.6      1.204      2.419
REMARK  2 active torsions:
REMARK  status: ('A' for Active; 'I' for Inactive)
REMARK    1  A    between atoms: C4_4  and  C11_11 
REMARK    2  A    between atoms: C10_10  and  C11_11 
ROOT
HETATM    1  C1  UNL     1     -35.071  15.819  -2.142  1.00 20.00     0.008 C 
HETATM    2  C2  UNL     1     -35.251  16.987  -1.172  1.00 20.00     0.035 C 
HETATM    3  C3  UNL     1     -32.901  16.702  -3.078  1.00 20.00     0.040 C 
HETATM    4  C4  UNL     1     -34.332  16.254  -3.416  1.00 20.00    -0.004 C 
HETATM    5  C5  UNL     1     -33.982  17.745  -0.950  1.00 20.00     0.151 A 
HETATM    6  C6  UNL     1     -32.831  17.636  -1.913  1.00 20.00     0.151 A 
HETATM    7  O12 UNL     1     -33.729  18.747  -1.956  1.00 20.00    -0.375 OA
ENDROOT
BRANCH   4   8
HETATM    8  C11 UNL     1     -34.308  15.123  -4.443  1.00 20.00    -0.044 C 
HETATM    9  C8  UNL     1     -32.914  14.465  -4.434  1.00 20.00     0.015 C 
HETATM   10  C9  UNL     1     -35.359  14.065  -4.048  1.00 20.00     0.015 C 
BRANCH   8  11
HETATM   11  C10 UNL     1     -34.627  15.716  -5.845  1.00 20.00     0.004 C 
HETATM   12  C7  UNL     1     -33.890  15.094  -7.024  1.00 20.00     0.006 C 
ENDBRANCH   8  11
ENDBRANCH   4   8
TORSDOF 2
ENDMDL
MODEL 5
REMARK VINA RESULT:      -4.6      1.863      4.569
REMARK  2 active torsions:
REMARK  status: ('A' for Active; 'I' for Inactive)
REMARK    1  A    between atoms: C4_4  and  C11_11 
REMARK    2  A    between atoms: C10_10  and  C11_11 
ROOT
HETATM    1  C1  UNL     1     -36.261  16.052  -3.397  1.00 20.00     0.008 C 
HETATM    2  C2  UNL     1     -36.626  14.733  -4.078  1.00 20.00     0.035 C 
HETATM    3  C3  UNL     1     -33.782  15.586  -3.427  1.00 20.00     0.040 C 
HETATM    4  C4  UNL     1     -34.994  15.912  -2.540  1.00 20.00    -0.004 C 
HETATM    5  C5  UNL     1     -35.455  14.101  -4.762  1.00 20.00     0.151 A 
HETATM    6  C6  UNL     1     -34.045  14.495  -4.414  1.00 20.00     0.151 A 
HETATM    7  O12 UNL     1     -34.636  13.308  -3.881  1.00 20.00    -0.375 OA
ENDROOT
BRANCH   4   8
HETATM    8  C11 UNL     1     -34.739  17.186  -1.736  1.00 20.00    -0.044 C 
HETATM    9  C8  UNL     1     -33.223  17.457  -1.691  1.00 20.00     0.015 C 
HETATM   10  C9  UNL     1     -35.435  18.370  -2.438  1.00 20.00     0.015 C 
BRANCH   8  11
HETATM   11  C10 UNL     1     -35.305  16.990  -0.300  1.00 20.00     0.004 C 
HETATM   12  C7  UNL     1     -34.640  17.803   0.803  1.00 20.00     0.006 C 
ENDBRANCH   8  11
ENDBRANCH   4   8
TORSDOF 2
ENDMDL
MODEL 6
REMARK VINA RESULT:      -4.4      1.986      4.425
REMARK  2 active torsions:
REMARK  status: ('A' for Active; 'I' for Inactive)
REMARK    1  A    between atoms: C4_4  and  C11_11 
REMARK    2  A    between atoms: C10_10  and  C11_11 
ROOT
HETATM    1  C1  UNL     1     -36.127  15.887  -3.384  1.00 20.00     0.008 C 
HETATM    2  C2  UNL     1     -36.456  14.533  -4.013  1.00 20.00     0.035 C 
HETATM    3  C3  UNL     1     -33.631  15.554  -3.546  1.00 20.00     0.040 C 
HETATM    4  C4  UNL     1     -34.808  15.838  -2.599  1.00 20.00    -0.004 C 
HETATM    5  C5  UNL     1     -35.293  13.948  -4.748  1.00 20.00     0.151 A 
HETATM    6  C6  UNL     1     -33.889  14.425  -4.491  1.00 20.00     0.151 A 
HETATM    7  O12 UNL     1     -34.382  13.222  -3.897  1.00 20.00    -0.375 OA
ENDROOT
BRANCH   4   8
HETATM    8  C11 UNL     1     -34.579  17.145  -1.841  1.00 20.00    -0.044 C 
HETATM    9  C8  UNL     1     -35.182  17.018  -0.428  1.00 20.00     0.015 C 
HETATM   10  C9  UNL     1     -33.062  17.392  -1.714  1.00 20.00     0.015 C 
BRANCH   8  11
HETATM   11  C10 UNL     1     -35.260  18.302  -2.627  1.00 20.00     0.004 C 
HETATM   12  C7  UNL     1     -34.329  19.263  -3.354  1.00 20.00     0.006 C 
ENDBRANCH   8  11
ENDBRANCH   4   8
TORSDOF 2
ENDMDL
MODEL 7
REMARK VINA RESULT:      -4.3      2.208      4.532
REMARK  2 active torsions:
REMARK  status: ('A' for Active; 'I' for Inactive)
REMARK    1  A    between atoms: C4_4  and  C11_11 
REMARK    2  A    between atoms: C10_10  and  C11_11 
ROOT
HETATM    1  C1  UNL     1     -35.683  15.163  -3.368  1.00 20.00     0.008 C 
HETATM    2  C2  UNL     1     -35.714  14.003  -4.363  1.00 20.00     0.035 C 
HETATM    3  C3  UNL     1     -34.450  16.706  -4.937  1.00 20.00     0.040 C 
HETATM    4  C4  UNL     1     -34.430  16.032  -3.556  1.00 20.00    -0.004 C 
HETATM    5  C5  UNL     1     -35.446  14.446  -5.765  1.00 20.00     0.151 A 
HETATM    6  C6  UNL     1     -34.785  15.767  -6.051  1.00 20.00     0.151 A 
HETATM    7  O12 UNL     1     -34.042  14.547  -6.076  1.00 20.00    -0.375 OA
ENDROOT
BRANCH   4   8
HETATM    8  C11 UNL     1     -34.328  17.083  -2.451  1.00 20.00    -0.044 C 
HETATM    9  C8  UNL     1     -32.842  17.318  -2.117  1.00 20.00     0.015 C 
HETATM   10  C9  UNL     1     -34.939  18.405  -2.958  1.00 20.00     0.015 C 
BRANCH   8  11
HETATM   11  C10 UNL     1     -35.097  16.567  -1.201  1.00 20.00     0.004 C 
HETATM   12  C7  UNL     1     -35.783  17.625  -0.347  1.00 20.00     0.006 C 
ENDBRANCH   8  11
ENDBRANCH   4   8
TORSDOF 2
ENDMDL
MODEL 8
REMARK VINA RESULT:      -4.3      2.022      4.508
REMARK  2 active torsions:
REMARK  status: ('A' for Active; 'I' for Inactive)
REMARK    1  A    between atoms: C4_4  and  C11_11 
REMARK    2  A    between atoms: C10_10  and  C11_11 
ROOT
HETATM    1  C1  UNL     1     -35.674  16.521  -4.801  1.00 20.00     0.008 C 
HETATM    2  C2  UNL     1     -36.641  15.655  -5.609  1.00 20.00     0.035 C 
HETATM    3  C3  UNL     1     -34.858  14.598  -3.387  1.00 20.00     0.040 C 
HETATM    4  C4  UNL     1     -35.507  15.991  -3.369  1.00 20.00    -0.004 C 
HETATM    5  C5  UNL     1     -36.332  14.197  -5.497  1.00 20.00     0.151 A 
HETATM    6  C6  UNL     1     -35.481  13.665  -4.375  1.00 20.00     0.151 A 
HETATM    7  O12 UNL     1     -36.906  13.577  -4.329  1.00 20.00    -0.375 OA
ENDROOT
BRANCH   4   8
HETATM    8  C11 UNL     1     -34.674  16.957  -2.528  1.00 20.00    -0.044 C 
HETATM    9  C8  UNL     1     -33.182  16.598  -2.680  1.00 20.00     0.015 C 
HETATM   10  C9  UNL     1     -34.895  18.393  -3.046  1.00 20.00     0.015 C 
BRANCH   8  11
HETATM   11  C10 UNL     1     -35.119  16.834  -1.042  1.00 20.00     0.004 C 
HETATM   12  C7  UNL     1     -34.524  17.848  -0.074  1.00 20.00     0.006 C 
ENDBRANCH   8  11
ENDBRANCH   4   8
TORSDOF 2
ENDMDL
MODEL 9
REMARK VINA RESULT:      -4.2      2.233      4.611
REMARK  2 active torsions:
REMARK  status: ('A' for Active; 'I' for Inactive)
REMARK    1  A    between atoms: C4_4  and  C11_11 
REMARK    2  A    between atoms: C10_10  and  C11_11 
ROOT
HETATM    1  C1  UNL     1     -34.467  17.335  -4.880  1.00 20.00     0.008 C 
HETATM    2  C2  UNL     1     -34.842  16.521  -6.118  1.00 20.00     0.035 C 
HETATM    3  C3  UNL     1     -33.528  15.348  -3.641  1.00 20.00     0.040 C 
HETATM    4  C4  UNL     1     -34.557  16.489  -3.601  1.00 20.00    -0.004 C 
HETATM    5  C5  UNL     1     -34.137  15.203  -6.170  1.00 20.00     0.151 A 
HETATM    6  C6  UNL     1     -33.519  14.602  -4.936  1.00 20.00     0.151 A 
HETATM    7  O12 UNL     1     -34.797  14.170  -5.410  1.00 20.00    -0.375 OA
ENDROOT
BRANCH   4   8
HETATM    8  C11 UNL     1     -34.344  17.357  -2.361  1.00 20.00    -0.044 C 
HETATM    9  C8  UNL     1     -34.894  18.770  -2.636  1.00 20.00     0.015 C 
HETATM   10  C9  UNL     1     -35.121  16.742  -1.179  1.00 20.00     0.015 C 
BRANCH   8  11
HETATM   11  C10 UNL     1     -32.821  17.411  -2.048  1.00 20.00     0.004 C 
HETATM   12  C7  UNL     1     -32.405  18.285  -0.872  1.00 20.00     0.006 C 
ENDBRANCH   8  11
ENDBRANCH   4   8
TORSDOF 2
ENDMDL
