MODEL 1
REMARK VINA RESULT:      -4.8      0.000      0.000
REMARK  2 active torsions:
REMARK  status: ('A' for Active; 'I' for Inactive)
REMARK    1  A    between atoms: C4_4  and  C11_11 
REMARK    2  A    between atoms: C10_10  and  C11_11 
ROOT
HETATM    1  C1  UNL     1     -35.392  16.372  -2.187  1.00 20.00     0.008 C 
HETATM    2  C2  UNL     1     -35.296  16.942  -0.770  1.00 20.00     0.035 C 
HETATM    3  C3  UNL     1     -33.000  16.951  -2.761  1.00 20.00     0.040 C 
HETATM    4  C4  UNL     1     -34.037  15.822  -2.657  1.00 20.00    -0.004 C 
HETATM    5  C5  UNL     1     -34.123  17.844  -0.574  1.00 20.00     0.151 A 
HETATM    6  C6  UNL     1     -32.969  17.816  -1.540  1.00 20.00     0.151 A 
HETATM    7  O12 UNL     1     -33.956  18.867  -1.558  1.00 20.00    -0.375 OA
ENDROOT
BRANCH   4   8
HETATM    8  C11 UNL     1     -34.179  15.105  -3.998  1.00 20.00    -0.044 C 
HETATM    9  C8  UNL     1     -34.689  16.108  -5.052  1.00 20.00     0.015 C 
HETATM   10  C9  UNL     1     -32.796  14.582  -4.436  1.00 20.00     0.015 C 
BRANCH   8  11
HETATM   11  C10 UNL     1     -35.183  13.929  -3.828  1.00 20.00     0.004 C 
HETATM   12  C7  UNL     1     -36.329  13.869  -4.829  1.00 20.00     0.006 C 
ENDBRANCH   8  11
ENDBRANCH   4   8
TORSDOF 2
ENDMDL
MODEL 2
REMARK VINA RESULT:      -4.7      0.466      1.606
REMARK  2 active torsions:
REMARK  status: ('A' for Active; 'I' for Inactive)
REMARK    1  A    between atoms: C4_4  and  C11_11 
REMARK    2  A    between atoms: C10_10  and  C11_11 
ROOT
HETATM    1  C1  UNL     1     -35.393  16.390  -2.196  1.00 20.00     0.008 C 
HETATM    2  C2  UNL     1     -35.274  16.937  -0.772  1.00 20.00     0.035 C 
HETATM    3  C3  UNL     1     -33.012  16.983  -2.801  1.00 20.00     0.040 C 
HETATM    4  C4  UNL     1     -34.045  15.850  -2.698  1.00 20.00    -0.004 C 
HETATM    5  C5  UNL     1     -34.099  17.839  -0.581  1.00 20.00     0.151 A 
HETATM    6  C6  UNL     1     -32.962  17.828  -1.567  1.00 20.00     0.151 A 
HETATM    7  O12 UNL     1     -33.951  18.877  -1.551  1.00 20.00    -0.375 OA
ENDROOT
BRANCH   4   8
HETATM    8  C11 UNL     1     -34.209  15.154  -4.047  1.00 20.00    -0.044 C 
HETATM    9  C8  UNL     1     -32.887  14.447  -4.411  1.00 20.00     0.015 C 
HETATM   10  C9  UNL     1     -35.324  14.096  -3.934  1.00 20.00     0.015 C 
BRANCH   8  11
HETATM   11  C10 UNL     1     -34.573  16.224  -5.116  1.00 20.00     0.004 C 
HETATM   12  C7  UNL     1     -34.433  15.798  -6.572  1.00 20.00     0.006 C 
ENDBRANCH   8  11
ENDBRANCH   4   8
TORSDOF 2
ENDMDL
MODEL 3
REMARK VINA RESULT:      -4.7      2.105      4.630
REMARK  2 active torsions:
REMARK  status: ('A' for Active; 'I' for Inactive)
REMARK    1  A    between atoms: C4_4  and  C11_11 
REMARK    2  A    between atoms: C10_10  and  C11_11 
ROOT
HETATM    1  C1  UNL     1     -34.342  14.922  -3.637  1.00 20.00     0.008 C 
HETATM    2  C2  UNL     1     -34.879  13.556  -4.068  1.00 20.00     0.035 C 
HETATM    3  C3  UNL     1     -36.630  15.999  -3.611  1.00 20.00     0.040 C 
HETATM    4  C4  UNL     1     -35.373  15.680  -2.785  1.00 20.00    -0.004 C 
HETATM    5  C5  UNL     1     -36.266  13.613  -4.621  1.00 20.00     0.151 A 
HETATM    6  C6  UNL     1     -37.143  14.807  -4.357  1.00 20.00     0.151 A 
HETATM    7  O12 UNL     1     -36.492  14.602  -5.626  1.00 20.00    -0.375 OA
ENDROOT
BRANCH   4   8
HETATM    8  C11 UNL     1     -34.769  16.964  -2.219  1.00 20.00    -0.044 C 
HETATM    9  C8  UNL     1     -35.379  18.174  -2.956  1.00 20.00     0.015 C 
HETATM   10  C9  UNL     1     -35.120  17.065  -0.721  1.00 20.00     0.015 C 
BRANCH   8  11
HETATM   11  C10 UNL     1     -33.228  16.918  -2.421  1.00 20.00     0.004 C 
HETATM   12  C7  UNL     1     -32.412  17.926  -1.622  1.00 20.00     0.006 C 
ENDBRANCH   8  11
ENDBRANCH   4   8
TORSDOF 2
ENDMDL
MODEL 4
REMARK VINA RESULT:      -4.6      2.124      4.662
REMARK  2 active torsions:
REMARK  status: ('A' for Active; 'I' for Inactive)
REMARK    1  A    between atoms: C4_4  and  C11_11 
REMARK    2  A    between atoms: C10_10  and  C11_11 
ROOT
HETATM    1  C1  UNL     1     -34.342  14.865  -3.673  1.00 20.00     0.008 C 
HETATM    2  C2  UNL     1     -34.935  13.510  -4.061  1.00 20.00     0.035 C 
HETATM    3  C3  UNL     1     -36.589  16.025  -3.641  1.00 20.00     0.040 C 
HETATM    4  C4  UNL     1     -35.331  15.682  -2.826  1.00 20.00    -0.004 C 
HETATM    5  C5  UNL     1     -36.327  13.603  -4.593  1.00 20.00     0.151 A 
HETATM    6  C6  UNL     1     -37.156  14.834  -4.347  1.00 20.00     0.151 A 
HETATM    7  O12 UNL     1     -36.534  14.573  -5.621  1.00 20.00    -0.375 OA
ENDROOT
BRANCH   4   8
HETATM    8  C11 UNL     1     -34.672  16.956  -2.302  1.00 20.00    -0.044 C 
HETATM    9  C8  UNL     1     -33.148  16.857  -2.514  1.00 20.00     0.015 C 
HETATM   10  C9  UNL     1     -35.208  18.162  -3.100  1.00 20.00     0.015 C 
BRANCH   8  11
HETATM   11  C10 UNL     1     -35.009  17.104  -0.791  1.00 20.00     0.004 C 
HETATM   12  C7  UNL     1     -34.116  18.042   0.010  1.00 20.00     0.006 C 
ENDBRANCH   8  11
ENDBRANCH   4   8
TORSDOF 2
ENDMDL
MODEL 5
REMARK VINA RESULT:      -4.5      1.842      4.641
REMARK  2 active torsions:
REMARK  status: ('A' for Active; 'I' for Inactive)
REMARK    1  A    between atoms: C4_4  and  C11_11 
REMARK    2  A    between atoms: C10_10  and  C11_11 
ROOT
HETATM    1  C1  UNL     1     -33.157  16.225  -3.541  1.00 20.00     0.008 C 
HETATM    2  C2  UNL     1     -33.261  14.819  -4.135  1.00 20.00     0.035 C 
HETATM    3  C3  UNL     1     -35.518  16.199  -2.637  1.00 20.00     0.040 C 
HETATM    4  C4  UNL     1     -34.031  16.363  -2.284  1.00 20.00    -0.004 C 
HETATM    5  C5  UNL     1     -34.668  14.334  -4.263  1.00 20.00     0.151 A 
HETATM    6  C6  UNL     1     -35.775  14.995  -3.487  1.00 20.00     0.151 A 
HETATM    7  O12 UNL     1     -35.579  15.235  -4.895  1.00 20.00    -0.375 OA
ENDROOT
BRANCH   4   8
HETATM    8  C11 UNL     1     -33.791  17.708  -1.602  1.00 20.00    -0.044 C 
HETATM    9  C8  UNL     1     -34.453  18.821  -2.440  1.00 20.00     0.015 C 
HETATM   10  C9  UNL     1     -34.440  17.685  -0.204  1.00 20.00     0.015 C 
BRANCH   8  11
HETATM   11  C10 UNL     1     -32.257  17.943  -1.493  1.00 20.00     0.004 C 
HETATM   12  C7  UNL     1     -31.754  18.508  -0.171  1.00 20.00     0.006 C 
ENDBRANCH   8  11
ENDBRANCH   4   8
TORSDOF 2
ENDMDL
MODEL 6
REMARK VINA RESULT:      -4.4      2.245      4.502
REMARK  2 active torsions:
REMARK  status: ('A' for Active; 'I' for Inactive)
REMARK    1  A    between atoms: C4_4  and  C11_11 
REMARK    2  A    between atoms: C10_10  and  C11_11 
ROOT
HETATM    1  C1  UNL     1     -34.342  14.888  -3.682  1.00 20.00     0.008 C 
HETATM    2  C2  UNL     1     -34.915  13.526  -4.079  1.00 20.00     0.035 C 
HETATM    3  C3  UNL     1     -36.607  16.008  -3.616  1.00 20.00     0.040 C 
HETATM    4  C4  UNL     1     -35.336  15.678  -2.817  1.00 20.00    -0.004 C 
HETATM    5  C5  UNL     1     -36.314  13.601  -4.597  1.00 20.00     0.151 A 
HETATM    6  C6  UNL     1     -37.161  14.816  -4.330  1.00 20.00     0.151 A 
HETATM    7  O12 UNL     1     -36.547  14.579  -5.612  1.00 20.00    -0.375 OA
ENDROOT
BRANCH   4   8
HETATM    8  C11 UNL     1     -34.694  16.958  -2.286  1.00 20.00    -0.044 C 
HETATM    9  C8  UNL     1     -35.027  17.103  -0.787  1.00 20.00     0.015 C 
HETATM   10  C9  UNL     1     -33.164  16.855  -2.447  1.00 20.00     0.015 C 
BRANCH   8  11
HETATM   11  C10 UNL     1     -35.252  18.165  -3.092  1.00 20.00     0.004 C 
HETATM   12  C7  UNL     1     -34.268  18.874  -4.013  1.00 20.00     0.006 C 
ENDBRANCH   8  11
ENDBRANCH   4   8
TORSDOF 2
ENDMDL
MODEL 7
REMARK VINA RESULT:      -4.3      2.786      4.748
REMARK  2 active torsions:
REMARK  status: ('A' for Active; 'I' for Inactive)
REMARK    1  A    between atoms: C4_4  and  C11_11 
REMARK    2  A    between atoms: C10_10  and  C11_11 
ROOT
HETATM    1  C1  UNL     1     -36.143  16.101  -5.150  1.00 20.00     0.008 C 
HETATM    2  C2  UNL     1     -36.850  16.607  -6.408  1.00 20.00     0.035 C 
HETATM    3  C3  UNL     1     -34.196  15.128  -6.435  1.00 20.00     0.040 C 
HETATM    4  C4  UNL     1     -34.617  16.109  -5.330  1.00 20.00    -0.004 C 
HETATM    5  C5  UNL     1     -36.339  15.984  -7.666  1.00 20.00     0.151 A 
HETATM    6  C6  UNL     1     -35.005  15.288  -7.683  1.00 20.00     0.151 A 
HETATM    7  O12 UNL     1     -36.248  14.558  -7.658  1.00 20.00    -0.375 OA
ENDROOT
BRANCH   4   8
HETATM    8  C11 UNL     1     -33.915  15.767  -4.018  1.00 20.00    -0.044 C 
HETATM    9  C8  UNL     1     -32.939  14.597  -4.260  1.00 20.00     0.015 C 
HETATM   10  C9  UNL     1     -33.112  16.995  -3.543  1.00 20.00     0.015 C 
BRANCH   8  11
HETATM   11  C10 UNL     1     -34.992  15.374  -2.966  1.00 20.00     0.004 C 
HETATM   12  C7  UNL     1     -35.032  16.213  -1.696  1.00 20.00     0.006 C 
ENDBRANCH   8  11
ENDBRANCH   4   8
TORSDOF 2
ENDMDL
MODEL 8
REMARK VINA RESULT:      -4.3      1.212      2.282
REMARK  2 active torsions:
REMARK  status: ('A' for Active; 'I' for Inactive)
REMARK    1  A    between atoms: C4_4  and  C11_11 
REMARK    2  A    between atoms: C10_10  and  C11_11 
ROOT
HETATM    1  C1  UNL     1     -33.175  16.313  -2.737  1.00 20.00     0.008 C 
HETATM    2  C2  UNL     1     -33.235  17.634  -1.969  1.00 20.00     0.035 C 
HETATM    3  C3  UNL     1     -35.689  16.097  -2.892  1.00 20.00     0.040 C 
HETATM    4  C4  UNL     1     -34.375  16.167  -3.686  1.00 20.00    -0.004 C 
HETATM    5  C5  UNL     1     -34.576  17.911  -1.372  1.00 20.00     0.151 A 
HETATM    6  C6  UNL     1     -35.794  17.177  -1.862  1.00 20.00     0.151 A 
HETATM    7  O12 UNL     1     -35.150  16.844  -0.616  1.00 20.00    -0.375 OA
ENDROOT
BRANCH   4   8
HETATM    8  C11 UNL     1     -34.220  14.931  -4.569  1.00 20.00    -0.044 C 
HETATM    9  C8  UNL     1     -32.795  14.367  -4.399  1.00 20.00     0.015 C 
HETATM   10  C9  UNL     1     -35.235  13.862  -4.118  1.00 20.00     0.015 C 
BRANCH   8  11
HETATM   11  C10 UNL     1     -34.474  15.342  -6.048  1.00 20.00     0.004 C 
HETATM   12  C7  UNL     1     -35.711  14.748  -6.710  1.00 20.00     0.006 C 
ENDBRANCH   8  11
ENDBRANCH   4   8
TORSDOF 2
ENDMDL
MODEL 9
REMARK VINA RESULT:      -4.3      2.068      4.325
REMARK  2 active torsions:
REMARK  status: ('A' for Active; 'I' for Inactive)
REMARK    1  A    between atoms: C4_4  and  C11_11 
REMARK    2  A    between atoms: C10_10  and  C11_11 
ROOT
HETATM    1  C1  UNL     1     -35.817  15.805  -3.140  1.00 20.00     0.008 C 
HETATM    2  C2  UNL     1     -36.085  15.086  -4.464  1.00 20.00     0.035 C 
HETATM    3  C3  UNL     1     -33.309  15.808  -3.459  1.00 20.00     0.040 C 
HETATM    4  C4  UNL     1     -34.555  16.678  -3.229  1.00 20.00    -0.004 C 
HETATM    5  C5  UNL     1     -34.874  14.424  -5.034  1.00 20.00     0.151 A 
HETATM    6  C6  UNL     1     -33.499  14.815  -4.562  1.00 20.00     0.151 A 
HETATM    7  O12 UNL     1     -34.138  13.596  -4.132  1.00 20.00    -0.375 OA
ENDROOT
BRANCH   4   8
HETATM    8  C11 UNL     1     -34.390  17.521  -1.966  1.00 20.00    -0.044 C 
HETATM    9  C8  UNL     1     -32.890  17.627  -1.625  1.00 20.00     0.015 C 
HETATM   10  C9  UNL     1     -34.942  18.936  -2.232  1.00 20.00     0.015 C 
BRANCH   8  11
HETATM   11  C10 UNL     1     -35.170  16.836  -0.807  1.00 20.00     0.004 C 
HETATM   12  C7  UNL     1     -35.112  17.530   0.548  1.00 20.00     0.006 C 
ENDBRANCH   8  11
ENDBRANCH   4   8
TORSDOF 2
ENDMDL
