MODEL 1
REMARK VINA RESULT:      -4.1      0.000      0.000
REMARK  1 active torsions:
REMARK  status: ('A' for Active; 'I' for Inactive)
REMARK    1  A    between atoms: C2_2  and  C6_6 
REMARK       I    between atoms: C2_2  and  N7_7 
ROOT
HETATM    1  C1  UNL     1     -24.067  18.889   8.395  1.00 20.00     0.166 C 
HETATM    2  C2  UNL     1     -23.358  17.420   9.866  1.00 20.00     0.252 C 
HETATM    3  N7  UNL     1     -23.423  18.706   9.358  1.00 20.00    -0.199 NA
HETATM    4  O8  UNL     1     -22.931  16.433   9.266  1.00 20.00    -0.270 OA
HETATM    5  S9  UNL     1     -24.932  19.176   7.087  1.00 20.00    -0.055 SA
ENDROOT
BRANCH   2   6
HETATM    6  C6  UNL     1     -23.891  17.308  11.311  1.00 20.00     0.032 C 
HETATM    7  C3  UNL     1     -22.767  17.659  12.298  1.00 20.00     0.025 C 
HETATM    8  C4  UNL     1     -25.059  18.286  11.519  1.00 20.00     0.025 C 
HETATM    9  C5  UNL     1     -24.389  15.878  11.563  1.00 20.00     0.025 C 
ENDBRANCH   2   6
TORSDOF 1
ENDMDL
MODEL 2
REMARK VINA RESULT:      -4.1     15.904     16.649
REMARK  1 active torsions:
REMARK  status: ('A' for Active; 'I' for Inactive)
REMARK    1  A    between atoms: C2_2  and  C6_6 
REMARK       I    between atoms: C2_2  and  N7_7 
ROOT
HETATM    1  C1  UNL     1     -32.658   7.505   2.096  1.00 20.00     0.166 C 
HETATM    2  C2  UNL     1     -33.312   5.696   3.158  1.00 20.00     0.252 C 
HETATM    3  N7  UNL     1     -32.559   6.854   3.067  1.00 20.00    -0.199 NA
HETATM    4  O8  UNL     1     -33.251   4.739   2.384  1.00 20.00    -0.270 OA
HETATM    5  S9  UNL     1     -32.767   8.415   0.792  1.00 20.00    -0.055 SA
ENDROOT
BRANCH   2   6
HETATM    6  C6  UNL     1     -34.284   5.694   4.357  1.00 20.00     0.032 C 
HETATM    7  C3  UNL     1     -35.717   5.923   3.854  1.00 20.00     0.025 C 
HETATM    8  C4  UNL     1     -34.221   4.341   5.083  1.00 20.00     0.025 C 
HETATM    9  C5  UNL     1     -33.886   6.804   5.340  1.00 20.00     0.025 C 
ENDBRANCH   2   6
TORSDOF 1
ENDMDL
MODEL 3
REMARK VINA RESULT:      -4.1      2.871      3.476
REMARK  1 active torsions:
REMARK  status: ('A' for Active; 'I' for Inactive)
REMARK    1  A    between atoms: C2_2  and  C6_6 
REMARK       I    between atoms: C2_2  and  N7_7 
ROOT
HETATM    1  C1  UNL     1     -26.876  18.084  12.289  1.00 20.00     0.166 C 
HETATM    2  C2  UNL     1     -25.024  18.157  11.110  1.00 20.00     0.252 C 
HETATM    3  N7  UNL     1     -25.723  18.303  12.296  1.00 20.00    -0.199 NA
HETATM    4  O8  UNL     1     -25.241  18.778  10.068  1.00 20.00    -0.270 OA
HETATM    5  S9  UNL     1     -28.443  17.795  12.318  1.00 20.00    -0.055 SA
ENDROOT
BRANCH   2   6
HETATM    6  C6  UNL     1     -23.896  17.106  11.194  1.00 20.00     0.032 C 
HETATM    7  C3  UNL     1     -23.245  16.943   9.812  1.00 20.00     0.025 C 
HETATM    8  C4  UNL     1     -22.825  17.562  12.198  1.00 20.00     0.025 C 
HETATM    9  C5  UNL     1     -24.480  15.767  11.664  1.00 20.00     0.025 C 
ENDBRANCH   2   6
TORSDOF 1
ENDMDL
MODEL 4
REMARK VINA RESULT:      -4.1      0.483      1.528
REMARK  1 active torsions:
REMARK  status: ('A' for Active; 'I' for Inactive)
REMARK    1  A    between atoms: C2_2  and  C6_6 
REMARK       I    between atoms: C2_2  and  N7_7 
ROOT
HETATM    1  C1  UNL     1     -24.731  18.956   8.447  1.00 20.00     0.166 C 
HETATM    2  C2  UNL     1     -23.674  17.693   9.901  1.00 20.00     0.252 C 
HETATM    3  N7  UNL     1     -24.048  18.929   9.401  1.00 20.00    -0.199 NA
HETATM    4  O8  UNL     1     -23.034  16.836   9.290  1.00 20.00    -0.270 OA
HETATM    5  S9  UNL     1     -25.657  19.033   7.153  1.00 20.00    -0.055 SA
ENDROOT
BRANCH   2   6
HETATM    6  C6  UNL     1     -24.145  17.456  11.353  1.00 20.00     0.032 C 
HETATM    7  C3  UNL     1     -24.586  15.994  11.514  1.00 20.00     0.025 C 
HETATM    8  C4  UNL     1     -22.994  17.740  12.332  1.00 20.00     0.025 C 
HETATM    9  C5  UNL     1     -25.314  18.399  11.671  1.00 20.00     0.025 C 
ENDBRANCH   2   6
TORSDOF 1
ENDMDL
MODEL 5
REMARK VINA RESULT:      -4.0     18.261     19.302
REMARK  1 active torsions:
REMARK  status: ('A' for Active; 'I' for Inactive)
REMARK    1  A    between atoms: C2_2  and  C6_6 
REMARK       I    between atoms: C2_2  and  N7_7 
ROOT
HETATM    1  C1  UNL     1     -37.900  14.929  -4.785  1.00 20.00     0.166 C 
HETATM    2  C2  UNL     1     -35.856  14.129  -4.682  1.00 20.00     0.252 C 
HETATM    3  N7  UNL     1     -36.842  14.886  -5.292  1.00 20.00    -0.199 NA
HETATM    4  O8  UNL     1     -35.916  12.918  -4.464  1.00 20.00    -0.270 OA
HETATM    5  S9  UNL     1     -39.349  15.010  -4.127  1.00 20.00    -0.055 SA
ENDROOT
BRANCH   2   6
HETATM    6  C6  UNL     1     -34.617  14.955  -4.275  1.00 20.00     0.032 C 
HETATM    7  C3  UNL     1     -34.779  15.439  -2.826  1.00 20.00     0.025 C 
HETATM    8  C4  UNL     1     -33.352  14.088  -4.372  1.00 20.00     0.025 C 
HETATM    9  C5  UNL     1     -34.471  16.156  -5.220  1.00 20.00     0.025 C 
ENDBRANCH   2   6
TORSDOF 1
ENDMDL
MODEL 6
REMARK VINA RESULT:      -4.0     18.267     19.286
REMARK  1 active torsions:
REMARK  status: ('A' for Active; 'I' for Inactive)
REMARK    1  A    between atoms: C2_2  and  C6_6 
REMARK       I    between atoms: C2_2  and  N7_7 
ROOT
HETATM    1  C1  UNL     1     -37.915  14.918  -4.782  1.00 20.00     0.166 C 
HETATM    2  C2  UNL     1     -35.870  14.122  -4.683  1.00 20.00     0.252 C 
HETATM    3  N7  UNL     1     -36.857  14.881  -5.289  1.00 20.00    -0.199 NA
HETATM    4  O8  UNL     1     -35.927  12.910  -4.470  1.00 20.00    -0.270 OA
HETATM    5  S9  UNL     1     -39.364  14.994  -4.124  1.00 20.00    -0.055 SA
ENDROOT
BRANCH   2   6
HETATM    6  C6  UNL     1     -34.632  14.949  -4.272  1.00 20.00     0.032 C 
HETATM    7  C3  UNL     1     -34.498  16.164  -5.203  1.00 20.00     0.025 C 
HETATM    8  C4  UNL     1     -34.787  15.444  -2.825  1.00 20.00     0.025 C 
HETATM    9  C5  UNL     1     -33.377  14.070  -4.366  1.00 20.00     0.025 C 
ENDBRANCH   2   6
TORSDOF 1
ENDMDL
MODEL 7
REMARK VINA RESULT:      -3.6     16.508     17.321
REMARK  1 active torsions:
REMARK  status: ('A' for Active; 'I' for Inactive)
REMARK    1  A    between atoms: C2_2  and  C6_6 
REMARK       I    between atoms: C2_2  and  N7_7 
ROOT
HETATM    1  C1  UNL     1     -35.557  16.937  -1.657  1.00 20.00     0.166 C 
HETATM    2  C2  UNL     1     -33.923  16.008  -2.793  1.00 20.00     0.252 C 
HETATM    3  N7  UNL     1     -35.008  15.939  -1.935  1.00 20.00    -0.199 NA
HETATM    4  O8  UNL     1     -32.887  16.643  -2.589  1.00 20.00    -0.270 OA
HETATM    5  S9  UNL     1     -36.329  18.273  -1.254  1.00 20.00    -0.055 SA
ENDROOT
BRANCH   2   6
HETATM    6  C6  UNL     1     -34.118  15.192  -4.089  1.00 20.00     0.032 C 
HETATM    7  C3  UNL     1     -32.804  14.480  -4.446  1.00 20.00     0.025 C 
HETATM    8  C4  UNL     1     -35.217  14.137  -3.886  1.00 20.00     0.025 C 
HETATM    9  C5  UNL     1     -34.535  16.133  -5.228  1.00 20.00     0.025 C 
ENDBRANCH   2   6
TORSDOF 1
ENDMDL
MODEL 8
REMARK VINA RESULT:      -3.6     24.498     24.992
REMARK  1 active torsions:
REMARK  status: ('A' for Active; 'I' for Inactive)
REMARK    1  A    between atoms: C2_2  and  C6_6 
REMARK       I    between atoms: C2_2  and  N7_7 
ROOT
HETATM    1  C1  UNL     1     -42.934   4.021  -1.983  1.00 20.00     0.166 C 
HETATM    2  C2  UNL     1     -43.123   6.027  -1.106  1.00 20.00     0.252 C 
HETATM    3  N7  UNL     1     -43.417   4.674  -1.136  1.00 20.00    -0.199 NA
HETATM    4  O8  UNL     1     -43.361   6.832  -2.008  1.00 20.00    -0.270 OA
HETATM    5  S9  UNL     1     -42.297   3.102  -3.118  1.00 20.00    -0.055 SA
ENDROOT
BRANCH   2   6
HETATM    6  C6  UNL     1     -42.438   6.473   0.204  1.00 20.00     0.032 C 
HETATM    7  C3  UNL     1     -40.913   6.405   0.032  1.00 20.00     0.025 C 
HETATM    8  C4  UNL     1     -42.838   7.918   0.541  1.00 20.00     0.025 C 
HETATM    9  C5  UNL     1     -42.882   5.554   1.350  1.00 20.00     0.025 C 
ENDBRANCH   2   6
TORSDOF 1
ENDMDL
MODEL 9
REMARK VINA RESULT:      -3.6     16.940     18.122
REMARK  1 active torsions:
REMARK  status: ('A' for Active; 'I' for Inactive)
REMARK    1  A    between atoms: C2_2  and  C6_6 
REMARK       I    between atoms: C2_2  and  N7_7 
ROOT
HETATM    1  C1  UNL     1     -36.967  14.871  -3.991  1.00 20.00     0.166 C 
HETATM    2  C2  UNL     1     -35.091  15.487  -3.028  1.00 20.00     0.252 C 
HETATM    3  N7  UNL     1     -35.856  14.585  -3.749  1.00 20.00    -0.199 NA
HETATM    4  O8  UNL     1     -35.344  15.894  -1.893  1.00 20.00    -0.270 OA
HETATM    5  S9  UNL     1     -38.482  15.225  -4.339  1.00 20.00    -0.055 SA
ENDROOT
BRANCH   2   6
HETATM    6  C6  UNL     1     -33.839  15.969  -3.791  1.00 20.00     0.032 C 
HETATM    7  C3  UNL     1     -33.077  14.755  -4.342  1.00 20.00     0.025 C 
HETATM    8  C4  UNL     1     -34.252  16.872  -4.964  1.00 20.00     0.025 C 
HETATM    9  C5  UNL     1     -32.939  16.771  -2.840  1.00 20.00     0.025 C 
ENDBRANCH   2   6
TORSDOF 1
ENDMDL
