MODEL 1
REMARK VINA RESULT:      -4.5      0.000      0.000
REMARK  2 active torsions:
REMARK  status: ('A' for Active; 'I' for Inactive)
REMARK    1  A    between atoms: C3_3  and  C5_5 
REMARK    2  A    between atoms: C4_4  and  C8_8 
ROOT
HETATM    1  C1  UNL     1     -33.609  14.834  -4.227  1.00 20.00     0.023 A 
HETATM    2  C2  UNL     1     -33.003  15.835  -3.414  1.00 20.00     0.016 A 
HETATM    3  C3  UNL     1     -34.955  14.700  -3.965  1.00 20.00     0.043 A 
HETATM    4  C4  UNL     1     -33.908  16.428  -2.562  1.00 20.00    -0.013 A 
HETATM    5  S10 UNL     1     -35.482  15.779  -2.745  1.00 20.00    -0.091 SA
ENDROOT
BRANCH   4   6
HETATM    6  C8  UNL     1     -33.556  17.537  -1.566  1.00 20.00     0.026 A 
HETATM    7  C6  UNL     1     -33.527  18.971  -2.051  1.00 20.00     0.010 A 
HETATM    8  C7  UNL     1     -32.243  18.274  -1.729  1.00 20.00     0.010 A 
ENDBRANCH   4   6
BRANCH   3   9
HETATM    9  C5  UNL     1     -35.899  13.815  -4.566  1.00 20.00     0.277 C 
HETATM   10  O9  UNL     1     -35.842  12.569  -4.483  1.00 20.00    -0.301 OA
ENDBRANCH   3   9
TORSDOF 2
ENDMDL
MODEL 2
REMARK VINA RESULT:      -4.5     16.190     17.078
REMARK  2 active torsions:
REMARK  status: ('A' for Active; 'I' for Inactive)
REMARK    1  A    between atoms: C3_3  and  C5_5 
REMARK    2  A    between atoms: C4_4  and  C8_8 
ROOT
HETATM    1  C1  UNL     1     -23.838  18.514   8.443  1.00 20.00     0.023 A 
HETATM    2  C2  UNL     1     -24.756  18.727   9.512  1.00 20.00     0.016 A 
HETATM    3  C3  UNL     1     -22.732  17.799   8.846  1.00 20.00     0.043 A 
HETATM    4  C4  UNL     1     -24.317  18.166  10.691  1.00 20.00    -0.013 A 
HETATM    5  S10 UNL     1     -22.804  17.386  10.506  1.00 20.00    -0.091 SA
ENDROOT
BRANCH   4   6
HETATM    6  C8  UNL     1     -25.086  18.230  12.015  1.00 20.00     0.026 A 
HETATM    7  C6  UNL     1     -26.082  17.134  12.332  1.00 20.00     0.010 A 
HETATM    8  C7  UNL     1     -26.574  18.504  11.981  1.00 20.00     0.010 A 
ENDBRANCH   4   6
BRANCH   3   9
HETATM    9  C5  UNL     1     -21.602  17.389   8.076  1.00 20.00     0.277 C 
HETATM   10  O9  UNL     1     -21.668  16.631   7.085  1.00 20.00    -0.301 OA
ENDBRANCH   3   9
TORSDOF 2
ENDMDL
MODEL 3
REMARK VINA RESULT:      -4.3     11.025     11.691
REMARK  2 active torsions:
REMARK  status: ('A' for Active; 'I' for Inactive)
REMARK    1  A    between atoms: C3_3  and  C5_5 
REMARK    2  A    between atoms: C4_4  and  C8_8 
ROOT
HETATM    1  C1  UNL     1     -33.805   4.658   2.949  1.00 20.00     0.023 A 
HETATM    2  C2  UNL     1     -33.080   5.478   2.036  1.00 20.00     0.016 A 
HETATM    3  C3  UNL     1     -34.166   5.346   4.087  1.00 20.00     0.043 A 
HETATM    4  C4  UNL     1     -32.916   6.761   2.511  1.00 20.00    -0.013 A 
HETATM    5  S10 UNL     1     -33.634   6.972   4.051  1.00 20.00    -0.091 SA
ENDROOT
BRANCH   4   6
HETATM    6  C8  UNL     1     -32.178   7.871   1.756  1.00 20.00     0.026 A 
HETATM    7  C6  UNL     1     -32.991   8.925   1.033  1.00 20.00     0.010 A 
HETATM    8  C7  UNL     1     -32.246   7.894   0.244  1.00 20.00     0.010 A 
ENDBRANCH   4   6
BRANCH   3   9
HETATM    9  C5  UNL     1     -34.893   4.877   5.222  1.00 20.00     0.277 C 
HETATM   10  O9  UNL     1     -34.876   5.431   6.342  1.00 20.00    -0.301 OA
ENDBRANCH   3   9
TORSDOF 2
ENDMDL
MODEL 4
REMARK VINA RESULT:      -4.2      1.399      2.033
REMARK  2 active torsions:
REMARK  status: ('A' for Active; 'I' for Inactive)
REMARK    1  A    between atoms: C3_3  and  C5_5 
REMARK    2  A    between atoms: C4_4  and  C8_8 
ROOT
HETATM    1  C1  UNL     1     -35.227  15.921  -2.075  1.00 20.00     0.023 A 
HETATM    2  C2  UNL     1     -34.532  17.029  -1.510  1.00 20.00     0.016 A 
HETATM    3  C3  UNL     1     -34.537  15.357  -3.125  1.00 20.00     0.043 A 
HETATM    4  C4  UNL     1     -33.336  17.269  -2.150  1.00 20.00    -0.013 A 
HETATM    5  S10 UNL     1     -33.056  16.162  -3.426  1.00 20.00    -0.091 SA
ENDROOT
BRANCH   4   6
HETATM    6  C8  UNL     1     -32.366  18.394  -1.771  1.00 20.00     0.026 A 
HETATM    7  C6  UNL     1     -31.384  18.160  -0.642  1.00 20.00     0.010 A 
HETATM    8  C7  UNL     1     -32.540  19.088  -0.437  1.00 20.00     0.010 A 
ENDBRANCH   4   6
BRANCH   3   9
HETATM    9  C5  UNL     1     -34.900  14.243  -3.939  1.00 20.00     0.277 C 
HETATM   10  O9  UNL     1     -34.274  13.162  -3.967  1.00 20.00    -0.301 OA
ENDBRANCH   3   9
TORSDOF 2
ENDMDL
MODEL 5
REMARK VINA RESULT:      -4.2      0.634      1.029
REMARK  2 active torsions:
REMARK  status: ('A' for Active; 'I' for Inactive)
REMARK    1  A    between atoms: C3_3  and  C5_5 
REMARK    2  A    between atoms: C4_4  and  C8_8 
ROOT
HETATM    1  C1  UNL     1     -33.691  14.686  -4.080  1.00 20.00     0.023 A 
HETATM    2  C2  UNL     1     -33.066  15.800  -3.450  1.00 20.00     0.016 A 
HETATM    3  C3  UNL     1     -35.057  14.689  -3.901  1.00 20.00     0.043 A 
HETATM    4  C4  UNL     1     -33.978  16.614  -2.814  1.00 20.00    -0.013 A 
HETATM    5  S10 UNL     1     -35.581  16.033  -2.979  1.00 20.00    -0.091 SA
ENDROOT
BRANCH   4   6
HETATM    6  C8  UNL     1     -33.609  17.888  -2.048  1.00 20.00     0.026 A 
HETATM    7  C6  UNL     1     -33.625  17.858  -0.534  1.00 20.00     0.010 A 
HETATM    8  C7  UNL     1     -34.690  18.609  -1.270  1.00 20.00     0.010 A 
ENDBRANCH   4   6
BRANCH   3   9
HETATM    9  C5  UNL     1     -36.023  13.752  -4.374  1.00 20.00     0.277 C 
HETATM   10  O9  UNL     1     -35.811  12.526  -4.493  1.00 20.00    -0.301 OA
ENDBRANCH   3   9
TORSDOF 2
ENDMDL
MODEL 6
REMARK VINA RESULT:      -4.1      1.592      2.057
REMARK  2 active torsions:
REMARK  status: ('A' for Active; 'I' for Inactive)
REMARK    1  A    between atoms: C3_3  and  C5_5 
REMARK    2  A    between atoms: C4_4  and  C8_8 
ROOT
HETATM    1  C1  UNL     1     -35.740  13.901  -4.207  1.00 20.00     0.023 A 
HETATM    2  C2  UNL     1     -34.413  14.308  -3.885  1.00 20.00     0.016 A 
HETATM    3  C3  UNL     1     -36.640  14.938  -4.094  1.00 20.00     0.043 A 
HETATM    4  C4  UNL     1     -34.349  15.640  -3.539  1.00 20.00    -0.013 A 
HETATM    5  S10 UNL     1     -35.885  16.394  -3.604  1.00 20.00    -0.091 SA
ENDROOT
BRANCH   4   6
HETATM    6  C8  UNL     1     -33.060  16.366  -3.141  1.00 20.00     0.026 A 
HETATM    7  C6  UNL     1     -33.091  17.305  -1.953  1.00 20.00     0.010 A 
HETATM    8  C7  UNL     1     -32.979  17.865  -3.337  1.00 20.00     0.010 A 
ENDBRANCH   4   6
BRANCH   3   9
HETATM    9  C5  UNL     1     -38.048  14.930  -4.330  1.00 20.00     0.277 C 
HETATM   10  O9  UNL     1     -38.736  13.892  -4.426  1.00 20.00    -0.301 OA
ENDBRANCH   3   9
TORSDOF 2
ENDMDL
MODEL 7
REMARK VINA RESULT:      -4.0      2.851      4.930
REMARK  2 active torsions:
REMARK  status: ('A' for Active; 'I' for Inactive)
REMARK    1  A    between atoms: C3_3  and  C5_5 
REMARK    2  A    between atoms: C4_4  and  C8_8 
ROOT
HETATM    1  C1  UNL     1     -34.553  17.205  -1.229  1.00 20.00     0.023 A 
HETATM    2  C2  UNL     1     -35.130  16.073  -1.875  1.00 20.00     0.016 A 
HETATM    3  C3  UNL     1     -33.369  17.590  -1.819  1.00 20.00     0.043 A 
HETATM    4  C4  UNL     1     -34.366  15.637  -2.934  1.00 20.00    -0.013 A 
HETATM    5  S10 UNL     1     -32.958  16.590  -3.147  1.00 20.00    -0.091 SA
ENDROOT
BRANCH   4   6
HETATM    6  C8  UNL     1     -34.724  14.440  -3.821  1.00 20.00     0.026 A 
HETATM    7  C6  UNL     1     -35.216  14.698  -5.230  1.00 20.00     0.010 A 
HETATM    8  C7  UNL     1     -36.175  14.214  -4.188  1.00 20.00     0.010 A 
ENDBRANCH   4   6
BRANCH   3   9
HETATM    9  C5  UNL     1     -32.502  18.667  -1.466  1.00 20.00     0.277 C 
HETATM   10  O9  UNL     1     -31.285  18.534  -1.217  1.00 20.00    -0.301 OA
ENDBRANCH   3   9
TORSDOF 2
ENDMDL
MODEL 8
REMARK VINA RESULT:      -4.0      1.345      1.692
REMARK  2 active torsions:
REMARK  status: ('A' for Active; 'I' for Inactive)
REMARK    1  A    between atoms: C3_3  and  C5_5 
REMARK    2  A    between atoms: C4_4  and  C8_8 
ROOT
HETATM    1  C1  UNL     1     -33.142  15.820  -3.512  1.00 20.00     0.023 A 
HETATM    2  C2  UNL     1     -32.866  16.961  -2.704  1.00 20.00     0.016 A 
HETATM    3  C3  UNL     1     -34.385  15.288  -3.249  1.00 20.00     0.043 A 
HETATM    4  C4  UNL     1     -33.909  17.257  -1.854  1.00 20.00    -0.013 A 
HETATM    5  S10 UNL     1     -35.214  16.162  -2.033  1.00 20.00    -0.091 SA
ENDROOT
BRANCH   4   6
HETATM    6  C8  UNL     1     -33.908  18.425  -0.863  1.00 20.00     0.026 A 
HETATM    7  C6  UNL     1     -33.062  18.318   0.388  1.00 20.00     0.010 A 
HETATM    8  C7  UNL     1     -34.552  18.230   0.494  1.00 20.00     0.010 A 
ENDBRANCH   4   6
BRANCH   3   9
HETATM    9  C5  UNL     1     -35.017  14.156  -3.846  1.00 20.00     0.277 C 
HETATM   10  O9  UNL     1     -34.459  13.052  -4.020  1.00 20.00    -0.301 OA
ENDBRANCH   3   9
TORSDOF 2
ENDMDL
MODEL 9
REMARK VINA RESULT:      -3.9     12.070     13.811
REMARK  2 active torsions:
REMARK  status: ('A' for Active; 'I' for Inactive)
REMARK    1  A    between atoms: C3_3  and  C5_5 
REMARK    2  A    between atoms: C4_4  and  C8_8 
ROOT
HETATM    1  C1  UNL     1     -27.060  19.021   5.923  1.00 20.00     0.023 A 
HETATM    2  C2  UNL     1     -26.718  19.062   7.306  1.00 20.00     0.016 A 
HETATM    3  C3  UNL     1     -25.950  19.117   5.113  1.00 20.00     0.043 A 
HETATM    4  C4  UNL     1     -25.360  19.189   7.499  1.00 20.00    -0.013 A 
HETATM    5  S10 UNL     1     -24.504  19.257   6.018  1.00 20.00    -0.091 SA
ENDROOT
BRANCH   4   6
HETATM    6  C8  UNL     1     -24.688  19.263   8.874  1.00 20.00     0.026 A 
HETATM    7  C6  UNL     1     -24.238  17.977   9.535  1.00 20.00     0.010 A 
HETATM    8  C7  UNL     1     -25.425  18.711  10.076  1.00 20.00     0.010 A 
ENDBRANCH   4   6
BRANCH   3   9
HETATM    9  C5  UNL     1     -25.880  19.113   3.687  1.00 20.00     0.277 C 
HETATM   10  O9  UNL     1     -24.981  18.546   3.032  1.00 20.00    -0.301 OA
ENDBRANCH   3   9
TORSDOF 2
ENDMDL
