MODEL 1
REMARK VINA RESULT:      -5.3      0.000      0.000
REMARK  0 active torsions:
REMARK  status: ('A' for Active; 'I' for Inactive)
ROOT
HETATM    1  C1  UNL     1     -25.485  19.129   8.090  1.00 20.00     0.030 A 
HETATM    2  C2  UNL     1     -25.099  19.245   6.771  1.00 20.00     0.141 A 
HETATM    3  C3  UNL     1     -24.583  18.584   8.997  1.00 20.00    -0.030 A 
HETATM    4  C4  UNL     1     -23.332  18.207   8.518  1.00 20.00     0.063 A 
HETATM    5  C5  UNL     1     -24.947  18.479  10.453  1.00 20.00     0.041 C 
HETATM    6  C6  UNL     1     -22.302  17.579   9.417  1.00 20.00     0.062 C 
HETATM    7  C7  UNL     1     -24.019  17.553  11.239  1.00 20.00     0.005 C 
HETATM    8  C8  UNL     1     -22.560  17.841  10.899  1.00 20.00     0.006 C 
HETATM    9  N9  UNL     1     -23.888  18.858   6.327  1.00 20.00    -0.162 NA
HETATM   10  N10 UNL     1     -22.997  18.331   7.212  1.00 20.00    -0.155 NA
ENDROOT
TORSDOF 0
ENDMDL
MODEL 2
REMARK VINA RESULT:      -5.1     16.530     18.073
REMARK  0 active torsions:
REMARK  status: ('A' for Active; 'I' for Inactive)
ROOT
HETATM    1  C1  UNL     1     -37.651  16.284  -3.804  1.00 20.00     0.030 A 
HETATM    2  C2  UNL     1     -38.640  15.401  -4.186  1.00 20.00     0.141 A 
HETATM    3  C3  UNL     1     -36.343  15.817  -3.725  1.00 20.00    -0.030 A 
HETATM    4  C4  UNL     1     -36.110  14.486  -4.059  1.00 20.00     0.063 A 
HETATM    5  C5  UNL     1     -35.228  16.756  -3.354  1.00 20.00     0.041 C 
HETATM    6  C6  UNL     1     -34.735  13.883  -3.973  1.00 20.00     0.062 C 
HETATM    7  C7  UNL     1     -33.937  16.033  -2.969  1.00 20.00     0.005 C 
HETATM    8  C8  UNL     1     -33.621  14.928  -3.970  1.00 20.00     0.006 C 
HETATM    9  N9  UNL     1     -38.392  14.113  -4.489  1.00 20.00    -0.162 NA
HETATM   10  N10 UNL     1     -37.113  13.651  -4.421  1.00 20.00    -0.155 NA
ENDROOT
TORSDOF 0
ENDMDL
MODEL 3
REMARK VINA RESULT:      -5.0     15.912     16.538
REMARK  0 active torsions:
REMARK  status: ('A' for Active; 'I' for Inactive)
ROOT
HETATM    1  C1  UNL     1     -34.046   6.513   5.950  1.00 20.00     0.030 A 
HETATM    2  C2  UNL     1     -34.928   5.465   6.114  1.00 20.00     0.141 A 
HETATM    3  C3  UNL     1     -33.427   6.667   4.714  1.00 20.00    -0.030 A 
HETATM    4  C4  UNL     1     -33.756   5.763   3.708  1.00 20.00     0.063 A 
HETATM    5  C5  UNL     1     -32.491   7.821   4.478  1.00 20.00     0.041 C 
HETATM    6  C6  UNL     1     -33.114   5.830   2.349  1.00 20.00     0.062 C 
HETATM    7  C7  UNL     1     -31.637   7.654   3.222  1.00 20.00     0.005 C 
HETATM    8  C8  UNL     1     -32.493   7.192   2.047  1.00 20.00     0.006 C 
HETATM    9  N9  UNL     1     -35.218   4.592   5.131  1.00 20.00    -0.162 NA
HETATM   10  N10 UNL     1     -34.622   4.743   3.916  1.00 20.00    -0.155 NA
ENDROOT
TORSDOF 0
ENDMDL
MODEL 4
REMARK VINA RESULT:      -4.9     15.977     16.445
REMARK  0 active torsions:
REMARK  status: ('A' for Active; 'I' for Inactive)
ROOT
HETATM    1  C1  UNL     1     -32.475   7.555   3.639  1.00 20.00     0.030 A 
HETATM    2  C2  UNL     1     -32.234   7.275   2.310  1.00 20.00     0.141 A 
HETATM    3  C3  UNL     1     -33.320   6.710   4.350  1.00 20.00    -0.030 A 
HETATM    4  C4  UNL     1     -33.856   5.616   3.677  1.00 20.00     0.063 A 
HETATM    5  C5  UNL     1     -33.576   6.954   5.812  1.00 20.00     0.041 C 
HETATM    6  C6  UNL     1     -34.805   4.664   4.353  1.00 20.00     0.062 C 
HETATM    7  C7  UNL     1     -34.776   6.174   6.350  1.00 20.00     0.005 C 
HETATM    8  C8  UNL     1     -34.731   4.725   5.877  1.00 20.00     0.006 C 
HETATM    9  N9  UNL     1     -32.777   6.219   1.676  1.00 20.00    -0.162 NA
HETATM   10  N10 UNL     1     -33.599   5.382   2.368  1.00 20.00    -0.155 NA
ENDROOT
TORSDOF 0
ENDMDL
MODEL 5
REMARK VINA RESULT:      -4.9      1.341      2.602
REMARK  0 active torsions:
REMARK  status: ('A' for Active; 'I' for Inactive)
ROOT
HETATM    1  C1  UNL     1     -21.923  17.111   9.202  1.00 20.00     0.030 A 
HETATM    2  C2  UNL     1     -21.806  17.412   7.862  1.00 20.00     0.141 A 
HETATM    3  C3  UNL     1     -23.011  17.624   9.902  1.00 20.00    -0.030 A 
HETATM    4  C4  UNL     1     -23.928  18.396   9.195  1.00 20.00     0.063 A 
HETATM    5  C5  UNL     1     -23.201  17.285  11.355  1.00 20.00     0.041 C 
HETATM    6  C6  UNL     1     -25.118  19.020   9.873  1.00 20.00     0.062 C 
HETATM    7  C7  UNL     1     -24.214  18.191  12.056  1.00 20.00     0.005 C 
HETATM    8  C8  UNL     1     -25.467  18.356  11.203  1.00 20.00     0.006 C 
HETATM    9  N9  UNL     1     -22.698  18.176   7.203  1.00 20.00    -0.162 NA
HETATM   10  N10 UNL     1     -23.769  18.675   7.880  1.00 20.00    -0.155 NA
ENDROOT
TORSDOF 0
ENDMDL
MODEL 6
REMARK VINA RESULT:      -4.9     15.881     16.356
REMARK  0 active torsions:
REMARK  status: ('A' for Active; 'I' for Inactive)
ROOT
HETATM    1  C1  UNL     1     -33.425   5.545   2.318  1.00 20.00     0.030 A 
HETATM    2  C2  UNL     1     -32.564   6.486   1.793  1.00 20.00     0.141 A 
HETATM    3  C3  UNL     1     -33.784   5.651   3.657  1.00 20.00    -0.030 A 
HETATM    4  C4  UNL     1     -33.266   6.720   4.383  1.00 20.00     0.063 A 
HETATM    5  C5  UNL     1     -34.755   4.672   4.259  1.00 20.00     0.041 C 
HETATM    6  C6  UNL     1     -33.572   6.901   5.845  1.00 20.00     0.062 C 
HETATM    7  C7  UNL     1     -34.770   4.703   5.787  1.00 20.00     0.005 C 
HETATM    8  C8  UNL     1     -34.817   6.140   6.295  1.00 20.00     0.006 C 
HETATM    9  N9  UNL     1     -32.062   7.502   2.520  1.00 20.00    -0.162 NA
HETATM   10  N10 UNL     1     -32.416   7.618   3.830  1.00 20.00    -0.155 NA
ENDROOT
TORSDOF 0
ENDMDL
MODEL 7
REMARK VINA RESULT:      -4.8     15.449     16.992
REMARK  0 active torsions:
REMARK  status: ('A' for Active; 'I' for Inactive)
ROOT
HETATM    1  C1  UNL     1     -36.778  14.970  -3.688  1.00 20.00     0.030 A 
HETATM    2  C2  UNL     1     -36.792  14.016  -4.685  1.00 20.00     0.141 A 
HETATM    3  C3  UNL     1     -35.555  15.520  -3.318  1.00 20.00    -0.030 A 
HETATM    4  C4  UNL     1     -34.419  15.086  -3.995  1.00 20.00     0.063 A 
HETATM    5  C5  UNL     1     -35.498  16.594  -2.266  1.00 20.00     0.041 C 
HETATM    6  C6  UNL     1     -33.049  15.600  -3.643  1.00 20.00     0.062 C 
HETATM    7  C7  UNL     1     -34.088  16.834  -1.728  1.00 20.00     0.005 C 
HETATM    8  C8  UNL     1     -33.084  16.918  -2.872  1.00 20.00     0.006 C 
HETATM    9  N9  UNL     1     -35.677  13.600  -5.314  1.00 20.00    -0.162 NA
HETATM   10  N10 UNL     1     -34.478  14.140  -4.962  1.00 20.00    -0.155 NA
ENDROOT
TORSDOF 0
ENDMDL
MODEL 8
REMARK VINA RESULT:      -4.7     15.842     16.471
REMARK  0 active torsions:
REMARK  status: ('A' for Active; 'I' for Inactive)
ROOT
HETATM    1  C1  UNL     1     -34.698   4.850   4.081  1.00 20.00     0.030 A 
HETATM    2  C2  UNL     1     -35.184   4.856   5.372  1.00 20.00     0.141 A 
HETATM    3  C3  UNL     1     -33.781   5.830   3.715  1.00 20.00    -0.030 A 
HETATM    4  C4  UNL     1     -33.391   6.746   4.688  1.00 20.00     0.063 A 
HETATM    5  C5  UNL     1     -33.194   5.835   2.330  1.00 20.00     0.041 C 
HETATM    6  C6  UNL     1     -32.428   7.860   4.378  1.00 20.00     0.062 C 
HETATM    7  C7  UNL     1     -32.495   7.148   1.979  1.00 20.00     0.005 C 
HETATM    8  C8  UNL     1     -31.597   7.602   3.124  1.00 20.00     0.006 C 
HETATM    9  N9  UNL     1     -34.804   5.764   6.291  1.00 20.00    -0.162 NA
HETATM   10  N10 UNL     1     -33.900   6.721   5.943  1.00 20.00    -0.155 NA
ENDROOT
TORSDOF 0
ENDMDL
MODEL 9
REMARK VINA RESULT:      -4.6      1.765      2.450
REMARK  0 active torsions:
REMARK  status: ('A' for Active; 'I' for Inactive)
ROOT
HETATM    1  C1  UNL     1     -23.833  18.865   8.806  1.00 20.00     0.030 A 
HETATM    2  C2  UNL     1     -22.909  18.207   8.021  1.00 20.00     0.141 A 
HETATM    3  C3  UNL     1     -24.384  18.185   9.887  1.00 20.00    -0.030 A 
HETATM    4  C4  UNL     1     -23.949  16.884  10.124  1.00 20.00     0.063 A 
HETATM    5  C5  UNL     1     -25.363  18.879  10.795  1.00 20.00     0.041 C 
HETATM    6  C6  UNL     1     -24.510  16.060  11.250  1.00 20.00     0.062 C 
HETATM    7  C7  UNL     1     -26.130  17.915  11.699  1.00 20.00     0.005 C 
HETATM    8  C8  UNL     1     -25.182  16.902  12.332  1.00 20.00     0.006 C 
HETATM    9  N9  UNL     1     -22.516  16.942   8.260  1.00 20.00    -0.162 NA
HETATM   10  N10 UNL     1     -23.045  16.274   9.322  1.00 20.00    -0.155 NA
ENDROOT
TORSDOF 0
ENDMDL
