MODEL 1
REMARK VINA RESULT:      -4.8      0.000      0.000
REMARK  0 active torsions:
REMARK  status: ('A' for Active; 'I' for Inactive)
ROOT
HETATM    1  C1  UNL     1     -35.127   5.127   5.678  1.00 20.00    -0.026 C 
HETATM    2  C2  UNL     1     -32.860   6.063   1.465  1.00 20.00    -0.027 C 
HETATM    3  C3  UNL     1     -34.498   6.139   6.289  1.00 20.00    -0.001 C 
HETATM    4  C4  UNL     1     -33.290   5.105   2.297  1.00 20.00     0.005 C 
HETATM    5  C5  UNL     1     -32.493   7.430   1.961  1.00 20.00     0.057 C 
HETATM    6  C6  UNL     1     -34.794   4.727   4.268  1.00 20.00     0.066 C 
HETATM    7  C7  UNL     1     -33.455   6.966   5.589  1.00 20.00     0.300 C 
HETATM    8  C8  UNL     1     -32.353   7.495   3.488  1.00 20.00     0.277 C 
HETATM    9  C9  UNL     1     -33.468   5.348   3.775  1.00 20.00     0.249 C 
HETATM   10  N10 UNL     1     -33.464   6.785   4.129  1.00 20.00     0.100 N 
ENDROOT
TORSDOF 0
ENDMDL
MODEL 2
REMARK VINA RESULT:      -4.7     15.698     16.570
REMARK  0 active torsions:
REMARK  status: ('A' for Active; 'I' for Inactive)
ROOT
HETATM    1  C1  UNL     1     -23.976  18.840   8.145  1.00 20.00    -0.026 C 
HETATM    2  C2  UNL     1     -26.140  17.581  12.327  1.00 20.00    -0.027 C 
HETATM    3  C3  UNL     1     -23.023  17.912   8.310  1.00 20.00    -0.001 C 
HETATM    4  C4  UNL     1     -25.779  18.600  11.535  1.00 20.00     0.005 C 
HETATM    5  C5  UNL     1     -25.393  16.280  12.328  1.00 20.00     0.057 C 
HETATM    6  C6  UNL     1     -25.003  19.114   9.206  1.00 20.00     0.066 C 
HETATM    7  C7  UNL     1     -22.952  17.056   9.544  1.00 20.00     0.300 C 
HETATM    8  C8  UNL     1     -24.041  16.367  11.605  1.00 20.00     0.277 C 
HETATM    9  C9  UNL     1     -24.625  18.493  10.569  1.00 20.00     0.249 C 
HETATM   10  N10 UNL     1     -24.188  17.097  10.342  1.00 20.00     0.100 N 
ENDROOT
TORSDOF 0
ENDMDL
MODEL 3
REMARK VINA RESULT:      -4.4     15.670     16.619
REMARK  0 active torsions:
REMARK  status: ('A' for Active; 'I' for Inactive)
ROOT
HETATM    1  C1  UNL     1     -22.393  17.768   8.572  1.00 20.00    -0.026 C 
HETATM    2  C2  UNL     1     -25.329  16.766  12.332  1.00 20.00    -0.027 C 
HETATM    3  C3  UNL     1     -23.120  18.842   8.237  1.00 20.00    -0.001 C 
HETATM    4  C4  UNL     1     -24.617  16.251  11.321  1.00 20.00     0.005 C 
HETATM    5  C5  UNL     1     -25.884  18.159  12.276  1.00 20.00     0.057 C 
HETATM    6  C6  UNL     1     -22.824  16.834   9.667  1.00 20.00     0.066 C 
HETATM    7  C7  UNL     1     -24.384  19.206   8.965  1.00 20.00     0.300 C 
HETATM    8  C8  UNL     1     -25.833  18.766  10.867  1.00 20.00     0.277 C 
HETATM    9  C9  UNL     1     -24.298  17.046  10.079  1.00 20.00     0.249 C 
HETATM   10  N10 UNL     1     -24.531  18.499  10.247  1.00 20.00     0.100 N 
ENDROOT
TORSDOF 0
ENDMDL
MODEL 4
REMARK VINA RESULT:      -4.2      0.452      3.503
REMARK  0 active torsions:
REMARK  status: ('A' for Active; 'I' for Inactive)
ROOT
HETATM    1  C1  UNL     1     -32.587   5.981   1.711  1.00 20.00    -0.026 C 
HETATM    2  C2  UNL     1     -34.957   4.878   5.826  1.00 20.00    -0.027 C 
HETATM    3  C3  UNL     1     -32.261   7.195   2.176  1.00 20.00    -0.001 C 
HETATM    4  C4  UNL     1     -34.968   4.789   4.489  1.00 20.00     0.005 C 
HETATM    5  C5  UNL     1     -34.257   6.000   6.535  1.00 20.00     0.057 C 
HETATM    6  C6  UNL     1     -33.494   5.061   2.478  1.00 20.00     0.066 C 
HETATM    7  C7  UNL     1     -32.743   7.692   3.510  1.00 20.00     0.300 C 
HETATM    8  C8  UNL     1     -33.867   7.150   5.596  1.00 20.00     0.277 C 
HETATM    9  C9  UNL     1     -34.249   5.786   3.614  1.00 20.00     0.249 C 
HETATM   10  N10 UNL     1     -33.280   6.619   4.362  1.00 20.00     0.100 N 
ENDROOT
TORSDOF 0
ENDMDL
MODEL 5
REMARK VINA RESULT:      -4.1     11.439     12.326
REMARK  0 active torsions:
REMARK  status: ('A' for Active; 'I' for Inactive)
ROOT
HETATM    1  C1  UNL     1     -33.433  18.082  -0.750  1.00 20.00    -0.026 C 
HETATM    2  C2  UNL     1     -33.417  14.733  -4.293  1.00 20.00    -0.027 C 
HETATM    3  C3  UNL     1     -34.744  17.910  -0.538  1.00 20.00    -0.001 C 
HETATM    4  C4  UNL     1     -32.951  15.927  -3.901  1.00 20.00     0.005 C 
HETATM    5  C5  UNL     1     -34.730  14.200  -3.801  1.00 20.00     0.057 C 
HETATM    6  C6  UNL     1     -32.720  17.392  -1.879  1.00 20.00     0.066 C 
HETATM    7  C7  UNL     1     -35.573  16.984  -1.383  1.00 20.00     0.300 C 
HETATM    8  C8  UNL     1     -35.585  15.267  -3.105  1.00 20.00     0.277 C 
HETATM    9  C9  UNL     1     -33.696  16.793  -2.917  1.00 20.00     0.249 C 
HETATM   10  N10 UNL     1     -34.759  16.062  -2.191  1.00 20.00     0.100 N 
ENDROOT
TORSDOF 0
ENDMDL
MODEL 6
REMARK VINA RESULT:      -4.1     11.841     12.755
REMARK  0 active torsions:
REMARK  status: ('A' for Active; 'I' for Inactive)
ROOT
HETATM    1  C1  UNL     1     -31.905  18.850   0.516  1.00 20.00    -0.026 C 
HETATM    2  C2  UNL     1     -33.728  16.136  -3.100  1.00 20.00    -0.027 C 
HETATM    3  C3  UNL     1     -33.109  18.964   1.093  1.00 20.00    -0.001 C 
HETATM    4  C4  UNL     1     -32.873  17.117  -2.780  1.00 20.00     0.005 C 
HETATM    5  C5  UNL     1     -34.956  15.863  -2.283  1.00 20.00     0.057 C 
HETATM    6  C6  UNL     1     -31.730  18.181  -0.818  1.00 20.00     0.066 C 
HETATM    7  C7  UNL     1     -34.349  18.390   0.466  1.00 20.00     0.300 C 
HETATM    8  C8  UNL     1     -35.277  16.991  -1.292  1.00 20.00     0.277 C 
HETATM    9  C9  UNL     1     -33.069  17.984  -1.562  1.00 20.00     0.249 C 
HETATM   10  N10 UNL     1     -34.056  17.428  -0.609  1.00 20.00     0.100 N 
ENDROOT
TORSDOF 0
ENDMDL
MODEL 7
REMARK VINA RESULT:      -4.0     11.894     12.901
REMARK  0 active torsions:
REMARK  status: ('A' for Active; 'I' for Inactive)
ROOT
HETATM    1  C1  UNL     1     -35.092  15.847  -2.431  1.00 20.00    -0.026 C 
HETATM    2  C2  UNL     1     -32.997  18.787   0.844  1.00 20.00    -0.027 C 
HETATM    3  C3  UNL     1     -34.116  16.074  -3.321  1.00 20.00    -0.001 C 
HETATM    4  C4  UNL     1     -34.154  18.393   0.297  1.00 20.00     0.005 C 
HETATM    5  C5  UNL     1     -31.703  18.716   0.088  1.00 20.00     0.057 C 
HETATM    6  C6  UNL     1     -35.155  16.585  -1.124  1.00 20.00     0.066 C 
HETATM    7  C7  UNL     1     -33.001  17.045  -3.048  1.00 20.00     0.300 C 
HETATM    8  C8  UNL     1     -31.902  18.471  -1.414  1.00 20.00     0.277 C 
HETATM    9  C9  UNL     1     -34.227  17.820  -1.097  1.00 20.00     0.249 C 
HETATM   10  N10 UNL     1     -32.904  17.423  -1.629  1.00 20.00     0.100 N 
ENDROOT
TORSDOF 0
ENDMDL
MODEL 8
REMARK VINA RESULT:      -4.0     11.892     12.480
REMARK  0 active torsions:
REMARK  status: ('A' for Active; 'I' for Inactive)
ROOT
HETATM    1  C1  UNL     1     -34.374  16.998  -1.637  1.00 20.00    -0.026 C 
HETATM    2  C2  UNL     1     -36.386  14.344  -5.197  1.00 20.00    -0.027 C 
HETATM    3  C3  UNL     1     -33.193  17.027  -2.270  1.00 20.00    -0.001 C 
HETATM    4  C4  UNL     1     -36.302  14.529  -3.872  1.00 20.00     0.005 C 
HETATM    5  C5  UNL     1     -35.266  14.722  -6.119  1.00 20.00     0.057 C 
HETATM    6  C6  UNL     1     -35.525  16.183  -2.153  1.00 20.00     0.066 C 
HETATM    7  C7  UNL     1     -32.963  16.287  -3.558  1.00 20.00     0.300 C 
HETATM    8  C8  UNL     1     -33.954  15.014  -5.377  1.00 20.00     0.277 C 
HETATM    9  C9  UNL     1     -35.092  15.161  -3.228  1.00 20.00     0.249 C 
HETATM   10  N10 UNL     1     -34.213  15.849  -4.200  1.00 20.00     0.100 N 
ENDROOT
TORSDOF 0
ENDMDL
MODEL 9
REMARK VINA RESULT:      -4.0      0.797      2.173
REMARK  0 active torsions:
REMARK  status: ('A' for Active; 'I' for Inactive)
ROOT
HETATM    1  C1  UNL     1     -34.348   6.196   6.492  1.00 20.00    -0.026 C 
HETATM    2  C2  UNL     1     -32.279   6.968   2.146  1.00 20.00    -0.027 C 
HETATM    3  C3  UNL     1     -35.012   5.127   6.032  1.00 20.00    -0.001 C 
HETATM    4  C4  UNL     1     -32.843   7.543   3.217  1.00 20.00     0.005 C 
HETATM    5  C5  UNL     1     -32.629   5.571   1.726  1.00 20.00     0.057 C 
HETATM    6  C6  UNL     1     -33.532   7.069   5.581  1.00 20.00     0.066 C 
HETATM    7  C7  UNL     1     -34.945   4.709   4.589  1.00 20.00     0.300 C 
HETATM    8  C8  UNL     1     -33.884   5.033   2.426  1.00 20.00     0.277 C 
HETATM    9  C9  UNL     1     -33.835   6.813   4.088  1.00 20.00     0.249 C 
HETATM   10  N10 UNL     1     -33.842   5.351   3.857  1.00 20.00     0.100 N 
ENDROOT
TORSDOF 0
ENDMDL
