MODEL 1
REMARK VINA RESULT:      -4.5      0.000      0.000
REMARK  0 active torsions:
REMARK  status: ('A' for Active; 'I' for Inactive)
ROOT
HETATM    1  C1  UNL     1     -26.105  18.833  11.434  1.00 20.00    -0.027 C 
HETATM    2  C2  UNL     1     -21.943  17.797   9.952  1.00 20.00    -0.027 C 
HETATM    3  C3  UNL     1     -26.219  17.844  12.332  1.00 20.00    -0.001 C 
HETATM    4  C4  UNL     1     -21.858  17.836  11.288  1.00 20.00    -0.001 C 
HETATM    5  C5  UNL     1     -25.075  18.793  10.344  1.00 20.00     0.063 C 
HETATM    6  C6  UNL     1     -23.212  17.409   9.253  1.00 20.00     0.063 C 
HETATM    7  C7  UNL     1     -25.307  16.648  12.328  1.00 20.00     0.300 C 
HETATM    8  C8  UNL     1     -23.014  17.474  12.175  1.00 20.00     0.300 C 
HETATM    9  C9  UNL     1     -24.445  17.388  10.181  1.00 20.00     0.230 C 
HETATM   10  N10 UNL     1     -24.108  16.773  11.480  1.00 20.00     0.100 N 
ENDROOT
TORSDOF 0
ENDMDL
MODEL 2
REMARK VINA RESULT:      -4.3      0.895      3.364
REMARK  0 active torsions:
REMARK  status: ('A' for Active; 'I' for Inactive)
ROOT
HETATM    1  C1  UNL     1     -23.443  18.154   8.867  1.00 20.00    -0.027 C 
HETATM    2  C2  UNL     1     -26.213  17.199  12.332  1.00 20.00    -0.027 C 
HETATM    3  C3  UNL     1     -22.287  17.887   9.492  1.00 20.00    -0.001 C 
HETATM    4  C4  UNL     1     -25.397  16.145  12.213  1.00 20.00    -0.001 C 
HETATM    5  C5  UNL     1     -24.717  18.382   9.627  1.00 20.00     0.063 C 
HETATM    6  C6  UNL     1     -25.775  18.583  11.954  1.00 20.00     0.063 C 
HETATM    7  C7  UNL     1     -22.195  17.766  10.988  1.00 20.00     0.300 C 
HETATM    8  C8  UNL     1     -23.985  16.276  11.718  1.00 20.00     0.300 C 
HETATM    9  C9  UNL     1     -24.466  18.614  11.137  1.00 20.00     0.230 C 
HETATM   10  N10 UNL     1     -23.484  17.662  11.694  1.00 20.00     0.100 N 
ENDROOT
TORSDOF 0
ENDMDL
MODEL 3
REMARK VINA RESULT:      -4.1     17.961     18.955
REMARK  0 active torsions:
REMARK  status: ('A' for Active; 'I' for Inactive)
ROOT
HETATM    1  C1  UNL     1     -34.527  16.532  -2.275  1.00 20.00    -0.027 C 
HETATM    2  C2  UNL     1     -36.261  14.230  -5.780  1.00 20.00    -0.027 C 
HETATM    3  C3  UNL     1     -33.250  16.530  -2.681  1.00 20.00    -0.001 C 
HETATM    4  C4  UNL     1     -35.528  15.215  -6.314  1.00 20.00    -0.001 C 
HETATM    5  C5  UNL     1     -35.540  15.584  -2.847  1.00 20.00     0.063 C 
HETATM    6  C6  UNL     1     -35.917  13.621  -4.453  1.00 20.00     0.063 C 
HETATM    7  C7  UNL     1     -32.754  15.603  -3.757  1.00 20.00     0.300 C 
HETATM    8  C8  UNL     1     -34.304  15.761  -5.637  1.00 20.00     0.300 C 
HETATM    9  C9  UNL     1     -34.881  14.436  -3.650  1.00 20.00     0.230 C 
HETATM   10  N10 UNL     1     -33.803  14.920  -4.535  1.00 20.00     0.100 N 
ENDROOT
TORSDOF 0
ENDMDL
MODEL 4
REMARK VINA RESULT:      -4.1     17.013     17.981
REMARK  0 active torsions:
REMARK  status: ('A' for Active; 'I' for Inactive)
ROOT
HETATM    1  C1  UNL     1     -35.057  16.507  -1.543  1.00 20.00    -0.027 C 
HETATM    2  C2  UNL     1     -34.306  15.464  -5.896  1.00 20.00    -0.027 C 
HETATM    3  C3  UNL     1     -34.127  17.466  -1.433  1.00 20.00    -0.001 C 
HETATM    4  C4  UNL     1     -34.446  16.795  -5.856  1.00 20.00    -0.001 C 
HETATM    5  C5  UNL     1     -35.036  15.513  -2.667  1.00 20.00     0.063 C 
HETATM    6  C6  UNL     1     -33.755  14.693  -4.733  1.00 20.00     0.063 C 
HETATM    7  C7  UNL     1     -33.023  17.631  -2.441  1.00 20.00     0.300 C 
HETATM    8  C8  UNL     1     -34.042  17.608  -4.660  1.00 20.00     0.300 C 
HETATM    9  C9  UNL     1     -33.686  15.513  -3.427  1.00 20.00     0.230 C 
HETATM   10  N10 UNL     1     -33.197  16.879  -3.697  1.00 20.00     0.100 N 
ENDROOT
TORSDOF 0
ENDMDL
MODEL 5
REMARK VINA RESULT:      -4.0     17.966     18.906
REMARK  0 active torsions:
REMARK  status: ('A' for Active; 'I' for Inactive)
ROOT
HETATM    1  C1  UNL     1     -35.961  13.685  -4.447  1.00 20.00    -0.027 C 
HETATM    2  C2  UNL     1     -33.300  17.238  -3.501  1.00 20.00    -0.027 C 
HETATM    3  C3  UNL     1     -37.123  14.351  -4.502  1.00 20.00    -0.001 C 
HETATM    4  C4  UNL     1     -34.032  17.599  -4.562  1.00 20.00    -0.001 C 
HETATM    5  C5  UNL     1     -34.745  14.274  -3.793  1.00 20.00     0.063 C 
HETATM    6  C6  UNL     1     -33.817  16.271  -2.478  1.00 20.00     0.063 C 
HETATM    7  C7  UNL     1     -37.279  15.739  -3.945  1.00 20.00     0.300 C 
HETATM    8  C8  UNL     1     -35.424  17.083  -4.789  1.00 20.00     0.300 C 
HETATM    9  C9  UNL     1     -35.084  15.514  -2.930  1.00 20.00     0.230 C 
HETATM   10  N10 UNL     1     -36.021  16.430  -3.610  1.00 20.00     0.100 N 
ENDROOT
TORSDOF 0
ENDMDL
MODEL 6
REMARK VINA RESULT:      -4.0     17.165     18.309
REMARK  0 active torsions:
REMARK  status: ('A' for Active; 'I' for Inactive)
ROOT
HETATM    1  C1  UNL     1     -33.011  15.417  -3.832  1.00 20.00    -0.027 C 
HETATM    2  C2  UNL     1     -36.250  18.048  -2.049  1.00 20.00    -0.027 C 
HETATM    3  C3  UNL     1     -33.816  14.477  -4.346  1.00 20.00    -0.001 C 
HETATM    4  C4  UNL     1     -36.612  17.830  -3.319  1.00 20.00    -0.001 C 
HETATM    5  C5  UNL     1     -33.488  16.377  -2.782  1.00 20.00     0.063 C 
HETATM    6  C6  UNL     1     -35.451  17.044  -1.272  1.00 20.00     0.063 C 
HETATM    7  C7  UNL     1     -35.256  14.341  -3.932  1.00 20.00     0.300 C 
HETATM    8  C8  UNL     1     -36.266  16.561  -4.044  1.00 20.00     0.300 C 
HETATM    9  C9  UNL     1     -34.832  15.937  -2.150  1.00 20.00     0.230 C 
HETATM   10  N10 UNL     1     -35.801  15.475  -3.163  1.00 20.00     0.100 N 
ENDROOT
TORSDOF 0
ENDMDL
MODEL 7
REMARK VINA RESULT:      -3.9     18.352     19.293
REMARK  0 active torsions:
REMARK  status: ('A' for Active; 'I' for Inactive)
ROOT
HETATM    1  C1  UNL     1     -35.392  16.260  -6.708  1.00 20.00    -0.027 C 
HETATM    2  C2  UNL     1     -33.929  16.241  -2.412  1.00 20.00    -0.027 C 
HETATM    3  C3  UNL     1     -36.102  15.125  -6.653  1.00 20.00    -0.001 C 
HETATM    4  C4  UNL     1     -35.254  16.060  -2.350  1.00 20.00    -0.001 C 
HETATM    5  C5  UNL     1     -34.354  16.593  -5.676  1.00 20.00     0.063 C 
HETATM    6  C6  UNL     1     -33.122  15.767  -3.584  1.00 20.00     0.063 C 
HETATM    7  C7  UNL     1     -35.932  14.126  -5.541  1.00 20.00     0.300 C 
HETATM    8  C8  UNL     1     -36.018  15.352  -3.432  1.00 20.00     0.300 C 
HETATM    9  C9  UNL     1     -33.980  15.370  -4.804  1.00 20.00     0.230 C 
HETATM   10  N10 UNL     1     -35.168  14.604  -4.375  1.00 20.00     0.100 N 
ENDROOT
TORSDOF 0
ENDMDL
MODEL 8
REMARK VINA RESULT:      -3.8     17.008     18.047
REMARK  0 active torsions:
REMARK  status: ('A' for Active; 'I' for Inactive)
ROOT
HETATM    1  C1  UNL     1     -34.474  16.893  -5.823  1.00 20.00    -0.027 C 
HETATM    2  C2  UNL     1     -34.195  17.371  -1.319  1.00 20.00    -0.027 C 
HETATM    3  C3  UNL     1     -34.417  15.554  -5.858  1.00 20.00    -0.001 C 
HETATM    4  C4  UNL     1     -35.167  16.476  -1.534  1.00 20.00    -0.001 C 
HETATM    5  C5  UNL     1     -34.047  17.670  -4.612  1.00 20.00     0.063 C 
HETATM    6  C6  UNL     1     -33.037  17.519  -2.260  1.00 20.00     0.063 C 
HETATM    7  C7  UNL     1     -33.954  14.741  -4.681  1.00 20.00     0.300 C 
HETATM    8  C8  UNL     1     -35.155  15.546  -2.713  1.00 20.00     0.300 C 
HETATM    9  C9  UNL     1     -33.245  16.803  -3.611  1.00 20.00     0.230 C 
HETATM   10  N10 UNL     1     -33.856  15.474  -3.407  1.00 20.00     0.100 N 
ENDROOT
TORSDOF 0
ENDMDL
MODEL 9
REMARK VINA RESULT:      -3.8     18.170     19.121
REMARK  0 active torsions:
REMARK  status: ('A' for Active; 'I' for Inactive)
ROOT
HETATM    1  C1  UNL     1     -33.554  16.260  -2.602  1.00 20.00    -0.027 C 
HETATM    2  C2  UNL     1     -35.621  14.563  -6.268  1.00 20.00    -0.027 C 
HETATM    3  C3  UNL     1     -34.656  16.665  -1.955  1.00 20.00    -0.001 C 
HETATM    4  C4  UNL     1     -36.244  14.023  -5.213  1.00 20.00    -0.001 C 
HETATM    5  C5  UNL     1     -33.570  15.948  -4.070  1.00 20.00     0.063 C 
HETATM    6  C6  UNL     1     -34.993  15.923  -6.203  1.00 20.00     0.063 C 
HETATM    7  C7  UNL     1     -35.985  16.803  -2.645  1.00 20.00     0.300 C 
HETATM    8  C8  UNL     1     -36.377  14.748  -3.905  1.00 20.00     0.300 C 
HETATM    9  C9  UNL     1     -34.851  16.469  -4.767  1.00 20.00     0.230 C 
HETATM   10  N10 UNL     1     -36.069  16.188  -3.982  1.00 20.00     0.100 N 
ENDROOT
TORSDOF 0
ENDMDL
