MODEL 1
REMARK VINA RESULT:      -4.3      0.000      0.000
REMARK  0 active torsions:
REMARK  status: ('A' for Active; 'I' for Inactive)
ROOT
HETATM    1  C1  UNL     1     -36.688  14.091  -4.554  1.00 20.00     0.066 C 
HETATM    2  C2  UNL     1     -34.564  16.937  -2.370  1.00 20.00     0.032 C 
HETATM    3  C3  UNL     1     -35.015  15.497  -2.554  1.00 20.00     0.039 C 
HETATM    4  C4  UNL     1     -35.063  14.885  -6.235  1.00 20.00     0.051 C 
HETATM    5  C5  UNL     1     -34.753  17.521  -3.761  1.00 20.00     0.273 C 
HETATM    6  C6  UNL     1     -35.059  16.372  -5.909  1.00 20.00     0.274 C 
HETATM    7  C7  UNL     1     -35.257  14.222  -4.870  1.00 20.00     0.128 C 
HETATM    8  C8  UNL     1     -34.480  15.157  -3.940  1.00 20.00     0.240 C 
HETATM    9  N9  UNL     1     -37.816  13.989  -4.304  1.00 20.00    -0.197 NA
HETATM   10  N10 UNL     1     -34.316  16.444  -4.651  1.00 20.00     0.094 N 
ENDROOT
TORSDOF 0
ENDMDL
MODEL 2
REMARK VINA RESULT:      -4.2      1.235      2.945
REMARK  0 active torsions:
REMARK  status: ('A' for Active; 'I' for Inactive)
ROOT
HETATM    1  C1  UNL     1     -37.102  14.689  -4.186  1.00 20.00     0.066 C 
HETATM    2  C2  UNL     1     -34.847  15.841  -7.498  1.00 20.00     0.032 C 
HETATM    3  C3  UNL     1     -36.046  16.061  -6.589  1.00 20.00     0.039 C 
HETATM    4  C4  UNL     1     -34.917  15.178  -3.144  1.00 20.00     0.051 C 
HETATM    5  C5  UNL     1     -33.929  14.994  -6.630  1.00 20.00     0.273 C 
HETATM    6  C6  UNL     1     -33.989  14.605  -4.207  1.00 20.00     0.274 C 
HETATM    7  C7  UNL     1     -36.090  15.731  -3.955  1.00 20.00     0.128 C 
HETATM    8  C8  UNL     1     -35.398  16.241  -5.223  1.00 20.00     0.240 C 
HETATM    9  N9  UNL     1     -37.900  13.866  -4.368  1.00 20.00    -0.197 NA
HETATM   10  N10 UNL     1     -34.077  15.578  -5.296  1.00 20.00     0.094 N 
ENDROOT
TORSDOF 0
ENDMDL
MODEL 3
REMARK VINA RESULT:      -4.2     17.461     18.748
REMARK  0 active torsions:
REMARK  status: ('A' for Active; 'I' for Inactive)
ROOT
HETATM    1  C1  UNL     1     -22.193  17.596   8.230  1.00 20.00     0.066 C 
HETATM    2  C2  UNL     1     -23.705  16.690  12.008  1.00 20.00     0.032 C 
HETATM    3  C3  UNL     1     -22.540  17.127  11.133  1.00 20.00     0.039 C 
HETATM    4  C4  UNL     1     -24.001  19.263   8.445  1.00 20.00     0.051 C 
HETATM    5  C5  UNL     1     -24.908  16.997  11.129  1.00 20.00     0.273 C 
HETATM    6  C6  UNL     1     -25.062  18.409   9.127  1.00 20.00     0.274 C 
HETATM    7  C7  UNL     1     -22.689  18.731   9.023  1.00 20.00     0.128 C 
HETATM    8  C8  UNL     1     -23.083  18.382  10.461  1.00 20.00     0.240 C 
HETATM    9  N9  UNL     1     -21.803  16.700   7.604  1.00 20.00    -0.197 NA
HETATM   10  N10 UNL     1     -24.559  18.268  10.494  1.00 20.00     0.094 N 
ENDROOT
TORSDOF 0
ENDMDL
MODEL 4
REMARK VINA RESULT:      -4.2      1.594      1.914
REMARK  0 active torsions:
REMARK  status: ('A' for Active; 'I' for Inactive)
ROOT
HETATM    1  C1  UNL     1     -35.935  13.826  -4.891  1.00 20.00     0.066 C 
HETATM    2  C2  UNL     1     -34.004  16.392  -2.232  1.00 20.00     0.032 C 
HETATM    3  C3  UNL     1     -33.954  15.506  -3.467  1.00 20.00     0.039 C 
HETATM    4  C4  UNL     1     -37.257  15.893  -5.159  1.00 20.00     0.051 C 
HETATM    5  C5  UNL     1     -35.492  16.666  -2.084  1.00 20.00     0.273 C 
HETATM    6  C6  UNL     1     -37.307  16.359  -3.710  1.00 20.00     0.274 C 
HETATM    7  C7  UNL     1     -35.878  15.244  -5.278  1.00 20.00     0.128 C 
HETATM    8  C8  UNL     1     -35.023  16.123  -4.360  1.00 20.00     0.240 C 
HETATM    9  N9  UNL     1     -35.980  12.707  -4.584  1.00 20.00    -0.197 NA
HETATM   10  N10 UNL     1     -35.950  16.848  -3.462  1.00 20.00     0.094 N 
ENDROOT
TORSDOF 0
ENDMDL
MODEL 5
REMARK VINA RESULT:      -4.0      1.613      3.093
REMARK  0 active torsions:
REMARK  status: ('A' for Active; 'I' for Inactive)
ROOT
HETATM    1  C1  UNL     1     -33.774  14.734  -5.621  1.00 20.00     0.066 C 
HETATM    2  C2  UNL     1     -37.712  14.696  -4.253  1.00 20.00     0.032 C 
HETATM    3  C3  UNL     1     -36.471  13.936  -4.693  1.00 20.00     0.039 C 
HETATM    4  C4  UNL     1     -33.552  15.905  -3.459  1.00 20.00     0.051 C 
HETATM    5  C5  UNL     1     -37.150  16.064  -3.897  1.00 20.00     0.273 C 
HETATM    6  C6  UNL     1     -34.826  16.739  -3.483  1.00 20.00     0.274 C 
HETATM    7  C7  UNL     1     -33.958  14.612  -4.166  1.00 20.00     0.128 C 
HETATM    8  C8  UNL     1     -35.413  14.438  -3.719  1.00 20.00     0.240 C 
HETATM    9  N9  UNL     1     -33.629  14.832  -6.768  1.00 20.00    -0.197 NA
HETATM   10  N10 UNL     1     -35.882  15.756  -3.236  1.00 20.00     0.094 N 
ENDROOT
TORSDOF 0
ENDMDL
MODEL 6
REMARK VINA RESULT:      -4.0      1.397      2.700
REMARK  0 active torsions:
REMARK  status: ('A' for Active; 'I' for Inactive)
ROOT
HETATM    1  C1  UNL     1     -35.889  13.880  -4.162  1.00 20.00     0.066 C 
HETATM    2  C2  UNL     1     -35.931  17.132  -6.770  1.00 20.00     0.032 C 
HETATM    3  C3  UNL     1     -36.688  16.139  -5.902  1.00 20.00     0.039 C 
HETATM    4  C4  UNL     1     -34.547  15.530  -2.908  1.00 20.00     0.051 C 
HETATM    5  C5  UNL     1     -34.524  17.064  -6.196  1.00 20.00     0.273 C 
HETATM    6  C6  UNL     1     -33.754  16.144  -4.054  1.00 20.00     0.274 C 
HETATM    7  C7  UNL     1     -35.902  15.214  -3.541  1.00 20.00     0.128 C 
HETATM    8  C8  UNL     1     -36.082  16.374  -4.525  1.00 20.00     0.240 C 
HETATM    9  N9  UNL     1     -35.877  12.828  -4.652  1.00 20.00    -0.197 NA
HETATM   10  N10 UNL     1     -34.744  16.964  -4.752  1.00 20.00     0.094 N 
ENDROOT
TORSDOF 0
ENDMDL
MODEL 7
REMARK VINA RESULT:      -3.8      2.007      4.206
REMARK  0 active torsions:
REMARK  status: ('A' for Active; 'I' for Inactive)
ROOT
HETATM    1  C1  UNL     1     -33.037  18.146  -3.555  1.00 20.00     0.066 C 
HETATM    2  C2  UNL     1     -34.981  14.550  -4.376  1.00 20.00     0.032 C 
HETATM    3  C3  UNL     1     -33.697  15.363  -4.327  1.00 20.00     0.039 C 
HETATM    4  C4  UNL     1     -33.989  17.590  -1.347  1.00 20.00     0.051 C 
HETATM    5  C5  UNL     1     -35.898  15.328  -3.445  1.00 20.00     0.273 C 
HETATM    6  C6  UNL     1     -35.343  17.042  -1.777  1.00 20.00     0.274 C 
HETATM    7  C7  UNL     1     -33.052  17.151  -2.472  1.00 20.00     0.128 C 
HETATM    8  C8  UNL     1     -33.629  15.788  -2.865  1.00 20.00     0.240 C 
HETATM    9  N9  UNL     1     -33.027  18.931  -4.410  1.00 20.00    -0.197 NA
HETATM   10  N10 UNL     1     -35.016  15.737  -2.351  1.00 20.00     0.094 N 
ENDROOT
TORSDOF 0
ENDMDL
MODEL 8
REMARK VINA RESULT:      -3.8      1.471      3.821
REMARK  0 active torsions:
REMARK  status: ('A' for Active; 'I' for Inactive)
ROOT
HETATM    1  C1  UNL     1     -33.283  17.145  -3.402  1.00 20.00     0.066 C 
HETATM    2  C2  UNL     1     -35.240  14.742  -6.191  1.00 20.00     0.032 C 
HETATM    3  C3  UNL     1     -33.971  15.105  -5.435  1.00 20.00     0.039 C 
HETATM    4  C4  UNL     1     -35.053  16.126  -2.014  1.00 20.00     0.051 C 
HETATM    5  C5  UNL     1     -36.326  15.360  -5.323  1.00 20.00     0.273 C 
HETATM    6  C6  UNL     1     -36.209  16.156  -3.004  1.00 20.00     0.274 C 
HETATM    7  C7  UNL     1     -33.831  15.875  -2.899  1.00 20.00     0.128 C 
HETATM    8  C8  UNL     1     -34.396  14.951  -3.981  1.00 20.00     0.240 C 
HETATM    9  N9  UNL     1     -32.852  18.146  -3.799  1.00 20.00    -0.197 NA
HETATM   10  N10 UNL     1     -35.869  15.100  -3.958  1.00 20.00     0.094 N 
ENDROOT
TORSDOF 0
ENDMDL
MODEL 9
REMARK VINA RESULT:      -3.8     18.068     18.891
REMARK  0 active torsions:
REMARK  status: ('A' for Active; 'I' for Inactive)
ROOT
HETATM    1  C1  UNL     1     -25.949  18.902  10.938  1.00 20.00     0.066 C 
HETATM    2  C2  UNL     1     -22.557  17.785   8.786  1.00 20.00     0.032 C 
HETATM    3  C3  UNL     1     -23.332  18.846   9.551  1.00 20.00     0.039 C 
HETATM    4  C4  UNL     1     -25.069  17.064  12.332  1.00 20.00     0.051 C 
HETATM    5  C5  UNL     1     -23.194  16.495   9.278  1.00 20.00     0.273 C 
HETATM    6  C6  UNL     1     -24.617  16.104  11.240  1.00 20.00     0.274 C 
HETATM    7  C7  UNL     1     -24.797  18.443  11.729  1.00 20.00     0.128 C 
HETATM    8  C8  UNL     1     -23.521  18.198  10.917  1.00 20.00     0.240 C 
HETATM    9  N9  UNL     1     -26.858  19.263  10.314  1.00 20.00    -0.197 NA
HETATM   10  N10 UNL     1     -23.412  16.738  10.705  1.00 20.00     0.094 N 
ENDROOT
TORSDOF 0
ENDMDL
