MODEL 1
REMARK VINA RESULT:      -4.8      0.000      0.000
REMARK  0 active torsions:
REMARK  status: ('A' for Active; 'I' for Inactive)
ROOT
HETATM    1  C1  UNL     1     -36.352  14.254  -4.178  1.00 20.00     0.101 C 
HETATM    2  C2  UNL     1     -33.839  14.503  -4.445  1.00 20.00     0.042 A 
HETATM    3  C3  UNL     1     -32.889  15.323  -3.876  1.00 20.00     0.092 A 
HETATM    4  C4  UNL     1     -35.093  14.850  -3.883  1.00 20.00     0.068 A 
HETATM    5  C5  UNL     1     -34.878  15.875  -2.982  1.00 20.00     0.032 A 
HETATM    6  C6  UNL     1     -35.821  16.606  -2.087  1.00 20.00     0.059 C 
HETATM    7  C7  UNL     1     -35.224  17.918  -1.573  1.00 20.00     0.008 C 
HETATM    8  C8  UNL     1     -33.792  17.707  -1.082  1.00 20.00     0.021 C 
HETATM    9  C9  UNL     1     -32.903  17.202  -2.217  1.00 20.00     0.128 C 
HETATM   10  N10 UNL     1     -37.379  13.768  -4.417  1.00 20.00    -0.191 NA
HETATM   11  N11 UNL     1     -33.530  16.146  -2.991  1.00 20.00    -0.359 N 
ENDROOT
TORSDOF 0
ENDMDL
MODEL 2
REMARK VINA RESULT:      -4.7      1.530      1.695
REMARK  0 active torsions:
REMARK  status: ('A' for Active; 'I' for Inactive)
ROOT
HETATM    1  C1  UNL     1     -36.963  14.657  -4.530  1.00 20.00     0.101 C 
HETATM    2  C2  UNL     1     -35.527  16.161  -5.988  1.00 20.00     0.042 A 
HETATM    3  C3  UNL     1     -34.479  17.022  -5.742  1.00 20.00     0.092 A 
HETATM    4  C4  UNL     1     -35.921  15.603  -4.746  1.00 20.00     0.068 A 
HETATM    5  C5  UNL     1     -35.103  16.136  -3.770  1.00 20.00     0.032 A 
HETATM    6  C6  UNL     1     -35.043  15.890  -2.300  1.00 20.00     0.059 C 
HETATM    7  C7  UNL     1     -34.269  16.987  -1.565  1.00 20.00     0.008 C 
HETATM    8  C8  UNL     1     -32.962  17.308  -2.290  1.00 20.00     0.021 C 
HETATM    9  C9  UNL     1     -33.240  17.802  -3.709  1.00 20.00     0.128 C 
HETATM   10  N10 UNL     1     -37.812  13.885  -4.354  1.00 20.00    -0.191 NA
HETATM   11  N11 UNL     1     -34.231  16.995  -4.396  1.00 20.00    -0.359 N 
ENDROOT
TORSDOF 0
ENDMDL
MODEL 3
REMARK VINA RESULT:      -4.6      1.554      4.665
REMARK  0 active torsions:
REMARK  status: ('A' for Active; 'I' for Inactive)
ROOT
HETATM    1  C1  UNL     1     -32.203  18.143  -1.261  1.00 20.00     0.101 C 
HETATM    2  C2  UNL     1     -34.669  17.773  -0.779  1.00 20.00     0.042 A 
HETATM    3  C3  UNL     1     -35.638  16.948  -1.308  1.00 20.00     0.092 A 
HETATM    4  C4  UNL     1     -33.464  17.520  -1.481  1.00 20.00     0.068 A 
HETATM    5  C5  UNL     1     -33.726  16.544  -2.423  1.00 20.00     0.032 A 
HETATM    6  C6  UNL     1     -32.834  15.872  -3.412  1.00 20.00     0.059 C 
HETATM    7  C7  UNL     1     -33.628  15.162  -4.512  1.00 20.00     0.008 C 
HETATM    8  C8  UNL     1     -34.774  14.347  -3.913  1.00 20.00     0.021 C 
HETATM    9  C9  UNL     1     -35.739  15.252  -3.150  1.00 20.00     0.128 C 
HETATM   10  N10 UNL     1     -31.175  18.650  -1.081  1.00 20.00    -0.191 NA
HETATM   11  N11 UNL     1     -35.054  16.208  -2.299  1.00 20.00    -0.359 N 
ENDROOT
TORSDOF 0
ENDMDL
MODEL 4
REMARK VINA RESULT:      -4.5     11.872     12.321
REMARK  0 active torsions:
REMARK  status: ('A' for Active; 'I' for Inactive)
ROOT
HETATM    1  C1  UNL     1     -32.528   7.325   1.778  1.00 20.00     0.101 C 
HETATM    2  C2  UNL     1     -33.244   4.894   1.957  1.00 20.00     0.042 A 
HETATM    3  C3  UNL     1     -33.827   4.136   2.949  1.00 20.00     0.092 A 
HETATM    4  C4  UNL     1     -33.083   6.208   2.465  1.00 20.00     0.068 A 
HETATM    5  C5  UNL     1     -33.574   6.220   3.756  1.00 20.00     0.032 A 
HETATM    6  C6  UNL     1     -33.689   7.326   4.751  1.00 20.00     0.059 C 
HETATM    7  C7  UNL     1     -33.910   6.800   6.171  1.00 20.00     0.008 C 
HETATM    8  C8  UNL     1     -34.983   5.712   6.186  1.00 20.00     0.021 C 
HETATM    9  C9  UNL     1     -34.566   4.531   5.310  1.00 20.00     0.128 C 
HETATM   10  N10 UNL     1     -32.076   8.236   1.219  1.00 20.00    -0.191 NA
HETATM   11  N11 UNL     1     -34.024   4.950   4.030  1.00 20.00    -0.359 N 
ENDROOT
TORSDOF 0
ENDMDL
MODEL 5
REMARK VINA RESULT:      -4.2      2.391      3.110
REMARK  0 active torsions:
REMARK  status: ('A' for Active; 'I' for Inactive)
ROOT
HETATM    1  C1  UNL     1     -35.436  13.856  -4.246  1.00 20.00     0.101 C 
HETATM    2  C2  UNL     1     -34.467  15.616  -2.692  1.00 20.00     0.042 A 
HETATM    3  C3  UNL     1     -34.035  16.914  -2.860  1.00 20.00     0.092 A 
HETATM    4  C4  UNL     1     -34.903  15.144  -3.955  1.00 20.00     0.068 A 
HETATM    5  C5  UNL     1     -34.728  16.167  -4.866  1.00 20.00     0.032 A 
HETATM    6  C6  UNL     1     -35.039  16.246  -6.323  1.00 20.00     0.059 C 
HETATM    7  C7  UNL     1     -34.311  17.407  -7.004  1.00 20.00     0.008 C 
HETATM    8  C8  UNL     1     -34.435  18.686  -6.177  1.00 20.00     0.021 C 
HETATM    9  C9  UNL     1     -33.818  18.495  -4.792  1.00 20.00     0.128 C 
HETATM   10  N10 UNL     1     -35.870  12.806  -4.483  1.00 20.00    -0.191 NA
HETATM   11  N11 UNL     1     -34.201  17.236  -4.180  1.00 20.00    -0.359 N 
ENDROOT
TORSDOF 0
ENDMDL
MODEL 6
REMARK VINA RESULT:      -4.2      1.547      3.712
REMARK  0 active torsions:
REMARK  status: ('A' for Active; 'I' for Inactive)
ROOT
HETATM    1  C1  UNL     1     -35.246  16.843  -1.067  1.00 20.00     0.101 C 
HETATM    2  C2  UNL     1     -33.194  16.612  -2.546  1.00 20.00     0.042 A 
HETATM    3  C3  UNL     1     -32.953  16.025  -3.769  1.00 20.00     0.092 A 
HETATM    4  C4  UNL     1     -34.561  16.401  -2.234  1.00 20.00     0.068 A 
HETATM    5  C5  UNL     1     -35.122  15.690  -3.276  1.00 20.00     0.032 A 
HETATM    6  C6  UNL     1     -36.520  15.219  -3.500  1.00 20.00     0.059 C 
HETATM    7  C7  UNL     1     -36.595  14.133  -4.577  1.00 20.00     0.008 C 
HETATM    8  C8  UNL     1     -35.768  14.526  -5.801  1.00 20.00     0.021 C 
HETATM    9  C9  UNL     1     -34.299  14.709  -5.423  1.00 20.00     0.128 C 
HETATM   10  N10 UNL     1     -35.806  17.204  -0.116  1.00 20.00    -0.191 NA
HETATM   11  N11 UNL     1     -34.128  15.473  -4.201  1.00 20.00    -0.359 N 
ENDROOT
TORSDOF 0
ENDMDL
MODEL 7
REMARK VINA RESULT:      -4.1      1.462      1.822
REMARK  0 active torsions:
REMARK  status: ('A' for Active; 'I' for Inactive)
ROOT
HETATM    1  C1  UNL     1     -35.366  13.851  -4.213  1.00 20.00     0.101 C 
HETATM    2  C2  UNL     1     -33.360  15.322  -3.699  1.00 20.00     0.042 A 
HETATM    3  C3  UNL     1     -33.206  16.640  -3.324  1.00 20.00     0.092 A 
HETATM    4  C4  UNL     1     -34.750  15.081  -3.844  1.00 20.00     0.068 A 
HETATM    5  C5  UNL     1     -35.411  16.258  -3.554  1.00 20.00     0.032 A 
HETATM    6  C6  UNL     1     -36.867  16.580  -3.516  1.00 20.00     0.059 C 
HETATM    7  C7  UNL     1     -37.123  18.089  -3.548  1.00 20.00     0.008 C 
HETATM    8  C8  UNL     1     -36.205  18.815  -2.566  1.00 20.00     0.021 C 
HETATM    9  C9  UNL     1     -34.738  18.582  -2.925  1.00 20.00     0.128 C 
HETATM   10  N10 UNL     1     -35.869  12.850  -4.513  1.00 20.00    -0.191 NA
HETATM   11  N11 UNL     1     -34.454  17.193  -3.238  1.00 20.00    -0.359 N 
ENDROOT
TORSDOF 0
ENDMDL
MODEL 8
REMARK VINA RESULT:      -4.0      2.411      4.565
REMARK  0 active torsions:
REMARK  status: ('A' for Active; 'I' for Inactive)
ROOT
HETATM    1  C1  UNL     1     -34.642  18.236   1.294  1.00 20.00     0.101 C 
HETATM    2  C2  UNL     1     -32.507  18.700  -0.000  1.00 20.00     0.042 A 
HETATM    3  C3  UNL     1     -32.037  18.330  -1.242  1.00 20.00     0.092 A 
HETATM    4  C4  UNL     1     -33.787  18.112   0.163  1.00 20.00     0.068 A 
HETATM    5  C5  UNL     1     -34.068  17.398  -0.985  1.00 20.00     0.032 A 
HETATM    6  C6  UNL     1     -35.273  16.611  -1.378  1.00 20.00     0.059 C 
HETATM    7  C7  UNL     1     -34.984  15.665  -2.547  1.00 20.00     0.008 C 
HETATM    8  C8  UNL     1     -34.210  16.386  -3.650  1.00 20.00     0.021 C 
HETATM    9  C9  UNL     1     -32.871  16.899  -3.122  1.00 20.00     0.128 C 
HETATM   10  N10 UNL     1     -35.340  18.336   2.216  1.00 20.00    -0.191 NA
HETATM   11  N11 UNL     1     -32.992  17.544  -1.828  1.00 20.00    -0.359 N 
ENDROOT
TORSDOF 0
ENDMDL
MODEL 9
REMARK VINA RESULT:      -3.9      1.868      2.711
REMARK  0 active torsions:
REMARK  status: ('A' for Active; 'I' for Inactive)
ROOT
HETATM    1  C1  UNL     1     -35.164  15.800  -2.935  1.00 20.00     0.101 C 
HETATM    2  C2  UNL     1     -32.991  17.107  -2.792  1.00 20.00     0.042 A 
HETATM    3  C3  UNL     1     -32.411  17.905  -1.829  1.00 20.00     0.092 A 
HETATM    4  C4  UNL     1     -34.233  16.655  -2.280  1.00 20.00     0.068 A 
HETATM    5  C5  UNL     1     -34.382  17.189  -1.014  1.00 20.00     0.032 A 
HETATM    6  C6  UNL     1     -35.470  17.030  -0.006  1.00 20.00     0.059 C 
HETATM    7  C7  UNL     1     -35.415  18.113   1.074  1.00 20.00     0.008 C 
HETATM    8  C8  UNL     1     -33.986  18.295   1.587  1.00 20.00     0.021 C 
HETATM    9  C9  UNL     1     -33.056  18.719   0.452  1.00 20.00     0.128 C 
HETATM   10  N10 UNL     1     -35.923  15.103  -3.468  1.00 20.00    -0.191 NA
HETATM   11  N11 UNL     1     -33.262  17.944  -0.758  1.00 20.00    -0.359 N 
ENDROOT
TORSDOF 0
ENDMDL
