MODEL 1
REMARK VINA RESULT:      -4.9      0.000      0.000
REMARK  1 active torsions:
REMARK  status: ('A' for Active; 'I' for Inactive)
REMARK    1  A    between atoms: C3_3  and  C5_5 
ROOT
HETATM    1  C1  UNL     1     -33.108   5.290   1.802  1.00 20.00     0.034 A 
HETATM    2  C2  UNL     1     -33.760   4.423   2.653  1.00 20.00     0.092 A 
HETATM    3  C3  UNL     1     -32.935   6.515   2.493  1.00 20.00     0.025 A 
HETATM    4  C4  UNL     1     -33.485   6.367   3.751  1.00 20.00     0.024 A 
HETATM    5  C6  UNL     1     -33.615   7.330   4.883  1.00 20.00     0.058 C 
HETATM    6  C7  UNL     1     -33.920   6.623   6.205  1.00 20.00     0.008 C 
HETATM    7  C8  UNL     1     -35.022   5.581   6.023  1.00 20.00     0.021 C 
HETATM    8  C9  UNL     1     -34.598   4.518   5.012  1.00 20.00     0.128 C 
HETATM    9  N10 UNL     1     -33.983   5.089   3.827  1.00 20.00    -0.359 N 
ENDROOT
BRANCH   3  10
HETATM   10  C5  UNL     1     -32.311   7.711   2.002  1.00 20.00     0.272 C 
HETATM   11  O11 UNL     1     -32.672   8.308   0.971  1.00 20.00    -0.301 OA
ENDBRANCH   3  10
TORSDOF 1
ENDMDL
MODEL 2
REMARK VINA RESULT:      -4.7     11.452     11.987
REMARK  1 active torsions:
REMARK  status: ('A' for Active; 'I' for Inactive)
REMARK    1  A    between atoms: C3_3  and  C5_5 
ROOT
HETATM    1  C1  UNL     1     -33.427  14.432  -4.485  1.00 20.00     0.034 A 
HETATM    2  C2  UNL     1     -32.602  15.386  -3.929  1.00 20.00     0.092 A 
HETATM    3  C3  UNL     1     -34.713  14.596  -3.914  1.00 20.00     0.025 A 
HETATM    4  C4  UNL     1     -34.643  15.647  -3.022  1.00 20.00     0.024 A 
HETATM    5  C6  UNL     1     -35.676  16.238  -2.122  1.00 20.00     0.058 C 
HETATM    6  C7  UNL     1     -35.273  17.626  -1.620  1.00 20.00     0.008 C 
HETATM    7  C8  UNL     1     -33.822  17.630  -1.142  1.00 20.00     0.021 C 
HETATM    8  C9  UNL     1     -32.877  17.253  -2.282  1.00 20.00     0.128 C 
HETATM    9  N10 UNL     1     -33.351  16.113  -3.044  1.00 20.00    -0.359 N 
ENDROOT
BRANCH   3  10
HETATM   10  C5  UNL     1     -35.892  13.823  -4.187  1.00 20.00     0.272 C 
HETATM   11  O11 UNL     1     -35.873  12.622  -4.514  1.00 20.00    -0.301 OA
ENDBRANCH   3  10
TORSDOF 1
ENDMDL
MODEL 3
REMARK VINA RESULT:      -4.7     11.636     12.816
REMARK  1 active torsions:
REMARK  status: ('A' for Active; 'I' for Inactive)
REMARK    1  A    between atoms: C3_3  and  C5_5 
ROOT
HETATM    1  C1  UNL     1     -35.243  15.337  -6.241  1.00 20.00     0.034 A 
HETATM    2  C2  UNL     1     -34.443  16.450  -6.091  1.00 20.00     0.092 A 
HETATM    3  C3  UNL     1     -35.507  14.826  -4.945  1.00 20.00     0.025 A 
HETATM    4  C4  UNL     1     -34.862  15.640  -4.036  1.00 20.00     0.024 A 
HETATM    5  C6  UNL     1     -34.767  15.563  -2.549  1.00 20.00     0.058 C 
HETATM    6  C7  UNL     1     -34.299  16.885  -1.935  1.00 20.00     0.008 C 
HETATM    7  C8  UNL     1     -33.101  17.444  -2.700  1.00 20.00     0.021 C 
HETATM    8  C9  UNL     1     -33.468  17.711  -4.159  1.00 20.00     0.128 C 
HETATM    9  N10 UNL     1     -34.219  16.620  -4.752  1.00 20.00    -0.359 N 
ENDROOT
BRANCH   3  10
HETATM   10  C5  UNL     1     -36.292  13.673  -4.609  1.00 20.00     0.272 C 
HETATM   11  O11 UNL     1     -35.825  12.523  -4.501  1.00 20.00    -0.301 OA
ENDBRANCH   3  10
TORSDOF 1
ENDMDL
MODEL 4
REMARK VINA RESULT:      -4.4     11.665     12.488
REMARK  1 active torsions:
REMARK  status: ('A' for Active; 'I' for Inactive)
REMARK    1  A    between atoms: C3_3  and  C5_5 
ROOT
HETATM    1  C1  UNL     1     -34.539  17.764  -0.772  1.00 20.00     0.034 A 
HETATM    2  C2  UNL     1     -35.522  16.921  -1.244  1.00 20.00     0.092 A 
HETATM    3  C3  UNL     1     -33.369  17.524  -1.536  1.00 20.00     0.025 A 
HETATM    4  C4  UNL     1     -33.667  16.540  -2.457  1.00 20.00     0.024 A 
HETATM    5  C6  UNL     1     -32.817  15.876  -3.489  1.00 20.00     0.058 C 
HETATM    6  C7  UNL     1     -33.657  15.147  -4.540  1.00 20.00     0.008 C 
HETATM    7  C8  UNL     1     -34.757  14.319  -3.877  1.00 20.00     0.021 C 
HETATM    8  C9  UNL     1     -35.695  15.214  -3.069  1.00 20.00     0.128 C 
HETATM    9  N10 UNL     1     -34.979  16.185  -2.262  1.00 20.00    -0.359 N 
ENDROOT
BRANCH   3  10
HETATM   10  C5  UNL     1     -32.093  18.166  -1.398  1.00 20.00     0.272 C 
HETATM   11  O11 UNL     1     -31.731  19.144  -2.078  1.00 20.00    -0.301 OA
ENDBRANCH   3  10
TORSDOF 1
ENDMDL
MODEL 5
REMARK VINA RESULT:      -4.3     11.753     12.304
REMARK  1 active torsions:
REMARK  status: ('A' for Active; 'I' for Inactive)
REMARK    1  A    between atoms: C3_3  and  C5_5 
ROOT
HETATM    1  C1  UNL     1     -34.865  14.253  -4.400  1.00 20.00     0.034 A 
HETATM    2  C2  UNL     1     -33.688  14.808  -3.945  1.00 20.00     0.092 A 
HETATM    3  C3  UNL     1     -35.931  15.015  -3.860  1.00 20.00     0.025 A 
HETATM    4  C4  UNL     1     -35.379  16.017  -3.087  1.00 20.00     0.024 A 
HETATM    5  C6  UNL     1     -36.020  17.085  -2.265  1.00 20.00     0.058 C 
HETATM    6  C7  UNL     1     -35.038  18.206  -1.915  1.00 20.00     0.008 C 
HETATM    7  C8  UNL     1     -33.709  17.630  -1.429  1.00 20.00     0.021 C 
HETATM    8  C9  UNL     1     -33.065  16.768  -2.513  1.00 20.00     0.128 C 
HETATM    9  N10 UNL     1     -34.014  15.873  -3.150  1.00 20.00    -0.359 N 
ENDROOT
BRANCH   3  10
HETATM   10  C5  UNL     1     -37.337  14.805  -4.056  1.00 20.00     0.272 C 
HETATM   11  O11 UNL     1     -37.833  13.720  -4.413  1.00 20.00    -0.301 OA
ENDBRANCH   3  10
TORSDOF 1
ENDMDL
MODEL 6
REMARK VINA RESULT:      -4.1     11.302     12.534
REMARK  1 active torsions:
REMARK  status: ('A' for Active; 'I' for Inactive)
REMARK    1  A    between atoms: C3_3  and  C5_5 
ROOT
HETATM    1  C1  UNL     1     -37.304  15.156  -4.228  1.00 20.00     0.034 A 
HETATM    2  C2  UNL     1     -37.507  16.439  -3.765  1.00 20.00     0.092 A 
HETATM    3  C3  UNL     1     -35.979  14.786  -3.887  1.00 20.00     0.025 A 
HETATM    4  C4  UNL     1     -35.405  15.853  -3.224  1.00 20.00     0.024 A 
HETATM    5  C6  UNL     1     -34.032  16.036  -2.668  1.00 20.00     0.058 C 
HETATM    6  C7  UNL     1     -33.967  17.197  -1.674  1.00 20.00     0.008 C 
HETATM    7  C8  UNL     1     -34.683  18.428  -2.230  1.00 20.00     0.021 C 
HETATM    8  C9  UNL     1     -36.156  18.122  -2.493  1.00 20.00     0.128 C 
HETATM    9  N10 UNL     1     -36.350  16.848  -3.162  1.00 20.00    -0.359 N 
ENDROOT
BRANCH   3  10
HETATM   10  C5  UNL     1     -35.323  13.542  -4.171  1.00 20.00     0.272 C 
HETATM   11  O11 UNL     1     -35.917  12.513  -4.543  1.00 20.00    -0.301 OA
ENDBRANCH   3  10
TORSDOF 1
ENDMDL
MODEL 7
REMARK VINA RESULT:      -4.1     11.939     12.799
REMARK  1 active torsions:
REMARK  status: ('A' for Active; 'I' for Inactive)
REMARK    1  A    between atoms: C3_3  and  C5_5 
ROOT
HETATM    1  C1  UNL     1     -33.536  18.729   1.095  1.00 20.00     0.034 A 
HETATM    2  C2  UNL     1     -34.698  18.052   0.791  1.00 20.00     0.092 A 
HETATM    3  C3  UNL     1     -32.653  18.572  -0.002  1.00 20.00     0.025 A 
HETATM    4  C4  UNL     1     -33.297  17.802  -0.950  1.00 20.00     0.024 A 
HETATM    5  C6  UNL     1     -32.839  17.300  -2.278  1.00 20.00     0.058 C 
HETATM    6  C7  UNL     1     -34.009  16.838  -3.150  1.00 20.00     0.008 C 
HETATM    7  C8  UNL     1     -34.972  15.964  -2.348  1.00 20.00     0.021 C 
HETATM    8  C9  UNL     1     -35.549  16.741  -1.166  1.00 20.00     0.128 C 
HETATM    9  N10 UNL     1     -34.538  17.495  -0.448  1.00 20.00    -0.359 N 
ENDROOT
BRANCH   3  10
HETATM   10  C5  UNL     1     -31.324  19.099  -0.131  1.00 20.00     0.272 C 
HETATM   11  O11 UNL     1     -30.312  18.395  -0.308  1.00 20.00    -0.301 OA
ENDBRANCH   3  10
TORSDOF 1
ENDMDL
MODEL 8
REMARK VINA RESULT:      -4.1     11.635     12.660
REMARK  1 active torsions:
REMARK  status: ('A' for Active; 'I' for Inactive)
REMARK    1  A    between atoms: C3_3  and  C5_5 
ROOT
HETATM    1  C1  UNL     1     -33.654  14.621  -4.080  1.00 20.00     0.034 A 
HETATM    2  C2  UNL     1     -33.119  15.799  -3.603  1.00 20.00     0.092 A 
HETATM    3  C3  UNL     1     -35.065  14.757  -4.062  1.00 20.00     0.025 A 
HETATM    4  C4  UNL     1     -35.357  16.015  -3.574  1.00 20.00     0.024 A 
HETATM    5  C6  UNL     1     -36.665  16.683  -3.311  1.00 20.00     0.058 C 
HETATM    6  C7  UNL     1     -36.514  18.199  -3.161  1.00 20.00     0.008 C 
HETATM    7  C8  UNL     1     -35.340  18.539  -2.244  1.00 20.00     0.021 C 
HETATM    8  C9  UNL     1     -34.033  17.995  -2.817  1.00 20.00     0.128 C 
HETATM    9  N10 UNL     1     -34.161  16.632  -3.299  1.00 20.00    -0.359 N 
ENDROOT
BRANCH   3  10
HETATM   10  C5  UNL     1     -36.038  13.781  -4.464  1.00 20.00     0.272 C 
HETATM   11  O11 UNL     1     -35.820  12.556  -4.495  1.00 20.00    -0.301 OA
ENDBRANCH   3  10
TORSDOF 1
ENDMDL
MODEL 9
REMARK VINA RESULT:      -4.0     11.817     12.394
REMARK  1 active torsions:
REMARK  status: ('A' for Active; 'I' for Inactive)
REMARK    1  A    between atoms: C3_3  and  C5_5 
ROOT
HETATM    1  C1  UNL     1     -33.326  16.879  -2.291  1.00 20.00     0.034 A 
HETATM    2  C2  UNL     1     -32.918  16.263  -3.454  1.00 20.00     0.092 A 
HETATM    3  C3  UNL     1     -34.694  16.561  -2.098  1.00 20.00     0.025 A 
HETATM    4  C4  UNL     1     -35.088  15.758  -3.150  1.00 20.00     0.024 A 
HETATM    5  C6  UNL     1     -36.413  15.156  -3.478  1.00 20.00     0.058 C 
HETATM    6  C7  UNL     1     -36.290  14.023  -4.500  1.00 20.00     0.008 C 
HETATM    7  C8  UNL     1     -35.384  14.434  -5.660  1.00 20.00     0.021 C 
HETATM    8  C9  UNL     1     -33.979  14.763  -5.157  1.00 20.00     0.128 C 
HETATM    9  N10 UNL     1     -33.994  15.590  -3.964  1.00 20.00    -0.359 N 
ENDROOT
BRANCH   3  10
HETATM   10  C5  UNL     1     -35.542  16.985  -1.021  1.00 20.00     0.272 C 
HETATM   11  O11 UNL     1     -35.188  17.013   0.172  1.00 20.00    -0.301 OA
ENDBRANCH   3  10
TORSDOF 1
ENDMDL
