MODEL 1
REMARK VINA RESULT:      -5.1      0.000      0.000
REMARK  0 active torsions:
REMARK  status: ('A' for Active; 'I' for Inactive)
ROOT
HETATM    1  C1  UNL     1     -33.680   7.111   5.314  1.00 20.00     0.027 A 
HETATM    2  C2  UNL     1     -34.386   6.427   6.295  1.00 20.00     0.116 A 
HETATM    3  C3  UNL     1     -34.840   4.634   4.908  1.00 20.00     0.123 A 
HETATM    4  C4  UNL     1     -33.563   6.482   4.091  1.00 20.00    -0.045 A 
HETATM    5  C5  UNL     1     -34.148   5.230   3.881  1.00 20.00    -0.034 A 
HETATM    6  C6  UNL     1     -33.942   4.757   2.482  1.00 20.00     0.041 C 
HETATM    7  C7  UNL     1     -32.768   5.646   2.045  1.00 20.00     0.014 C 
HETATM    8  C8  UNL     1     -32.908   6.970   2.828  1.00 20.00     0.015 C 
HETATM    9  C9  UNL     1     -31.572   7.669   3.023  1.00 20.00     0.015 C 
HETATM   10  N10 UNL     1     -34.967   5.209   6.126  1.00 20.00    -0.273 NA
ENDROOT
TORSDOF 0
ENDMDL
MODEL 2
REMARK VINA RESULT:      -4.8     16.235     17.088
REMARK  0 active torsions:
REMARK  status: ('A' for Active; 'I' for Inactive)
ROOT
HETATM    1  C1  UNL     1     -25.130  18.908   9.061  1.00 20.00     0.027 A 
HETATM    2  C2  UNL     1     -24.520  18.813   7.817  1.00 20.00     0.116 A 
HETATM    3  C3  UNL     1     -22.553  17.972   8.697  1.00 20.00     0.123 A 
HETATM    4  C4  UNL     1     -24.382  18.492  10.145  1.00 20.00    -0.045 A 
HETATM    5  C5  UNL     1     -23.080  18.019   9.966  1.00 20.00    -0.034 A 
HETATM    6  C6  UNL     1     -22.440  17.669  11.266  1.00 20.00     0.041 C 
HETATM    7  C7  UNL     1     -23.675  17.537  12.170  1.00 20.00     0.014 C 
HETATM    8  C8  UNL     1     -24.735  18.509  11.607  1.00 20.00     0.015 C 
HETATM    9  C9  UNL     1     -26.153  18.068  11.934  1.00 20.00     0.015 C 
HETATM   10  N10 UNL     1     -23.256  18.357   7.606  1.00 20.00    -0.273 NA
ENDROOT
TORSDOF 0
ENDMDL
MODEL 3
REMARK VINA RESULT:      -4.6     11.852     12.448
REMARK  0 active torsions:
REMARK  status: ('A' for Active; 'I' for Inactive)
ROOT
HETATM    1  C1  UNL     1     -35.346  16.360  -1.666  1.00 20.00     0.027 A 
HETATM    2  C2  UNL     1     -34.687  17.408  -1.038  1.00 20.00     0.116 A 
HETATM    3  C3  UNL     1     -32.789  17.172  -2.338  1.00 20.00     0.123 A 
HETATM    4  C4  UNL     1     -34.659  15.724  -2.682  1.00 20.00    -0.045 A 
HETATM    5  C5  UNL     1     -33.368  16.130  -3.025  1.00 20.00    -0.034 A 
HETATM    6  C6  UNL     1     -32.795  15.282  -4.109  1.00 20.00     0.041 C 
HETATM    7  C7  UNL     1     -34.072  14.651  -4.686  1.00 20.00     0.014 C 
HETATM    8  C8  UNL     1     -35.073  14.542  -3.515  1.00 20.00     0.015 C 
HETATM    9  C9  UNL     1     -36.518  14.560  -3.988  1.00 20.00     0.015 C 
HETATM   10  N10 UNL     1     -33.431  17.831  -1.347  1.00 20.00    -0.273 NA
ENDROOT
TORSDOF 0
ENDMDL
MODEL 4
REMARK VINA RESULT:      -4.6     11.711     12.596
REMARK  0 active torsions:
REMARK  status: ('A' for Active; 'I' for Inactive)
ROOT
HETATM    1  C1  UNL     1     -35.512  15.110  -3.016  1.00 20.00     0.027 A 
HETATM    2  C2  UNL     1     -35.060  14.167  -3.930  1.00 20.00     0.116 A 
HETATM    3  C3  UNL     1     -32.972  15.145  -4.109  1.00 20.00     0.123 A 
HETATM    4  C4  UNL     1     -34.613  16.092  -2.651  1.00 20.00    -0.045 A 
HETATM    5  C5  UNL     1     -33.329  16.114  -3.200  1.00 20.00    -0.034 A 
HETATM    6  C6  UNL     1     -32.541  17.281  -2.708  1.00 20.00     0.041 C 
HETATM    7  C7  UNL     1     -33.339  17.658  -1.450  1.00 20.00     0.014 C 
HETATM    8  C8  UNL     1     -34.806  17.265  -1.731  1.00 20.00     0.015 C 
HETATM    9  C9  UNL     1     -35.577  16.964  -0.454  1.00 20.00     0.015 C 
HETATM   10  N10 UNL     1     -33.818  14.158  -4.484  1.00 20.00    -0.273 NA
ENDROOT
TORSDOF 0
ENDMDL
MODEL 5
REMARK VINA RESULT:      -4.6     16.444     16.839
REMARK  0 active torsions:
REMARK  status: ('A' for Active; 'I' for Inactive)
ROOT
HETATM    1  C1  UNL     1     -22.883  17.645  11.227  1.00 20.00     0.027 A 
HETATM    2  C2  UNL     1     -23.753  17.537  12.305  1.00 20.00     0.116 A 
HETATM    3  C3  UNL     1     -25.511  18.504  11.155  1.00 20.00     0.123 A 
HETATM    4  C4  UNL     1     -23.400  18.205  10.075  1.00 20.00    -0.045 A 
HETATM    5  C5  UNL     1     -24.726  18.640  10.034  1.00 20.00    -0.034 A 
HETATM    6  C6  UNL     1     -25.062  19.253   8.717  1.00 20.00     0.041 C 
HETATM    7  C7  UNL     1     -23.932  18.690   7.841  1.00 20.00     0.014 C 
HETATM    8  C8  UNL     1     -22.714  18.498   8.770  1.00 20.00     0.015 C 
HETATM    9  C9  UNL     1     -21.777  17.407   8.274  1.00 20.00     0.015 C 
HETATM   10  N10 UNL     1     -25.049  17.949  12.299  1.00 20.00    -0.273 NA
ENDROOT
TORSDOF 0
ENDMDL
MODEL 6
REMARK VINA RESULT:      -4.6     11.719     12.620
REMARK  0 active torsions:
REMARK  status: ('A' for Active; 'I' for Inactive)
ROOT
HETATM    1  C1  UNL     1     -32.794  15.646  -3.842  1.00 20.00     0.027 A 
HETATM    2  C2  UNL     1     -33.394  14.587  -4.511  1.00 20.00     0.116 A 
HETATM    3  C3  UNL     1     -35.329  14.713  -3.252  1.00 20.00     0.123 A 
HETATM    4  C4  UNL     1     -33.539  16.244  -2.846  1.00 20.00    -0.045 A 
HETATM    5  C5  UNL     1     -34.821  15.777  -2.544  1.00 20.00    -0.034 A 
HETATM    6  C6  UNL     1     -35.427  16.531  -1.410  1.00 20.00     0.041 C 
HETATM    7  C7  UNL     1     -34.555  17.796  -1.405  1.00 20.00     0.014 C 
HETATM    8  C8  UNL     1     -33.163  17.368  -1.921  1.00 20.00     0.015 C 
HETATM    9  C9  UNL     1     -32.412  18.518  -2.575  1.00 20.00     0.015 C 
HETATM   10  N10 UNL     1     -34.638  14.107  -4.245  1.00 20.00    -0.273 NA
ENDROOT
TORSDOF 0
ENDMDL
MODEL 7
REMARK VINA RESULT:      -4.6     11.892     12.605
REMARK  0 active torsions:
REMARK  status: ('A' for Active; 'I' for Inactive)
ROOT
HETATM    1  C1  UNL     1     -37.066  16.046  -3.792  1.00 20.00     0.027 A 
HETATM    2  C2  UNL     1     -37.880  14.979  -4.150  1.00 20.00     0.116 A 
HETATM    3  C3  UNL     1     -36.090  13.569  -4.541  1.00 20.00     0.123 A 
HETATM    4  C4  UNL     1     -35.705  15.812  -3.812  1.00 20.00    -0.045 A 
HETATM    5  C5  UNL     1     -35.207  14.563  -4.190  1.00 20.00    -0.034 A 
HETATM    6  C6  UNL     1     -33.717  14.543  -4.188  1.00 20.00     0.041 C 
HETATM    7  C7  UNL     1     -33.412  15.764  -3.307  1.00 20.00     0.014 C 
HETATM    8  C8  UNL     1     -34.573  16.759  -3.524  1.00 20.00     0.015 C 
HETATM    9  C9  UNL     1     -34.783  17.671  -2.325  1.00 20.00     0.015 C 
HETATM   10  N10 UNL     1     -37.431  13.751  -4.522  1.00 20.00    -0.273 NA
ENDROOT
TORSDOF 0
ENDMDL
MODEL 8
REMARK VINA RESULT:      -4.6     11.589     12.610
REMARK  0 active torsions:
REMARK  status: ('A' for Active; 'I' for Inactive)
ROOT
HETATM    1  C1  UNL     1     -34.872  14.035  -3.839  1.00 20.00     0.027 A 
HETATM    2  C2  UNL     1     -35.884  13.322  -4.470  1.00 20.00     0.116 A 
HETATM    3  C3  UNL     1     -37.451  14.990  -4.138  1.00 20.00     0.123 A 
HETATM    4  C4  UNL     1     -35.209  15.286  -3.360  1.00 20.00    -0.045 A 
HETATM    5  C5  UNL     1     -36.510  15.773  -3.509  1.00 20.00    -0.034 A 
HETATM    6  C6  UNL     1     -36.668  17.116  -2.882  1.00 20.00     0.041 C 
HETATM    7  C7  UNL     1     -35.201  17.560  -2.778  1.00 20.00     0.014 C 
HETATM    8  C8  UNL     1     -34.367  16.273  -2.602  1.00 20.00     0.015 C 
HETATM    9  C9  UNL     1     -32.943  16.434  -3.113  1.00 20.00     0.015 C 
HETATM   10  N10 UNL     1     -37.159  13.765  -4.633  1.00 20.00    -0.273 NA
ENDROOT
TORSDOF 0
ENDMDL
MODEL 9
REMARK VINA RESULT:      -4.4     11.801     12.284
REMARK  0 active torsions:
REMARK  status: ('A' for Active; 'I' for Inactive)
ROOT
HETATM    1  C1  UNL     1     -32.813  16.902  -2.551  1.00 20.00     0.027 A 
HETATM    2  C2  UNL     1     -33.214  17.666  -1.463  1.00 20.00     0.116 A 
HETATM    3  C3  UNL     1     -35.343  16.764  -1.442  1.00 20.00     0.123 A 
HETATM    4  C4  UNL     1     -33.752  16.032  -3.069  1.00 20.00    -0.045 A 
HETATM    5  C5  UNL     1     -35.031  15.959  -2.513  1.00 20.00    -0.034 A 
HETATM    6  C6  UNL     1     -35.897  14.996  -3.252  1.00 20.00     0.041 C 
HETATM    7  C7  UNL     1     -34.838  14.167  -3.994  1.00 20.00     0.014 C 
HETATM    8  C8  UNL     1     -33.646  15.114  -4.255  1.00 20.00     0.015 C 
HETATM    9  C9  UNL     1     -32.329  14.363  -4.374  1.00 20.00     0.015 C 
HETATM   10  N10 UNL     1     -34.449  17.620  -0.895  1.00 20.00    -0.273 NA
ENDROOT
TORSDOF 0
ENDMDL
