MODEL 1
REMARK VINA RESULT:      -4.8      0.000      0.000
REMARK  2 active torsions:
REMARK  status: ('A' for Active; 'I' for Inactive)
REMARK    1  A    between atoms: C1_1  and  C8_8 
REMARK    2  A    between atoms: C5_5  and  C8_8 
ROOT
HETATM    1  C2  UNL     1     -34.422   6.070   5.847  1.00 20.00     0.003 C 
HETATM    2  C3  UNL     1     -33.413   6.951   5.083  1.00 20.00     0.007 C 
HETATM    3  C4  UNL     1     -35.157   5.038   4.988  1.00 20.00     0.034 C 
HETATM    4  C5  UNL     1     -33.367   6.698   3.566  1.00 20.00     0.023 C 
HETATM    5  C6  UNL     1     -34.202   4.344   4.072  1.00 20.00     0.151 A 
HETATM    6  C7  UNL     1     -33.248   5.220   3.313  1.00 20.00     0.155 A 
HETATM    7  O10 UNL     1     -34.378   4.613   2.677  1.00 20.00    -0.375 OA
ENDROOT
BRANCH   4   8
HETATM    8  C8  UNL     1     -32.221   7.466   2.914  1.00 20.00     0.076 C 
BRANCH   8   9
HETATM    9  C1  UNL     1     -32.487   7.768   1.465  1.00 20.00     0.231 C 
HETATM   10  O9  UNL     1     -32.878   8.846   1.029  1.00 20.00    -0.307 OA
ENDBRANCH   8   9
ENDBRANCH   4   8
TORSDOF 2
ENDMDL
MODEL 2
REMARK VINA RESULT:      -4.7      1.347      2.064
REMARK  2 active torsions:
REMARK  status: ('A' for Active; 'I' for Inactive)
REMARK    1  A    between atoms: C1_1  and  C8_8 
REMARK    2  A    between atoms: C5_5  and  C8_8 
ROOT
HETATM    1  C2  UNL     1     -34.156   4.279   3.225  1.00 20.00     0.003 C 
HETATM    2  C3  UNL     1     -33.283   5.365   2.566  1.00 20.00     0.007 C 
HETATM    3  C4  UNL     1     -34.437   4.492   4.715  1.00 20.00     0.034 C 
HETATM    4  C5  UNL     1     -32.773   6.447   3.534  1.00 20.00     0.023 C 
HETATM    5  C6  UNL     1     -34.805   5.916   4.978  1.00 20.00     0.151 A 
HETATM    6  C7  UNL     1     -33.924   6.960   4.355  1.00 20.00     0.155 A 
HETATM    7  O10 UNL     1     -33.862   6.664   5.754  1.00 20.00    -0.375 OA
ENDROOT
BRANCH   4   8
HETATM    8  C8  UNL     1     -32.082   7.580   2.781  1.00 20.00     0.076 C 
BRANCH   8   9
HETATM    9  C1  UNL     1     -32.657   7.786   1.407  1.00 20.00     0.231 C 
HETATM   10  O9  UNL     1     -32.934   8.875   0.913  1.00 20.00    -0.307 OA
ENDBRANCH   8   9
ENDBRANCH   4   8
TORSDOF 2
ENDMDL
MODEL 3
REMARK VINA RESULT:      -4.4     11.040     12.311
REMARK  2 active torsions:
REMARK  status: ('A' for Active; 'I' for Inactive)
REMARK    1  A    between atoms: C1_1  and  C8_8 
REMARK    2  A    between atoms: C5_5  and  C8_8 
ROOT
HETATM    1  C2  UNL     1     -35.143  16.828  -1.246  1.00 20.00     0.003 C 
HETATM    2  C3  UNL     1     -35.173  15.649  -2.240  1.00 20.00     0.007 C 
HETATM    3  C4  UNL     1     -34.011  17.833  -1.472  1.00 20.00     0.034 C 
HETATM    4  C5  UNL     1     -34.013  15.638  -3.251  1.00 20.00     0.023 C 
HETATM    5  C6  UNL     1     -33.886  18.162  -2.924  1.00 20.00     0.151 A 
HETATM    6  C7  UNL     1     -33.886  17.000  -3.875  1.00 20.00     0.155 A 
HETATM    7  O10 UNL     1     -32.685  17.712  -3.558  1.00 20.00    -0.375 OA
ENDROOT
BRANCH   4   8
HETATM    8  C8  UNL     1     -34.216  14.560  -4.311  1.00 20.00     0.076 C 
BRANCH   8   9
HETATM    9  C1  UNL     1     -35.545  13.868  -4.174  1.00 20.00     0.231 C 
HETATM   10  O9  UNL     1     -35.778  12.713  -4.515  1.00 20.00    -0.307 OA
ENDBRANCH   8   9
ENDBRANCH   4   8
TORSDOF 2
ENDMDL
MODEL 4
REMARK VINA RESULT:      -4.4     10.916     12.201
REMARK  2 active torsions:
REMARK  status: ('A' for Active; 'I' for Inactive)
REMARK    1  A    between atoms: C1_1  and  C8_8 
REMARK    2  A    between atoms: C5_5  and  C8_8 
ROOT
HETATM    1  C2  UNL     1     -35.275  17.007  -0.793  1.00 20.00     0.003 C 
HETATM    2  C3  UNL     1     -35.099  16.034  -1.976  1.00 20.00     0.007 C 
HETATM    3  C4  UNL     1     -34.083  17.932  -0.535  1.00 20.00     0.034 C 
HETATM    4  C5  UNL     1     -33.721  16.102  -2.657  1.00 20.00     0.023 C 
HETATM    5  C6  UNL     1     -33.579  18.505  -1.819  1.00 20.00     0.151 A 
HETATM    6  C7  UNL     1     -33.383  17.538  -2.951  1.00 20.00     0.155 A 
HETATM    7  O10 UNL     1     -32.274  18.071  -2.219  1.00 20.00    -0.375 OA
ENDROOT
BRANCH   4   8
HETATM    8  C8  UNL     1     -33.690  15.255  -3.926  1.00 20.00     0.076 C 
BRANCH   8   9
HETATM    9  C1  UNL     1     -34.706  14.147  -3.897  1.00 20.00     0.231 C 
HETATM   10  O9  UNL     1     -34.445  12.949  -3.924  1.00 20.00    -0.307 OA
ENDBRANCH   8   9
ENDBRANCH   4   8
TORSDOF 2
ENDMDL
MODEL 5
REMARK VINA RESULT:      -4.4     11.327     12.091
REMARK  2 active torsions:
REMARK  status: ('A' for Active; 'I' for Inactive)
REMARK    1  A    between atoms: C1_1  and  C8_8 
REMARK    2  A    between atoms: C5_5  and  C8_8 
ROOT
HETATM    1  C2  UNL     1     -34.444  17.519  -1.543  1.00 20.00     0.003 C 
HETATM    2  C3  UNL     1     -35.602  16.669  -2.101  1.00 20.00     0.007 C 
HETATM    3  C4  UNL     1     -33.050  17.103  -2.019  1.00 20.00     0.034 C 
HETATM    4  C5  UNL     1     -35.159  15.491  -2.988  1.00 20.00     0.023 C 
HETATM    5  C6  UNL     1     -33.057  16.842  -3.490  1.00 20.00     0.151 A 
HETATM    6  C7  UNL     1     -34.174  15.986  -4.011  1.00 20.00     0.155 A 
HETATM    7  O10 UNL     1     -32.841  15.481  -3.877  1.00 20.00    -0.375 OA
ENDROOT
BRANCH   4   8
HETATM    8  C8  UNL     1     -36.357  14.819  -3.651  1.00 20.00     0.076 C 
BRANCH   8   9
HETATM    9  C1  UNL     1     -35.944  13.813  -4.689  1.00 20.00     0.231 C 
HETATM   10  O9  UNL     1     -35.845  12.604  -4.502  1.00 20.00    -0.307 OA
ENDBRANCH   8   9
ENDBRANCH   4   8
TORSDOF 2
ENDMDL
MODEL 6
REMARK VINA RESULT:      -4.3     11.096     12.136
REMARK  2 active torsions:
REMARK  status: ('A' for Active; 'I' for Inactive)
REMARK    1  A    between atoms: C1_1  and  C8_8 
REMARK    2  A    between atoms: C5_5  and  C8_8 
ROOT
HETATM    1  C2  UNL     1     -32.855  17.607  -2.299  1.00 20.00     0.003 C 
HETATM    2  C3  UNL     1     -32.903  16.279  -3.081  1.00 20.00     0.007 C 
HETATM    3  C4  UNL     1     -34.222  18.217  -1.978  1.00 20.00     0.034 C 
HETATM    4  C5  UNL     1     -34.319  15.824  -3.477  1.00 20.00     0.023 C 
HETATM    5  C6  UNL     1     -35.159  17.166  -1.479  1.00 20.00     0.151 A 
HETATM    6  C7  UNL     1     -35.216  15.892  -2.272  1.00 20.00     0.155 A 
HETATM    7  O10 UNL     1     -36.263  16.865  -2.339  1.00 20.00    -0.375 OA
ENDROOT
BRANCH   4   8
HETATM    8  C8  UNL     1     -34.299  14.420  -4.075  1.00 20.00     0.076 C 
BRANCH   8   9
HETATM    9  C1  UNL     1     -35.678  13.832  -4.196  1.00 20.00     0.231 C 
HETATM   10  O9  UNL     1     -35.929  12.695  -4.582  1.00 20.00    -0.307 OA
ENDBRANCH   8   9
ENDBRANCH   4   8
TORSDOF 2
ENDMDL
MODEL 7
REMARK VINA RESULT:      -4.3     11.760     12.504
REMARK  2 active torsions:
REMARK  status: ('A' for Active; 'I' for Inactive)
REMARK    1  A    between atoms: C1_1  and  C8_8 
REMARK    2  A    between atoms: C5_5  and  C8_8 
ROOT
HETATM    1  C2  UNL     1     -33.415  15.742  -3.259  1.00 20.00     0.003 C 
HETATM    2  C3  UNL     1     -34.885  16.173  -3.082  1.00 20.00     0.007 C 
HETATM    3  C4  UNL     1     -33.176  14.699  -4.354  1.00 20.00     0.034 C 
HETATM    4  C5  UNL     1     -35.882  15.427  -3.986  1.00 20.00     0.023 C 
HETATM    5  C6  UNL     1     -33.936  15.056  -5.590  1.00 20.00     0.151 A 
HETATM    6  C7  UNL     1     -35.374  15.443  -5.402  1.00 20.00     0.155 A 
HETATM    7  O10 UNL     1     -35.003  14.168  -5.937  1.00 20.00    -0.375 OA
ENDROOT
BRANCH   4   8
HETATM    8  C8  UNL     1     -37.277  16.037  -3.890  1.00 20.00     0.076 C 
BRANCH   8   9
HETATM    9  C1  UNL     1     -38.352  15.071  -4.305  1.00 20.00     0.231 C 
HETATM   10  O9  UNL     1     -38.227  13.851  -4.350  1.00 20.00    -0.307 OA
ENDBRANCH   8   9
ENDBRANCH   4   8
TORSDOF 2
ENDMDL
MODEL 8
REMARK VINA RESULT:      -4.1     11.528     12.546
REMARK  2 active torsions:
REMARK  status: ('A' for Active; 'I' for Inactive)
REMARK    1  A    between atoms: C1_1  and  C8_8 
REMARK    2  A    between atoms: C5_5  and  C8_8 
ROOT
HETATM    1  C2  UNL     1     -34.000  15.501  -3.575  1.00 20.00     0.003 C 
HETATM    2  C3  UNL     1     -32.947  16.579  -3.254  1.00 20.00     0.007 C 
HETATM    3  C4  UNL     1     -35.176  15.436  -2.597  1.00 20.00     0.034 C 
HETATM    4  C5  UNL     1     -33.213  17.364  -1.957  1.00 20.00     0.023 C 
HETATM    5  C6  UNL     1     -35.678  16.809  -2.291  1.00 20.00     0.151 A 
HETATM    6  C7  UNL     1     -34.640  17.839  -1.949  1.00 20.00     0.155 A 
HETATM    7  O10 UNL     1     -35.476  17.254  -0.945  1.00 20.00    -0.375 OA
ENDROOT
BRANCH   4   8
HETATM    8  C8  UNL     1     -32.240  18.531  -1.810  1.00 20.00     0.076 C 
BRANCH   8   9
HETATM    9  C1  UNL     1     -31.520  18.510  -0.490  1.00 20.00     0.231 C 
HETATM   10  O9  UNL     1     -30.320  18.299  -0.343  1.00 20.00    -0.307 OA
ENDBRANCH   8   9
ENDBRANCH   4   8
TORSDOF 2
ENDMDL
MODEL 9
REMARK VINA RESULT:      -4.0     11.256     13.096
REMARK  2 active torsions:
REMARK  status: ('A' for Active; 'I' for Inactive)
REMARK    1  A    between atoms: C1_1  and  C8_8 
REMARK    2  A    between atoms: C5_5  and  C8_8 
ROOT
HETATM    1  C2  UNL     1     -33.188  16.496  -2.727  1.00 20.00     0.003 C 
HETATM    2  C3  UNL     1     -33.962  15.390  -3.473  1.00 20.00     0.007 C 
HETATM    3  C4  UNL     1     -33.028  17.806  -3.503  1.00 20.00     0.034 C 
HETATM    4  C5  UNL     1     -34.380  15.761  -4.907  1.00 20.00     0.023 C 
HETATM    5  C6  UNL     1     -34.318  18.193  -4.148  1.00 20.00     0.151 A 
HETATM    6  C7  UNL     1     -35.041  17.111  -4.897  1.00 20.00     0.155 A 
HETATM    7  O10 UNL     1     -34.331  18.150  -5.579  1.00 20.00    -0.375 OA
ENDROOT
BRANCH   4   8
HETATM    8  C8  UNL     1     -35.297  14.699  -5.506  1.00 20.00     0.076 C 
BRANCH   8   9
HETATM    9  C1  UNL     1     -35.906  13.812  -4.455  1.00 20.00     0.231 C 
HETATM   10  O9  UNL     1     -35.882  12.585  -4.466  1.00 20.00    -0.307 OA
ENDBRANCH   8   9
ENDBRANCH   4   8
TORSDOF 2
ENDMDL
