MODEL 1
REMARK VINA RESULT:      -3.8      0.000      0.000
REMARK  1 active torsions:
REMARK  status: ('A' for Active; 'I' for Inactive)
REMARK    1  A    between atoms: C4_4  and  C6_6 
ROOT
HETATM    1  C1  UNL     1     -25.365  18.516  12.150  1.00 20.00     0.280 C 
HETATM    2  C2  UNL     1     -25.899  17.088  12.166  1.00 20.00     0.104 C 
HETATM    3  C3  UNL     1     -23.996  16.654  10.250  1.00 20.00     0.109 C 
HETATM    4  C4  UNL     1     -23.667  18.138  10.447  1.00 20.00     0.229 C 
HETATM    5  N7  UNL     1     -24.849  18.916  10.840  1.00 20.00     0.089 N 
HETATM    6  S8  UNL     1     -24.594  15.888  11.784  1.00 20.00    -0.165 SA
HETATM    7  H21 UNL     1     -25.581  18.799  10.140  1.00 20.00     0.316 HD
ENDROOT
BRANCH   4   8
HETATM    8  C6  UNL     1     -23.121  18.722   9.141  1.00 20.00     0.032 C 
HETATM    9  C5  UNL     1     -22.517  17.665   8.278  1.00 20.00     0.007 C 
ENDBRANCH   4   8
TORSDOF 1
ENDMDL
MODEL 2
REMARK VINA RESULT:      -3.7      1.772      2.111
REMARK  1 active torsions:
REMARK  status: ('A' for Active; 'I' for Inactive)
REMARK    1  A    between atoms: C4_4  and  C6_6 
ROOT
HETATM    1  C1  UNL     1     -24.772  16.133  11.775  1.00 20.00     0.280 C 
HETATM    2  C2  UNL     1     -25.270  17.463  12.330  1.00 20.00     0.104 C 
HETATM    3  C3  UNL     1     -24.099  18.514  10.092  1.00 20.00     0.109 C 
HETATM    4  C4  UNL     1     -23.729  17.060   9.780  1.00 20.00     0.229 C 
HETATM    5  N7  UNL     1     -23.537  16.267  11.001  1.00 20.00     0.089 N 
HETATM    6  S8  UNL     1     -25.668  18.630  10.999  1.00 20.00    -0.165 SA
HETATM    7  H21 UNL     1     -22.821  16.703  11.581  1.00 20.00     0.316 HD
ENDROOT
BRANCH   4   8
HETATM    8  C6  UNL     1     -22.429  17.021   8.973  1.00 20.00     0.032 C 
HETATM    9  C5  UNL     1     -21.521  18.147   9.341  1.00 20.00     0.007 C 
ENDBRANCH   4   8
TORSDOF 1
ENDMDL
MODEL 3
REMARK VINA RESULT:      -3.6      2.042      3.713
REMARK  1 active torsions:
REMARK  status: ('A' for Active; 'I' for Inactive)
REMARK    1  A    between atoms: C4_4  and  C6_6 
ROOT
HETATM    1  C1  UNL     1     -24.032  16.522  11.185  1.00 20.00     0.280 C 
HETATM    2  C2  UNL     1     -23.500  16.759   9.777  1.00 20.00     0.104 C 
HETATM    3  C3  UNL     1     -25.113  18.967   9.841  1.00 20.00     0.109 C 
HETATM    4  C4  UNL     1     -25.469  18.486  11.253  1.00 20.00     0.229 C 
HETATM    5  N7  UNL     1     -25.394  17.024  11.371  1.00 20.00     0.089 N 
HETATM    6  S8  UNL     1     -23.409  18.529   9.391  1.00 20.00    -0.165 SA
HETATM    7  H21 UNL     1     -26.009  16.595  10.679  1.00 20.00     0.316 HD
ENDROOT
BRANCH   4   8
HETATM    8  C6  UNL     1     -26.894  18.924  11.601  1.00 20.00     0.032 C 
HETATM    9  C5  UNL     1     -27.636  17.852  12.327  1.00 20.00     0.007 C 
ENDBRANCH   4   8
TORSDOF 1
ENDMDL
MODEL 4
REMARK VINA RESULT:      -3.6      1.543      1.666
REMARK  1 active torsions:
REMARK  status: ('A' for Active; 'I' for Inactive)
REMARK    1  A    between atoms: C4_4  and  C6_6 
ROOT
HETATM    1  C1  UNL     1     -25.514  18.516  11.485  1.00 20.00     0.280 C 
HETATM    2  C2  UNL     1     -24.779  17.437  12.272  1.00 20.00     0.104 C 
HETATM    3  C3  UNL     1     -23.018  17.507  10.179  1.00 20.00     0.109 C 
HETATM    4  C4  UNL     1     -23.951  18.587   9.620  1.00 20.00     0.229 C 
HETATM    5  N7  UNL     1     -25.344  18.381  10.038  1.00 20.00     0.089 N 
HETATM    6  S8  UNL     1     -22.988  17.518  11.995  1.00 20.00    -0.165 SA
HETATM    7  H21 UNL     1     -25.653  17.453   9.747  1.00 20.00     0.316 HD
ENDROOT
BRANCH   4   8
HETATM    8  C6  UNL     1     -23.901  18.568   8.090  1.00 20.00     0.032 C 
HETATM    9  C5  UNL     1     -25.222  18.923   7.493  1.00 20.00     0.007 C 
ENDBRANCH   4   8
TORSDOF 1
ENDMDL
MODEL 5
REMARK VINA RESULT:      -3.6      1.751      3.559
REMARK  1 active torsions:
REMARK  status: ('A' for Active; 'I' for Inactive)
REMARK    1  A    between atoms: C4_4  and  C6_6 
ROOT
HETATM    1  C1  UNL     1     -24.559  18.424   8.934  1.00 20.00     0.280 C 
HETATM    2  C2  UNL     1     -23.180  19.053   9.093  1.00 20.00     0.104 C 
HETATM    3  C3  UNL     1     -22.938  17.314  11.191  1.00 20.00     0.109 C 
HETATM    4  C4  UNL     1     -24.352  16.871  10.798  1.00 20.00     0.229 C 
HETATM    5  N7  UNL     1     -25.127  17.968  10.203  1.00 20.00     0.089 N 
HETATM    6  S8  UNL     1     -21.979  17.861   9.750  1.00 20.00    -0.165 SA
HETATM    7  H21 UNL     1     -25.163  18.751  10.856  1.00 20.00     0.316 HD
ENDROOT
BRANCH   4   8
HETATM    8  C6  UNL     1     -25.099  16.372  12.038  1.00 20.00     0.032 C 
HETATM    9  C5  UNL     1     -26.316  17.190  12.311  1.00 20.00     0.007 C 
ENDBRANCH   4   8
TORSDOF 1
ENDMDL
MODEL 6
REMARK VINA RESULT:      -3.5     15.806     16.384
REMARK  1 active torsions:
REMARK  status: ('A' for Active; 'I' for Inactive)
REMARK    1  A    between atoms: C4_4  and  C6_6 
ROOT
HETATM    1  C1  UNL     1     -35.112   4.927   4.358  1.00 20.00     0.280 C 
HETATM    2  C2  UNL     1     -34.681   5.167   5.801  1.00 20.00     0.104 C 
HETATM    3  C3  UNL     1     -32.943   6.961   4.685  1.00 20.00     0.109 C 
HETATM    4  C4  UNL     1     -33.570   6.523   3.357  1.00 20.00     0.229 C 
HETATM    5  N7  UNL     1     -34.026   5.127   3.398  1.00 20.00     0.089 N 
HETATM    6  S8  UNL     1     -34.135   6.879   6.053  1.00 20.00    -0.165 SA
HETATM    7  H21 UNL     1     -33.243   4.521   3.644  1.00 20.00     0.316 HD
ENDROOT
BRANCH   4   8
HETATM    8  C6  UNL     1     -32.541   6.660   2.232  1.00 20.00     0.032 C 
HETATM    9  C5  UNL     1     -32.661   7.973   1.535  1.00 20.00     0.007 C 
ENDBRANCH   4   8
TORSDOF 1
ENDMDL
MODEL 7
REMARK VINA RESULT:      -3.5     17.994     18.508
REMARK  1 active torsions:
REMARK  status: ('A' for Active; 'I' for Inactive)
REMARK    1  A    between atoms: C4_4  and  C6_6 
ROOT
HETATM    1  C1  UNL     1     -36.359  13.936  -4.528  1.00 20.00     0.280 C 
HETATM    2  C2  UNL     1     -35.907  14.491  -5.875  1.00 20.00     0.104 C 
HETATM    3  C3  UNL     1     -34.248  16.049  -4.357  1.00 20.00     0.109 C 
HETATM    4  C4  UNL     1     -34.884  15.317  -3.171  1.00 20.00     0.229 C 
HETATM    5  N7  UNL     1     -36.270  14.919  -3.448  1.00 20.00     0.089 N 
HETATM    6  S8  UNL     1     -34.165  14.994  -5.833  1.00 20.00    -0.165 SA
HETATM    7  H21 UNL     1     -36.817  15.744  -3.697  1.00 20.00     0.316 HD
ENDROOT
BRANCH   4   8
HETATM    8  C6  UNL     1     -34.883  16.230  -1.942  1.00 20.00     0.032 C 
HETATM    9  C5  UNL     1     -33.687  17.122  -1.922  1.00 20.00     0.007 C 
ENDBRANCH   4   8
TORSDOF 1
ENDMDL
MODEL 8
REMARK VINA RESULT:      -3.3     18.093     18.688
REMARK  1 active torsions:
REMARK  status: ('A' for Active; 'I' for Inactive)
REMARK    1  A    between atoms: C4_4  and  C6_6 
ROOT
HETATM    1  C1  UNL     1     -35.141  15.998  -6.333  1.00 20.00     0.280 C 
HETATM    2  C2  UNL     1     -35.656  14.565  -6.408  1.00 20.00     0.104 C 
HETATM    3  C3  UNL     1     -34.769  14.408  -3.825  1.00 20.00     0.109 C 
HETATM    4  C4  UNL     1     -34.350  15.868  -4.034  1.00 20.00     0.229 C 
HETATM    5  N7  UNL     1     -33.996  16.144  -5.432  1.00 20.00     0.089 N 
HETATM    6  S8  UNL     1     -36.247  13.987  -4.793  1.00 20.00    -0.165 SA
HETATM    7  H21 UNL     1     -33.253  15.510  -5.726  1.00 20.00     0.316 HD
ENDROOT
BRANCH   4   8
HETATM    8  C6  UNL     1     -33.134  16.184  -3.159  1.00 20.00     0.032 C 
HETATM    9  C5  UNL     1     -33.482  17.123  -2.053  1.00 20.00     0.007 C 
ENDBRANCH   4   8
TORSDOF 1
ENDMDL
MODEL 9
REMARK VINA RESULT:      -3.3     18.643     19.319
REMARK  1 active torsions:
REMARK  status: ('A' for Active; 'I' for Inactive)
REMARK    1  A    between atoms: C4_4  and  C6_6 
ROOT
HETATM    1  C1  UNL     1     -34.013  15.121  -7.104  1.00 20.00     0.280 C 
HETATM    2  C2  UNL     1     -35.514  14.885  -7.220  1.00 20.00     0.104 C 
HETATM    3  C3  UNL     1     -35.570  15.771  -4.632  1.00 20.00     0.109 C 
HETATM    4  C4  UNL     1     -34.053  15.913  -4.802  1.00 20.00     0.229 C 
HETATM    5  N7  UNL     1     -33.510  14.925  -5.743  1.00 20.00     0.089 N 
HETATM    6  S8  UNL     1     -36.450  16.053  -6.195  1.00 20.00    -0.165 SA
HETATM    7  H21 UNL     1     -33.750  13.986  -5.427  1.00 20.00     0.316 HD
ENDROOT
BRANCH   4   8
HETATM    8  C6  UNL     1     -33.364  15.716  -3.449  1.00 20.00     0.032 C 
HETATM    9  C5  UNL     1     -34.231  16.163  -2.320  1.00 20.00     0.007 C 
ENDBRANCH   4   8
TORSDOF 1
ENDMDL
