MODEL 1
REMARK VINA RESULT:      -5.7      0.000      0.000
REMARK  1 active torsions:
REMARK  status: ('A' for Active; 'I' for Inactive)
REMARK    1  A    between atoms: C1_1  and  C5_5 
ROOT
HETATM    1  C2  UNL     1     -35.204  14.788  -6.529  1.00 20.00     0.022 C 
HETATM    2  C3  UNL     1     -34.539  16.176  -6.578  1.00 20.00     0.011 C 
HETATM    3  C4  UNL     1     -36.319  16.226  -4.970  1.00 20.00     0.031 C 
HETATM    4  C5  UNL     1     -35.683  14.809  -5.076  1.00 20.00     0.057 C 
HETATM    5  C6  UNL     1     -34.815  16.636  -5.130  1.00 20.00    -0.035 C 
HETATM    6  C7  UNL     1     -34.513  15.387  -4.171  1.00 20.00    -0.023 C 
HETATM    7  C8  UNL     1     -34.363  18.026  -4.784  1.00 20.00     0.016 C 
HETATM    8  C9  UNL     1     -33.133  14.727  -4.313  1.00 20.00     0.017 C 
HETATM    9  C10 UNL     1     -34.779  15.554  -2.662  1.00 20.00     0.017 C 
ENDROOT
BRANCH   4  10
HETATM   10  C1  UNL     1     -36.448  13.642  -4.615  1.00 20.00     0.182 C 
HETATM   11  O11 UNL     1     -35.780  12.580  -4.476  1.00 20.00    -0.647 OA
HETATM   12  O12 UNL     1     -37.676  13.858  -4.418  1.00 20.00    -0.647 OA
ENDBRANCH   4  10
TORSDOF 1
ENDMDL
MODEL 2
REMARK VINA RESULT:      -5.2      1.175      2.886
REMARK  1 active torsions:
REMARK  status: ('A' for Active; 'I' for Inactive)
REMARK    1  A    between atoms: C1_1  and  C5_5 
ROOT
HETATM    1  C2  UNL     1     -35.608  15.911  -2.685  1.00 20.00     0.022 C 
HETATM    2  C3  UNL     1     -34.075  15.797  -2.751  1.00 20.00     0.011 C 
HETATM    3  C4  UNL     1     -35.040  13.867  -3.801  1.00 20.00     0.031 C 
HETATM    4  C5  UNL     1     -35.956  15.118  -3.946  1.00 20.00     0.057 C 
HETATM    5  C6  UNL     1     -33.941  14.959  -4.042  1.00 20.00    -0.035 C 
HETATM    6  C7  UNL     1     -34.972  15.567  -5.108  1.00 20.00    -0.023 C 
HETATM    7  C8  UNL     1     -32.545  14.563  -4.428  1.00 20.00     0.016 C 
HETATM    8  C9  UNL     1     -34.866  17.075  -5.386  1.00 20.00     0.017 C 
HETATM    9  C10 UNL     1     -35.095  14.866  -6.475  1.00 20.00     0.017 C 
ENDROOT
BRANCH   4  10
HETATM   10  C1  UNL     1     -37.385  14.931  -4.237  1.00 20.00     0.182 C 
HETATM   11  O11 UNL     1     -37.747  13.735  -4.415  1.00 20.00    -0.647 OA
HETATM   12  O12 UNL     1     -38.062  15.996  -4.271  1.00 20.00    -0.647 OA
ENDBRANCH   4  10
TORSDOF 1
ENDMDL
MODEL 3
REMARK VINA RESULT:      -4.9      1.051      2.277
REMARK  1 active torsions:
REMARK  status: ('A' for Active; 'I' for Inactive)
REMARK    1  A    between atoms: C1_1  and  C5_5 
ROOT
HETATM    1  C2  UNL     1     -36.642  16.275  -4.195  1.00 20.00     0.022 C 
HETATM    2  C3  UNL     1     -35.663  17.377  -3.753  1.00 20.00     0.011 C 
HETATM    3  C4  UNL     1     -35.065  15.328  -2.658  1.00 20.00     0.031 C 
HETATM    4  C5  UNL     1     -35.715  15.066  -4.048  1.00 20.00     0.057 C 
HETATM    5  C6  UNL     1     -34.420  16.507  -3.464  1.00 20.00    -0.035 C 
HETATM    6  C7  UNL     1     -34.299  15.445  -4.658  1.00 20.00    -0.023 C 
HETATM    7  C8  UNL     1     -33.220  17.232  -2.925  1.00 20.00     0.016 C 
HETATM    8  C9  UNL     1     -34.285  16.013  -6.086  1.00 20.00     0.017 C 
HETATM    9  C10 UNL     1     -33.172  14.396  -4.581  1.00 20.00     0.017 C 
ENDROOT
BRANCH   4  10
HETATM   10  C1  UNL     1     -36.298  13.747  -4.332  1.00 20.00     0.182 C 
HETATM   11  O11 UNL     1     -37.544  13.742  -4.535  1.00 20.00    -0.647 OA
HETATM   12  O12 UNL     1     -35.472  12.793  -4.334  1.00 20.00    -0.647 OA
ENDBRANCH   4  10
TORSDOF 1
ENDMDL
MODEL 4
REMARK VINA RESULT:      -4.8      0.979      1.313
REMARK  1 active torsions:
REMARK  status: ('A' for Active; 'I' for Inactive)
REMARK    1  A    between atoms: C1_1  and  C5_5 
ROOT
HETATM    1  C2  UNL     1     -34.375  15.262  -6.006  1.00 20.00     0.022 C 
HETATM    2  C3  UNL     1     -34.271  16.796  -5.944  1.00 20.00     0.011 C 
HETATM    3  C4  UNL     1     -36.265  16.110  -4.801  1.00 20.00     0.031 C 
HETATM    4  C5  UNL     1     -35.150  15.028  -4.707  1.00 20.00     0.057 C 
HETATM    5  C6  UNL     1     -35.021  17.045  -4.617  1.00 20.00    -0.035 C 
HETATM    6  C7  UNL     1     -34.514  15.940  -3.573  1.00 20.00    -0.023 C 
HETATM    7  C8  UNL     1     -35.200  18.483  -4.222  1.00 20.00     0.016 C 
HETATM    8  C9  UNL     1     -32.995  15.834  -3.365  1.00 20.00     0.017 C 
HETATM    9  C10 UNL     1     -35.162  15.916  -2.174  1.00 20.00     0.017 C 
ENDROOT
BRANCH   4  10
HETATM   10  C1  UNL     1     -35.520  13.639  -4.398  1.00 20.00     0.182 C 
HETATM   11  O11 UNL     1     -36.730  13.345  -4.609  1.00 20.00    -0.647 OA
HETATM   12  O12 UNL     1     -34.576  12.923  -3.963  1.00 20.00    -0.647 OA
ENDBRANCH   4  10
TORSDOF 1
ENDMDL
MODEL 5
REMARK VINA RESULT:      -4.8      1.339      3.079
REMARK  1 active torsions:
REMARK  status: ('A' for Active; 'I' for Inactive)
REMARK    1  A    between atoms: C1_1  and  C5_5 
ROOT
HETATM    1  C2  UNL     1     -35.050  15.815  -2.097  1.00 20.00     0.022 C 
HETATM    2  C3  UNL     1     -34.352  17.186  -2.046  1.00 20.00     0.011 C 
HETATM    3  C4  UNL     1     -33.146  15.761  -3.551  1.00 20.00     0.031 C 
HETATM    4  C5  UNL     1     -34.662  15.408  -3.520  1.00 20.00     0.057 C 
HETATM    5  C6  UNL     1     -33.739  17.209  -3.463  1.00 20.00    -0.035 C 
HETATM    6  C7  UNL     1     -34.860  16.664  -4.471  1.00 20.00    -0.023 C 
HETATM    7  C8  UNL     1     -32.889  18.402  -3.794  1.00 20.00     0.016 C 
HETATM    8  C9  UNL     1     -36.228  17.365  -4.424  1.00 20.00     0.017 C 
HETATM    9  C10 UNL     1     -34.483  16.515  -5.958  1.00 20.00     0.017 C 
ENDROOT
BRANCH   4  10
HETATM   10  C1  UNL     1     -35.100  14.080  -3.972  1.00 20.00     0.182 C 
HETATM   11  O11 UNL     1     -36.340  13.964  -4.179  1.00 20.00    -0.647 OA
HETATM   12  O12 UNL     1     -34.175  13.230  -4.092  1.00 20.00    -0.647 OA
ENDBRANCH   4  10
TORSDOF 1
ENDMDL
MODEL 6
REMARK VINA RESULT:      -4.8      0.956      2.640
REMARK  1 active torsions:
REMARK  status: ('A' for Active; 'I' for Inactive)
REMARK    1  A    between atoms: C1_1  and  C5_5 
ROOT
HETATM    1  C2  UNL     1     -34.955  15.122  -3.029  1.00 20.00     0.022 C 
HETATM    2  C3  UNL     1     -34.250  16.448  -3.366  1.00 20.00     0.011 C 
HETATM    3  C4  UNL     1     -34.606  15.224  -5.398  1.00 20.00     0.031 C 
HETATM    4  C5  UNL     1     -35.711  14.918  -4.344  1.00 20.00     0.057 C 
HETATM    5  C6  UNL     1     -34.787  16.661  -4.798  1.00 20.00    -0.035 C 
HETATM    6  C7  UNL     1     -36.350  16.306  -4.774  1.00 20.00    -0.023 C 
HETATM    7  C8  UNL     1     -34.260  17.863  -5.527  1.00 20.00     0.016 C 
HETATM    8  C9  UNL     1     -37.205  17.034  -3.724  1.00 20.00     0.017 C 
HETATM    9  C10 UNL     1     -37.126  16.367  -6.105  1.00 20.00     0.017 C 
ENDROOT
BRANCH   4  10
HETATM   10  C1  UNL     1     -36.501  13.685  -4.468  1.00 20.00     0.182 C 
HETATM   11  O11 UNL     1     -37.753  13.842  -4.427  1.00 20.00    -0.647 OA
HETATM   12  O12 UNL     1     -35.820  12.631  -4.600  1.00 20.00    -0.647 OA
ENDBRANCH   4  10
TORSDOF 1
ENDMDL
MODEL 7
REMARK VINA RESULT:      -4.8      0.878      1.826
REMARK  1 active torsions:
REMARK  status: ('A' for Active; 'I' for Inactive)
REMARK    1  A    between atoms: C1_1  and  C5_5 
ROOT
HETATM    1  C2  UNL     1     -33.749  14.290  -4.135  1.00 20.00     0.022 C 
HETATM    2  C3  UNL     1     -33.091  15.681  -4.177  1.00 20.00     0.011 C 
HETATM    3  C4  UNL     1     -35.009  15.689  -5.618  1.00 20.00     0.031 C 
HETATM    4  C5  UNL     1     -35.193  14.706  -4.425  1.00 20.00     0.057 C 
HETATM    5  C6  UNL     1     -34.338  16.539  -4.484  1.00 20.00    -0.035 C 
HETATM    6  C7  UNL     1     -35.527  15.993  -3.558  1.00 20.00    -0.023 C 
HETATM    7  C8  UNL     1     -34.095  18.009  -4.676  1.00 20.00     0.016 C 
HETATM    8  C9  UNL     1     -35.243  15.910  -2.050  1.00 20.00     0.017 C 
HETATM    9  C10 UNL     1     -36.920  16.634  -3.718  1.00 20.00     0.017 C 
ENDROOT
BRANCH   4  10
HETATM   10  C1  UNL     1     -36.184  13.625  -4.532  1.00 20.00     0.182 C 
HETATM   11  O11 UNL     1     -35.733  12.461  -4.346  1.00 20.00    -0.647 OA
HETATM   12  O12 UNL     1     -37.358  14.007  -4.795  1.00 20.00    -0.647 OA
ENDBRANCH   4  10
TORSDOF 1
ENDMDL
MODEL 8
REMARK VINA RESULT:      -4.5      1.685      3.199
REMARK  1 active torsions:
REMARK  status: ('A' for Active; 'I' for Inactive)
REMARK    1  A    between atoms: C1_1  and  C5_5 
ROOT
HETATM    1  C2  UNL     1     -35.509  15.008  -3.146  1.00 20.00     0.022 C 
HETATM    2  C3  UNL     1     -34.916  15.940  -2.073  1.00 20.00     0.011 C 
HETATM    3  C4  UNL     1     -33.301  15.649  -3.823  1.00 20.00     0.031 C 
HETATM    4  C5  UNL     1     -34.757  15.547  -4.365  1.00 20.00     0.057 C 
HETATM    5  C6  UNL     1     -33.970  16.775  -2.962  1.00 20.00    -0.035 C 
HETATM    6  C7  UNL     1     -34.774  17.133  -4.302  1.00 20.00    -0.023 C 
HETATM    7  C8  UNL     1     -33.125  17.793  -2.250  1.00 20.00     0.016 C 
HETATM    8  C9  UNL     1     -36.143  17.809  -4.124  1.00 20.00     0.017 C 
HETATM    9  C10 UNL     1     -34.029  17.911  -5.406  1.00 20.00     0.017 C 
ENDROOT
BRANCH   4  10
HETATM   10  C1  UNL     1     -35.002  14.869  -5.646  1.00 20.00     0.182 C 
HETATM   11  O11 UNL     1     -36.217  14.694  -5.939  1.00 20.00    -0.647 OA
HETATM   12  O12 UNL     1     -33.960  14.551  -6.284  1.00 20.00    -0.647 OA
ENDBRANCH   4  10
TORSDOF 1
ENDMDL
MODEL 9
REMARK VINA RESULT:      -4.4      1.383      2.673
REMARK  1 active torsions:
REMARK  status: ('A' for Active; 'I' for Inactive)
REMARK    1  A    between atoms: C1_1  and  C5_5 
ROOT
HETATM    1  C2  UNL     1     -36.673  16.945  -3.537  1.00 20.00     0.022 C 
HETATM    2  C3  UNL     1     -35.406  17.581  -2.937  1.00 20.00     0.011 C 
HETATM    3  C4  UNL     1     -35.180  15.193  -2.870  1.00 20.00     0.031 C 
HETATM    4  C5  UNL     1     -36.055  15.652  -4.074  1.00 20.00     0.057 C 
HETATM    5  C6  UNL     1     -34.383  16.478  -3.286  1.00 20.00    -0.035 C 
HETATM    6  C7  UNL     1     -34.685  16.013  -4.790  1.00 20.00    -0.023 C 
HETATM    7  C8  UNL     1     -32.982  16.699  -2.792  1.00 20.00     0.016 C 
HETATM    8  C9  UNL     1     -34.727  17.118  -5.857  1.00 20.00     0.017 C 
HETATM    9  C10 UNL     1     -33.845  14.858  -5.372  1.00 20.00     0.017 C 
ENDROOT
BRANCH   4  10
HETATM   10  C1  UNL     1     -36.972  14.691  -4.703  1.00 20.00     0.182 C 
HETATM   11  O11 UNL     1     -37.744  15.176  -5.576  1.00 20.00    -0.647 OA
HETATM   12  O12 UNL     1     -36.865  13.505  -4.284  1.00 20.00    -0.647 OA
ENDBRANCH   4  10
TORSDOF 1
ENDMDL
