MODEL 1
REMARK VINA RESULT:      -4.8      0.000      0.000
REMARK  0 active torsions:
REMARK  status: ('A' for Active; 'I' for Inactive)
ROOT
HETATM    1  C1  UNL     1     -36.271  14.224  -4.375  1.00 20.00     0.147 C 
HETATM    2  C2  UNL     1     -35.003  13.477  -4.007  1.00 20.00     0.085 C 
HETATM    3  C3  UNL     1     -33.905  14.847  -5.785  1.00 20.00     0.008 C 
HETATM    4  C4  UNL     1     -35.245  15.547  -6.111  1.00 20.00     0.030 C 
HETATM    5  C5  UNL     1     -33.987  14.624  -4.251  1.00 20.00     0.002 C 
HETATM    6  C6  UNL     1     -35.898  15.656  -4.727  1.00 20.00     0.086 C 
HETATM    7  C7  UNL     1     -34.728  15.900  -3.751  1.00 20.00    -0.019 C 
HETATM    8  C8  UNL     1     -35.093  15.863  -2.253  1.00 20.00     0.017 C 
HETATM    9  C9  UNL     1     -33.933  17.201  -3.983  1.00 20.00     0.017 C 
HETATM   10  O10 UNL     1     -37.384  13.723  -4.405  1.00 20.00    -0.296 OA
HETATM   11 BR11 UNL     1     -37.374  16.837  -4.632  1.00 20.00    -0.076 Br
ENDROOT
TORSDOF 0
ENDMDL
MODEL 2
REMARK VINA RESULT:      -4.4      2.476      3.675
REMARK  0 active torsions:
REMARK  status: ('A' for Active; 'I' for Inactive)
ROOT
HETATM    1  C1  UNL     1     -33.469  17.583  -3.790  1.00 20.00     0.147 C 
HETATM    2  C2  UNL     1     -33.146  17.012  -2.422  1.00 20.00     0.085 C 
HETATM    3  C3  UNL     1     -35.608  16.647  -2.202  1.00 20.00     0.008 C 
HETATM    4  C4  UNL     1     -35.851  17.261  -3.600  1.00 20.00     0.030 C 
HETATM    5  C5  UNL     1     -34.246  15.920  -2.369  1.00 20.00     0.002 C 
HETATM    6  C6  UNL     1     -34.621  16.785  -4.381  1.00 20.00     0.086 C 
HETATM    7  C7  UNL     1     -34.315  15.378  -3.827  1.00 20.00    -0.019 C 
HETATM    8  C8  UNL     1     -32.999  14.741  -4.319  1.00 20.00     0.017 C 
HETATM    9  C9  UNL     1     -35.424  14.328  -4.039  1.00 20.00     0.017 C 
HETATM   10  O10 UNL     1     -32.903  18.543  -4.291  1.00 20.00    -0.296 OA
HETATM   11 BR11 UNL     1     -34.748  16.974  -6.261  1.00 20.00    -0.076 Br
ENDROOT
TORSDOF 0
ENDMDL
MODEL 3
REMARK VINA RESULT:      -4.4      1.079      1.144
REMARK  0 active torsions:
REMARK  status: ('A' for Active; 'I' for Inactive)
ROOT
HETATM    1  C1  UNL     1     -36.357  15.374  -4.546  1.00 20.00     0.147 C 
HETATM    2  C2  UNL     1     -35.764  14.053  -4.093  1.00 20.00     0.085 C 
HETATM    3  C3  UNL     1     -33.723  14.754  -5.351  1.00 20.00     0.008 C 
HETATM    4  C4  UNL     1     -34.409  16.070  -5.784  1.00 20.00     0.030 C 
HETATM    5  C5  UNL     1     -34.292  14.512  -3.927  1.00 20.00     0.002 C 
HETATM    6  C6  UNL     1     -35.250  16.417  -4.551  1.00 20.00     0.086 C 
HETATM    7  C7  UNL     1     -34.406  15.952  -3.346  1.00 20.00    -0.019 C 
HETATM    8  C8  UNL     1     -35.110  16.019  -1.975  1.00 20.00     0.017 C 
HETATM    9  C9  UNL     1     -33.044  16.656  -3.182  1.00 20.00     0.017 C 
HETATM   10  O10 UNL     1     -37.522  15.533  -4.874  1.00 20.00    -0.296 OA
HETATM   11 BR11 UNL     1     -35.920  18.188  -4.515  1.00 20.00    -0.076 Br
ENDROOT
TORSDOF 0
ENDMDL
MODEL 4
REMARK VINA RESULT:      -4.3      1.738      2.537
REMARK  0 active torsions:
REMARK  status: ('A' for Active; 'I' for Inactive)
ROOT
HETATM    1  C1  UNL     1     -34.098  15.024  -5.395  1.00 20.00     0.147 C 
HETATM    2  C2  UNL     1     -33.738  14.327  -4.096  1.00 20.00     0.085 C 
HETATM    3  C3  UNL     1     -33.605  16.623  -3.121  1.00 20.00     0.008 C 
HETATM    4  C4  UNL     1     -33.960  17.253  -4.488  1.00 20.00     0.030 C 
HETATM    5  C5  UNL     1     -34.430  15.308  -3.114  1.00 20.00     0.002 C 
HETATM    6  C6  UNL     1     -34.953  16.237  -5.065  1.00 20.00     0.086 C 
HETATM    7  C7  UNL     1     -35.743  15.715  -3.847  1.00 20.00    -0.019 C 
HETATM    8  C8  UNL     1     -36.693  14.532  -4.127  1.00 20.00     0.017 C 
HETATM    9  C9  UNL     1     -36.565  16.775  -3.087  1.00 20.00     0.017 C 
HETATM   10  O10 UNL     1     -33.724  14.663  -6.500  1.00 20.00    -0.296 OA
HETATM   11 BR11 UNL     1     -35.950  16.852  -6.552  1.00 20.00    -0.076 Br
ENDROOT
TORSDOF 0
ENDMDL
MODEL 5
REMARK VINA RESULT:      -4.3      1.784      2.521
REMARK  0 active torsions:
REMARK  status: ('A' for Active; 'I' for Inactive)
ROOT
HETATM    1  C1  UNL     1     -35.787  14.435  -5.115  1.00 20.00     0.147 C 
HETATM    2  C2  UNL     1     -36.513  14.916  -3.873  1.00 20.00     0.085 C 
HETATM    3  C3  UNL     1     -34.243  15.474  -2.992  1.00 20.00     0.008 C 
HETATM    4  C4  UNL     1     -33.581  14.945  -4.285  1.00 20.00     0.030 C 
HETATM    5  C5  UNL     1     -35.572  16.093  -3.503  1.00 20.00     0.002 C 
HETATM    6  C6  UNL     1     -34.599  15.352  -5.359  1.00 20.00     0.086 C 
HETATM    7  C7  UNL     1     -35.169  16.702  -4.878  1.00 20.00    -0.019 C 
HETATM    8  C8  UNL     1     -36.359  17.249  -5.692  1.00 20.00     0.017 C 
HETATM    9  C9  UNL     1     -34.145  17.849  -4.763  1.00 20.00     0.017 C 
HETATM   10  O10 UNL     1     -36.110  13.455  -5.769  1.00 20.00    -0.296 OA
HETATM   11 BR11 UNL     1     -33.960  15.258  -7.139  1.00 20.00    -0.076 Br
ENDROOT
TORSDOF 0
ENDMDL
MODEL 6
REMARK VINA RESULT:      -4.1      1.708      3.126
REMARK  0 active torsions:
REMARK  status: ('A' for Active; 'I' for Inactive)
ROOT
HETATM    1  C1  UNL     1     -36.056  16.939  -4.208  1.00 20.00     0.147 C 
HETATM    2  C2  UNL     1     -34.924  17.946  -4.285  1.00 20.00     0.085 C 
HETATM    3  C3  UNL     1     -33.854  16.598  -2.475  1.00 20.00     0.008 C 
HETATM    4  C4  UNL     1     -35.058  15.628  -2.448  1.00 20.00     0.030 C 
HETATM    5  C5  UNL     1     -33.746  16.986  -3.974  1.00 20.00     0.002 C 
HETATM    6  C6  UNL     1     -35.459  15.569  -3.927  1.00 20.00     0.086 C 
HETATM    7  C7  UNL     1     -34.130  15.665  -4.705  1.00 20.00    -0.019 C 
HETATM    8  C8  UNL     1     -34.265  15.815  -6.235  1.00 20.00     0.017 C 
HETATM    9  C9  UNL     1     -33.133  14.515  -4.457  1.00 20.00     0.017 C 
HETATM   10  O10 UNL     1     -37.239  17.218  -4.325  1.00 20.00    -0.296 OA
HETATM   11 BR11 UNL     1     -36.635  14.155  -4.379  1.00 20.00    -0.076 Br
ENDROOT
TORSDOF 0
ENDMDL
MODEL 7
REMARK VINA RESULT:      -4.0      2.095      3.012
REMARK  0 active torsions:
REMARK  status: ('A' for Active; 'I' for Inactive)
ROOT
HETATM    1  C1  UNL     1     -33.598  14.947  -4.783  1.00 20.00     0.147 C 
HETATM    2  C2  UNL     1     -33.891  14.873  -6.270  1.00 20.00     0.085 C 
HETATM    3  C3  UNL     1     -36.176  14.125  -5.590  1.00 20.00     0.008 C 
HETATM    4  C4  UNL     1     -35.788  14.209  -4.095  1.00 20.00     0.030 C 
HETATM    5  C5  UNL     1     -35.382  15.298  -6.226  1.00 20.00     0.002 C 
HETATM    6  C6  UNL     1     -34.854  15.424  -4.071  1.00 20.00     0.086 C 
HETATM    7  C7  UNL     1     -35.433  16.395  -5.121  1.00 20.00    -0.019 C 
HETATM    8  C8  UNL     1     -34.567  17.633  -5.431  1.00 20.00     0.017 C 
HETATM    9  C9  UNL     1     -36.857  16.909  -4.833  1.00 20.00     0.017 C 
HETATM   10  O10 UNL     1     -32.533  14.637  -4.272  1.00 20.00    -0.296 OA
HETATM   11 BR11 UNL     1     -34.493  16.119  -2.347  1.00 20.00    -0.076 Br
ENDROOT
TORSDOF 0
ENDMDL
MODEL 8
REMARK VINA RESULT:      -4.0      1.911      2.567
REMARK  0 active torsions:
REMARK  status: ('A' for Active; 'I' for Inactive)
ROOT
HETATM    1  C1  UNL     1     -36.106  16.643  -4.673  1.00 20.00     0.147 C 
HETATM    2  C2  UNL     1     -36.281  16.106  -3.265  1.00 20.00     0.085 C 
HETATM    3  C3  UNL     1     -35.888  13.856  -4.277  1.00 20.00     0.008 C 
HETATM    4  C4  UNL     1     -35.743  14.484  -5.683  1.00 20.00     0.030 C 
HETATM    5  C5  UNL     1     -35.270  14.933  -3.345  1.00 20.00     0.002 C 
HETATM    6  C6  UNL     1     -35.043  15.812  -5.373  1.00 20.00     0.086 C 
HETATM    7  C7  UNL     1     -34.096  15.500  -4.196  1.00 20.00    -0.019 C 
HETATM    8  C8  UNL     1     -33.398  16.721  -3.562  1.00 20.00     0.017 C 
HETATM    9  C9  UNL     1     -32.995  14.462  -4.490  1.00 20.00     0.017 C 
HETATM   10  O10 UNL     1     -36.750  17.568  -5.146  1.00 20.00    -0.296 OA
HETATM   11 BR11 UNL     1     -34.303  16.694  -6.877  1.00 20.00    -0.076 Br
ENDROOT
TORSDOF 0
ENDMDL
MODEL 9
REMARK VINA RESULT:      -4.0      1.725      2.642
REMARK  0 active torsions:
REMARK  status: ('A' for Active; 'I' for Inactive)
ROOT
HETATM    1  C1  UNL     1     -34.939  16.364  -2.399  1.00 20.00     0.147 C 
HETATM    2  C2  UNL     1     -33.431  16.352  -2.570  1.00 20.00     0.085 C 
HETATM    3  C3  UNL     1     -33.811  14.423  -4.112  1.00 20.00     0.008 C 
HETATM    4  C4  UNL     1     -35.336  14.493  -3.867  1.00 20.00     0.030 C 
HETATM    5  C5  UNL     1     -33.376  15.912  -4.056  1.00 20.00     0.002 C 
HETATM    6  C6  UNL     1     -35.574  16.002  -3.733  1.00 20.00     0.086 C 
HETATM    7  C7  UNL     1     -34.578  16.652  -4.715  1.00 20.00    -0.019 C 
HETATM    8  C8  UNL     1     -34.480  18.190  -4.643  1.00 20.00     0.017 C 
HETATM    9  C9  UNL     1     -34.781  16.289  -6.200  1.00 20.00     0.017 C 
HETATM   10  O10 UNL     1     -35.514  16.598  -1.348  1.00 20.00    -0.296 OA
HETATM   11 BR11 UNL     1     -37.386  16.538  -3.846  1.00 20.00    -0.076 Br
ENDROOT
TORSDOF 0
ENDMDL
