MODEL 1
REMARK VINA RESULT:      -4.5      0.000      0.000
REMARK  1 active torsions:
REMARK  status: ('A' for Active; 'I' for Inactive)
REMARK    1  A    between atoms: C3_3  and  O10_10 
ROOT
HETATM    1  C1  UNL     1     -35.113  14.056  -3.782  1.00 20.00     0.041 C 
HETATM    2  C2  UNL     1     -35.360  16.379  -4.574  1.00 20.00     0.020 C 
HETATM    3  C3  UNL     1     -36.389  14.199  -4.611  1.00 20.00     0.126 C 
HETATM    4  C4  UNL     1     -34.619  15.500  -3.533  1.00 20.00    -0.045 C 
HETATM    5  C5  UNL     1     -36.113  15.414  -5.517  1.00 20.00    -0.021 C 
HETATM    6  C6  UNL     1     -33.096  15.592  -3.709  1.00 20.00     0.015 C 
HETATM    7  C7  UNL     1     -34.969  15.957  -2.107  1.00 20.00     0.015 C 
HETATM    8  C8  UNL     1     -37.389  16.070  -6.063  1.00 20.00     0.017 C 
HETATM    9  C9  UNL     1     -35.225  15.015  -6.710  1.00 20.00     0.017 C 
ENDROOT
BRANCH   3  10
HETATM   10  O10 UNL     1     -37.474  14.432  -3.719  1.00 20.00    -0.395 OA
HETATM   11  H28 UNL     1     -38.160  13.773  -3.925  1.00 20.00     0.210 HD
ENDBRANCH   3  10
TORSDOF 1
ENDMDL
MODEL 2
REMARK VINA RESULT:      -4.4      1.508      3.606
REMARK  1 active torsions:
REMARK  status: ('A' for Active; 'I' for Inactive)
REMARK    1  A    between atoms: C3_3  and  O10_10 
ROOT
HETATM    1  C1  UNL     1     -35.671  13.899  -4.454  1.00 20.00     0.041 C 
HETATM    2  C2  UNL     1     -35.063  16.277  -4.702  1.00 20.00     0.020 C 
HETATM    3  C3  UNL     1     -34.309  14.165  -3.816  1.00 20.00     0.126 C 
HETATM    4  C4  UNL     1     -36.009  15.179  -5.254  1.00 20.00    -0.045 C 
HETATM    5  C5  UNL     1     -34.340  15.668  -3.480  1.00 20.00    -0.021 C 
HETATM    6  C6  UNL     1     -37.483  15.566  -5.065  1.00 20.00     0.015 C 
HETATM    7  C7  UNL     1     -35.755  14.966  -6.756  1.00 20.00     0.015 C 
HETATM    8  C8  UNL     1     -32.944  16.283  -3.309  1.00 20.00     0.017 C 
HETATM    9  C9  UNL     1     -35.142  15.923  -2.190  1.00 20.00     0.017 C 
ENDROOT
BRANCH   3  10
HETATM   10  O10 UNL     1     -33.301  13.850  -4.772  1.00 20.00    -0.395 OA
HETATM   11  H28 UNL     1     -33.158  14.649  -5.309  1.00 20.00     0.210 HD
ENDBRANCH   3  10
TORSDOF 1
ENDMDL
MODEL 3
REMARK VINA RESULT:      -4.2      1.917      3.801
REMARK  1 active torsions:
REMARK  status: ('A' for Active; 'I' for Inactive)
REMARK    1  A    between atoms: C3_3  and  O10_10 
ROOT
HETATM    1  C1  UNL     1     -34.777  14.436  -4.993  1.00 20.00     0.041 C 
HETATM    2  C2  UNL     1     -34.583  16.861  -4.581  1.00 20.00     0.020 C 
HETATM    3  C3  UNL     1     -33.652  14.715  -3.998  1.00 20.00     0.126 C 
HETATM    4  C4  UNL     1     -35.172  15.818  -5.566  1.00 20.00    -0.045 C 
HETATM    5  C5  UNL     1     -34.030  16.071  -3.373  1.00 20.00    -0.021 C 
HETATM    6  C6  UNL     1     -36.699  15.947  -5.668  1.00 20.00     0.015 C 
HETATM    7  C7  UNL     1     -34.575  16.016  -6.969  1.00 20.00     0.015 C 
HETATM    8  C8  UNL     1     -32.841  16.805  -2.740  1.00 20.00     0.017 C 
HETATM    9  C9  UNL     1     -35.117  15.892  -2.296  1.00 20.00     0.017 C 
ENDROOT
BRANCH   3  10
HETATM   10  O10 UNL     1     -32.426  14.782  -4.720  1.00 20.00    -0.395 OA
HETATM   11  H28 UNL     1     -31.709  14.628  -4.081  1.00 20.00     0.210 HD
ENDBRANCH   3  10
TORSDOF 1
ENDMDL
MODEL 4
REMARK VINA RESULT:      -4.1      1.582      2.492
REMARK  1 active torsions:
REMARK  status: ('A' for Active; 'I' for Inactive)
REMARK    1  A    between atoms: C3_3  and  O10_10 
ROOT
HETATM    1  C1  UNL     1     -34.230  16.051  -5.426  1.00 20.00     0.041 C 
HETATM    2  C2  UNL     1     -35.058  14.811  -3.459  1.00 20.00     0.020 C 
HETATM    3  C3  UNL     1     -35.597  15.439  -5.724  1.00 20.00     0.126 C 
HETATM    4  C4  UNL     1     -33.775  15.414  -4.091  1.00 20.00    -0.045 C 
HETATM    5  C5  UNL     1     -36.244  15.271  -4.336  1.00 20.00    -0.021 C 
HETATM    6  C6  UNL     1     -33.144  16.469  -3.171  1.00 20.00     0.015 C 
HETATM    7  C7  UNL     1     -32.737  14.308  -4.341  1.00 20.00     0.015 C 
HETATM    8  C8  UNL     1     -37.375  14.233  -4.311  1.00 20.00     0.017 C 
HETATM    9  C9  UNL     1     -36.808  16.612  -3.830  1.00 20.00     0.017 C 
ENDROOT
BRANCH   3  10
HETATM   10  O10 UNL     1     -35.393  14.188  -6.374  1.00 20.00    -0.395 OA
HETATM   11  H28 UNL     1     -35.722  14.283  -7.285  1.00 20.00     0.210 HD
ENDBRANCH   3  10
TORSDOF 1
ENDMDL
MODEL 5
REMARK VINA RESULT:      -4.0     10.140     11.615
REMARK  1 active torsions:
REMARK  status: ('A' for Active; 'I' for Inactive)
REMARK    1  A    between atoms: C3_3  and  O10_10 
ROOT
HETATM    1  C1  UNL     1     -42.460   5.937   0.440  1.00 20.00     0.041 C 
HETATM    2  C2  UNL     1     -41.752   7.420  -1.400  1.00 20.00     0.020 C 
HETATM    3  C3  UNL     1     -41.804   7.197   1.000  1.00 20.00     0.126 C 
HETATM    4  C4  UNL     1     -42.170   5.961  -1.079  1.00 20.00    -0.045 C 
HETATM    5  C5  UNL     1     -41.989   8.244  -0.115  1.00 20.00    -0.021 C 
HETATM    6  C6  UNL     1     -43.416   5.550  -1.878  1.00 20.00     0.015 C 
HETATM    7  C7  UNL     1     -41.029   4.992  -1.431  1.00 20.00     0.015 C 
HETATM    8  C8  UNL     1     -40.997   9.412  -0.025  1.00 20.00     0.017 C 
HETATM    9  C9  UNL     1     -43.417   8.819  -0.092  1.00 20.00     0.017 C 
ENDROOT
BRANCH   3  10
HETATM   10  O10 UNL     1     -40.430   6.912   1.244  1.00 20.00    -0.395 OA
HETATM   11  H28 UNL     1     -39.925   7.704   0.991  1.00 20.00     0.210 HD
ENDBRANCH   3  10
TORSDOF 1
ENDMDL
MODEL 6
REMARK VINA RESULT:      -3.9      2.132      2.989
REMARK  1 active torsions:
REMARK  status: ('A' for Active; 'I' for Inactive)
REMARK    1  A    between atoms: C3_3  and  O10_10 
ROOT
HETATM    1  C1  UNL     1     -35.093  17.382  -4.161  1.00 20.00     0.041 C 
HETATM    2  C2  UNL     1     -33.810  15.279  -4.304  1.00 20.00     0.020 C 
HETATM    3  C3  UNL     1     -34.802  17.038  -5.621  1.00 20.00     0.126 C 
HETATM    4  C4  UNL     1     -34.222  16.412  -3.328  1.00 20.00    -0.045 C 
HETATM    5  C5  UNL     1     -34.597  15.511  -5.613  1.00 20.00    -0.021 C 
HETATM    6  C6  UNL     1     -35.013  15.860  -2.134  1.00 20.00     0.015 C 
HETATM    7  C7  UNL     1     -32.973  17.129  -2.790  1.00 20.00     0.015 C 
HETATM    8  C8  UNL     1     -33.806  14.996  -6.823  1.00 20.00     0.017 C 
HETATM    9  C9  UNL     1     -35.951  14.778  -5.573  1.00 20.00     0.017 C 
ENDROOT
BRANCH   3  10
HETATM   10  O10 UNL     1     -33.624  17.735  -6.016  1.00 20.00    -0.395 OA
HETATM   11  H28 UNL     1     -32.884  17.109  -5.940  1.00 20.00     0.210 HD
ENDBRANCH   3  10
TORSDOF 1
ENDMDL
MODEL 7
REMARK VINA RESULT:      -3.9      1.815      3.458
REMARK  1 active torsions:
REMARK  status: ('A' for Active; 'I' for Inactive)
REMARK    1  A    between atoms: C3_3  and  O10_10 
ROOT
HETATM    1  C1  UNL     1     -35.362  15.798  -5.483  1.00 20.00     0.041 C 
HETATM    2  C2  UNL     1     -35.011  15.289  -3.094  1.00 20.00     0.020 C 
HETATM    3  C3  UNL     1     -34.254  16.681  -4.912  1.00 20.00     0.126 C 
HETATM    4  C4  UNL     1     -36.022  15.120  -4.258  1.00 20.00    -0.045 C 
HETATM    5  C5  UNL     1     -33.723  15.883  -3.706  1.00 20.00    -0.021 C 
HETATM    6  C6  UNL     1     -36.303  13.638  -4.543  1.00 20.00     0.015 C 
HETATM    7  C7  UNL     1     -37.353  15.806  -3.909  1.00 20.00     0.015 C 
HETATM    8  C8  UNL     1     -32.982  16.751  -2.679  1.00 20.00     0.017 C 
HETATM    9  C9  UNL     1     -32.772  14.763  -4.168  1.00 20.00     0.017 C 
ENDROOT
BRANCH   3  10
HETATM   10  O10 UNL     1     -34.833  17.922  -4.519  1.00 20.00    -0.395 OA
HETATM   11  H28 UNL     1     -34.755  18.526  -5.278  1.00 20.00     0.210 HD
ENDBRANCH   3  10
TORSDOF 1
ENDMDL
MODEL 8
REMARK VINA RESULT:      -3.9      1.461      3.321
REMARK  1 active torsions:
REMARK  status: ('A' for Active; 'I' for Inactive)
REMARK    1  A    between atoms: C3_3  and  O10_10 
ROOT
HETATM    1  C1  UNL     1     -35.737  16.428  -4.754  1.00 20.00     0.041 C 
HETATM    2  C2  UNL     1     -34.604  15.216  -2.928  1.00 20.00     0.020 C 
HETATM    3  C3  UNL     1     -36.045  17.088  -3.411  1.00 20.00     0.126 C 
HETATM    4  C4  UNL     1     -35.054  15.084  -4.406  1.00 20.00    -0.045 C 
HETATM    5  C5  UNL     1     -34.861  16.682  -2.513  1.00 20.00    -0.021 C 
HETATM    6  C6  UNL     1     -33.857  14.827  -5.333  1.00 20.00     0.015 C 
HETATM    7  C7  UNL     1     -36.043  13.917  -4.559  1.00 20.00     0.015 C 
HETATM    8  C8  UNL     1     -35.172  16.778  -1.013  1.00 20.00     0.017 C 
HETATM    9  C9  UNL     1     -33.628  17.556  -2.808  1.00 20.00     0.017 C 
ENDROOT
BRANCH   3  10
HETATM   10  O10 UNL     1     -37.282  16.567  -2.934  1.00 20.00    -0.395 OA
HETATM   11  H28 UNL     1     -37.163  15.608  -2.819  1.00 20.00     0.210 HD
ENDBRANCH   3  10
TORSDOF 1
ENDMDL
MODEL 9
REMARK VINA RESULT:      -3.9      2.264      3.377
REMARK  1 active torsions:
REMARK  status: ('A' for Active; 'I' for Inactive)
REMARK    1  A    between atoms: C3_3  and  O10_10 
ROOT
HETATM    1  C1  UNL     1     -35.036  17.918  -3.140  1.00 20.00     0.041 C 
HETATM    2  C2  UNL     1     -34.021  15.708  -2.725  1.00 20.00     0.020 C 
HETATM    3  C3  UNL     1     -34.728  17.221  -4.464  1.00 20.00     0.126 C 
HETATM    4  C4  UNL     1     -34.330  17.071  -2.055  1.00 20.00    -0.045 C 
HETATM    5  C5  UNL     1     -34.715  15.723  -4.106  1.00 20.00    -0.021 C 
HETATM    6  C6  UNL     1     -35.235  16.896  -0.827  1.00 20.00     0.015 C 
HETATM    7  C7  UNL     1     -33.026  17.747  -1.601  1.00 20.00     0.015 C 
HETATM    8  C8  UNL     1     -33.943  14.861  -5.114  1.00 20.00     0.017 C 
HETATM    9  C9  UNL     1     -36.151  15.175  -4.000  1.00 20.00     0.017 C 
ENDROOT
BRANCH   3  10
HETATM   10  O10 UNL     1     -33.456  17.674  -4.919  1.00 20.00    -0.395 OA
HETATM   11  H28 UNL     1     -32.846  16.918  -4.857  1.00 20.00     0.210 HD
ENDBRANCH   3  10
TORSDOF 1
ENDMDL
