MODEL 1
REMARK VINA RESULT:      -4.7      0.000      0.000
REMARK  3 active torsions:
REMARK  status: ('A' for Active; 'I' for Inactive)
REMARK    1  A    between atoms: C1_1  and  C6_6 
REMARK    2  A    between atoms: C1_1  and  O8_8 
REMARK    3  A    between atoms: C4_4  and  C6_6 
ROOT
HETATM    1  C6  UNL     1     -35.438  14.871  -4.492  1.00 20.00     0.115 C 
ENDROOT
BRANCH   1   2
HETATM    2  C1  UNL     1     -36.413  13.707  -4.477  1.00 20.00     0.139 C 
HETATM    3  O7  UNL     1     -37.631  13.809  -4.488  1.00 20.00    -0.650 OA
BRANCH   2   4
HETATM    4  O8  UNL     1     -35.755  12.519  -4.452  1.00 20.00    -0.776 OA
HETATM    5  H18 UNL     1     -35.958  12.006  -3.641  1.00 20.00     0.167 HD
ENDBRANCH   2   4
ENDBRANCH   1   2
BRANCH   1   6
HETATM    6  C4  UNL     1     -34.837  15.145  -3.158  1.00 20.00    -0.001 A 
HETATM    7  C2  UNL     1     -33.574  15.957  -3.048  1.00 20.00     0.010 A 
HETATM    8  C3  UNL     1     -34.883  16.535  -2.578  1.00 20.00    -0.014 A 
HETATM    9  C5  UNL     1     -35.136  16.730  -1.123  1.00 20.00     0.010 C 
ENDBRANCH   1   6
TORSDOF 3
ENDMDL
MODEL 2
REMARK VINA RESULT:      -4.7     10.998     11.450
REMARK  3 active torsions:
REMARK  status: ('A' for Active; 'I' for Inactive)
REMARK    1  A    between atoms: C1_1  and  C6_6 
REMARK    2  A    between atoms: C1_1  and  O8_8 
REMARK    3  A    between atoms: C4_4  and  C6_6 
ROOT
HETATM    1  C6  UNL     1     -33.819   5.573   3.482  1.00 20.00     0.115 C 
ENDROOT
BRANCH   1   2
HETATM    2  C1  UNL     1     -34.612   5.514   4.776  1.00 20.00     0.139 C 
HETATM    3  O7  UNL     1     -34.399   6.201   5.764  1.00 20.00    -0.650 OA
BRANCH   2   4
HETATM    4  O8  UNL     1     -35.605   4.591   4.699  1.00 20.00    -0.776 OA
HETATM    5  H18 UNL     1     -35.434   3.820   5.281  1.00 20.00     0.167 HD
ENDBRANCH   2   4
ENDBRANCH   1   2
BRANCH   1   6
HETATM    6  C4  UNL     1     -33.383   6.951   3.128  1.00 20.00    -0.001 A 
HETATM    7  C2  UNL     1     -31.950   7.368   3.329  1.00 20.00     0.010 A 
HETATM    8  C3  UNL     1     -32.490   7.179   1.935  1.00 20.00    -0.014 A 
HETATM    9  C5  UNL     1     -32.710   8.358   1.052  1.00 20.00     0.010 C 
ENDBRANCH   1   6
TORSDOF 3
ENDMDL
MODEL 3
REMARK VINA RESULT:      -4.4     11.223     11.724
REMARK  3 active torsions:
REMARK  status: ('A' for Active; 'I' for Inactive)
REMARK    1  A    between atoms: C1_1  and  C6_6 
REMARK    2  A    between atoms: C1_1  and  O8_8 
REMARK    3  A    between atoms: C4_4  and  C6_6 
ROOT
HETATM    1  C6  UNL     1     -33.245   5.879   2.760  1.00 20.00     0.115 C 
ENDROOT
BRANCH   1   2
HETATM    2  C1  UNL     1     -32.447   7.123   2.407  1.00 20.00     0.139 C 
HETATM    3  O7  UNL     1     -32.499   7.711   1.337  1.00 20.00    -0.650 OA
BRANCH   2   4
HETATM    4  O8  UNL     1     -31.658   7.508   3.443  1.00 20.00    -0.776 OA
HETATM    5  H18 UNL     1     -31.497   6.773   4.072  1.00 20.00     0.167 HD
ENDBRANCH   2   4
ENDBRANCH   1   2
BRANCH   1   6
HETATM    6  C4  UNL     1     -34.268   6.123   3.814  1.00 20.00    -0.001 A 
HETATM    7  C2  UNL     1     -35.154   4.999   4.283  1.00 20.00     0.010 A 
HETATM    8  C3  UNL     1     -34.085   5.546   5.194  1.00 20.00    -0.014 A 
HETATM    9  C5  UNL     1     -34.460   6.344   6.394  1.00 20.00     0.010 C 
ENDBRANCH   1   6
TORSDOF 3
ENDMDL
MODEL 4
REMARK VINA RESULT:      -4.4     11.352     11.901
REMARK  3 active torsions:
REMARK  status: ('A' for Active; 'I' for Inactive)
REMARK    1  A    between atoms: C1_1  and  C6_6 
REMARK    2  A    between atoms: C1_1  and  O8_8 
REMARK    3  A    between atoms: C4_4  and  C6_6 
ROOT
HETATM    1  C6  UNL     1     -33.287   5.939   2.843  1.00 20.00     0.115 C 
ENDROOT
BRANCH   1   2
HETATM    2  C1  UNL     1     -32.365   7.131   2.656  1.00 20.00     0.139 C 
HETATM    3  O7  UNL     1     -31.580   7.551   3.493  1.00 20.00    -0.650 OA
BRANCH   2   4
HETATM    4  O8  UNL     1     -32.522   7.682   1.425  1.00 20.00    -0.776 OA
HETATM    5  H18 UNL     1     -31.878   7.322   0.779  1.00 20.00     0.167 HD
ENDBRANCH   2   4
ENDBRANCH   1   2
BRANCH   1   6
HETATM    6  C4  UNL     1     -34.224   6.100   3.989  1.00 20.00    -0.001 A 
HETATM    7  C2  UNL     1     -35.616   5.531   3.916  1.00 20.00     0.010 A 
HETATM    8  C3  UNL     1     -34.597   4.910   4.835  1.00 20.00    -0.014 A 
HETATM    9  C5  UNL     1     -34.733   5.054   6.311  1.00 20.00     0.010 C 
ENDBRANCH   1   6
TORSDOF 3
ENDMDL
MODEL 5
REMARK VINA RESULT:      -4.3     11.512     12.018
REMARK  3 active torsions:
REMARK  status: ('A' for Active; 'I' for Inactive)
REMARK    1  A    between atoms: C1_1  and  C6_6 
REMARK    2  A    between atoms: C1_1  and  O8_8 
REMARK    3  A    between atoms: C4_4  and  C6_6 
ROOT
HETATM    1  C6  UNL     1     -34.408   6.613   4.600  1.00 20.00     0.115 C 
ENDROOT
BRANCH   1   2
HETATM    2  C1  UNL     1     -34.764   5.298   5.272  1.00 20.00     0.139 C 
HETATM    3  O7  UNL     1     -34.285   4.891   6.320  1.00 20.00    -0.650 OA
BRANCH   2   4
HETATM    4  O8  UNL     1     -35.695   4.619   4.554  1.00 20.00    -0.776 OA
HETATM    5  H18 UNL     1     -35.457   3.674   4.447  1.00 20.00     0.167 HD
ENDBRANCH   2   4
ENDBRANCH   1   2
BRANCH   1   6
HETATM    6  C4  UNL     1     -33.209   6.513   3.722  1.00 20.00    -0.001 A 
HETATM    7  C2  UNL     1     -33.152   5.474   2.634  1.00 20.00     0.010 A 
HETATM    8  C3  UNL     1     -33.294   6.931   2.277  1.00 20.00    -0.014 A 
HETATM    9  C5  UNL     1     -32.161   7.660   1.642  1.00 20.00     0.010 C 
ENDBRANCH   1   6
TORSDOF 3
ENDMDL
MODEL 6
REMARK VINA RESULT:      -4.2     17.862     18.738
REMARK  3 active torsions:
REMARK  status: ('A' for Active; 'I' for Inactive)
REMARK    1  A    between atoms: C1_1  and  C6_6 
REMARK    2  A    between atoms: C1_1  and  O8_8 
REMARK    3  A    between atoms: C4_4  and  C6_6 
ROOT
HETATM    1  C6  UNL     1     -22.821  18.329   9.736  1.00 20.00     0.115 C 
ENDROOT
BRANCH   1   2
HETATM    2  C1  UNL     1     -22.414  17.511   8.522  1.00 20.00     0.139 C 
HETATM    3  O7  UNL     1     -22.432  17.910   7.367  1.00 20.00    -0.650 OA
BRANCH   2   4
HETATM    4  O8  UNL     1     -22.019  16.263   8.884  1.00 20.00    -0.776 OA
HETATM    5  H18 UNL     1     -21.551  16.263   9.746  1.00 20.00     0.167 HD
ENDBRANCH   2   4
ENDBRANCH   1   2
BRANCH   1   6
HETATM    6  C4  UNL     1     -23.248  17.488  10.888  1.00 20.00    -0.001 A 
HETATM    7  C2  UNL     1     -22.917  17.908  12.296  1.00 20.00     0.010 A 
HETATM    8  C3  UNL     1     -24.342  17.965  11.808  1.00 20.00    -0.014 A 
HETATM    9  C5  UNL     1     -25.351  17.003  12.332  1.00 20.00     0.010 C 
ENDBRANCH   1   6
TORSDOF 3
ENDMDL
MODEL 7
REMARK VINA RESULT:      -4.2      9.373     10.869
REMARK  3 active torsions:
REMARK  status: ('A' for Active; 'I' for Inactive)
REMARK    1  A    between atoms: C1_1  and  C6_6 
REMARK    2  A    between atoms: C1_1  and  O8_8 
REMARK    3  A    between atoms: C4_4  and  C6_6 
ROOT
HETATM    1  C6  UNL     1     -41.113   8.259  -0.591  1.00 20.00     0.115 C 
ENDROOT
BRANCH   1   2
HETATM    2  C1  UNL     1     -41.940   9.327   0.105  1.00 20.00     0.139 C 
HETATM    3  O7  UNL     1     -43.144   9.266   0.302  1.00 20.00    -0.650 OA
BRANCH   2   4
HETATM    4  O8  UNL     1     -41.164  10.373   0.488  1.00 20.00    -0.776 OA
HETATM    5  H18 UNL     1     -41.671  11.036   1.003  1.00 20.00     0.167 HD
ENDBRANCH   2   4
ENDBRANCH   1   2
BRANCH   1   6
HETATM    6  C4  UNL     1     -41.797   6.938  -0.649  1.00 20.00    -0.001 A 
HETATM    7  C2  UNL     1     -41.004   5.686  -0.918  1.00 20.00     0.010 A 
HETATM    8  C3  UNL     1     -41.588   5.929   0.450  1.00 20.00    -0.014 A 
HETATM    9  C5  UNL     1     -42.730   5.104   0.934  1.00 20.00     0.010 C 
ENDBRANCH   1   6
TORSDOF 3
ENDMDL
MODEL 8
REMARK VINA RESULT:      -4.1      1.084      1.590
REMARK  3 active torsions:
REMARK  status: ('A' for Active; 'I' for Inactive)
REMARK    1  A    between atoms: C1_1  and  C6_6 
REMARK    2  A    between atoms: C1_1  and  O8_8 
REMARK    3  A    between atoms: C4_4  and  C6_6 
ROOT
HETATM    1  C6  UNL     1     -35.515  14.992  -3.615  1.00 20.00     0.115 C 
ENDROOT
BRANCH   1   2
HETATM    2  C1  UNL     1     -34.993  13.659  -4.123  1.00 20.00     0.139 C 
HETATM    3  O7  UNL     1     -33.815  13.336  -4.167  1.00 20.00    -0.650 OA
BRANCH   2   4
HETATM    4  O8  UNL     1     -36.011  12.858  -4.528  1.00 20.00    -0.776 OA
HETATM    5  H18 UNL     1     -35.778  12.348  -5.332  1.00 20.00     0.167 HD
ENDBRANCH   2   4
ENDBRANCH   1   2
BRANCH   1   6
HETATM    6  C4  UNL     1     -34.699  15.552  -2.502  1.00 20.00    -0.001 A 
HETATM    7  C2  UNL     1     -33.618  16.561  -2.789  1.00 20.00     0.010 A 
HETATM    8  C3  UNL     1     -34.878  16.988  -2.081  1.00 20.00    -0.014 A 
HETATM    9  C5  UNL     1     -34.839  17.353  -0.637  1.00 20.00     0.010 C 
ENDBRANCH   1   6
TORSDOF 3
ENDMDL
MODEL 9
REMARK VINA RESULT:      -4.0      1.844      2.229
REMARK  3 active torsions:
REMARK  status: ('A' for Active; 'I' for Inactive)
REMARK    1  A    between atoms: C1_1  and  C6_6 
REMARK    2  A    between atoms: C1_1  and  O8_8 
REMARK    3  A    between atoms: C4_4  and  C6_6 
ROOT
HETATM    1  C6  UNL     1     -34.082  15.891  -4.073  1.00 20.00     0.115 C 
ENDROOT
BRANCH   1   2
HETATM    2  C1  UNL     1     -33.845  14.460  -4.525  1.00 20.00     0.139 C 
HETATM    3  O7  UNL     1     -34.394  13.474  -4.056  1.00 20.00    -0.650 OA
BRANCH   2   4
HETATM    4  O8  UNL     1     -32.935  14.411  -5.531  1.00 20.00    -0.776 OA
HETATM    5  H18 UNL     1     -33.191  13.766  -6.225  1.00 20.00     0.167 HD
ENDBRANCH   2   4
ENDBRANCH   1   2
BRANCH   1   6
HETATM    6  C4  UNL     1     -33.944  16.067  -2.601  1.00 20.00    -0.001 A 
HETATM    7  C2  UNL     1     -33.166  17.232  -2.047  1.00 20.00     0.010 A 
HETATM    8  C3  UNL     1     -34.666  17.191  -1.903  1.00 20.00    -0.014 A 
HETATM    9  C5  UNL     1     -35.283  16.967  -0.566  1.00 20.00     0.010 C 
ENDBRANCH   1   6
TORSDOF 3
ENDMDL
