MODEL 1
REMARK VINA RESULT:      -4.0      0.000      0.000
REMARK  1 active torsions:
REMARK  status: ('A' for Active; 'I' for Inactive)
REMARK    1  A    between atoms: C8_8  and  N10_10 
ROOT
HETATM    1  C1  UNL     1     -27.495  19.019   6.469  1.00 20.00     0.013 C 
HETATM    2  C2  UNL     1     -26.337  19.126   6.767  1.00 20.00    -0.087 C 
HETATM    3  C8  UNL     1     -24.923  19.261   7.126  1.00 20.00     0.365 C 
ENDROOT
BRANCH   3   4
HETATM    4  N10 UNL     1     -24.607  18.443   8.295  1.00 20.00     0.102 N 
HETATM    5  C5  UNL     1     -23.164  18.190   8.380  1.00 20.00     0.303 C 
HETATM    6  C3  UNL     1     -22.831  17.334   9.607  1.00 20.00     0.302 C 
HETATM    7  N9  UNL     1     -23.315  17.972  10.837  1.00 20.00     0.087 N 
HETATM    8  C4  UNL     1     -24.758  18.225  10.751  1.00 20.00     0.302 C 
HETATM    9  C7  UNL     1     -23.000  17.152  12.005  1.00 20.00     0.310 C 
HETATM   10  C6  UNL     1     -25.090  19.082   9.524  1.00 20.00     0.303 C 
ENDBRANCH   3   4
TORSDOF 1
ENDMDL
MODEL 2
REMARK VINA RESULT:      -3.8     14.998     15.920
REMARK  1 active torsions:
REMARK  status: ('A' for Active; 'I' for Inactive)
REMARK    1  A    between atoms: C8_8  and  N10_10 
ROOT
HETATM    1  C1  UNL     1     -33.098   9.156   0.300  1.00 20.00     0.013 C 
HETATM    2  C2  UNL     1     -32.686   8.291   1.023  1.00 20.00    -0.087 C 
HETATM    3  C8  UNL     1     -32.179   7.236   1.903  1.00 20.00     0.365 C 
ENDROOT
BRANCH   3   4
HETATM    4  N10 UNL     1     -33.180   6.873   2.904  1.00 20.00     0.102 N 
HETATM    5  C5  UNL     1     -33.482   5.438   2.845  1.00 20.00     0.303 C 
HETATM    6  C3  UNL     1     -34.530   5.057   3.896  1.00 20.00     0.302 C 
HETATM    7  N9  UNL     1     -34.082   5.431   5.242  1.00 20.00     0.087 N 
HETATM    8  C4  UNL     1     -33.779   6.867   5.301  1.00 20.00     0.302 C 
HETATM    9  C7  UNL     1     -35.084   5.070   6.242  1.00 20.00     0.310 C 
HETATM   10  C6  UNL     1     -32.730   7.247   4.250  1.00 20.00     0.303 C 
ENDBRANCH   3   4
TORSDOF 1
ENDMDL
MODEL 3
REMARK VINA RESULT:      -3.7      2.401      3.517
REMARK  1 active torsions:
REMARK  status: ('A' for Active; 'I' for Inactive)
REMARK    1  A    between atoms: C8_8  and  N10_10 
ROOT
HETATM    1  C1  UNL     1     -27.756  19.263  11.214  1.00 20.00     0.013 C 
HETATM    2  C2  UNL     1     -26.775  18.780  11.711  1.00 20.00    -0.087 C 
HETATM    3  C8  UNL     1     -25.582  18.190  12.321  1.00 20.00     0.365 C 
ENDROOT
BRANCH   3   4
HETATM    4  N10 UNL     1     -24.439  18.284  11.416  1.00 20.00     0.102 N 
HETATM    5  C5  UNL     1     -23.309  17.493  11.919  1.00 20.00     0.303 C 
HETATM    6  C3  UNL     1     -22.110  17.589  10.969  1.00 20.00     0.302 C 
HETATM    7  N9  UNL     1     -22.478  17.157   9.616  1.00 20.00     0.087 N 
HETATM    8  C4  UNL     1     -23.608  17.947   9.114  1.00 20.00     0.302 C 
HETATM    9  C7  UNL     1     -21.334  17.253   8.712  1.00 20.00     0.310 C 
HETATM   10  C6  UNL     1     -24.807  17.849  10.064  1.00 20.00     0.303 C 
ENDBRANCH   3   4
TORSDOF 1
ENDMDL
MODEL 4
REMARK VINA RESULT:      -3.5     11.619     14.934
REMARK  1 active torsions:
REMARK  status: ('A' for Active; 'I' for Inactive)
REMARK    1  A    between atoms: C8_8  and  N10_10 
ROOT
HETATM    1  C1  UNL     1     -30.729  18.249   0.531  1.00 20.00     0.013 C 
HETATM    2  C2  UNL     1     -31.470  18.454  -0.392  1.00 20.00    -0.087 C 
HETATM    3  C8  UNL     1     -32.372  18.709  -1.517  1.00 20.00     0.365 C 
ENDROOT
BRANCH   3   4
HETATM    4  N10 UNL     1     -33.001  17.469  -1.965  1.00 20.00     0.102 N 
HETATM    5  C5  UNL     1     -34.374  17.366  -1.454  1.00 20.00     0.303 C 
HETATM    6  C3  UNL     1     -35.036  16.067  -1.926  1.00 20.00     0.302 C 
HETATM    7  N9  UNL     1     -35.026  15.976  -3.391  1.00 20.00     0.087 N 
HETATM    8  C4  UNL     1     -33.653  16.080  -3.902  1.00 20.00     0.302 C 
HETATM    9  C7  UNL     1     -35.654  14.735  -3.838  1.00 20.00     0.310 C 
HETATM   10  C6  UNL     1     -32.992  17.381  -3.430  1.00 20.00     0.303 C 
ENDBRANCH   3   4
TORSDOF 1
ENDMDL
MODEL 5
REMARK VINA RESULT:      -3.4     13.371     16.104
REMARK  1 active torsions:
REMARK  status: ('A' for Active; 'I' for Inactive)
REMARK    1  A    between atoms: C8_8  and  N10_10 
ROOT
HETATM    1  C1  UNL     1     -33.570  18.477   0.105  1.00 20.00     0.013 C 
HETATM    2  C2  UNL     1     -33.245  18.007  -0.951  1.00 20.00    -0.087 C 
HETATM    3  C8  UNL     1     -32.845  17.437  -2.239  1.00 20.00     0.365 C 
ENDROOT
BRANCH   3   4
HETATM    4  N10 UNL     1     -33.710  16.316  -2.599  1.00 20.00     0.102 N 
HETATM    5  C5  UNL     1     -35.069  16.781  -2.900  1.00 20.00     0.303 C 
HETATM    6  C3  UNL     1     -35.977  15.606  -3.280  1.00 20.00     0.302 C 
HETATM    7  N9  UNL     1     -35.424  14.864  -4.419  1.00 20.00     0.087 N 
HETATM    8  C4  UNL     1     -34.064  14.400  -4.118  1.00 20.00     0.302 C 
HETATM    9  C7  UNL     1     -36.289  13.742  -4.777  1.00 20.00     0.310 C 
HETATM   10  C6  UNL     1     -33.157  15.576  -3.739  1.00 20.00     0.303 C 
ENDBRANCH   3   4
TORSDOF 1
ENDMDL
MODEL 6
REMARK VINA RESULT:      -3.4     12.203     14.848
REMARK  1 active torsions:
REMARK  status: ('A' for Active; 'I' for Inactive)
REMARK    1  A    between atoms: C8_8  and  N10_10 
ROOT
HETATM    1  C1  UNL     1     -30.995  18.266  -0.161  1.00 20.00     0.013 C 
HETATM    2  C2  UNL     1     -31.973  18.701  -0.705  1.00 20.00    -0.087 C 
HETATM    3  C8  UNL     1     -33.164  19.237  -1.368  1.00 20.00     0.365 C 
ENDROOT
BRANCH   3   4
HETATM    4  N10 UNL     1     -33.840  18.195  -2.136  1.00 20.00     0.102 N 
HETATM    5  C5  UNL     1     -32.936  17.614  -3.137  1.00 20.00     0.303 C 
HETATM    6  C3  UNL     1     -33.644  16.519  -3.942  1.00 20.00     0.302 C 
HETATM    7  N9  UNL     1     -34.168  15.474  -3.056  1.00 20.00     0.087 N 
HETATM    8  C4  UNL     1     -35.071  16.054  -2.055  1.00 20.00     0.302 C 
HETATM    9  C7  UNL     1     -34.846  14.433  -3.826  1.00 20.00     0.310 C 
HETATM   10  C6  UNL     1     -34.362  17.148  -1.249  1.00 20.00     0.303 C 
ENDBRANCH   3   4
TORSDOF 1
ENDMDL
MODEL 7
REMARK VINA RESULT:      -3.4      9.693     12.182
REMARK  1 active torsions:
REMARK  status: ('A' for Active; 'I' for Inactive)
REMARK    1  A    between atoms: C8_8  and  N10_10 
ROOT
HETATM    1  C1  UNL     1     -33.412  15.861  -3.343  1.00 20.00     0.013 C 
HETATM    2  C2  UNL     1     -33.086  16.895  -2.827  1.00 20.00    -0.087 C 
HETATM    3  C8  UNL     1     -32.689  18.159  -2.203  1.00 20.00     0.365 C 
ENDROOT
BRANCH   3   4
HETATM    4  N10 UNL     1     -32.476  17.981  -0.768  1.00 20.00     0.102 N 
HETATM    5  C5  UNL     1     -31.135  18.436  -0.380  1.00 20.00     0.303 C 
HETATM    6  C3  UNL     1     -30.911  18.252   1.125  1.00 20.00     0.302 C 
HETATM    7  N9  UNL     1     -31.937  18.961   1.897  1.00 20.00     0.087 N 
HETATM    8  C4  UNL     1     -33.278  18.508   1.509  1.00 20.00     0.302 C 
HETATM    9  C7  UNL     1     -31.723  18.782   3.332  1.00 20.00     0.310 C 
HETATM   10  C6  UNL     1     -33.501  18.693   0.003  1.00 20.00     0.303 C 
ENDBRANCH   3   4
TORSDOF 1
ENDMDL
MODEL 8
REMARK VINA RESULT:      -3.4     15.616     18.032
REMARK  1 active torsions:
REMARK  status: ('A' for Active; 'I' for Inactive)
REMARK    1  A    between atoms: C8_8  and  N10_10 
ROOT
HETATM    1  C1  UNL     1     -35.145  16.500  -1.551  1.00 20.00     0.013 C 
HETATM    2  C2  UNL     1     -34.334  16.170  -2.374  1.00 20.00    -0.087 C 
HETATM    3  C8  UNL     1     -33.342  15.768  -3.373  1.00 20.00     0.365 C 
ENDROOT
BRANCH   3   4
HETATM    4  N10 UNL     1     -33.931  15.759  -4.710  1.00 20.00     0.102 N 
HETATM    5  C5  UNL     1     -35.023  14.782  -4.793  1.00 20.00     0.303 C 
HETATM    6  C3  UNL     1     -35.643  14.773  -6.195  1.00 20.00     0.302 C 
HETATM    7  N9  UNL     1     -36.121  16.110  -6.565  1.00 20.00     0.087 N 
HETATM    8  C4  UNL     1     -35.029  17.087  -6.481  1.00 20.00     0.302 C 
HETATM    9  C7  UNL     1     -36.707  16.100  -7.903  1.00 20.00     0.310 C 
HETATM   10  C6  UNL     1     -34.411  17.096  -5.078  1.00 20.00     0.303 C 
ENDBRANCH   3   4
TORSDOF 1
ENDMDL
MODEL 9
REMARK VINA RESULT:      -3.4     13.361     14.993
REMARK  1 active torsions:
REMARK  status: ('A' for Active; 'I' for Inactive)
REMARK    1  A    between atoms: C8_8  and  N10_10 
ROOT
HETATM    1  C1  UNL     1     -35.345  13.564  -4.038  1.00 20.00     0.013 C 
HETATM    2  C2  UNL     1     -34.568  14.469  -3.901  1.00 20.00    -0.087 C 
HETATM    3  C8  UNL     1     -33.619  15.572  -3.739  1.00 20.00     0.365 C 
ENDROOT
BRANCH   3   4
HETATM    4  N10 UNL     1     -33.735  16.162  -2.408  1.00 20.00     0.102 N 
HETATM    5  C5  UNL     1     -32.971  17.413  -2.322  1.00 20.00     0.303 C 
HETATM    6  C3  UNL     1     -33.094  18.034  -0.926  1.00 20.00     0.302 C 
HETATM    7  N9  UNL     1     -34.501  18.266  -0.579  1.00 20.00     0.087 N 
HETATM    8  C4  UNL     1     -35.265  17.015  -0.665  1.00 20.00     0.302 C 
HETATM    9  C7  UNL     1     -34.615  18.854   0.754  1.00 20.00     0.310 C 
HETATM   10  C6  UNL     1     -35.142  16.396  -2.062  1.00 20.00     0.303 C 
ENDBRANCH   3   4
TORSDOF 1
ENDMDL
