MODEL 1
REMARK VINA RESULT:      -4.6      0.000      0.000
REMARK  3 active torsions:
REMARK  status: ('A' for Active; 'I' for Inactive)
REMARK    1  A    between atoms: C1_1  and  C4_4 
REMARK    2  A    between atoms: C2_2  and  C9_9 
REMARK    3  A    between atoms: C9_9  and  N10_10 
ROOT
HETATM    1  C5  UNL     1     -34.039   6.511   5.984  1.00 20.00     0.032 C 
HETATM    2  C6  UNL     1     -34.332   5.025   6.139  1.00 20.00     0.032 C 
HETATM    3  C7  UNL     1     -34.581   6.885   4.613  1.00 20.00     0.273 C 
HETATM    4  C8  UNL     1     -35.027   4.616   4.848  1.00 20.00     0.273 C 
HETATM    5  N10 UNL     1     -34.676   5.634   3.849  1.00 20.00     0.099 N 
ENDROOT
BRANCH   5   6
HETATM    6  C9  UNL     1     -33.375   5.315   3.233  1.00 20.00     0.366 C 
BRANCH   6   7
HETATM    7  C2  UNL     1     -32.924   6.407   2.366  1.00 20.00    -0.072 C 
HETATM    8  C1  UNL     1     -32.559   7.304   1.655  1.00 20.00    -0.078 C 
BRANCH   8   9
HETATM    9  C4  UNL     1     -32.133   8.368   0.816  1.00 20.00     0.054 C 
HETATM   10  C3  UNL     1     -32.976   9.316   0.396  1.00 20.00     0.020 C 
ENDBRANCH   8   9
ENDBRANCH   6   7
ENDBRANCH   5   6
TORSDOF 3
ENDMDL
MODEL 2
REMARK VINA RESULT:      -4.0      9.863     10.567
REMARK  3 active torsions:
REMARK  status: ('A' for Active; 'I' for Inactive)
REMARK    1  A    between atoms: C1_1  and  C4_4 
REMARK    2  A    between atoms: C2_2  and  C9_9 
REMARK    3  A    between atoms: C9_9  and  N10_10 
ROOT
HETATM    1  C5  UNL     1     -42.300   8.018   0.213  1.00 20.00     0.032 C 
HETATM    2  C6  UNL     1     -41.306   7.707  -0.898  1.00 20.00     0.032 C 
HETATM    3  C7  UNL     1     -42.573   6.685   0.892  1.00 20.00     0.273 C 
HETATM    4  C8  UNL     1     -41.058   6.208  -0.804  1.00 20.00     0.273 C 
HETATM    5  N10 UNL     1     -42.201   5.643  -0.075  1.00 20.00     0.099 N 
ENDROOT
BRANCH   5   6
HETATM    6  C9  UNL     1     -43.319   5.387  -1.001  1.00 20.00     0.366 C 
BRANCH   6   7
HETATM    7  C2  UNL     1     -42.998   4.288  -1.917  1.00 20.00    -0.072 C 
HETATM    8  C1  UNL     1     -42.730   3.389  -2.667  1.00 20.00    -0.078 C 
BRANCH   8   9
HETATM    9  C4  UNL     1     -42.407   2.327  -3.552  1.00 20.00     0.054 C 
HETATM   10  C3  UNL     1     -41.665   2.521  -4.647  1.00 20.00     0.020 C 
ENDBRANCH   8   9
ENDBRANCH   6   7
ENDBRANCH   5   6
TORSDOF 3
ENDMDL
MODEL 3
REMARK VINA RESULT:      -3.8     10.038     10.713
REMARK  3 active torsions:
REMARK  status: ('A' for Active; 'I' for Inactive)
REMARK    1  A    between atoms: C1_1  and  C4_4 
REMARK    2  A    between atoms: C2_2  and  C9_9 
REMARK    3  A    between atoms: C9_9  and  N10_10 
ROOT
HETATM    1  C5  UNL     1     -41.173   6.850   0.440  1.00 20.00     0.032 C 
HETATM    2  C6  UNL     1     -42.392   7.735   0.659  1.00 20.00     0.032 C 
HETATM    3  C7  UNL     1     -41.222   6.455  -1.028  1.00 20.00     0.273 C 
HETATM    4  C8  UNL     1     -43.085   7.804  -0.695  1.00 20.00     0.273 C 
HETATM    5  N10 UNL     1     -42.613   6.644  -1.461  1.00 20.00     0.099 N 
ENDROOT
BRANCH   5   6
HETATM    6  C9  UNL     1     -43.416   5.453  -1.126  1.00 20.00     0.366 C 
BRANCH   6   7
HETATM    7  C2  UNL     1     -43.040   4.314  -1.969  1.00 20.00    -0.072 C 
HETATM    8  C1  UNL     1     -42.728   3.379  -2.655  1.00 20.00    -0.078 C 
BRANCH   8   9
HETATM    9  C4  UNL     1     -42.355   2.272  -3.463  1.00 20.00     0.054 C 
HETATM   10  C3  UNL     1     -41.614   2.421  -4.565  1.00 20.00     0.020 C 
ENDBRANCH   8   9
ENDBRANCH   6   7
ENDBRANCH   5   6
TORSDOF 3
ENDMDL
MODEL 4
REMARK VINA RESULT:      -3.8     11.127     12.142
REMARK  3 active torsions:
REMARK  status: ('A' for Active; 'I' for Inactive)
REMARK    1  A    between atoms: C1_1  and  C4_4 
REMARK    2  A    between atoms: C2_2  and  C9_9 
REMARK    3  A    between atoms: C9_9  and  N10_10 
ROOT
HETATM    1  C5  UNL     1     -34.572  15.113  -5.980  1.00 20.00     0.032 C 
HETATM    2  C6  UNL     1     -35.901  14.390  -5.806  1.00 20.00     0.032 C 
HETATM    3  C7  UNL     1     -33.772  14.789  -4.728  1.00 20.00     0.273 C 
HETATM    4  C8  UNL     1     -35.800  13.687  -4.460  1.00 20.00     0.273 C 
HETATM    5  N10 UNL     1     -34.746  14.380  -3.708  1.00 20.00     0.099 N 
ENDROOT
BRANCH   5   6
HETATM    6  C9  UNL     1     -35.301  15.566  -3.031  1.00 20.00     0.366 C 
BRANCH   6   7
HETATM    7  C2  UNL     1     -34.230  16.422  -2.510  1.00 20.00    -0.072 C 
HETATM    8  C1  UNL     1     -33.356  17.127  -2.085  1.00 20.00    -0.078 C 
BRANCH   8   9
HETATM    9  C4  UNL     1     -32.326  17.965  -1.584  1.00 20.00     0.054 C 
HETATM   10  C3  UNL     1     -32.452  18.625  -0.428  1.00 20.00     0.020 C 
ENDBRANCH   8   9
ENDBRANCH   6   7
ENDBRANCH   5   6
TORSDOF 3
ENDMDL
MODEL 5
REMARK VINA RESULT:      -3.8     11.076     12.133
REMARK  3 active torsions:
REMARK  status: ('A' for Active; 'I' for Inactive)
REMARK    1  A    between atoms: C1_1  and  C4_4 
REMARK    2  A    between atoms: C2_2  and  C9_9 
REMARK    3  A    between atoms: C9_9  and  N10_10 
ROOT
HETATM    1  C5  UNL     1     -35.248  13.890  -4.094  1.00 20.00     0.032 C 
HETATM    2  C6  UNL     1     -33.870  14.474  -4.374  1.00 20.00     0.032 C 
HETATM    3  C7  UNL     1     -36.148  15.091  -3.844  1.00 20.00     0.273 C 
HETATM    4  C8  UNL     1     -34.045  15.982  -4.270  1.00 20.00     0.273 C 
HETATM    5  N10 UNL     1     -35.262  16.204  -3.479  1.00 20.00     0.099 N 
ENDROOT
BRANCH   5   6
HETATM    6  C9  UNL     1     -34.949  16.155  -2.039  1.00 20.00     0.366 C 
BRANCH   6   7
HETATM    7  C2  UNL     1     -33.825  17.039  -1.717  1.00 20.00    -0.072 C 
HETATM    8  C1  UNL     1     -32.908  17.767  -1.452  1.00 20.00    -0.078 C 
BRANCH   8   9
HETATM    9  C4  UNL     1     -31.827  18.633  -1.136  1.00 20.00     0.054 C 
HETATM   10  C3  UNL     1     -31.085  18.463  -0.037  1.00 20.00     0.020 C 
ENDBRANCH   8   9
ENDBRANCH   6   7
ENDBRANCH   5   6
TORSDOF 3
ENDMDL
MODEL 6
REMARK VINA RESULT:      -3.7     15.408     16.204
REMARK  3 active torsions:
REMARK  status: ('A' for Active; 'I' for Inactive)
REMARK    1  A    between atoms: C1_1  and  C4_4 
REMARK    2  A    between atoms: C2_2  and  C9_9 
REMARK    3  A    between atoms: C9_9  and  N10_10 
ROOT
HETATM    1  C5  UNL     1     -23.644  16.227  11.975  1.00 20.00     0.032 C 
HETATM    2  C6  UNL     1     -24.985  16.625  11.375  1.00 20.00     0.032 C 
HETATM    3  C7  UNL     1     -22.804  17.496  11.956  1.00 20.00     0.273 C 
HETATM    4  C8  UNL     1     -24.851  18.103  11.039  1.00 20.00     0.273 C 
HETATM    5  N10 UNL     1     -23.411  18.379  10.952  1.00 20.00     0.099 N 
ENDROOT
BRANCH   5   6
HETATM    6  C9  UNL     1     -22.909  18.042   9.607  1.00 20.00     0.366 C 
BRANCH   6   7
HETATM    7  C2  UNL     1     -23.849  18.484   8.572  1.00 20.00    -0.072 C 
HETATM    8  C1  UNL     1     -24.622  18.842   7.726  1.00 20.00    -0.078 C 
BRANCH   8   9
HETATM    9  C4  UNL     1     -25.540  19.263   6.728  1.00 20.00     0.054 C 
HETATM   10  C3  UNL     1     -26.540  18.478   6.312  1.00 20.00     0.020 C 
ENDBRANCH   8   9
ENDBRANCH   6   7
ENDBRANCH   5   6
TORSDOF 3
ENDMDL
MODEL 7
REMARK VINA RESULT:      -3.7     11.286     12.403
REMARK  3 active torsions:
REMARK  status: ('A' for Active; 'I' for Inactive)
REMARK    1  A    between atoms: C1_1  and  C4_4 
REMARK    2  A    between atoms: C2_2  and  C9_9 
REMARK    3  A    between atoms: C9_9  and  N10_10 
ROOT
HETATM    1  C5  UNL     1     -34.710  15.224  -4.844  1.00 20.00     0.032 C 
HETATM    2  C6  UNL     1     -35.718  15.617  -3.772  1.00 20.00     0.032 C 
HETATM    3  C7  UNL     1     -33.381  15.092  -4.116  1.00 20.00     0.273 C 
HETATM    4  C8  UNL     1     -34.918  15.692  -2.479  1.00 20.00     0.273 C 
HETATM    5  N10 UNL     1     -33.513  15.860  -2.871  1.00 20.00     0.099 N 
ENDROOT
BRANCH   5   6
HETATM    6  C9  UNL     1     -33.221  17.284  -3.118  1.00 20.00     0.366 C 
BRANCH   6   7
HETATM    7  C2  UNL     1     -32.475  17.868  -1.999  1.00 20.00    -0.072 C 
HETATM    8  C1  UNL     1     -31.865  18.342  -1.080  1.00 20.00    -0.078 C 
BRANCH   8   9
HETATM    9  C4  UNL     1     -31.142  18.896   0.009  1.00 20.00     0.054 C 
HETATM   10  C3  UNL     1     -30.790  18.162   1.070  1.00 20.00     0.020 C 
ENDBRANCH   8   9
ENDBRANCH   6   7
ENDBRANCH   5   6
TORSDOF 3
ENDMDL
MODEL 8
REMARK VINA RESULT:      -3.6     11.427     12.761
REMARK  3 active torsions:
REMARK  status: ('A' for Active; 'I' for Inactive)
REMARK    1  A    between atoms: C1_1  and  C4_4 
REMARK    2  A    between atoms: C2_2  and  C9_9 
REMARK    3  A    between atoms: C9_9  and  N10_10 
ROOT
HETATM    1  C5  UNL     1     -36.435  15.773  -6.096  1.00 20.00     0.032 C 
HETATM    2  C6  UNL     1     -35.575  14.720  -6.782  1.00 20.00     0.032 C 
HETATM    3  C7  UNL     1     -35.464  16.609  -5.275  1.00 20.00     0.273 C 
HETATM    4  C8  UNL     1     -34.152  15.001  -6.321  1.00 20.00     0.273 C 
HETATM    5  N10 UNL     1     -34.265  15.783  -5.083  1.00 20.00     0.099 N 
ENDROOT
BRANCH   5   6
HETATM    6  C9  UNL     1     -34.447  14.883  -3.929  1.00 20.00     0.366 C 
BRANCH   6   7
HETATM    7  C2  UNL     1     -34.745  15.646  -2.712  1.00 20.00    -0.072 C 
HETATM    8  C1  UNL     1     -34.986  16.274  -1.718  1.00 20.00    -0.078 C 
BRANCH   8   9
HETATM    9  C4  UNL     1     -35.268  17.023  -0.544  1.00 20.00     0.054 C 
HETATM   10  C3  UNL     1     -34.407  17.922  -0.057  1.00 20.00     0.020 C 
ENDBRANCH   8   9
ENDBRANCH   6   7
ENDBRANCH   5   6
TORSDOF 3
ENDMDL
MODEL 9
REMARK VINA RESULT:      -3.6     11.195     12.433
REMARK  3 active torsions:
REMARK  status: ('A' for Active; 'I' for Inactive)
REMARK    1  A    between atoms: C1_1  and  C4_4 
REMARK    2  A    between atoms: C2_2  and  C9_9 
REMARK    3  A    between atoms: C9_9  and  N10_10 
ROOT
HETATM    1  C5  UNL     1     -35.917  14.426  -6.144  1.00 20.00     0.032 C 
HETATM    2  C6  UNL     1     -35.772  15.938  -6.054  1.00 20.00     0.032 C 
HETATM    3  C7  UNL     1     -36.294  13.975  -4.741  1.00 20.00     0.273 C 
HETATM    4  C8  UNL     1     -36.070  16.284  -4.602  1.00 20.00     0.273 C 
HETATM    5  N10 UNL     1     -35.870  15.049  -3.833  1.00 20.00     0.099 N 
ENDROOT
BRANCH   5   6
HETATM    6  C9  UNL     1     -34.445  14.891  -3.488  1.00 20.00     0.366 C 
BRANCH   6   7
HETATM    7  C2  UNL     1     -33.979  16.010  -2.664  1.00 20.00    -0.072 C 
HETATM    8  C1  UNL     1     -33.601  16.928  -1.988  1.00 20.00    -0.078 C 
BRANCH   8   9
HETATM    9  C4  UNL     1     -33.161  18.016  -1.188  1.00 20.00     0.054 C 
HETATM   10  C3  UNL     1     -31.867  18.326  -1.069  1.00 20.00     0.020 C 
ENDBRANCH   8   9
ENDBRANCH   6   7
ENDBRANCH   5   6
TORSDOF 3
ENDMDL
