MODEL 1
REMARK VINA RESULT:      -5.3      0.000      0.000
REMARK  0 active torsions:
REMARK  status: ('A' for Active; 'I' for Inactive)
ROOT
HETATM    1  C1  UNL     1     -32.778   7.008   2.646  1.00 20.00     0.124 C 
HETATM    2  C2  UNL     1     -33.500   7.096   4.929  1.00 20.00     0.021 C 
HETATM    3  C3  UNL     1     -33.517   6.476   3.737  1.00 20.00     0.145 C 
HETATM    4  C4  UNL     1     -34.211   6.549   6.127  1.00 20.00     0.033 C 
HETATM    5  C5  UNL     1     -34.676   5.116   5.882  1.00 20.00     0.031 C 
HETATM    6  C6  UNL     1     -35.210   4.983   4.463  1.00 20.00     0.176 C 
HETATM    7  N7  UNL     1     -32.174   7.443   1.756  1.00 20.00    -0.189 NA
HETATM    8  O8  UNL     1     -34.218   5.313   3.483  1.00 20.00    -0.341 OA
ENDROOT
TORSDOF 0
ENDMDL
MODEL 2
REMARK VINA RESULT:      -4.6     11.964     12.221
REMARK  0 active torsions:
REMARK  status: ('A' for Active; 'I' for Inactive)
ROOT
HETATM    1  C1  UNL     1     -36.911  14.299  -4.211  1.00 20.00     0.124 C 
HETATM    2  C2  UNL     1     -35.343  15.515  -2.869  1.00 20.00     0.021 C 
HETATM    3  C3  UNL     1     -35.587  14.732  -3.933  1.00 20.00     0.145 C 
HETATM    4  C4  UNL     1     -33.978  16.048  -2.562  1.00 20.00     0.033 C 
HETATM    5  C5  UNL     1     -33.028  15.830  -3.735  1.00 20.00     0.031 C 
HETATM    6  C6  UNL     1     -33.268  14.456  -4.344  1.00 20.00     0.176 C 
HETATM    7  N7  UNL     1     -37.993  13.946  -4.437  1.00 20.00    -0.189 NA
HETATM    8  O8  UNL     1     -34.613  14.305  -4.814  1.00 20.00    -0.341 OA
ENDROOT
TORSDOF 0
ENDMDL
MODEL 3
REMARK VINA RESULT:      -4.4     15.935     16.691
REMARK  0 active torsions:
REMARK  status: ('A' for Active; 'I' for Inactive)
ROOT
HETATM    1  C1  UNL     1     -22.299  17.082   8.569  1.00 20.00     0.124 C 
HETATM    2  C2  UNL     1     -24.030  16.583  10.149  1.00 20.00     0.021 C 
HETATM    3  C3  UNL     1     -22.859  17.180   9.871  1.00 20.00     0.145 C 
HETATM    4  C4  UNL     1     -24.694  16.702  11.485  1.00 20.00     0.033 C 
HETATM    5  C5  UNL     1     -24.032  17.785  12.332  1.00 20.00     0.031 C 
HETATM    6  C6  UNL     1     -22.521  17.725  12.154  1.00 20.00     0.176 C 
HETATM    7  N7  UNL     1     -21.843  17.001   7.505  1.00 20.00    -0.189 NA
HETATM    8  O8  UNL     1     -22.134  17.916  10.788  1.00 20.00    -0.341 OA
ENDROOT
TORSDOF 0
ENDMDL
MODEL 4
REMARK VINA RESULT:      -4.2     11.535     12.134
REMARK  0 active torsions:
REMARK  status: ('A' for Active; 'I' for Inactive)
ROOT
HETATM    1  C1  UNL     1     -35.423  13.786  -4.119  1.00 20.00     0.124 C 
HETATM    2  C2  UNL     1     -33.615  15.309  -3.728  1.00 20.00     0.021 C 
HETATM    3  C3  UNL     1     -34.893  14.954  -3.509  1.00 20.00     0.145 C 
HETATM    4  C4  UNL     1     -32.988  16.496  -3.065  1.00 20.00     0.033 C 
HETATM    5  C5  UNL     1     -33.873  17.029  -1.943  1.00 20.00     0.031 C 
HETATM    6  C6  UNL     1     -35.332  16.990  -2.375  1.00 20.00     0.176 C 
HETATM    7  N7  UNL     1     -35.855  12.831  -4.618  1.00 20.00    -0.189 NA
HETATM    8  O8  UNL     1     -35.761  15.662  -2.700  1.00 20.00    -0.341 OA
ENDROOT
TORSDOF 0
ENDMDL
MODEL 5
REMARK VINA RESULT:      -4.1     12.158     12.509
REMARK  0 active torsions:
REMARK  status: ('A' for Active; 'I' for Inactive)
ROOT
HETATM    1  C1  UNL     1     -36.689  14.490  -4.055  1.00 20.00     0.124 C 
HETATM    2  C2  UNL     1     -34.369  15.045  -3.837  1.00 20.00     0.021 C 
HETATM    3  C3  UNL     1     -35.653  15.329  -3.564  1.00 20.00     0.145 C 
HETATM    4  C4  UNL     1     -33.235  15.861  -3.297  1.00 20.00     0.033 C 
HETATM    5  C5  UNL     1     -33.717  16.819  -2.213  1.00 20.00     0.031 C 
HETATM    6  C6  UNL     1     -35.058  17.419  -2.613  1.00 20.00     0.176 C 
HETATM    7  N7  UNL     1     -37.534  13.803  -4.456  1.00 20.00    -0.189 NA
HETATM    8  O8  UNL     1     -36.059  16.412  -2.807  1.00 20.00    -0.341 OA
ENDROOT
TORSDOF 0
ENDMDL
MODEL 6
REMARK VINA RESULT:      -4.1      9.242      9.489
REMARK  0 active torsions:
REMARK  status: ('A' for Active; 'I' for Inactive)
ROOT
HETATM    1  C1  UNL     1     -41.571   9.093   0.302  1.00 20.00     0.124 C 
HETATM    2  C2  UNL     1     -41.250   6.986  -0.793  1.00 20.00     0.021 C 
HETATM    3  C3  UNL     1     -41.862   7.709   0.160  1.00 20.00     0.145 C 
HETATM    4  C4  UNL     1     -41.561   5.540  -1.026  1.00 20.00     0.033 C 
HETATM    5  C5  UNL     1     -42.815   5.120  -0.266  1.00 20.00     0.031 C 
HETATM    6  C6  UNL     1     -42.820   5.762   1.115  1.00 20.00     0.176 C 
HETATM    7  N7  UNL     1     -41.334  10.223   0.417  1.00 20.00    -0.189 NA
HETATM    8  O8  UNL     1     -42.792   7.192   1.041  1.00 20.00    -0.341 OA
ENDROOT
TORSDOF 0
ENDMDL
MODEL 7
REMARK VINA RESULT:      -4.0     11.598     12.144
REMARK  0 active torsions:
REMARK  status: ('A' for Active; 'I' for Inactive)
ROOT
HETATM    1  C1  UNL     1     -35.441  13.806  -4.153  1.00 20.00     0.124 C 
HETATM    2  C2  UNL     1     -35.333  15.509  -2.471  1.00 20.00     0.021 C 
HETATM    3  C3  UNL     1     -34.789  14.912  -3.545  1.00 20.00     0.145 C 
HETATM    4  C4  UNL     1     -34.720  16.713  -1.826  1.00 20.00     0.033 C 
HETATM    5  C5  UNL     1     -33.620  17.304  -2.702  1.00 20.00     0.031 C 
HETATM    6  C6  UNL     1     -32.799  16.182  -3.324  1.00 20.00     0.176 C 
HETATM    7  N7  UNL     1     -35.975  12.903  -4.650  1.00 20.00    -0.189 NA
HETATM    8  O8  UNL     1     -33.603  15.312  -4.130  1.00 20.00    -0.341 OA
ENDROOT
TORSDOF 0
ENDMDL
MODEL 8
REMARK VINA RESULT:      -4.0     15.600     16.065
REMARK  0 active torsions:
REMARK  status: ('A' for Active; 'I' for Inactive)
ROOT
HETATM    1  C1  UNL     1     -22.837  16.880   9.294  1.00 20.00     0.124 C 
HETATM    2  C2  UNL     1     -24.579  18.330  10.072  1.00 20.00     0.021 C 
HETATM    3  C3  UNL     1     -23.860  17.205  10.226  1.00 20.00     0.145 C 
HETATM    4  C4  UNL     1     -25.627  18.751  11.054  1.00 20.00     0.033 C 
HETATM    5  C5  UNL     1     -25.548  17.921  12.331  1.00 20.00     0.031 C 
HETATM    6  C6  UNL     1     -25.270  16.465  11.982  1.00 20.00     0.176 C 
HETATM    7  N7  UNL     1     -22.002  16.616   8.534  1.00 20.00    -0.189 NA
HETATM    8  O8  UNL     1     -24.040  16.311  11.263  1.00 20.00    -0.341 OA
ENDROOT
TORSDOF 0
ENDMDL
MODEL 9
REMARK VINA RESULT:      -3.7     11.900     12.400
REMARK  0 active torsions:
REMARK  status: ('A' for Active; 'I' for Inactive)
ROOT
HETATM    1  C1  UNL     1     -33.643  14.970  -4.103  1.00 20.00     0.124 C 
HETATM    2  C2  UNL     1     -34.870  15.846  -2.241  1.00 20.00     0.021 C 
HETATM    3  C3  UNL     1     -33.810  15.924  -3.063  1.00 20.00     0.145 C 
HETATM    4  C4  UNL     1     -35.127  16.856  -1.167  1.00 20.00     0.033 C 
HETATM    5  C5  UNL     1     -34.228  18.077  -1.335  1.00 20.00     0.031 C 
HETATM    6  C6  UNL     1     -32.830  17.634  -1.745  1.00 20.00     0.176 C 
HETATM    7  N7  UNL     1     -33.508  14.191  -4.953  1.00 20.00    -0.189 NA
HETATM    8  O8  UNL     1     -32.839  16.902  -2.977  1.00 20.00    -0.341 OA
ENDROOT
TORSDOF 0
ENDMDL
