MODEL 1
REMARK VINA RESULT:      -5.0      0.000      0.000
REMARK  0 active torsions:
REMARK  status: ('A' for Active; 'I' for Inactive)
ROOT
HETATM    1  C1  UNL     1     -32.909  15.999  -3.542  1.00 20.00     0.011 A 
HETATM    2  C2  UNL     1     -33.685  15.014  -4.153  1.00 20.00     0.024 A 
HETATM    3  C3  UNL     1     -35.465  15.435  -2.576  1.00 20.00     0.031 A 
HETATM    4  C4  UNL     1     -33.402  16.706  -2.438  1.00 20.00    -0.024 A 
HETATM    5  C5  UNL     1     -34.697  16.434  -1.963  1.00 20.00    -0.047 A 
HETATM    6  C6  UNL     1     -34.961  14.731  -3.669  1.00 20.00     0.034 A 
HETATM    7  C7  UNL     1     -35.234  17.168  -0.761  1.00 20.00     0.069 C 
HETATM    8  C8  UNL     1     -32.570  17.795  -1.808  1.00 20.00     0.308 C 
HETATM    9  C9  UNL     1     -34.450  18.445  -0.453  1.00 20.00     0.274 C 
HETATM   10  N10 UNL     1     -33.013  18.170  -0.461  1.00 20.00     0.087 N 
HETATM   11 CL11 UNL     1     -35.914  13.510  -4.420  1.00 20.00    -0.084 Cl
HETATM   12  H21 UNL     1     -32.813  17.406   0.185  1.00 20.00     0.316 HD
ENDROOT
TORSDOF 0
ENDMDL
MODEL 2
REMARK VINA RESULT:      -4.8      3.058      4.663
REMARK  0 active torsions:
REMARK  status: ('A' for Active; 'I' for Inactive)
ROOT
HETATM    1  C1  UNL     1     -35.476  16.294  -1.917  1.00 20.00     0.011 A 
HETATM    2  C2  UNL     1     -34.435  17.051  -1.379  1.00 20.00     0.024 A 
HETATM    3  C3  UNL     1     -33.044  16.489  -3.271  1.00 20.00     0.031 A 
HETATM    4  C4  UNL     1     -35.307  15.621  -3.134  1.00 20.00    -0.024 A 
HETATM    5  C5  UNL     1     -34.088  15.735  -3.825  1.00 20.00    -0.047 A 
HETATM    6  C6  UNL     1     -33.221  17.146  -2.054  1.00 20.00     0.034 A 
HETATM    7  C7  UNL     1     -33.880  14.998  -5.124  1.00 20.00     0.069 C 
HETATM    8  C8  UNL     1     -36.451  14.836  -3.727  1.00 20.00     0.308 C 
HETATM    9  C9  UNL     1     -35.196  14.545  -5.760  1.00 20.00     0.274 C 
HETATM   10  N10 UNL     1     -36.037  13.883  -4.762  1.00 20.00     0.087 N 
HETATM   11 CL11 UNL     1     -31.935  18.075  -1.384  1.00 20.00    -0.084 Cl
HETATM   12  H21 UNL     1     -35.512  13.123  -4.330  1.00 20.00     0.316 HD
ENDROOT
TORSDOF 0
ENDMDL
MODEL 3
REMARK VINA RESULT:      -4.8      2.980      4.212
REMARK  0 active torsions:
REMARK  status: ('A' for Active; 'I' for Inactive)
ROOT
HETATM    1  C1  UNL     1     -32.995  16.330  -3.430  1.00 20.00     0.011 A 
HETATM    2  C2  UNL     1     -33.094  17.018  -2.220  1.00 20.00     0.024 A 
HETATM    3  C3  UNL     1     -35.389  16.301  -1.996  1.00 20.00     0.031 A 
HETATM    4  C4  UNL     1     -34.096  15.627  -3.937  1.00 20.00    -0.024 A 
HETATM    5  C5  UNL     1     -35.296  15.598  -3.204  1.00 20.00    -0.047 A 
HETATM    6  C6  UNL     1     -34.290  17.005  -1.506  1.00 20.00     0.034 A 
HETATM    7  C7  UNL     1     -36.498  14.867  -3.747  1.00 20.00     0.069 C 
HETATM    8  C8  UNL     1     -33.968  14.855  -5.226  1.00 20.00     0.308 C 
HETATM    9  C9  UNL     1     -36.133  13.872  -4.849  1.00 20.00     0.274 C 
HETATM   10  N10 UNL     1     -35.257  14.507  -5.834  1.00 20.00     0.087 N 
HETATM   11 CL11 UNL     1     -34.410  17.862  -0.017  1.00 20.00    -0.084 Cl
HETATM   12  H21 UNL     1     -35.704  15.355  -6.184  1.00 20.00     0.316 HD
ENDROOT
TORSDOF 0
ENDMDL
MODEL 4
REMARK VINA RESULT:      -4.8      1.301      2.419
REMARK  0 active torsions:
REMARK  status: ('A' for Active; 'I' for Inactive)
ROOT
HETATM    1  C1  UNL     1     -35.184  16.288  -1.560  1.00 20.00     0.011 A 
HETATM    2  C2  UNL     1     -34.961  15.498  -2.688  1.00 20.00     0.024 A 
HETATM    3  C3  UNL     1     -32.835  16.590  -3.035  1.00 20.00     0.031 A 
HETATM    4  C4  UNL     1     -34.238  17.242  -1.163  1.00 20.00    -0.024 A 
HETATM    5  C5  UNL     1     -33.046  17.381  -1.897  1.00 20.00    -0.047 A 
HETATM    6  C6  UNL     1     -33.789  15.651  -3.425  1.00 20.00     0.034 A 
HETATM    7  C7  UNL     1     -32.028  18.419  -1.499  1.00 20.00     0.069 C 
HETATM    8  C8  UNL     1     -34.471  18.064   0.079  1.00 20.00     0.308 C 
HETATM    9  C9  UNL     1     -32.225  18.918  -0.067  1.00 20.00     0.274 C 
HETATM   10  N10 UNL     1     -33.630  19.263   0.158  1.00 20.00     0.087 N 
HETATM   11 CL11 UNL     1     -33.519  14.681  -4.821  1.00 20.00    -0.084 Cl
HETATM   12  H21 UNL     1     -33.930  19.933  -0.550  1.00 20.00     0.316 HD
ENDROOT
TORSDOF 0
ENDMDL
MODEL 5
REMARK VINA RESULT:      -4.8     15.659     16.958
REMARK  0 active torsions:
REMARK  status: ('A' for Active; 'I' for Inactive)
ROOT
HETATM    1  C1  UNL     1     -24.516  19.029   9.092  1.00 20.00     0.011 A 
HETATM    2  C2  UNL     1     -25.803  19.263   9.577  1.00 20.00     0.024 A 
HETATM    3  C3  UNL     1     -25.145  18.412  11.739  1.00 20.00     0.031 A 
HETATM    4  C4  UNL     1     -23.534  18.477   9.925  1.00 20.00    -0.024 A 
HETATM    5  C5  UNL     1     -23.847  18.184  11.264  1.00 20.00    -0.047 A 
HETATM    6  C6  UNL     1     -26.117  18.953  10.898  1.00 20.00     0.034 A 
HETATM    7  C7  UNL     1     -22.810  17.567  12.167  1.00 20.00     0.069 C 
HETATM    8  C8  UNL     1     -22.135  18.263   9.402  1.00 20.00     0.308 C 
HETATM    9  C9  UNL     1     -21.388  17.728  11.627  1.00 20.00     0.274 C 
HETATM   10  N10 UNL     1     -21.337  17.341  10.216  1.00 20.00     0.087 N 
HETATM   11 CL11 UNL     1     -27.708  19.235  11.492  1.00 20.00    -0.084 Cl
HETATM   12  H21 UNL     1     -21.706  16.395  10.114  1.00 20.00     0.316 HD
ENDROOT
TORSDOF 0
ENDMDL
MODEL 6
REMARK VINA RESULT:      -4.7      2.831      4.035
REMARK  0 active torsions:
REMARK  status: ('A' for Active; 'I' for Inactive)
ROOT
HETATM    1  C1  UNL     1     -32.703  17.221  -2.230  1.00 20.00     0.011 A 
HETATM    2  C2  UNL     1     -33.226  17.930  -1.148  1.00 20.00     0.024 A 
HETATM    3  C3  UNL     1     -35.297  16.703  -1.341  1.00 20.00     0.031 A 
HETATM    4  C4  UNL     1     -33.477  16.252  -2.882  1.00 20.00    -0.024 A 
HETATM    5  C5  UNL     1     -34.777  15.979  -2.422  1.00 20.00    -0.047 A 
HETATM    6  C6  UNL     1     -34.522  17.673  -0.706  1.00 20.00     0.034 A 
HETATM    7  C7  UNL     1     -35.632  14.956  -3.126  1.00 20.00     0.069 C 
HETATM    8  C8  UNL     1     -32.890  15.464  -4.027  1.00 20.00     0.308 C 
HETATM    9  C9  UNL     1     -34.815  14.018  -4.016  1.00 20.00     0.274 C 
HETATM   10  N10 UNL     1     -33.897  14.789  -4.854  1.00 20.00     0.087 N 
HETATM   11 CL11 UNL     1     -35.166  18.554   0.625  1.00 20.00    -0.084 Cl
HETATM   12  H21 UNL     1     -34.425  15.487  -5.378  1.00 20.00     0.316 HD
ENDROOT
TORSDOF 0
ENDMDL
MODEL 7
REMARK VINA RESULT:      -4.6     14.915     16.134
REMARK  0 active torsions:
REMARK  status: ('A' for Active; 'I' for Inactive)
ROOT
HETATM    1  C1  UNL     1     -23.008  18.528   8.111  1.00 20.00     0.011 A 
HETATM    2  C2  UNL     1     -24.202  18.832   7.458  1.00 20.00     0.024 A 
HETATM    3  C3  UNL     1     -25.395  18.656   9.550  1.00 20.00     0.031 A 
HETATM    4  C4  UNL     1     -22.998  18.277   9.490  1.00 20.00    -0.024 A 
HETATM    5  C5  UNL     1     -24.199  18.360  10.217  1.00 20.00    -0.047 A 
HETATM    6  C6  UNL     1     -25.394  18.894   8.177  1.00 20.00     0.034 A 
HETATM    7  C7  UNL     1     -24.210  18.069  11.696  1.00 20.00     0.069 C 
HETATM    8  C8  UNL     1     -21.696  17.985  10.194  1.00 20.00     0.308 C 
HETATM    9  C9  UNL     1     -22.815  18.133  12.320  1.00 20.00     0.274 C 
HETATM   10  N10 UNL     1     -21.866  17.366  11.512  1.00 20.00     0.087 N 
HETATM   11 CL11 UNL     1     -26.867  19.263   7.367  1.00 20.00    -0.084 Cl
HETATM   12  H21 UNL     1     -22.215  16.415  11.396  1.00 20.00     0.316 HD
ENDROOT
TORSDOF 0
ENDMDL
MODEL 8
REMARK VINA RESULT:      -4.5     11.639     12.212
REMARK  0 active torsions:
REMARK  status: ('A' for Active; 'I' for Inactive)
ROOT
HETATM    1  C1  UNL     1     -33.611   4.905   2.381  1.00 20.00     0.011 A 
HETATM    2  C2  UNL     1     -32.938   5.766   1.514  1.00 20.00     0.024 A 
HETATM    3  C3  UNL     1     -32.915   7.472   3.223  1.00 20.00     0.031 A 
HETATM    4  C4  UNL     1     -33.950   5.323   3.675  1.00 20.00    -0.024 A 
HETATM    5  C5  UNL     1     -33.582   6.611   4.104  1.00 20.00    -0.047 A 
HETATM    6  C6  UNL     1     -32.592   7.048   1.934  1.00 20.00     0.034 A 
HETATM    7  C7  UNL     1     -33.960   7.087   5.484  1.00 20.00     0.069 C 
HETATM    8  C8  UNL     1     -34.645   4.372   4.617  1.00 20.00     0.308 C 
HETATM    9  C9  UNL     1     -34.335   5.937   6.420  1.00 20.00     0.274 C 
HETATM   10  N10 UNL     1     -35.281   5.036   5.760  1.00 20.00     0.087 N 
HETATM   11 CL11 UNL     1     -31.768   8.111   0.860  1.00 20.00    -0.084 Cl
HETATM   12  H21 UNL     1     -36.085   5.573   5.433  1.00 20.00     0.316 HD
ENDROOT
TORSDOF 0
ENDMDL
MODEL 9
REMARK VINA RESULT:      -4.4      2.797      4.098
REMARK  0 active torsions:
REMARK  status: ('A' for Active; 'I' for Inactive)
ROOT
HETATM    1  C1  UNL     1     -32.913  18.148  -1.181  1.00 20.00     0.011 A 
HETATM    2  C2  UNL     1     -33.521  18.435   0.041  1.00 20.00     0.024 A 
HETATM    3  C3  UNL     1     -35.308  16.897  -0.483  1.00 20.00     0.031 A 
HETATM    4  C4  UNL     1     -33.501  17.237  -2.069  1.00 20.00    -0.024 A 
HETATM    5  C5  UNL     1     -34.699  16.594  -1.708  1.00 20.00    -0.047 A 
HETATM    6  C6  UNL     1     -34.718  17.812   0.388  1.00 20.00     0.034 A 
HETATM    7  C7  UNL     1     -35.358  15.630  -2.661  1.00 20.00     0.069 C 
HETATM    8  C8  UNL     1     -32.817  16.904  -3.371  1.00 20.00     0.308 C 
HETATM    9  C9  UNL     1     -34.406  15.137  -3.753  1.00 20.00     0.274 C 
HETATM   10  N10 UNL     1     -33.700  16.269  -4.354  1.00 20.00     0.087 N 
HETATM   11 CL11 UNL     1     -35.470  18.175   1.893  1.00 20.00    -0.084 Cl
HETATM   12  H21 UNL     1     -34.381  16.952  -4.687  1.00 20.00     0.316 HD
ENDROOT
TORSDOF 0
ENDMDL
