MODEL 1
REMARK VINA RESULT:      -5.5      0.000      0.000
REMARK  2 active torsions:
REMARK  status: ('A' for Active; 'I' for Inactive)
REMARK    1  A    between atoms: C2_2  and  C3_3 
REMARK    2  A    between atoms: C3_3  and  O10_10 
ROOT
HETATM    1  C1  UNL     1     -33.766   5.879   4.126  1.00 20.00    -0.067 C 
HETATM    2  C2  UNL     1     -33.197   5.985   2.920  1.00 20.00     0.014 C 
HETATM    3  C4  UNL     1     -34.651   4.744   4.555  1.00 20.00     0.035 C 
HETATM    4  C5  UNL     1     -33.607   6.879   5.236  1.00 20.00     0.035 C 
HETATM    5  C6  UNL     1     -34.764   4.947   6.062  1.00 20.00     0.005 C 
HETATM    6  C7  UNL     1     -34.679   6.458   6.234  1.00 20.00     0.005 C 
HETATM    7  C8  UNL     1     -33.386   4.959   1.844  1.00 20.00     0.056 C 
ENDROOT
BRANCH   2   8
HETATM    8  C3  UNL     1     -32.349   7.179   2.668  1.00 20.00     0.171 C 
HETATM    9  O9  UNL     1     -31.426   7.555   3.375  1.00 20.00    -0.646 OA
BRANCH   8  10
HETATM   10  O10 UNL     1     -32.733   7.810   1.534  1.00 20.00    -0.773 OA
HETATM   11  H22 UNL     1     -33.495   8.409   1.686  1.00 20.00     0.167 HD
ENDBRANCH   8  10
ENDBRANCH   2   8
TORSDOF 2
ENDMDL
MODEL 2
REMARK VINA RESULT:      -5.5     11.572     12.222
REMARK  2 active torsions:
REMARK  status: ('A' for Active; 'I' for Inactive)
REMARK    1  A    between atoms: C2_2  and  C3_3 
REMARK    2  A    between atoms: C3_3  and  O10_10 
ROOT
HETATM    1  C1  UNL     1     -35.510  15.417  -3.481  1.00 20.00    -0.067 C 
HETATM    2  C2  UNL     1     -36.453  14.738  -4.145  1.00 20.00     0.014 C 
HETATM    3  C4  UNL     1     -35.766  16.642  -2.652  1.00 20.00     0.035 C 
HETATM    4  C5  UNL     1     -34.052  15.057  -3.465  1.00 20.00     0.035 C 
HETATM    5  C6  UNL     1     -34.458  16.821  -1.889  1.00 20.00     0.005 C 
HETATM    6  C7  UNL     1     -33.402  16.291  -2.850  1.00 20.00     0.005 C 
HETATM    7  C8  UNL     1     -37.898  15.137  -4.132  1.00 20.00     0.056 C 
ENDROOT
BRANCH   2   8
HETATM    8  C3  UNL     1     -36.018  13.545  -4.917  1.00 20.00     0.171 C 
HETATM    9  O9  UNL     1     -35.797  12.439  -4.449  1.00 20.00    -0.646 OA
BRANCH   8  10
HETATM   10  O10 UNL     1     -35.897  13.843  -6.233  1.00 20.00    -0.773 OA
HETATM   11  H22 UNL     1     -35.170  13.340  -6.658  1.00 20.00     0.167 HD
ENDBRANCH   8  10
ENDBRANCH   2   8
TORSDOF 2
ENDMDL
MODEL 3
REMARK VINA RESULT:      -5.3     11.518     12.582
REMARK  2 active torsions:
REMARK  status: ('A' for Active; 'I' for Inactive)
REMARK    1  A    between atoms: C2_2  and  C3_3 
REMARK    2  A    between atoms: C3_3  and  O10_10 
ROOT
HETATM    1  C1  UNL     1     -35.012  15.477  -4.304  1.00 20.00    -0.067 C 
HETATM    2  C2  UNL     1     -35.657  14.672  -5.156  1.00 20.00     0.014 C 
HETATM    3  C4  UNL     1     -34.051  16.556  -4.712  1.00 20.00     0.035 C 
HETATM    4  C5  UNL     1     -35.151  15.424  -2.809  1.00 20.00     0.035 C 
HETATM    5  C6  UNL     1     -33.857  17.349  -3.424  1.00 20.00     0.005 C 
HETATM    6  C7  UNL     1     -34.003  16.303  -2.327  1.00 20.00     0.005 C 
HETATM    7  C8  UNL     1     -35.484  14.762  -6.642  1.00 20.00     0.056 C 
ENDROOT
BRANCH   2   8
HETATM    8  C3  UNL     1     -36.574  13.657  -4.574  1.00 20.00     0.171 C 
HETATM    9  O9  UNL     1     -37.770  13.809  -4.382  1.00 20.00    -0.646 OA
BRANCH   8  10
HETATM   10  O10 UNL     1     -35.904  12.517  -4.280  1.00 20.00    -0.773 OA
HETATM   11  H22 UNL     1     -35.027  12.699  -3.880  1.00 20.00     0.167 HD
ENDBRANCH   8  10
ENDBRANCH   2   8
TORSDOF 2
ENDMDL
MODEL 4
REMARK VINA RESULT:      -5.2     11.473     12.077
REMARK  2 active torsions:
REMARK  status: ('A' for Active; 'I' for Inactive)
REMARK    1  A    between atoms: C2_2  and  C3_3 
REMARK    2  A    between atoms: C3_3  and  O10_10 
ROOT
HETATM    1  C1  UNL     1     -34.368  15.659  -3.190  1.00 20.00    -0.067 C 
HETATM    2  C2  UNL     1     -34.691  14.698  -4.063  1.00 20.00     0.014 C 
HETATM    3  C4  UNL     1     -35.289  16.196  -2.133  1.00 20.00     0.035 C 
HETATM    4  C5  UNL     1     -33.034  16.348  -3.135  1.00 20.00     0.035 C 
HETATM    5  C6  UNL     1     -34.355  17.011  -1.245  1.00 20.00     0.005 C 
HETATM    6  C7  UNL     1     -33.297  17.530  -2.210  1.00 20.00     0.005 C 
HETATM    7  C8  UNL     1     -36.037  14.040  -4.080  1.00 20.00     0.056 C 
ENDROOT
BRANCH   2   8
HETATM    8  C3  UNL     1     -33.652  14.290  -5.044  1.00 20.00     0.171 C 
HETATM    9  O9  UNL     1     -33.553  14.708  -6.188  1.00 20.00    -0.646 OA
BRANCH   8  10
HETATM   10  O10 UNL     1     -32.809  13.380  -4.500  1.00 20.00    -0.773 OA
HETATM   11  H22 UNL     1     -32.203  13.786  -3.846  1.00 20.00     0.167 HD
ENDBRANCH   8  10
ENDBRANCH   2   8
TORSDOF 2
ENDMDL
MODEL 5
REMARK VINA RESULT:      -5.2     11.437     11.916
REMARK  2 active torsions:
REMARK  status: ('A' for Active; 'I' for Inactive)
REMARK    1  A    between atoms: C2_2  and  C3_3 
REMARK    2  A    between atoms: C3_3  and  O10_10 
ROOT
HETATM    1  C1  UNL     1     -34.394  15.591  -3.114  1.00 20.00    -0.067 C 
HETATM    2  C2  UNL     1     -34.582  14.585  -3.976  1.00 20.00     0.014 C 
HETATM    3  C4  UNL     1     -35.477  16.211  -2.278  1.00 20.00     0.035 C 
HETATM    4  C5  UNL     1     -33.072  16.254  -2.851  1.00 20.00     0.035 C 
HETATM    5  C6  UNL     1     -34.697  17.060  -1.280  1.00 20.00     0.005 C 
HETATM    6  C7  UNL     1     -33.463  17.496  -2.060  1.00 20.00     0.005 C 
HETATM    7  C8  UNL     1     -35.923  13.956  -4.205  1.00 20.00     0.056 C 
ENDROOT
BRANCH   2   8
HETATM    8  C3  UNL     1     -33.394  14.095  -4.722  1.00 20.00     0.171 C 
HETATM    9  O9  UNL     1     -32.605  13.251  -4.325  1.00 20.00    -0.646 OA
BRANCH   8  10
HETATM   10  O10 UNL     1     -33.293  14.712  -5.924  1.00 20.00    -0.773 OA
HETATM   11  H22 UNL     1     -33.477  14.100  -6.667  1.00 20.00     0.167 HD
ENDBRANCH   8  10
ENDBRANCH   2   8
TORSDOF 2
ENDMDL
MODEL 6
REMARK VINA RESULT:      -5.0      2.403      4.114
REMARK  2 active torsions:
REMARK  status: ('A' for Active; 'I' for Inactive)
REMARK    1  A    between atoms: C2_2  and  C3_3 
REMARK    2  A    between atoms: C3_3  and  O10_10 
ROOT
HETATM    1  C1  UNL     1     -33.286   6.600   3.876  1.00 20.00    -0.067 C 
HETATM    2  C2  UNL     1     -34.088   6.035   4.786  1.00 20.00     0.014 C 
HETATM    3  C4  UNL     1     -32.398   7.782   4.139  1.00 20.00     0.035 C 
HETATM    4  C5  UNL     1     -33.152   6.138   2.453  1.00 20.00     0.035 C 
HETATM    5  C6  UNL     1     -31.499   7.816   2.908  1.00 20.00     0.005 C 
HETATM    6  C7  UNL     1     -32.387   7.278   1.793  1.00 20.00     0.005 C 
HETATM    7  C8  UNL     1     -34.188   6.533   6.196  1.00 20.00     0.056 C 
ENDROOT
BRANCH   2   8
HETATM    8  C3  UNL     1     -34.900   4.868   4.350  1.00 20.00     0.171 C 
HETATM    9  O9  UNL     1     -34.484   3.729   4.207  1.00 20.00    -0.646 OA
BRANCH   8  10
HETATM   10  O10 UNL     1     -36.185   5.234   4.129  1.00 20.00    -0.773 OA
HETATM   11  H22 UNL     1     -36.672   5.386   4.967  1.00 20.00     0.167 HD
ENDBRANCH   8  10
ENDBRANCH   2   8
TORSDOF 2
ENDMDL
MODEL 7
REMARK VINA RESULT:      -5.0     11.914     12.751
REMARK  2 active torsions:
REMARK  status: ('A' for Active; 'I' for Inactive)
REMARK    1  A    between atoms: C2_2  and  C3_3 
REMARK    2  A    between atoms: C3_3  and  O10_10 
ROOT
HETATM    1  C1  UNL     1     -33.668  16.947  -1.934  1.00 20.00    -0.067 C 
HETATM    2  C2  UNL     1     -33.186  17.887  -1.113  1.00 20.00     0.014 C 
HETATM    3  C4  UNL     1     -35.016  16.300  -1.793  1.00 20.00     0.035 C 
HETATM    4  C5  UNL     1     -32.934  16.395  -3.123  1.00 20.00     0.035 C 
HETATM    5  C6  UNL     1     -35.186  15.567  -3.119  1.00 20.00     0.005 C 
HETATM    6  C7  UNL     1     -33.765  15.176  -3.503  1.00 20.00     0.005 C 
HETATM    7  C8  UNL     1     -33.958  18.406   0.063  1.00 20.00     0.056 C 
ENDROOT
BRANCH   2   8
HETATM    8  C3  UNL     1     -31.828  18.417  -1.404  1.00 20.00     0.171 C 
HETATM    9  O9  UNL     1     -30.811  18.138  -0.787  1.00 20.00    -0.646 OA
BRANCH   8  10
HETATM   10  O10 UNL     1     -31.860  19.263  -2.460  1.00 20.00    -0.773 OA
HETATM   11  H22 UNL     1     -30.987  19.331  -2.903  1.00 20.00     0.167 HD
ENDBRANCH   8  10
ENDBRANCH   2   8
TORSDOF 2
ENDMDL
MODEL 8
REMARK VINA RESULT:      -5.0     11.654     12.369
REMARK  2 active torsions:
REMARK  status: ('A' for Active; 'I' for Inactive)
REMARK    1  A    between atoms: C2_2  and  C3_3 
REMARK    2  A    between atoms: C3_3  and  O10_10 
ROOT
HETATM    1  C1  UNL     1     -34.575  15.552  -3.786  1.00 20.00    -0.067 C 
HETATM    2  C2  UNL     1     -34.772  14.800  -4.876  1.00 20.00     0.014 C 
HETATM    3  C4  UNL     1     -33.345  16.373  -3.528  1.00 20.00     0.035 C 
HETATM    4  C5  UNL     1     -35.554  15.688  -2.656  1.00 20.00     0.035 C 
HETATM    5  C6  UNL     1     -33.756  17.248  -2.349  1.00 20.00     0.005 C 
HETATM    6  C7  UNL     1     -34.732  16.374  -1.571  1.00 20.00     0.005 C 
HETATM    7  C8  UNL     1     -33.763  14.695  -5.979  1.00 20.00     0.056 C 
ENDROOT
BRANCH   2   8
HETATM    8  C3  UNL     1     -36.053  14.051  -4.965  1.00 20.00     0.171 C 
HETATM    9  O9  UNL     1     -37.114  14.505  -5.364  1.00 20.00    -0.646 OA
BRANCH   8  10
HETATM   10  O10 UNL     1     -35.892  12.774  -4.542  1.00 20.00    -0.773 OA
HETATM   11  H22 UNL     1     -36.384  12.598  -3.712  1.00 20.00     0.167 HD
ENDBRANCH   8  10
ENDBRANCH   2   8
TORSDOF 2
ENDMDL
MODEL 9
REMARK VINA RESULT:      -4.9     16.016     17.056
REMARK  2 active torsions:
REMARK  status: ('A' for Active; 'I' for Inactive)
REMARK    1  A    between atoms: C2_2  and  C3_3 
REMARK    2  A    between atoms: C3_3  and  O10_10 
ROOT
HETATM    1  C1  UNL     1     -24.083  18.337  11.067  1.00 20.00    -0.067 C 
HETATM    2  C2  UNL     1     -22.809  17.931  11.018  1.00 20.00     0.014 C 
HETATM    3  C4  UNL     1     -24.877  18.504  12.331  1.00 20.00     0.035 C 
HETATM    4  C5  UNL     1     -24.913  18.688   9.866  1.00 20.00     0.035 C 
HETATM    5  C6  UNL     1     -26.113  19.263  11.863  1.00 20.00     0.005 C 
HETATM    6  C7  UNL     1     -26.324  18.771  10.436  1.00 20.00     0.005 C 
HETATM    7  C8  UNL     1     -22.021  17.590  12.247  1.00 20.00     0.056 C 
ENDROOT
BRANCH   2   8
HETATM    8  C3  UNL     1     -22.179  17.822   9.677  1.00 20.00     0.171 C 
HETATM    9  O9  UNL     1     -21.721  18.752   9.031  1.00 20.00    -0.646 OA
BRANCH   8  10
HETATM   10  O10 UNL     1     -22.172  16.536   9.252  1.00 20.00    -0.773 OA
HETATM   11  H22 UNL     1     -21.383  16.334   8.706  1.00 20.00     0.167 HD
ENDBRANCH   8  10
ENDBRANCH   2   8
TORSDOF 2
ENDMDL
