MODEL 1
REMARK VINA RESULT:      -4.1      0.000      0.000
REMARK  1 active torsions:
REMARK  status: ('A' for Active; 'I' for Inactive)
REMARK    1  A    between atoms: C6_6  and  N8_8 
ROOT
HETATM    1  C1  UNL     1     -24.542  18.932   8.053  1.00 20.00     0.137 A 
HETATM    2  C2  UNL     1     -24.751  18.412   9.309  1.00 20.00     0.113 A 
HETATM    3  C3  UNL     1     -22.801  17.789   8.495  1.00 20.00     0.203 A 
HETATM    4  N7  UNL     1     -23.326  18.540   7.552  1.00 20.00    -0.231 NA
HETATM    5  N8  UNL     1     -23.628  17.682   9.577  1.00 20.00    -0.327 N 
HETATM    6 CL9  UNL     1     -21.293  17.009   8.452  1.00 20.00    -0.043 Cl
ENDROOT
BRANCH   5   7
HETATM    7  C6  UNL     1     -23.388  16.931  10.816  1.00 20.00     0.083 C 
HETATM    8  C4  UNL     1     -24.662  16.262  11.337  1.00 20.00     0.032 C 
HETATM    9  C5  UNL     1     -22.726  17.795  11.891  1.00 20.00     0.032 C 
ENDBRANCH   5   7
TORSDOF 1
ENDMDL
MODEL 2
REMARK VINA RESULT:      -4.0      2.073      2.499
REMARK  1 active torsions:
REMARK  status: ('A' for Active; 'I' for Inactive)
REMARK    1  A    between atoms: C6_6  and  N8_8 
ROOT
HETATM    1  C1  UNL     1     -23.466  18.510   8.857  1.00 20.00     0.137 A 
HETATM    2  C2  UNL     1     -24.654  18.554   9.548  1.00 20.00     0.113 A 
HETATM    3  C3  UNL     1     -22.968  18.053  10.876  1.00 20.00     0.203 A 
HETATM    4  N7  UNL     1     -22.420  18.197   9.689  1.00 20.00    -0.231 NA
HETATM    5  N8  UNL     1     -24.318  18.258  10.839  1.00 20.00    -0.327 N 
HETATM    6 CL9  UNL     1     -22.171  17.657  12.323  1.00 20.00    -0.043 Cl
ENDROOT
BRANCH   5   7
HETATM    7  C6  UNL     1     -25.265  18.183  11.959  1.00 20.00     0.083 C 
HETATM    8  C4  UNL     1     -25.713  16.747  12.237  1.00 20.00     0.032 C 
HETATM    9  C5  UNL     1     -26.461  19.118  11.762  1.00 20.00     0.032 C 
ENDBRANCH   5   7
TORSDOF 1
ENDMDL
MODEL 3
REMARK VINA RESULT:      -4.0      2.634      4.029
REMARK  1 active torsions:
REMARK  status: ('A' for Active; 'I' for Inactive)
REMARK    1  A    between atoms: C6_6  and  N8_8 
ROOT
HETATM    1  C1  UNL     1     -24.635  15.818  11.578  1.00 20.00     0.137 A 
HETATM    2  C2  UNL     1     -24.019  16.441  10.518  1.00 20.00     0.113 A 
HETATM    3  C3  UNL     1     -25.379  17.813  11.579  1.00 20.00     0.203 A 
HETATM    4  N7  UNL     1     -25.480  16.678  12.234  1.00 20.00    -0.231 NA
HETATM    5  N8  UNL     1     -24.507  17.718  10.531  1.00 20.00    -0.327 N 
HETATM    6 CL9  UNL     1     -26.196  19.262  11.922  1.00 20.00    -0.043 Cl
ENDROOT
BRANCH   5   7
HETATM    7  C6  UNL     1     -24.137  18.770   9.576  1.00 20.00     0.083 C 
HETATM    8  C4  UNL     1     -25.050  18.777   8.348  1.00 20.00     0.032 C 
HETATM    9  C5  UNL     1     -22.661  18.692   9.180  1.00 20.00     0.032 C 
ENDBRANCH   5   7
TORSDOF 1
ENDMDL
MODEL 4
REMARK VINA RESULT:      -3.8      1.926      3.541
REMARK  1 active torsions:
REMARK  status: ('A' for Active; 'I' for Inactive)
REMARK    1  A    between atoms: C6_6  and  N8_8 
ROOT
HETATM    1  C1  UNL     1     -24.495  16.089  11.397  1.00 20.00     0.137 A 
HETATM    2  C2  UNL     1     -24.282  16.760  10.216  1.00 20.00     0.113 A 
HETATM    3  C3  UNL     1     -22.717  17.220  11.698  1.00 20.00     0.203 A 
HETATM    4  N7  UNL     1     -23.517  16.379  12.315  1.00 20.00    -0.231 NA
HETATM    5  N8  UNL     1     -23.140  17.481  10.425  1.00 20.00    -0.327 N 
HETATM    6 CL9  UNL     1     -21.315  17.941  12.331  1.00 20.00    -0.043 Cl
ENDROOT
BRANCH   5   7
HETATM    7  C6  UNL     1     -22.511  18.366   9.436  1.00 20.00     0.083 C 
HETATM    8  C4  UNL     1     -23.533  19.263   8.736  1.00 20.00     0.032 C 
HETATM    9  C5  UNL     1     -21.661  17.588   8.429  1.00 20.00     0.032 C 
ENDBRANCH   5   7
TORSDOF 1
ENDMDL
MODEL 5
REMARK VINA RESULT:      -3.7     17.121     18.364
REMARK  1 active torsions:
REMARK  status: ('A' for Active; 'I' for Inactive)
REMARK    1  A    between atoms: C6_6  and  N8_8 
ROOT
HETATM    1  C1  UNL     1     -36.022  13.208  -4.504  1.00 20.00     0.137 A 
HETATM    2  C2  UNL     1     -34.982  13.927  -3.962  1.00 20.00     0.113 A 
HETATM    3  C3  UNL     1     -36.845  15.105  -3.997  1.00 20.00     0.203 A 
HETATM    4  N7  UNL     1     -37.178  13.947  -4.523  1.00 20.00    -0.231 NA
HETATM    5  N8  UNL     1     -35.525  15.140  -3.643  1.00 20.00    -0.327 N 
HETATM    6 CL9  UNL     1     -37.862  16.443  -3.755  1.00 20.00    -0.043 Cl
ENDROOT
BRANCH   5   7
HETATM    7  C6  UNL     1     -34.792  16.256  -3.032  1.00 20.00     0.083 C 
HETATM    8  C4  UNL     1     -33.285  16.154  -3.277  1.00 20.00     0.032 C 
HETATM    9  C5  UNL     1     -35.111  16.404  -1.543  1.00 20.00     0.032 C 
ENDBRANCH   5   7
TORSDOF 1
ENDMDL
MODEL 6
REMARK VINA RESULT:      -3.7     17.347     18.648
REMARK  1 active torsions:
REMARK  status: ('A' for Active; 'I' for Inactive)
REMARK    1  A    between atoms: C6_6  and  N8_8 
ROOT
HETATM    1  C1  UNL     1     -36.570  13.943  -4.695  1.00 20.00     0.137 A 
HETATM    2  C2  UNL     1     -35.926  14.841  -3.876  1.00 20.00     0.113 A 
HETATM    3  C3  UNL     1     -34.972  14.731  -5.860  1.00 20.00     0.203 A 
HETATM    4  N7  UNL     1     -35.972  13.879  -5.928  1.00 20.00    -0.231 NA
HETATM    5  N8  UNL     1     -34.904  15.336  -4.637  1.00 20.00    -0.327 N 
HETATM    6 CL9  UNL     1     -33.857  15.090  -7.089  1.00 20.00    -0.043 Cl
ENDROOT
BRANCH   5   7
HETATM    7  C6  UNL     1     -33.929  16.338  -4.187  1.00 20.00     0.083 C 
HETATM    8  C4  UNL     1     -33.679  16.258  -2.680  1.00 20.00     0.032 C 
HETATM    9  C5  UNL     1     -34.320  17.753  -4.618  1.00 20.00     0.032 C 
ENDBRANCH   5   7
TORSDOF 1
ENDMDL
MODEL 7
REMARK VINA RESULT:      -3.6     16.141     16.845
REMARK  1 active torsions:
REMARK  status: ('A' for Active; 'I' for Inactive)
REMARK    1  A    between atoms: C6_6  and  N8_8 
ROOT
HETATM    1  C1  UNL     1     -34.978   5.484   4.994  1.00 20.00     0.137 A 
HETATM    2  C2  UNL     1     -34.149   6.542   4.701  1.00 20.00     0.113 A 
HETATM    3  C3  UNL     1     -33.846   4.870   3.298  1.00 20.00     0.203 A 
HETATM    4  N7  UNL     1     -34.784   4.446   4.117  1.00 20.00    -0.231 NA
HETATM    5  N8  UNL     1     -33.430   6.132   3.614  1.00 20.00    -0.327 N 
HETATM    6 CL9  UNL     1     -33.176   4.017   1.991  1.00 20.00    -0.043 Cl
ENDROOT
BRANCH   5   7
HETATM    7  C6  UNL     1     -32.404   6.933   2.933  1.00 20.00     0.083 C 
HETATM    8  C4  UNL     1     -31.709   7.905   3.888  1.00 20.00     0.032 C 
HETATM    9  C5  UNL     1     -32.961   7.653   1.703  1.00 20.00     0.032 C 
ENDBRANCH   5   7
TORSDOF 1
ENDMDL
MODEL 8
REMARK VINA RESULT:      -3.6     23.313     23.978
REMARK  1 active torsions:
REMARK  status: ('A' for Active; 'I' for Inactive)
REMARK    1  A    between atoms: C6_6  and  N8_8 
ROOT
HETATM    1  C1  UNL     1     -43.366   5.629   1.747  1.00 20.00     0.137 A 
HETATM    2  C2  UNL     1     -43.396   6.917   1.268  1.00 20.00     0.113 A 
HETATM    3  C3  UNL     1     -41.984   5.666   0.128  1.00 20.00     0.203 A 
HETATM    4  N7  UNL     1     -42.484   4.855   1.034  1.00 20.00    -0.231 NA
HETATM    5  N8  UNL     1     -42.505   6.925   0.231  1.00 20.00    -0.327 N 
HETATM    6 CL9  UNL     1     -40.828   5.280  -1.055  1.00 20.00    -0.043 Cl
ENDROOT
BRANCH   5   7
HETATM    7  C6  UNL     1     -42.190   8.095  -0.599  1.00 20.00     0.083 C 
HETATM    8  C4  UNL     1     -41.527   9.211   0.210  1.00 20.00     0.032 C 
HETATM    9  C5  UNL     1     -43.415   8.603  -1.361  1.00 20.00     0.032 C 
ENDBRANCH   5   7
TORSDOF 1
ENDMDL
MODEL 9
REMARK VINA RESULT:      -3.6     16.426     17.528
REMARK  1 active torsions:
REMARK  status: ('A' for Active; 'I' for Inactive)
REMARK    1  A    between atoms: C6_6  and  N8_8 
ROOT
HETATM    1  C1  UNL     1     -36.458  14.301  -4.542  1.00 20.00     0.137 A 
HETATM    2  C2  UNL     1     -36.257  15.214  -3.533  1.00 20.00     0.113 A 
HETATM    3  C3  UNL     1     -34.347  14.412  -4.286  1.00 20.00     0.203 A 
HETATM    4  N7  UNL     1     -35.265  13.806  -5.006  1.00 20.00    -0.231 NA
HETATM    5  N8  UNL     1     -34.900  15.273  -3.380  1.00 20.00    -0.327 N 
HETATM    6 CL9  UNL     1     -32.665  14.206  -4.399  1.00 20.00    -0.043 Cl
ENDROOT
BRANCH   5   7
HETATM    7  C6  UNL     1     -34.199  16.122  -2.408  1.00 20.00     0.083 C 
HETATM    8  C4  UNL     1     -35.135  16.629  -1.309  1.00 20.00     0.032 C 
HETATM    9  C5  UNL     1     -33.450  17.271  -3.085  1.00 20.00     0.032 C 
ENDBRANCH   5   7
TORSDOF 1
ENDMDL
