MODEL 1
REMARK VINA RESULT:      -5.6      0.000      0.000
REMARK  1 active torsions:
REMARK  status: ('A' for Active; 'I' for Inactive)
REMARK    1  A    between atoms: C5_5  and  O7_7 
ROOT
HETATM    1  C1  UNL     1     -33.578   7.262   3.997  1.00 20.00     0.037 C 
HETATM    2  C2  UNL     1     -33.584   5.139   2.624  1.00 20.00     0.037 C 
HETATM    3  C3  UNL     1     -34.059   6.480   5.214  1.00 20.00     0.081 C 
HETATM    4  C4  UNL     1     -34.066   4.352   3.838  1.00 20.00     0.081 C 
HETATM    5  C5  UNL     1     -32.785   6.377   3.036  1.00 20.00     0.118 C 
HETATM    6  C6  UNL     1     -34.835   5.239   4.805  1.00 20.00     0.243 C 
HETATM    7  F8  UNL     1     -35.160   4.524   5.911  1.00 20.00    -0.206 F 
HETATM    8  F9  UNL     1     -36.007   5.614   4.230  1.00 20.00    -0.206 F 
ENDROOT
BRANCH   5   9
HETATM    9  O7  UNL     1     -32.457   7.141   1.881  1.00 20.00    -0.396 OA
HETATM   10  H19 UNL     1     -33.259   7.180   1.336  1.00 20.00     0.210 HD
ENDBRANCH   5   9
TORSDOF 1
ENDMDL
MODEL 2
REMARK VINA RESULT:      -5.3      1.191      2.188
REMARK  1 active torsions:
REMARK  status: ('A' for Active; 'I' for Inactive)
REMARK    1  A    between atoms: C5_5  and  O7_7 
ROOT
HETATM    1  C1  UNL     1     -34.023   5.216   3.445  1.00 20.00     0.037 C 
HETATM    2  C2  UNL     1     -33.074   7.066   4.884  1.00 20.00     0.037 C 
HETATM    3  C3  UNL     1     -35.111   4.963   4.483  1.00 20.00     0.081 C 
HETATM    4  C4  UNL     1     -34.160   6.817   5.925  1.00 20.00     0.081 C 
HETATM    5  C5  UNL     1     -33.535   6.664   3.482  1.00 20.00     0.118 C 
HETATM    6  C6  UNL     1     -34.661   5.382   5.873  1.00 20.00     0.243 C 
HETATM    7  F8  UNL     1     -35.689   5.231   6.746  1.00 20.00    -0.206 F 
HETATM    8  F9  UNL     1     -33.673   4.549   6.293  1.00 20.00    -0.206 F 
ENDROOT
BRANCH   5   9
HETATM    9  O7  UNL     1     -32.455   6.803   2.565  1.00 20.00    -0.396 OA
HETATM   10  H19 UNL     1     -31.974   7.605   2.822  1.00 20.00     0.210 HD
ENDBRANCH   5   9
TORSDOF 1
ENDMDL
MODEL 3
REMARK VINA RESULT:      -4.6      2.769      3.687
REMARK  1 active torsions:
REMARK  status: ('A' for Active; 'I' for Inactive)
REMARK    1  A    between atoms: C5_5  and  O7_7 
ROOT
HETATM    1  C1  UNL     1     -34.050   4.880   2.959  1.00 20.00     0.037 C 
HETATM    2  C2  UNL     1     -34.327   6.518   4.865  1.00 20.00     0.037 C 
HETATM    3  C3  UNL     1     -32.702   5.503   2.616  1.00 20.00     0.081 C 
HETATM    4  C4  UNL     1     -32.979   7.145   4.526  1.00 20.00     0.081 C 
HETATM    5  C5  UNL     1     -34.389   5.050   4.440  1.00 20.00     0.118 C 
HETATM    6  C6  UNL     1     -32.633   6.955   3.058  1.00 20.00     0.243 C 
HETATM    7  F8  UNL     1     -31.388   7.441   2.822  1.00 20.00    -0.206 F 
HETATM    8  F9  UNL     1     -33.484   7.694   2.300  1.00 20.00    -0.206 F 
ENDROOT
BRANCH   5   9
HETATM    9  O7  UNL     1     -35.698   4.540   4.669  1.00 20.00    -0.396 OA
HETATM   10  H19 UNL     1     -36.309   5.118   4.184  1.00 20.00     0.210 HD
ENDBRANCH   5   9
TORSDOF 1
ENDMDL
MODEL 4
REMARK VINA RESULT:      -4.5      8.764      9.323
REMARK  1 active torsions:
REMARK  status: ('A' for Active; 'I' for Inactive)
REMARK    1  A    between atoms: C5_5  and  O7_7 
ROOT
HETATM    1  C1  UNL     1     -41.831   5.560   0.495  1.00 20.00     0.037 C 
HETATM    2  C2  UNL     1     -41.166   6.963  -1.500  1.00 20.00     0.037 C 
HETATM    3  C3  UNL     1     -42.845   6.621   0.907  1.00 20.00     0.081 C 
HETATM    4  C4  UNL     1     -42.179   8.027  -1.093  1.00 20.00     0.081 C 
HETATM    5  C5  UNL     1     -41.582   5.574  -1.013  1.00 20.00     0.118 C 
HETATM    6  C6  UNL     1     -42.443   7.997   0.404  1.00 20.00     0.243 C 
HETATM    7  F8  UNL     1     -43.417   8.892   0.708  1.00 20.00    -0.206 F 
HETATM    8  F9  UNL     1     -41.327   8.406   1.063  1.00 20.00    -0.206 F 
ENDROOT
BRANCH   5   9
HETATM    9  O7  UNL     1     -40.555   4.634  -1.313  1.00 20.00    -0.396 OA
HETATM   10  H19 UNL     1     -39.775   4.904  -0.804  1.00 20.00     0.210 HD
ENDBRANCH   5   9
TORSDOF 1
ENDMDL
MODEL 5
REMARK VINA RESULT:      -4.5     16.444     17.194
REMARK  1 active torsions:
REMARK  status: ('A' for Active; 'I' for Inactive)
REMARK    1  A    between atoms: C5_5  and  O7_7 
ROOT
HETATM    1  C1  UNL     1     -24.061  17.677   9.403  1.00 20.00     0.037 C 
HETATM    2  C2  UNL     1     -22.888  17.033  11.548  1.00 20.00     0.037 C 
HETATM    3  C3  UNL     1     -24.922  18.674  10.171  1.00 20.00     0.081 C 
HETATM    4  C4  UNL     1     -23.746  18.028  12.321  1.00 20.00     0.081 C 
HETATM    5  C5  UNL     1     -22.713  17.454  10.088  1.00 20.00     0.118 C 
HETATM    6  C6  UNL     1     -25.078  18.268  11.627  1.00 20.00     0.243 C 
HETATM    7  F8  UNL     1     -25.768  19.228  12.293  1.00 20.00    -0.206 F 
HETATM    8  F9  UNL     1     -25.828  17.137  11.697  1.00 20.00    -0.206 F 
ENDROOT
BRANCH   5   9
HETATM    9  O7  UNL     1     -22.006  16.441   9.379  1.00 20.00    -0.396 OA
HETATM   10  H19 UNL     1     -21.795  15.747  10.024  1.00 20.00     0.210 HD
ENDBRANCH   5   9
TORSDOF 1
ENDMDL
MODEL 6
REMARK VINA RESULT:      -4.4     11.489     12.375
REMARK  1 active torsions:
REMARK  status: ('A' for Active; 'I' for Inactive)
REMARK    1  A    between atoms: C5_5  and  O7_7 
ROOT
HETATM    1  C1  UNL     1     -34.923  13.990  -3.890  1.00 20.00     0.037 C 
HETATM    2  C2  UNL     1     -33.040  15.650  -3.589  1.00 20.00     0.037 C 
HETATM    3  C3  UNL     1     -35.942  15.099  -3.656  1.00 20.00     0.081 C 
HETATM    4  C4  UNL     1     -34.054  16.763  -3.353  1.00 20.00     0.081 C 
HETATM    5  C5  UNL     1     -33.617  14.538  -4.466  1.00 20.00     0.118 C 
HETATM    6  C6  UNL     1     -35.361  16.215  -2.802  1.00 20.00     0.243 C 
HETATM    7  F8  UNL     1     -36.265  17.222  -2.699  1.00 20.00    -0.206 F 
HETATM    8  F9  UNL     1     -35.155  15.752  -1.542  1.00 20.00    -0.206 F 
ENDROOT
BRANCH   5   9
HETATM    9  O7  UNL     1     -32.680  13.470  -4.563  1.00 20.00    -0.396 OA
HETATM   10  H19 UNL     1     -31.934  13.702  -3.989  1.00 20.00     0.210 HD
ENDBRANCH   5   9
TORSDOF 1
ENDMDL
MODEL 7
REMARK VINA RESULT:      -4.4      9.028      9.589
REMARK  1 active torsions:
REMARK  status: ('A' for Active; 'I' for Inactive)
REMARK    1  A    between atoms: C5_5  and  O7_7 
ROOT
HETATM    1  C1  UNL     1     -43.320   6.397   0.654  1.00 20.00     0.037 C 
HETATM    2  C2  UNL     1     -41.423   6.013  -0.973  1.00 20.00     0.037 C 
HETATM    3  C3  UNL     1     -43.095   7.902   0.566  1.00 20.00     0.081 C 
HETATM    4  C4  UNL     1     -41.193   7.518  -1.065  1.00 20.00     0.081 C 
HETATM    5  C5  UNL     1     -42.876   5.686  -0.624  1.00 20.00     0.118 C 
HETATM    6  C6  UNL     1     -41.657   8.228   0.197  1.00 20.00     0.243 C 
HETATM    7  F8  UNL     1     -41.524   9.569   0.035  1.00 20.00    -0.206 F 
HETATM    8  F9  UNL     1     -40.842   7.882   1.228  1.00 20.00    -0.206 F 
ENDROOT
BRANCH   5   9
HETATM    9  O7  UNL     1     -43.017   4.282  -0.435  1.00 20.00    -0.396 OA
HETATM   10  H19 UNL     1     -42.668   3.857  -1.234  1.00 20.00     0.210 HD
ENDBRANCH   5   9
TORSDOF 1
ENDMDL
MODEL 8
REMARK VINA RESULT:      -4.3     11.700     12.603
REMARK  1 active torsions:
REMARK  status: ('A' for Active; 'I' for Inactive)
REMARK    1  A    between atoms: C5_5  and  O7_7 
ROOT
HETATM    1  C1  UNL     1     -36.560  15.826  -3.976  1.00 20.00     0.037 C 
HETATM    2  C2  UNL     1     -35.308  13.631  -4.051  1.00 20.00     0.037 C 
HETATM    3  C3  UNL     1     -35.240  16.585  -4.048  1.00 20.00     0.081 C 
HETATM    4  C4  UNL     1     -33.984  14.384  -4.123  1.00 20.00     0.081 C 
HETATM    5  C5  UNL     1     -36.457  14.452  -4.639  1.00 20.00     0.118 C 
HETATM    6  C6  UNL     1     -34.094  15.760  -3.485  1.00 20.00     0.243 C 
HETATM    7  F8  UNL     1     -32.927  16.431  -3.656  1.00 20.00    -0.206 F 
HETATM    8  F9  UNL     1     -34.263  15.617  -2.144  1.00 20.00    -0.206 F 
ENDROOT
BRANCH   5   9
HETATM    9  O7  UNL     1     -37.687  13.761  -4.446  1.00 20.00    -0.396 OA
HETATM   10  H19 UNL     1     -38.389  14.428  -4.488  1.00 20.00     0.210 HD
ENDBRANCH   5   9
TORSDOF 1
ENDMDL
MODEL 9
REMARK VINA RESULT:      -4.3     16.691     17.400
REMARK  1 active torsions:
REMARK  status: ('A' for Active; 'I' for Inactive)
REMARK    1  A    between atoms: C5_5  and  O7_7 
ROOT
HETATM    1  C1  UNL     1     -25.426  18.447  11.521  1.00 20.00     0.037 C 
HETATM    2  C2  UNL     1     -24.128  18.021   9.393  1.00 20.00     0.037 C 
HETATM    3  C3  UNL     1     -24.139  18.342  12.330  1.00 20.00     0.081 C 
HETATM    4  C4  UNL     1     -22.837  17.915  10.198  1.00 20.00     0.081 C 
HETATM    5  C5  UNL     1     -25.155  18.914  10.091  1.00 20.00     0.118 C 
HETATM    6  C6  UNL     1     -23.110  17.472  11.627  1.00 20.00     0.243 C 
HETATM    7  F8  UNL     1     -21.950  17.484  12.332  1.00 20.00    -0.206 F 
HETATM    8  F9  UNL     1     -23.543  16.185  11.621  1.00 20.00    -0.206 F 
ENDROOT
BRANCH   5   9
HETATM    9  O7  UNL     1     -26.380  18.891   9.366  1.00 20.00    -0.396 OA
HETATM   10  H19 UNL     1     -26.747  19.788   9.410  1.00 20.00     0.210 HD
ENDBRANCH   5   9
TORSDOF 1
ENDMDL
