MODEL 1
REMARK VINA RESULT:      -5.0      0.000      0.000
REMARK  3 active torsions:
REMARK  status: ('A' for Active; 'I' for Inactive)
REMARK    1  A    between atoms: C1_1  and  C3_3 
REMARK    2  A    between atoms: C2_2  and  C5_5 
REMARK    3  A    between atoms: C4_4  and  C7_7 
ROOT
HETATM    1  C1  UNL     1     -32.995   6.504   3.877  1.00 20.00     0.000 C 
HETATM    2  C2  UNL     1     -32.253   7.252   3.045  1.00 20.00    -0.000 C 
ENDROOT
BRANCH   1   3
HETATM    3  C3  UNL     1     -34.180   5.792   3.451  1.00 20.00     0.003 C 
HETATM    4  C4  UNL     1     -34.981   5.144   4.306  1.00 20.00     0.041 C 
BRANCH   4   5
HETATM    5  C7  UNL     1     -34.648   5.152   5.745  1.00 20.00     0.258 C 
HETATM    6  O9  UNL     1     -34.839   6.138   6.447  1.00 20.00    -0.302 OA
ENDBRANCH   4   5
ENDBRANCH   1   3
BRANCH   2   7
HETATM    7  C5  UNL     1     -32.566   7.419   1.643  1.00 20.00    -0.004 C 
HETATM    8  C6  UNL     1     -32.907   8.597   1.104  1.00 20.00    -0.031 C 
HETATM    9  C8  UNL     1     -33.232   8.783  -0.343  1.00 20.00     0.036 C 
ENDBRANCH   2   7
TORSDOF 3
ENDMDL
MODEL 2
REMARK VINA RESULT:      -4.9      0.941      1.039
REMARK  3 active torsions:
REMARK  status: ('A' for Active; 'I' for Inactive)
REMARK    1  A    between atoms: C1_1  and  C3_3 
REMARK    2  A    between atoms: C2_2  and  C5_5 
REMARK    3  A    between atoms: C4_4  and  C7_7 
ROOT
HETATM    1  C1  UNL     1     -33.327   5.035   3.187  1.00 20.00     0.000 C 
HETATM    2  C2  UNL     1     -32.498   5.955   2.669  1.00 20.00    -0.000 C 
ENDROOT
BRANCH   1   3
HETATM    3  C3  UNL     1     -34.738   5.274   3.394  1.00 20.00     0.003 C 
HETATM    4  C4  UNL     1     -35.252   5.577   4.592  1.00 20.00     0.041 C 
BRANCH   4   5
HETATM    5  C7  UNL     1     -34.348   5.675   5.755  1.00 20.00     0.258 C 
HETATM    6  O9  UNL     1     -33.956   6.755   6.182  1.00 20.00    -0.302 OA
ENDBRANCH   4   5
ENDBRANCH   1   3
BRANCH   2   7
HETATM    7  C5  UNL     1     -32.936   7.273   2.268  1.00 20.00    -0.004 C 
HETATM    8  C6  UNL     1     -32.541   7.863   1.130  1.00 20.00    -0.031 C 
HETATM    9  C8  UNL     1     -32.985   9.224   0.704  1.00 20.00     0.036 C 
ENDBRANCH   2   7
TORSDOF 3
ENDMDL
MODEL 3
REMARK VINA RESULT:      -4.7      2.535      4.992
REMARK  3 active torsions:
REMARK  status: ('A' for Active; 'I' for Inactive)
REMARK    1  A    between atoms: C1_1  and  C3_3 
REMARK    2  A    between atoms: C2_2  and  C5_5 
REMARK    3  A    between atoms: C4_4  and  C7_7 
ROOT
HETATM    1  C1  UNL     1     -33.143   5.608   2.039  1.00 20.00     0.000 C 
HETATM    2  C2  UNL     1     -33.834   4.619   2.627  1.00 20.00    -0.000 C 
ENDROOT
BRANCH   1   3
HETATM    3  C3  UNL     1     -32.538   6.694   2.778  1.00 20.00     0.003 C 
HETATM    4  C4  UNL     1     -32.274   7.886   2.228  1.00 20.00     0.041 C 
BRANCH   4   5
HETATM    5  C7  UNL     1     -32.612   8.109   0.808  1.00 20.00     0.258 C 
HETATM    6  O9  UNL     1     -33.038   9.185   0.406  1.00 20.00    -0.302 OA
ENDBRANCH   4   5
ENDBRANCH   1   3
BRANCH   2   7
HETATM    7  C5  UNL     1     -34.041   4.544   4.056  1.00 20.00    -0.004 C 
HETATM    8  C6  UNL     1     -34.803   5.415   4.733  1.00 20.00    -0.031 C 
HETATM    9  C8  UNL     1     -35.026   5.347   6.209  1.00 20.00     0.036 C 
ENDBRANCH   2   7
TORSDOF 3
ENDMDL
MODEL 4
REMARK VINA RESULT:      -4.7     10.747     11.543
REMARK  3 active torsions:
REMARK  status: ('A' for Active; 'I' for Inactive)
REMARK    1  A    between atoms: C1_1  and  C3_3 
REMARK    2  A    between atoms: C2_2  and  C5_5 
REMARK    3  A    between atoms: C4_4  and  C7_7 
ROOT
HETATM    1  C1  UNL     1     -34.894  15.896  -2.392  1.00 20.00     0.000 C 
HETATM    2  C2  UNL     1     -34.597  16.915  -1.571  1.00 20.00    -0.000 C 
ENDROOT
BRANCH   1   3
HETATM    3  C3  UNL     1     -33.951  15.351  -3.343  1.00 20.00     0.003 C 
HETATM    4  C4  UNL     1     -34.273  14.378  -4.204  1.00 20.00     0.041 C 
BRANCH   4   5
HETATM    5  C7  UNL     1     -35.645  13.833  -4.189  1.00 20.00     0.258 C 
HETATM    6  O9  UNL     1     -35.889  12.682  -4.531  1.00 20.00    -0.302 OA
ENDBRANCH   4   5
ENDBRANCH   1   3
BRANCH   2   7
HETATM    7  C5  UNL     1     -33.307  17.567  -1.558  1.00 20.00    -0.004 C 
HETATM    8  C6  UNL     1     -32.805  18.179  -0.476  1.00 20.00    -0.031 C 
HETATM    9  C8  UNL     1     -31.473  18.856  -0.450  1.00 20.00     0.036 C 
ENDBRANCH   2   7
TORSDOF 3
ENDMDL
MODEL 5
REMARK VINA RESULT:      -4.6      1.144      1.346
REMARK  3 active torsions:
REMARK  status: ('A' for Active; 'I' for Inactive)
REMARK    1  A    between atoms: C1_1  and  C3_3 
REMARK    2  A    between atoms: C2_2  and  C5_5 
REMARK    3  A    between atoms: C4_4  and  C7_7 
ROOT
HETATM    1  C1  UNL     1     -33.273   5.901   3.601  1.00 20.00     0.000 C 
HETATM    2  C2  UNL     1     -32.791   6.232   2.393  1.00 20.00    -0.000 C 
ENDROOT
BRANCH   1   3
HETATM    3  C3  UNL     1     -33.560   6.877   4.629  1.00 20.00     0.003 C 
HETATM    4  C4  UNL     1     -34.243   6.578   5.740  1.00 20.00     0.041 C 
BRANCH   4   5
HETATM    5  C7  UNL     1     -34.728   5.197   5.932  1.00 20.00     0.258 C 
HETATM    6  O9  UNL     1     -35.428   4.635   5.097  1.00 20.00    -0.302 OA
ENDBRANCH   4   5
ENDBRANCH   1   3
BRANCH   2   7
HETATM    7  C5  UNL     1     -32.510   7.596   2.002  1.00 20.00    -0.004 C 
HETATM    8  C6  UNL     1     -33.025   8.164   0.902  1.00 20.00    -0.031 C 
HETATM    9  C8  UNL     1     -32.743   9.572   0.488  1.00 20.00     0.036 C 
ENDBRANCH   2   7
TORSDOF 3
ENDMDL
MODEL 6
REMARK VINA RESULT:      -4.4     11.044     11.800
REMARK  3 active torsions:
REMARK  status: ('A' for Active; 'I' for Inactive)
REMARK    1  A    between atoms: C1_1  and  C3_3 
REMARK    2  A    between atoms: C2_2  and  C5_5 
REMARK    3  A    between atoms: C4_4  and  C7_7 
ROOT
HETATM    1  C1  UNL     1     -33.756  14.740  -5.246  1.00 20.00     0.000 C 
HETATM    2  C2  UNL     1     -33.200  14.986  -4.049  1.00 20.00    -0.000 C 
ENDROOT
BRANCH   1   3
HETATM    3  C3  UNL     1     -34.865  15.505  -5.771  1.00 20.00     0.003 C 
HETATM    4  C4  UNL     1     -36.141  15.138  -5.602  1.00 20.00     0.041 C 
BRANCH   4   5
HETATM    5  C7  UNL     1     -36.437  13.903  -4.850  1.00 20.00     0.258 C 
HETATM    6  O9  UNL     1     -37.568  13.641  -4.455  1.00 20.00    -0.302 OA
ENDBRANCH   4   5
ENDBRANCH   1   3
BRANCH   2   7
HETATM    7  C5  UNL     1     -33.656  16.039  -3.169  1.00 20.00    -0.004 C 
HETATM    8  C6  UNL     1     -34.614  15.861  -2.248  1.00 20.00    -0.031 C 
HETATM    9  C8  UNL     1     -35.094  16.939  -1.333  1.00 20.00     0.036 C 
ENDBRANCH   2   7
TORSDOF 3
ENDMDL
MODEL 7
REMARK VINA RESULT:      -4.3     11.198     12.181
REMARK  3 active torsions:
REMARK  status: ('A' for Active; 'I' for Inactive)
REMARK    1  A    between atoms: C1_1  and  C3_3 
REMARK    2  A    between atoms: C2_2  and  C5_5 
REMARK    3  A    between atoms: C4_4  and  C7_7 
ROOT
HETATM    1  C1  UNL     1     -34.556  15.012  -3.361  1.00 20.00     0.000 C 
HETATM    2  C2  UNL     1     -34.450  15.953  -2.411  1.00 20.00    -0.000 C 
ENDROOT
BRANCH   1   3
HETATM    3  C3  UNL     1     -33.575  14.837  -4.410  1.00 20.00     0.003 C 
HETATM    4  C4  UNL     1     -33.904  14.779  -5.706  1.00 20.00     0.041 C 
BRANCH   4   5
HETATM    5  C7  UNL     1     -35.325  14.898  -6.090  1.00 20.00     0.258 C 
HETATM    6  O9  UNL     1     -35.998  13.919  -6.390  1.00 20.00    -0.302 OA
ENDBRANCH   4   5
ENDBRANCH   1   3
BRANCH   2   7
HETATM    7  C5  UNL     1     -33.346  16.885  -2.343  1.00 20.00    -0.004 C 
HETATM    8  C6  UNL     1     -33.189  17.765  -1.343  1.00 20.00    -0.031 C 
HETATM    9  C8  UNL     1     -32.053  18.732  -1.261  1.00 20.00     0.036 C 
ENDBRANCH   2   7
TORSDOF 3
ENDMDL
MODEL 8
REMARK VINA RESULT:      -4.2     10.535     11.538
REMARK  3 active torsions:
REMARK  status: ('A' for Active; 'I' for Inactive)
REMARK    1  A    between atoms: C1_1  and  C3_3 
REMARK    2  A    between atoms: C2_2  and  C5_5 
REMARK    3  A    between atoms: C4_4  and  C7_7 
ROOT
HETATM    1  C1  UNL     1     -35.185  16.120  -1.966  1.00 20.00     0.000 C 
HETATM    2  C2  UNL     1     -35.239  16.951  -0.914  1.00 20.00    -0.000 C 
ENDROOT
BRANCH   1   3
HETATM    3  C3  UNL     1     -34.020  15.998  -2.815  1.00 20.00     0.003 C 
HETATM    4  C4  UNL     1     -33.890  15.030  -3.730  1.00 20.00     0.041 C 
BRANCH   4   5
HETATM    5  C7  UNL     1     -34.975  14.042  -3.886  1.00 20.00     0.258 C 
HETATM    6  O9  UNL     1     -34.750  12.840  -3.964  1.00 20.00    -0.302 OA
ENDBRANCH   4   5
ENDBRANCH   1   3
BRANCH   2   7
HETATM    7  C5  UNL     1     -34.140  17.807  -0.528  1.00 20.00    -0.004 C 
HETATM    8  C6  UNL     1     -33.907  18.174   0.741  1.00 20.00    -0.031 C 
HETATM    9  C8  UNL     1     -32.774  19.058   1.153  1.00 20.00     0.036 C 
ENDBRANCH   2   7
TORSDOF 3
ENDMDL
MODEL 9
REMARK VINA RESULT:      -4.1     11.161     12.294
REMARK  3 active torsions:
REMARK  status: ('A' for Active; 'I' for Inactive)
REMARK    1  A    between atoms: C1_1  and  C3_3 
REMARK    2  A    between atoms: C2_2  and  C5_5 
REMARK    3  A    between atoms: C4_4  and  C7_7 
ROOT
HETATM    1  C1  UNL     1     -33.266  17.290  -3.193  1.00 20.00     0.000 C 
HETATM    2  C2  UNL     1     -32.577  18.199  -2.486  1.00 20.00    -0.000 C 
ENDROOT
BRANCH   1   3
HETATM    3  C3  UNL     1     -33.863  16.116  -2.596  1.00 20.00     0.003 C 
HETATM    4  C4  UNL     1     -34.377  15.117  -3.324  1.00 20.00     0.041 C 
BRANCH   4   5
HETATM    5  C7  UNL     1     -34.337  15.209  -4.796  1.00 20.00     0.258 C 
HETATM    6  O9  UNL     1     -33.707  14.409  -5.478  1.00 20.00    -0.302 OA
ENDBRANCH   4   5
ENDBRANCH   1   3
BRANCH   2   7
HETATM    7  C5  UNL     1     -32.362  18.092  -1.060  1.00 20.00    -0.004 C 
HETATM    8  C6  UNL     1     -31.179  18.333  -0.477  1.00 20.00    -0.031 C 
HETATM    9  C8  UNL     1     -30.945  18.227   0.995  1.00 20.00     0.036 C 
ENDBRANCH   2   7
TORSDOF 3
ENDMDL
