MODEL 1
REMARK VINA RESULT:      -5.2      0.000      0.000
REMARK  3 active torsions:
REMARK  status: ('A' for Active; 'I' for Inactive)
REMARK    1  A    between atoms: C1_1  and  C3_3 
REMARK    2  A    between atoms: C2_2  and  C5_5 
REMARK    3  A    between atoms: C4_4  and  C7_7 
ROOT
HETATM    1  C1  UNL     1     -33.450   6.812   3.525  1.00 20.00     0.000 C 
HETATM    2  C2  UNL     1     -32.406   7.341   2.868  1.00 20.00    -0.000 C 
ENDROOT
BRANCH   1   3
HETATM    3  C3  UNL     1     -33.590   6.877   4.964  1.00 20.00     0.003 C 
HETATM    4  C4  UNL     1     -34.376   6.041   5.653  1.00 20.00     0.041 C 
BRANCH   4   5
HETATM    5  C7  UNL     1     -35.136   5.008   4.922  1.00 20.00     0.258 C 
HETATM    6  O9  UNL     1     -34.589   4.028   4.431  1.00 20.00    -0.302 OA
ENDBRANCH   4   5
ENDBRANCH   1   3
BRANCH   2   7
HETATM    7  C5  UNL     1     -32.266   7.275   1.431  1.00 20.00    -0.004 C 
HETATM    8  C6  UNL     1     -32.588   8.290   0.615  1.00 20.00    -0.031 C 
HETATM    9  C8  UNL     1     -33.127   9.598   1.093  1.00 20.00     0.036 C 
ENDBRANCH   2   7
TORSDOF 3
ENDMDL
MODEL 2
REMARK VINA RESULT:      -5.2      1.288      1.655
REMARK  3 active torsions:
REMARK  status: ('A' for Active; 'I' for Inactive)
REMARK    1  A    between atoms: C1_1  and  C3_3 
REMARK    2  A    between atoms: C2_2  and  C5_5 
REMARK    3  A    between atoms: C4_4  and  C7_7 
ROOT
HETATM    1  C1  UNL     1     -33.333   6.353   2.937  1.00 20.00     0.000 C 
HETATM    2  C2  UNL     1     -32.623   6.901   1.939  1.00 20.00    -0.000 C 
ENDROOT
BRANCH   1   3
HETATM    3  C3  UNL     1     -33.601   4.934   3.027  1.00 20.00     0.003 C 
HETATM    4  C4  UNL     1     -34.387   4.404   3.972  1.00 20.00     0.041 C 
BRANCH   4   5
HETATM    5  C7  UNL     1     -35.011   5.298   4.967  1.00 20.00     0.258 C 
HETATM    6  O9  UNL     1     -34.719   5.248   6.156  1.00 20.00    -0.302 OA
ENDBRANCH   4   5
ENDBRANCH   1   3
BRANCH   2   7
HETATM    7  C5  UNL     1     -32.357   8.319   1.848  1.00 20.00    -0.004 C 
HETATM    8  C6  UNL     1     -32.731   9.071   0.802  1.00 20.00    -0.031 C 
HETATM    9  C8  UNL     1     -33.460   8.533  -0.386  1.00 20.00     0.036 C 
ENDBRANCH   2   7
TORSDOF 3
ENDMDL
MODEL 3
REMARK VINA RESULT:      -5.1      2.385      4.882
REMARK  3 active torsions:
REMARK  status: ('A' for Active; 'I' for Inactive)
REMARK    1  A    between atoms: C1_1  and  C3_3 
REMARK    2  A    between atoms: C2_2  and  C5_5 
REMARK    3  A    between atoms: C4_4  and  C7_7 
ROOT
HETATM    1  C1  UNL     1     -33.294   6.779   2.707  1.00 20.00     0.000 C 
HETATM    2  C2  UNL     1     -33.431   5.563   3.258  1.00 20.00    -0.000 C 
ENDROOT
BRANCH   1   3
HETATM    3  C3  UNL     1     -32.055   7.245   2.121  1.00 20.00     0.003 C 
HETATM    4  C4  UNL     1     -32.014   8.169   1.154  1.00 20.00     0.041 C 
BRANCH   4   5
HETATM    5  C7  UNL     1     -33.281   8.743   0.659  1.00 20.00     0.258 C 
HETATM    6  O9  UNL     1     -33.685   8.534  -0.479  1.00 20.00    -0.302 OA
ENDBRANCH   4   5
ENDBRANCH   1   3
BRANCH   2   7
HETATM    7  C5  UNL     1     -34.668   5.099   3.844  1.00 20.00    -0.004 C 
HETATM    8  C6  UNL     1     -35.042   5.394   5.097  1.00 20.00    -0.031 C 
HETATM    9  C8  UNL     1     -34.228   6.230   6.030  1.00 20.00     0.036 C 
ENDBRANCH   2   7
TORSDOF 3
ENDMDL
MODEL 4
REMARK VINA RESULT:      -4.6     10.839     11.496
REMARK  3 active torsions:
REMARK  status: ('A' for Active; 'I' for Inactive)
REMARK    1  A    between atoms: C1_1  and  C3_3 
REMARK    2  A    between atoms: C2_2  and  C5_5 
REMARK    3  A    between atoms: C4_4  and  C7_7 
ROOT
HETATM    1  C1  UNL     1     -34.814  15.606  -2.588  1.00 20.00     0.000 C 
HETATM    2  C2  UNL     1     -33.941  16.564  -2.240  1.00 20.00    -0.000 C 
ENDROOT
BRANCH   1   3
HETATM    3  C3  UNL     1     -34.555  14.650  -3.644  1.00 20.00     0.003 C 
HETATM    4  C4  UNL     1     -35.530  14.106  -4.382  1.00 20.00     0.041 C 
BRANCH   4   5
HETATM    5  C7  UNL     1     -36.930  14.493  -4.116  1.00 20.00     0.258 C 
HETATM    6  O9  UNL     1     -37.871  13.771  -4.424  1.00 20.00    -0.302 OA
ENDBRANCH   4   5
ENDBRANCH   1   3
BRANCH   2   7
HETATM    7  C5  UNL     1     -34.200  17.520  -1.187  1.00 20.00    -0.004 C 
HETATM    8  C6  UNL     1     -33.243  18.276  -0.631  1.00 20.00    -0.031 C 
HETATM    9  C8  UNL     1     -31.805  18.220  -1.031  1.00 20.00     0.036 C 
ENDBRANCH   2   7
TORSDOF 3
ENDMDL
MODEL 5
REMARK VINA RESULT:      -4.5     10.692     11.286
REMARK  3 active torsions:
REMARK  status: ('A' for Active; 'I' for Inactive)
REMARK    1  A    between atoms: C1_1  and  C3_3 
REMARK    2  A    between atoms: C2_2  and  C5_5 
REMARK    3  A    between atoms: C4_4  and  C7_7 
ROOT
HETATM    1  C1  UNL     1     -34.878  15.765  -2.296  1.00 20.00     0.000 C 
HETATM    2  C2  UNL     1     -34.671  16.848  -1.531  1.00 20.00    -0.000 C 
ENDROOT
BRANCH   1   3
HETATM    3  C3  UNL     1     -34.003  15.390  -3.386  1.00 20.00     0.003 C 
HETATM    4  C4  UNL     1     -34.345  14.483  -4.308  1.00 20.00     0.041 C 
BRANCH   4   5
HETATM    5  C7  UNL     1     -35.667  13.833  -4.218  1.00 20.00     0.258 C 
HETATM    6  O9  UNL     1     -35.832  12.657  -4.517  1.00 20.00    -0.302 OA
ENDBRANCH   4   5
ENDBRANCH   1   3
BRANCH   2   7
HETATM    7  C5  UNL     1     -35.546  17.223  -0.443  1.00 20.00    -0.004 C 
HETATM    8  C6  UNL     1     -35.112  17.829   0.672  1.00 20.00    -0.031 C 
HETATM    9  C8  UNL     1     -33.683  18.185   0.919  1.00 20.00     0.036 C 
ENDBRANCH   2   7
TORSDOF 3
ENDMDL
MODEL 6
REMARK VINA RESULT:      -4.4     14.505     15.881
REMARK  3 active torsions:
REMARK  status: ('A' for Active; 'I' for Inactive)
REMARK    1  A    between atoms: C1_1  and  C3_3 
REMARK    2  A    between atoms: C2_2  and  C5_5 
REMARK    3  A    between atoms: C4_4  and  C7_7 
ROOT
HETATM    1  C1  UNL     1     -24.991  19.170   6.825  1.00 20.00     0.000 C 
HETATM    2  C2  UNL     1     -24.812  18.922   8.132  1.00 20.00    -0.000 C 
ENDROOT
BRANCH   1   3
HETATM    3  C3  UNL     1     -26.220  18.863   6.126  1.00 20.00     0.003 C 
HETATM    4  C4  UNL     1     -26.317  18.881   4.791  1.00 20.00     0.041 C 
BRANCH   4   5
HETATM    5  C7  UNL     1     -25.126  19.228   3.992  1.00 20.00     0.258 C 
HETATM    6  O9  UNL     1     -24.682  18.477   3.132  1.00 20.00    -0.302 OA
ENDBRANCH   4   5
ENDBRANCH   1   3
BRANCH   2   7
HETATM    7  C5  UNL     1     -23.583  19.228   8.830  1.00 20.00    -0.004 C 
HETATM    8  C6  UNL     1     -22.951  18.349   9.621  1.00 20.00    -0.031 C 
HETATM    9  C8  UNL     1     -23.439  16.960   9.873  1.00 20.00     0.036 C 
ENDBRANCH   2   7
TORSDOF 3
ENDMDL
MODEL 7
REMARK VINA RESULT:      -4.4      1.793      2.284
REMARK  3 active torsions:
REMARK  status: ('A' for Active; 'I' for Inactive)
REMARK    1  A    between atoms: C1_1  and  C3_3 
REMARK    2  A    between atoms: C2_2  and  C5_5 
REMARK    3  A    between atoms: C4_4  and  C7_7 
ROOT
HETATM    1  C1  UNL     1     -34.490   5.452   3.575  1.00 20.00     0.000 C 
HETATM    2  C2  UNL     1     -33.368   5.282   2.858  1.00 20.00    -0.000 C 
ENDROOT
BRANCH   1   3
HETATM    3  C3  UNL     1     -34.837   4.618   4.705  1.00 20.00     0.003 C 
HETATM    4  C4  UNL     1     -34.822   5.066   5.966  1.00 20.00     0.041 C 
BRANCH   4   5
HETATM    5  C7  UNL     1     -34.436   6.467   6.223  1.00 20.00     0.258 C 
HETATM    6  O9  UNL     1     -33.268   6.834   6.190  1.00 20.00    -0.302 OA
ENDBRANCH   4   5
ENDBRANCH   1   3
BRANCH   2   7
HETATM    7  C5  UNL     1     -33.023   6.114   1.727  1.00 20.00    -0.004 C 
HETATM    8  C6  UNL     1     -32.320   7.251   1.841  1.00 20.00    -0.031 C 
HETATM    9  C8  UNL     1     -31.815   7.787   3.140  1.00 20.00     0.036 C 
ENDBRANCH   2   7
TORSDOF 3
ENDMDL
MODEL 8
REMARK VINA RESULT:      -4.3     10.912     11.779
REMARK  3 active torsions:
REMARK  status: ('A' for Active; 'I' for Inactive)
REMARK    1  A    between atoms: C1_1  and  C3_3 
REMARK    2  A    between atoms: C2_2  and  C5_5 
REMARK    3  A    between atoms: C4_4  and  C7_7 
ROOT
HETATM    1  C1  UNL     1     -33.312  16.981  -2.264  1.00 20.00     0.000 C 
HETATM    2  C2  UNL     1     -33.011  17.785  -1.232  1.00 20.00    -0.000 C 
ENDROOT
BRANCH   1   3
HETATM    3  C3  UNL     1     -34.512  16.174  -2.310  1.00 20.00     0.003 C 
HETATM    4  C4  UNL     1     -34.680  15.178  -3.188  1.00 20.00     0.041 C 
BRANCH   4   5
HETATM    5  C7  UNL     1     -33.602  14.883  -4.152  1.00 20.00     0.258 C 
HETATM    6  O9  UNL     1     -33.379  13.745  -4.546  1.00 20.00    -0.302 OA
ENDBRANCH   4   5
ENDBRANCH   1   3
BRANCH   2   7
HETATM    7  C5  UNL     1     -31.811  18.590  -1.186  1.00 20.00    -0.004 C 
HETATM    8  C6  UNL     1     -31.103  18.788  -0.064  1.00 20.00    -0.031 C 
HETATM    9  C8  UNL     1     -31.469  18.204   1.261  1.00 20.00     0.036 C 
ENDBRANCH   2   7
TORSDOF 3
ENDMDL
MODEL 9
REMARK VINA RESULT:      -4.3      2.270      4.682
REMARK  3 active torsions:
REMARK  status: ('A' for Active; 'I' for Inactive)
REMARK    1  A    between atoms: C1_1  and  C3_3 
REMARK    2  A    between atoms: C2_2  and  C5_5 
REMARK    3  A    between atoms: C4_4  and  C7_7 
ROOT
HETATM    1  C1  UNL     1     -33.674   4.693   3.616  1.00 20.00     0.000 C 
HETATM    2  C2  UNL     1     -34.854   5.047   4.149  1.00 20.00    -0.000 C 
ENDROOT
BRANCH   1   3
HETATM    3  C3  UNL     1     -33.417   4.702   2.192  1.00 20.00     0.003 C 
HETATM    4  C4  UNL     1     -32.906   5.762   1.555  1.00 20.00     0.041 C 
BRANCH   4   5
HETATM    5  C7  UNL     1     -32.586   6.977   2.331  1.00 20.00     0.258 C 
HETATM    6  O9  UNL     1     -32.612   8.093   1.825  1.00 20.00    -0.302 OA
ENDBRANCH   4   5
ENDBRANCH   1   3
BRANCH   2   7
HETATM    7  C5  UNL     1     -35.110   5.036   5.572  1.00 20.00    -0.004 C 
HETATM    8  C6  UNL     1     -34.603   5.948   6.415  1.00 20.00    -0.031 C 
HETATM    9  C8  UNL     1     -33.719   7.073   5.985  1.00 20.00     0.036 C 
ENDBRANCH   2   7
TORSDOF 3
ENDMDL
