MODEL 1
REMARK VINA RESULT:      -4.9      0.000      0.000
REMARK  1 active torsions:
REMARK  status: ('A' for Active; 'I' for Inactive)
REMARK    1  A    between atoms: C2_2  and  C10_10 
ROOT
HETATM    1  C1  UNL     1     -34.816  16.445  -2.093  1.00 20.00    -0.022 C 
HETATM    2  C2  UNL     1     -33.553  16.655  -2.504  1.00 20.00    -0.073 C 
HETATM    3  C3  UNL     1     -33.790  14.718  -4.086  1.00 20.00     0.134 C 
HETATM    4  C4  UNL     1     -35.730  15.425  -2.705  1.00 20.00     0.039 C 
HETATM    5  C5  UNL     1     -32.910  15.860  -3.607  1.00 20.00     0.113 C 
HETATM    6  C6  UNL     1     -35.289  14.984  -4.103  1.00 20.00     0.055 C 
HETATM    7  C7  UNL     1     -36.085  13.770  -4.569  1.00 20.00     0.018 C 
HETATM    8  O11 UNL     1     -33.293  13.680  -4.522  1.00 20.00    -0.297 OA
ENDROOT
BRANCH   2   9
HETATM    9  C10 UNL     1     -32.686  17.702  -1.867  1.00 20.00     0.006 C 
HETATM   10  C8  UNL     1     -32.507  18.884  -2.812  1.00 20.00     0.014 C 
HETATM   11  C9  UNL     1     -33.275  18.152  -0.533  1.00 20.00     0.014 C 
ENDBRANCH   2   9
TORSDOF 1
ENDMDL
MODEL 2
REMARK VINA RESULT:      -4.9      1.897      4.419
REMARK  1 active torsions:
REMARK  status: ('A' for Active; 'I' for Inactive)
REMARK    1  A    between atoms: C2_2  and  C10_10 
ROOT
HETATM    1  C1  UNL     1     -35.046  16.283  -1.751  1.00 20.00    -0.022 C 
HETATM    2  C2  UNL     1     -34.189  15.889  -2.710  1.00 20.00    -0.073 C 
HETATM    3  C3  UNL     1     -32.751  17.881  -2.184  1.00 20.00     0.134 C 
HETATM    4  C4  UNL     1     -34.797  17.449  -0.842  1.00 20.00     0.039 C 
HETATM    5  C5  UNL     1     -32.895  16.603  -2.992  1.00 20.00     0.113 C 
HETATM    6  C6  UNL     1     -33.322  17.854  -0.773  1.00 20.00     0.055 C 
HETATM    7  C7  UNL     1     -33.155  19.190  -0.057  1.00 20.00     0.018 C 
HETATM    8  O11 UNL     1     -32.121  18.840  -2.629  1.00 20.00    -0.297 OA
ENDROOT
BRANCH   2   9
HETATM    9  C10 UNL     1     -34.480  14.703  -3.582  1.00 20.00     0.006 C 
HETATM   10  C8  UNL     1     -35.958  14.670  -3.952  1.00 20.00     0.014 C 
HETATM   11  C9  UNL     1     -33.603  14.723  -4.831  1.00 20.00     0.014 C 
ENDBRANCH   2   9
TORSDOF 1
ENDMDL
MODEL 3
REMARK VINA RESULT:      -4.8      2.020      4.613
REMARK  1 active torsions:
REMARK  status: ('A' for Active; 'I' for Inactive)
REMARK    1  A    between atoms: C2_2  and  C10_10 
ROOT
HETATM    1  C1  UNL     1     -32.999  16.336  -3.092  1.00 20.00    -0.022 C 
HETATM    2  C2  UNL     1     -34.141  15.628  -3.131  1.00 20.00    -0.073 C 
HETATM    3  C3  UNL     1     -34.968  16.931  -1.149  1.00 20.00     0.134 C 
HETATM    4  C4  UNL     1     -32.763  17.481  -2.152  1.00 20.00     0.039 C 
HETATM    5  C5  UNL     1     -35.298  15.892  -2.207  1.00 20.00     0.113 C 
HETATM    6  C6  UNL     1     -34.057  18.070  -1.585  1.00 20.00     0.055 C 
HETATM    7  C7  UNL     1     -33.762  19.041  -0.447  1.00 20.00     0.018 C 
HETATM    8  O11 UNL     1     -35.495  16.887  -0.038  1.00 20.00    -0.297 OA
ENDROOT
BRANCH   2   9
HETATM    9  C10 UNL     1     -34.331  14.501  -4.105  1.00 20.00     0.006 C 
HETATM   10  C8  UNL     1     -35.790  14.062  -4.124  1.00 20.00     0.014 C 
HETATM   11  C9  UNL     1     -33.865  14.910  -5.499  1.00 20.00     0.014 C 
ENDBRANCH   2   9
TORSDOF 1
ENDMDL
MODEL 4
REMARK VINA RESULT:      -4.7      1.409      2.049
REMARK  1 active torsions:
REMARK  status: ('A' for Active; 'I' for Inactive)
REMARK    1  A    between atoms: C2_2  and  C10_10 
ROOT
HETATM    1  C1  UNL     1     -33.058  15.812  -3.415  1.00 20.00    -0.022 C 
HETATM    2  C2  UNL     1     -33.639  16.651  -2.538  1.00 20.00    -0.073 C 
HETATM    3  C3  UNL     1     -35.882  15.770  -3.245  1.00 20.00     0.134 C 
HETATM    4  C4  UNL     1     -33.814  14.796  -4.218  1.00 20.00     0.039 C 
HETATM    5  C5  UNL     1     -35.122  16.678  -2.293  1.00 20.00     0.113 C 
HETATM    6  C6  UNL     1     -35.191  14.470  -3.632  1.00 20.00     0.055 C 
HETATM    7  C7  UNL     1     -36.019  13.645  -4.612  1.00 20.00     0.018 C 
HETATM    8  O11 UNL     1     -37.030  16.043  -3.594  1.00 20.00    -0.297 OA
ENDROOT
BRANCH   2   9
HETATM    9  C10 UNL     1     -32.831  17.638  -1.746  1.00 20.00     0.006 C 
HETATM   10  C8  UNL     1     -32.456  18.831  -2.618  1.00 20.00     0.014 C 
HETATM   11  C9  UNL     1     -33.595  18.087  -0.504  1.00 20.00     0.014 C 
ENDBRANCH   2   9
TORSDOF 1
ENDMDL
MODEL 5
REMARK VINA RESULT:      -4.6     14.347     16.562
REMARK  1 active torsions:
REMARK  status: ('A' for Active; 'I' for Inactive)
REMARK    1  A    between atoms: C2_2  and  C10_10 
ROOT
HETATM    1  C1  UNL     1     -25.180  18.372  10.071  1.00 20.00    -0.022 C 
HETATM    2  C2  UNL     1     -23.950  18.085  10.530  1.00 20.00    -0.073 C 
HETATM    3  C3  UNL     1     -23.083  18.230   8.177  1.00 20.00     0.134 C 
HETATM    4  C4  UNL     1     -25.473  18.721   8.642  1.00 20.00     0.039 C 
HETATM    5  C5  UNL     1     -22.734  18.052   9.645  1.00 20.00     0.113 C 
HETATM    6  C6  UNL     1     -24.233  19.177   7.868  1.00 20.00     0.055 C 
HETATM    7  C7  UNL     1     -24.525  19.263   6.373  1.00 20.00     0.018 C 
HETATM    8  O11 UNL     1     -22.399  17.703   7.299  1.00 20.00    -0.297 OA
ENDROOT
BRANCH   2   9
HETATM    9  C10 UNL     1     -23.709  17.760  11.976  1.00 20.00     0.006 C 
HETATM   10  C8  UNL     1     -24.333  16.413  12.324  1.00 20.00     0.014 C 
HETATM   11  C9  UNL     1     -22.216  17.769  12.290  1.00 20.00     0.014 C 
ENDBRANCH   2   9
TORSDOF 1
ENDMDL
MODEL 6
REMARK VINA RESULT:      -4.6      1.603      2.764
REMARK  1 active torsions:
REMARK  status: ('A' for Active; 'I' for Inactive)
REMARK    1  A    between atoms: C2_2  and  C10_10 
ROOT
HETATM    1  C1  UNL     1     -33.087  17.523  -2.100  1.00 20.00    -0.022 C 
HETATM    2  C2  UNL     1     -34.124  17.385  -1.254  1.00 20.00    -0.073 C 
HETATM    3  C3  UNL     1     -35.141  15.722  -2.838  1.00 20.00     0.134 C 
HETATM    4  C4  UNL     1     -32.916  16.703  -3.344  1.00 20.00     0.039 C 
HETATM    5  C5  UNL     1     -35.244  16.408  -1.487  1.00 20.00     0.113 C 
HETATM    6  C6  UNL     1     -33.735  15.409  -3.330  1.00 20.00     0.055 C 
HETATM    7  C7  UNL     1     -33.737  14.750  -4.705  1.00 20.00     0.018 C 
HETATM    8  O11 UNL     1     -36.153  15.360  -3.439  1.00 20.00    -0.297 OA
ENDROOT
BRANCH   2   9
HETATM    9  C10 UNL     1     -34.238  18.221  -0.012  1.00 20.00     0.006 C 
HETATM   10  C8  UNL     1     -35.190  17.563   0.980  1.00 20.00     0.014 C 
HETATM   11  C9  UNL     1     -32.865  18.446   0.613  1.00 20.00     0.014 C 
ENDBRANCH   2   9
TORSDOF 1
ENDMDL
MODEL 7
REMARK VINA RESULT:      -4.6      2.381      3.134
REMARK  1 active torsions:
REMARK  status: ('A' for Active; 'I' for Inactive)
REMARK    1  A    between atoms: C2_2  and  C10_10 
ROOT
HETATM    1  C1  UNL     1     -36.212  16.920  -2.887  1.00 20.00    -0.022 C 
HETATM    2  C2  UNL     1     -35.421  15.869  -3.167  1.00 20.00    -0.073 C 
HETATM    3  C3  UNL     1     -37.375  14.745  -4.274  1.00 20.00     0.134 C 
HETATM    4  C4  UNL     1     -37.631  17.040  -3.360  1.00 20.00     0.039 C 
HETATM    5  C5  UNL     1     -35.889  14.682  -3.963  1.00 20.00     0.113 C 
HETATM    6  C6  UNL     1     -37.949  16.128  -4.547  1.00 20.00     0.055 C 
HETATM    7  C7  UNL     1     -39.449  16.088  -4.818  1.00 20.00     0.018 C 
HETATM    8  O11 UNL     1     -38.038  13.714  -4.389  1.00 20.00    -0.297 OA
ENDROOT
BRANCH   2   9
HETATM    9  C10 UNL     1     -34.001  15.808  -2.683  1.00 20.00     0.006 C 
HETATM   10  C8  UNL     1     -33.072  15.409  -3.824  1.00 20.00     0.014 C 
HETATM   11  C9  UNL     1     -33.580  17.143  -2.076  1.00 20.00     0.014 C 
ENDBRANCH   2   9
TORSDOF 1
ENDMDL
MODEL 8
REMARK VINA RESULT:      -4.6      2.070      2.627
REMARK  1 active torsions:
REMARK  status: ('A' for Active; 'I' for Inactive)
REMARK    1  A    between atoms: C2_2  and  C10_10 
ROOT
HETATM    1  C1  UNL     1     -34.373  17.005  -4.633  1.00 20.00    -0.022 C 
HETATM    2  C2  UNL     1     -34.343  16.010  -3.728  1.00 20.00    -0.073 C 
HETATM    3  C3  UNL     1     -35.274  14.455  -5.467  1.00 20.00     0.134 C 
HETATM    4  C4  UNL     1     -34.754  16.808  -6.070  1.00 20.00     0.039 C 
HETATM    5  C5  UNL     1     -34.721  14.593  -4.058  1.00 20.00     0.113 C 
HETATM    6  C6  UNL     1     -34.648  15.351  -6.526  1.00 20.00     0.055 C 
HETATM    7  C7  UNL     1     -35.290  15.160  -7.896  1.00 20.00     0.018 C 
HETATM    8  O11 UNL     1     -36.112  13.594  -5.733  1.00 20.00    -0.297 OA
ENDROOT
BRANCH   2   9
HETATM    9  C10 UNL     1     -33.937  16.259  -2.304  1.00 20.00     0.006 C 
HETATM   10  C8  UNL     1     -32.928  17.399  -2.235  1.00 20.00     0.014 C 
HETATM   11  C9  UNL     1     -35.159  16.557  -1.439  1.00 20.00     0.014 C 
ENDBRANCH   2   9
TORSDOF 1
ENDMDL
MODEL 9
REMARK VINA RESULT:      -4.5      1.892      2.851
REMARK  1 active torsions:
REMARK  status: ('A' for Active; 'I' for Inactive)
REMARK    1  A    between atoms: C2_2  and  C10_10 
ROOT
HETATM    1  C1  UNL     1     -32.772  17.002  -2.313  1.00 20.00    -0.022 C 
HETATM    2  C2  UNL     1     -33.439  17.682  -1.363  1.00 20.00    -0.073 C 
HETATM    3  C3  UNL     1     -35.589  16.740  -2.257  1.00 20.00     0.134 C 
HETATM    4  C4  UNL     1     -33.427  16.044  -3.263  1.00 20.00     0.039 C 
HETATM    5  C5  UNL     1     -34.927  17.574  -1.173  1.00 20.00     0.113 C 
HETATM    6  C6  UNL     1     -34.792  15.551  -2.774  1.00 20.00     0.055 C 
HETATM    7  C7  UNL     1     -35.527  14.798  -3.878  1.00 20.00     0.018 C 
HETATM    8  O11 UNL     1     -36.744  16.973  -2.613  1.00 20.00    -0.297 OA
ENDROOT
BRANCH   2   9
HETATM    9  C10 UNL     1     -32.730  18.618  -0.427  1.00 20.00     0.006 C 
HETATM   10  C8  UNL     1     -33.297  18.483   0.981  1.00 20.00     0.014 C 
HETATM   11  C9  UNL     1     -31.227  18.357  -0.439  1.00 20.00     0.014 C 
ENDBRANCH   2   9
TORSDOF 1
ENDMDL
