MODEL 1
REMARK VINA RESULT:      -5.3      0.000      0.000
REMARK  3 active torsions:
REMARK  status: ('A' for Active; 'I' for Inactive)
REMARK    1  A    between atoms: C1_1  and  C3_3 
REMARK    2  A    between atoms: C2_2  and  C5_5 
REMARK    3  A    between atoms: C4_4  and  C7_7 
ROOT
HETATM    1  C1  UNL     1     -33.061   6.255   2.859  1.00 20.00     0.000 C 
HETATM    2  C2  UNL     1     -32.541   6.884   1.793  1.00 20.00    -0.000 C 
ENDROOT
BRANCH   1   3
HETATM    3  C3  UNL     1     -33.214   4.817   2.931  1.00 20.00     0.004 C 
HETATM    4  C4  UNL     1     -34.130   4.227   3.711  1.00 20.00     0.049 C 
BRANCH   4   5
HETATM    5  C7  UNL     1     -35.048   5.044   4.552  1.00 20.00     0.145 C 
HETATM    6  C9  UNL     1     -34.651   5.236   5.992  1.00 20.00     0.096 C 
HETATM    7  O10 UNL     1     -36.066   5.563   4.098  1.00 20.00    -0.294 OA
ENDBRANCH   4   5
ENDBRANCH   1   3
BRANCH   2   8
HETATM    8  C5  UNL     1     -32.392   8.321   1.727  1.00 20.00    -0.004 C 
HETATM    9  C6  UNL     1     -32.799   9.128   0.736  1.00 20.00    -0.031 C 
HETATM   10  C8  UNL     1     -33.500   8.763  -0.533  1.00 20.00     0.036 C 
ENDBRANCH   2   8
TORSDOF 3
ENDMDL
MODEL 2
REMARK VINA RESULT:      -4.5      1.995      5.077
REMARK  3 active torsions:
REMARK  status: ('A' for Active; 'I' for Inactive)
REMARK    1  A    between atoms: C1_1  and  C3_3 
REMARK    2  A    between atoms: C2_2  and  C5_5 
REMARK    3  A    between atoms: C4_4  and  C7_7 
ROOT
HETATM    1  C1  UNL     1     -33.152   6.704   2.669  1.00 20.00     0.000 C 
HETATM    2  C2  UNL     1     -33.427   5.473   3.130  1.00 20.00    -0.000 C 
ENDROOT
BRANCH   1   3
HETATM    3  C3  UNL     1     -31.901   7.045   2.025  1.00 20.00     0.004 C 
HETATM    4  C4  UNL     1     -31.824   7.923   1.017  1.00 20.00     0.049 C 
BRANCH   4   5
HETATM    5  C7  UNL     1     -33.048   8.601   0.507  1.00 20.00     0.145 C 
HETATM    6  C9  UNL     1     -33.462   9.866   1.212  1.00 20.00     0.096 C 
HETATM    7  O10 UNL     1     -33.681   8.174  -0.457  1.00 20.00    -0.294 OA
ENDBRANCH   4   5
ENDBRANCH   1   3
BRANCH   2   8
HETATM    8  C5  UNL     1     -34.679   5.140   3.773  1.00 20.00    -0.004 C 
HETATM    9  C6  UNL     1     -35.047   5.446   5.027  1.00 20.00    -0.031 C 
HETATM   10  C8  UNL     1     -34.277   6.196   6.065  1.00 20.00     0.036 C 
ENDBRANCH   2   8
TORSDOF 3
ENDMDL
MODEL 3
REMARK VINA RESULT:      -4.5     11.085     11.718
REMARK  3 active torsions:
REMARK  status: ('A' for Active; 'I' for Inactive)
REMARK    1  A    between atoms: C1_1  and  C3_3 
REMARK    2  A    between atoms: C2_2  and  C5_5 
REMARK    3  A    between atoms: C4_4  and  C7_7 
ROOT
HETATM    1  C1  UNL     1     -33.882  15.326  -4.722  1.00 20.00     0.000 C 
HETATM    2  C2  UNL     1     -33.862  16.539  -4.147  1.00 20.00    -0.000 C 
ENDROOT
BRANCH   1   3
HETATM    3  C3  UNL     1     -34.528  15.064  -5.991  1.00 20.00     0.004 C 
HETATM    4  C4  UNL     1     -35.640  14.325  -6.096  1.00 20.00     0.049 C 
BRANCH   4   5
HETATM    5  C7  UNL     1     -36.272  13.730  -4.885  1.00 20.00     0.145 C 
HETATM    6  C9  UNL     1     -37.397  14.512  -4.260  1.00 20.00     0.096 C 
HETATM    7  O10 UNL     1     -35.920  12.645  -4.428  1.00 20.00    -0.294 OA
ENDBRANCH   4   5
ENDBRANCH   1   3
BRANCH   2   8
HETATM    8  C5  UNL     1     -33.216  16.793  -2.878  1.00 20.00    -0.004 C 
HETATM    9  C6  UNL     1     -33.807  16.883  -1.677  1.00 20.00    -0.031 C 
HETATM   10  C8  UNL     1     -35.257  16.744  -1.341  1.00 20.00     0.036 C 
ENDBRANCH   2   8
TORSDOF 3
ENDMDL
MODEL 4
REMARK VINA RESULT:      -4.5     10.706     11.693
REMARK  3 active torsions:
REMARK  status: ('A' for Active; 'I' for Inactive)
REMARK    1  A    between atoms: C1_1  and  C3_3 
REMARK    2  A    between atoms: C2_2  and  C5_5 
REMARK    3  A    between atoms: C4_4  and  C7_7 
ROOT
HETATM    1  C1  UNL     1     -35.012  15.337  -2.855  1.00 20.00     0.000 C 
HETATM    2  C2  UNL     1     -34.074  16.194  -2.421  1.00 20.00    -0.000 C 
ENDROOT
BRANCH   1   3
HETATM    3  C3  UNL     1     -34.747  14.307  -3.838  1.00 20.00     0.004 C 
HETATM    4  C4  UNL     1     -35.671  13.889  -4.712  1.00 20.00     0.049 C 
BRANCH   4   5
HETATM    5  C7  UNL     1     -37.038  14.480  -4.710  1.00 20.00     0.145 C 
HETATM    6  C9  UNL     1     -37.190  15.830  -5.360  1.00 20.00     0.096 C 
HETATM    7  O10 UNL     1     -38.006  13.892  -4.232  1.00 20.00    -0.294 OA
ENDBRANCH   4   5
ENDBRANCH   1   3
BRANCH   2   8
HETATM    8  C5  UNL     1     -34.347  17.221  -1.440  1.00 20.00    -0.004 C 
HETATM    9  C6  UNL     1     -33.463  18.076  -0.902  1.00 20.00    -0.031 C 
HETATM   10  C8  UNL     1     -31.998  18.191  -1.171  1.00 20.00     0.036 C 
ENDBRANCH   2   8
TORSDOF 3
ENDMDL
MODEL 5
REMARK VINA RESULT:      -4.5     10.968     12.056
REMARK  3 active torsions:
REMARK  status: ('A' for Active; 'I' for Inactive)
REMARK    1  A    between atoms: C1_1  and  C3_3 
REMARK    2  A    between atoms: C2_2  and  C5_5 
REMARK    3  A    between atoms: C4_4  and  C7_7 
ROOT
HETATM    1  C1  UNL     1     -33.517  16.588  -2.432  1.00 20.00     0.000 C 
HETATM    2  C2  UNL     1     -33.285  17.585  -1.563  1.00 20.00    -0.000 C 
ENDROOT
BRANCH   1   3
HETATM    3  C3  UNL     1     -34.740  15.813  -2.438  1.00 20.00     0.004 C 
HETATM    4  C4  UNL     1     -35.029  14.928  -3.400  1.00 20.00     0.049 C 
BRANCH   4   5
HETATM    5  C7  UNL     1     -34.084  14.699  -4.528  1.00 20.00     0.145 C 
HETATM    6  C9  UNL     1     -34.280  15.549  -5.755  1.00 20.00     0.096 C 
HETATM    7  O10 UNL     1     -33.169  13.881  -4.461  1.00 20.00    -0.294 OA
ENDBRANCH   4   5
ENDBRANCH   1   3
BRANCH   2   8
HETATM    8  C5  UNL     1     -32.060  18.354  -1.563  1.00 20.00    -0.004 C 
HETATM    9  C6  UNL     1     -31.293  18.646  -0.501  1.00 20.00    -0.031 C 
HETATM   10  C8  UNL     1     -31.497  18.260   0.928  1.00 20.00     0.036 C 
ENDBRANCH   2   8
TORSDOF 3
ENDMDL
MODEL 6
REMARK VINA RESULT:      -4.4     10.876     11.536
REMARK  3 active torsions:
REMARK  status: ('A' for Active; 'I' for Inactive)
REMARK    1  A    between atoms: C1_1  and  C3_3 
REMARK    2  A    between atoms: C2_2  and  C5_5 
REMARK    3  A    between atoms: C4_4  and  C7_7 
ROOT
HETATM    1  C1  UNL     1     -34.752  15.596  -2.564  1.00 20.00     0.000 C 
HETATM    2  C2  UNL     1     -34.603  16.701  -1.816  1.00 20.00    -0.000 C 
ENDROOT
BRANCH   1   3
HETATM    3  C3  UNL     1     -34.011  15.363  -3.786  1.00 20.00     0.004 C 
HETATM    4  C4  UNL     1     -34.478  14.593  -4.778  1.00 20.00     0.049 C 
BRANCH   4   5
HETATM    5  C7  UNL     1     -35.808  13.932  -4.662  1.00 20.00     0.145 C 
HETATM    6  C9  UNL     1     -37.015  14.798  -4.911  1.00 20.00     0.096 C 
HETATM    7  O10 UNL     1     -35.925  12.736  -4.405  1.00 20.00    -0.294 OA
ENDBRANCH   4   5
ENDBRANCH   1   3
BRANCH   2   8
HETATM    8  C5  UNL     1     -35.348  16.927  -0.597  1.00 20.00    -0.004 C 
HETATM    9  C6  UNL     1     -34.934  17.603   0.486  1.00 20.00    -0.031 C 
HETATM   10  C8  UNL     1     -33.625  18.288   0.711  1.00 20.00     0.036 C 
ENDBRANCH   2   8
TORSDOF 3
ENDMDL
MODEL 7
REMARK VINA RESULT:      -4.3      1.772      4.827
REMARK  3 active torsions:
REMARK  status: ('A' for Active; 'I' for Inactive)
REMARK    1  A    between atoms: C1_1  and  C3_3 
REMARK    2  A    between atoms: C2_2  and  C5_5 
REMARK    3  A    between atoms: C4_4  and  C7_7 
ROOT
HETATM    1  C1  UNL     1     -34.078   5.414   3.415  1.00 20.00     0.000 C 
HETATM    2  C2  UNL     1     -34.394   4.500   4.347  1.00 20.00    -0.000 C 
ENDROOT
BRANCH   1   3
HETATM    3  C3  UNL     1     -33.438   5.075   2.162  1.00 20.00     0.004 C 
HETATM    4  C4  UNL     1     -32.654   5.933   1.497  1.00 20.00     0.049 C 
BRANCH   4   5
HETATM    5  C7  UNL     1     -32.402   7.300   2.032  1.00 20.00     0.145 C 
HETATM    6  C9  UNL     1     -32.831   8.453   1.163  1.00 20.00     0.096 C 
HETATM    7  O10 UNL     1     -31.898   7.490   3.136  1.00 20.00    -0.294 OA
ENDBRANCH   4   5
ENDBRANCH   1   3
BRANCH   2   8
HETATM    8  C5  UNL     1     -35.033   4.846   5.597  1.00 20.00    -0.004 C 
HETATM    9  C6  UNL     1     -34.784   5.924   6.357  1.00 20.00    -0.031 C 
HETATM   10  C8  UNL     1     -33.805   7.026   6.116  1.00 20.00     0.036 C 
ENDBRANCH   2   8
TORSDOF 3
ENDMDL
MODEL 8
REMARK VINA RESULT:      -4.2      1.536      2.043
REMARK  3 active torsions:
REMARK  status: ('A' for Active; 'I' for Inactive)
REMARK    1  A    between atoms: C1_1  and  C3_3 
REMARK    2  A    between atoms: C2_2  and  C5_5 
REMARK    3  A    between atoms: C4_4  and  C7_7 
ROOT
HETATM    1  C1  UNL     1     -33.290   7.050   3.739  1.00 20.00     0.000 C 
HETATM    2  C2  UNL     1     -32.252   7.469   2.998  1.00 20.00    -0.000 C 
ENDROOT
BRANCH   1   3
HETATM    3  C3  UNL     1     -33.387   7.281   5.165  1.00 20.00     0.004 C 
HETATM    4  C4  UNL     1     -34.081   6.477   5.981  1.00 20.00     0.049 C 
BRANCH   4   5
HETATM    5  C7  UNL     1     -34.793   5.285   5.444  1.00 20.00     0.145 C 
HETATM    6  C9  UNL     1     -35.647   5.504   4.222  1.00 20.00     0.096 C 
HETATM    7  O10 UNL     1     -34.676   4.169   5.946  1.00 20.00    -0.294 OA
ENDBRANCH   4   5
ENDBRANCH   1   3
BRANCH   2   8
HETATM    8  C5  UNL     1     -32.160   7.233   1.574  1.00 20.00    -0.004 C 
HETATM    9  C6  UNL     1     -32.501   8.083   0.593  1.00 20.00    -0.031 C 
HETATM   10  C8  UNL     1     -33.050   9.468   0.712  1.00 20.00     0.036 C 
ENDBRANCH   2   8
TORSDOF 3
ENDMDL
MODEL 9
REMARK VINA RESULT:      -4.2     10.825     11.566
REMARK  3 active torsions:
REMARK  status: ('A' for Active; 'I' for Inactive)
REMARK    1  A    between atoms: C1_1  and  C3_3 
REMARK    2  A    between atoms: C2_2  and  C5_5 
REMARK    3  A    between atoms: C4_4  and  C7_7 
ROOT
HETATM    1  C1  UNL     1     -34.689  15.592  -2.599  1.00 20.00     0.000 C 
HETATM    2  C2  UNL     1     -34.498  16.735  -1.922  1.00 20.00    -0.000 C 
ENDROOT
BRANCH   1   3
HETATM    3  C3  UNL     1     -34.078  15.323  -3.884  1.00 20.00     0.004 C 
HETATM    4  C4  UNL     1     -34.641  14.520  -4.797  1.00 20.00     0.049 C 
BRANCH   4   5
HETATM    5  C7  UNL     1     -35.947  13.858  -4.522  1.00 20.00     0.145 C 
HETATM    6  C9  UNL     1     -37.171  14.734  -4.578  1.00 20.00     0.096 C 
HETATM    7  O10 UNL     1     -36.036  12.655  -4.289  1.00 20.00    -0.294 OA
ENDBRANCH   4   5
ENDBRANCH   1   3
BRANCH   2   8
HETATM    8  C5  UNL     1     -35.113  16.997  -0.640  1.00 20.00    -0.004 C 
HETATM    9  C6  UNL     1     -36.280  17.622  -0.419  1.00 20.00    -0.031 C 
HETATM   10  C8  UNL     1     -37.232  18.196  -1.418  1.00 20.00     0.036 C 
ENDBRANCH   2   8
TORSDOF 3
ENDMDL
