MODEL 1
REMARK VINA RESULT:      -4.5      0.000      0.000
REMARK  1 active torsions:
REMARK  status: ('A' for Active; 'I' for Inactive)
REMARK    1  A    between atoms: C4_4  and  O11_11 
ROOT
HETATM    1  C1  UNL     1     -33.129  15.461  -3.760  1.00 20.00    -0.021 C 
HETATM    2  C2  UNL     1     -34.237  14.722  -3.588  1.00 20.00    -0.025 C 
HETATM    3  C3  UNL     1     -33.882  17.067  -2.067  1.00 20.00    -0.043 C 
HETATM    4  C4  UNL     1     -33.243  17.812  -1.162  1.00 20.00     0.045 C 
HETATM    5  C5  UNL     1     -35.147  16.249  -1.836  1.00 20.00     0.046 C 
HETATM    6  C6  UNL     1     -34.928  16.862  -4.127  1.00 20.00     0.022 C 
HETATM    7  C7  UNL     1     -33.516  16.904  -3.533  1.00 20.00     0.040 C 
HETATM    8  C8  UNL     1     -35.368  15.677  -3.258  1.00 20.00     0.013 C 
HETATM    9  C9  UNL     1     -32.001  18.594  -1.456  1.00 20.00     0.076 C 
ENDROOT
BRANCH   4  10
HETATM   10  O11 UNL     1     -33.722  17.896   0.133  1.00 20.00    -0.360 OA
HETATM   11  C10 UNL     1     -32.851  18.600   0.984  1.00 20.00     0.209 C 
ENDBRANCH   4  10
TORSDOF 1
ENDMDL
MODEL 2
REMARK VINA RESULT:      -4.5      1.221      2.430
REMARK  1 active torsions:
REMARK  status: ('A' for Active; 'I' for Inactive)
REMARK    1  A    between atoms: C4_4  and  O11_11 
ROOT
HETATM    1  C1  UNL     1     -35.663  15.750  -4.797  1.00 20.00    -0.021 C 
HETATM    2  C2  UNL     1     -34.603  15.477  -5.578  1.00 20.00    -0.025 C 
HETATM    3  C3  UNL     1     -34.207  16.039  -2.845  1.00 20.00    -0.043 C 
HETATM    4  C4  UNL     1     -34.254  16.837  -1.776  1.00 20.00     0.045 C 
HETATM    5  C5  UNL     1     -32.980  15.745  -3.701  1.00 20.00     0.046 C 
HETATM    6  C6  UNL     1     -34.560  13.967  -3.826  1.00 20.00     0.022 C 
HETATM    7  C7  UNL     1     -35.348  15.217  -3.418  1.00 20.00     0.040 C 
HETATM    8  C8  UNL     1     -33.588  14.748  -4.719  1.00 20.00     0.013 C 
HETATM    9  C9  UNL     1     -35.495  17.084  -0.978  1.00 20.00     0.076 C 
ENDROOT
BRANCH   4  10
HETATM   10  O11 UNL     1     -33.115  17.494  -1.347  1.00 20.00    -0.360 OA
HETATM   11  C10 UNL     1     -33.349  18.293  -0.213  1.00 20.00     0.209 C 
ENDBRANCH   4  10
TORSDOF 1
ENDMDL
MODEL 3
REMARK VINA RESULT:      -4.4      2.323      4.302
REMARK  1 active torsions:
REMARK  status: ('A' for Active; 'I' for Inactive)
REMARK    1  A    between atoms: C4_4  and  O11_11 
ROOT
HETATM    1  C1  UNL     1     -34.434  18.222  -3.691  1.00 20.00    -0.021 C 
HETATM    2  C2  UNL     1     -34.992  18.302  -2.471  1.00 20.00    -0.025 C 
HETATM    3  C3  UNL     1     -34.229  15.788  -3.488  1.00 20.00    -0.043 C 
HETATM    4  C4  UNL     1     -34.312  14.784  -4.366  1.00 20.00     0.045 C 
HETATM    5  C5  UNL     1     -34.868  15.836  -2.106  1.00 20.00     0.046 C 
HETATM    6  C6  UNL     1     -32.951  17.245  -2.214  1.00 20.00     0.022 C 
HETATM    7  C7  UNL     1     -33.447  17.079  -3.655  1.00 20.00     0.040 C 
HETATM    8  C8  UNL     1     -34.364  17.217  -1.618  1.00 20.00     0.013 C 
HETATM    9  C9  UNL     1     -33.657  14.801  -5.711  1.00 20.00     0.076 C 
ENDROOT
BRANCH   4  10
HETATM   10  O11 UNL     1     -35.033  13.646  -4.055  1.00 20.00    -0.360 OA
HETATM   11  C10 UNL     1     -36.300  13.628  -4.665  1.00 20.00     0.209 C 
ENDBRANCH   4  10
TORSDOF 1
ENDMDL
MODEL 4
REMARK VINA RESULT:      -4.2      3.136      5.093
REMARK  1 active torsions:
REMARK  status: ('A' for Active; 'I' for Inactive)
REMARK    1  A    between atoms: C4_4  and  O11_11 
ROOT
HETATM    1  C1  UNL     1     -33.060  15.552  -3.738  1.00 20.00    -0.021 C 
HETATM    2  C2  UNL     1     -33.872  16.004  -2.767  1.00 20.00    -0.025 C 
HETATM    3  C3  UNL     1     -34.866  15.723  -5.389  1.00 20.00    -0.043 C 
HETATM    4  C4  UNL     1     -34.894  16.025  -6.689  1.00 20.00     0.045 C 
HETATM    5  C5  UNL     1     -35.813  16.248  -4.317  1.00 20.00     0.046 C 
HETATM    6  C6  UNL     1     -34.891  14.144  -3.690  1.00 20.00     0.022 C 
HETATM    7  C7  UNL     1     -33.915  14.759  -4.699  1.00 20.00     0.040 C 
HETATM    8  C8  UNL     1     -35.268  15.498  -3.076  1.00 20.00     0.013 C 
HETATM    9  C9  UNL     1     -33.931  15.473  -7.691  1.00 20.00     0.076 C 
ENDROOT
BRANCH   4  10
HETATM   10  O11 UNL     1     -35.850  16.895  -7.180  1.00 20.00    -0.360 OA
HETATM   11  C10 UNL     1     -36.851  16.235  -7.915  1.00 20.00     0.209 C 
ENDBRANCH   4  10
TORSDOF 1
ENDMDL
MODEL 5
REMARK VINA RESULT:      -4.2      1.125      2.203
REMARK  1 active torsions:
REMARK  status: ('A' for Active; 'I' for Inactive)
REMARK    1  A    between atoms: C4_4  and  O11_11 
ROOT
HETATM    1  C1  UNL     1     -35.765  16.570  -4.108  1.00 20.00    -0.021 C 
HETATM    2  C2  UNL     1     -34.687  16.477  -4.905  1.00 20.00    -0.025 C 
HETATM    3  C3  UNL     1     -34.339  16.660  -2.115  1.00 20.00    -0.043 C 
HETATM    4  C4  UNL     1     -34.441  17.290  -0.943  1.00 20.00     0.045 C 
HETATM    5  C5  UNL     1     -33.093  16.567  -2.987  1.00 20.00     0.046 C 
HETATM    6  C6  UNL     1     -34.560  14.735  -3.390  1.00 20.00     0.022 C 
HETATM    7  C7  UNL     1     -35.425  15.863  -2.817  1.00 20.00     0.040 C 
HETATM    8  C8  UNL     1     -33.633  15.694  -4.147  1.00 20.00     0.013 C 
HETATM    9  C9  UNL     1     -35.699  17.343  -0.134  1.00 20.00     0.076 C 
ENDROOT
BRANCH   4  10
HETATM   10  O11 UNL     1     -33.347  17.945  -0.407  1.00 20.00    -0.360 OA
HETATM   11  C10 UNL     1     -33.614  18.493   0.861  1.00 20.00     0.209 C 
ENDBRANCH   4  10
TORSDOF 1
ENDMDL
MODEL 6
REMARK VINA RESULT:      -4.2      3.307      5.033
REMARK  1 active torsions:
REMARK  status: ('A' for Active; 'I' for Inactive)
REMARK    1  A    between atoms: C4_4  and  O11_11 
ROOT
HETATM    1  C1  UNL     1     -34.136  16.649  -4.124  1.00 20.00    -0.021 C 
HETATM    2  C2  UNL     1     -33.473  15.706  -3.434  1.00 20.00    -0.025 C 
HETATM    3  C3  UNL     1     -35.875  15.036  -4.745  1.00 20.00    -0.043 C 
HETATM    4  C4  UNL     1     -37.192  15.138  -4.940  1.00 20.00     0.045 C 
HETATM    5  C5  UNL     1     -35.158  13.943  -3.963  1.00 20.00     0.046 C 
HETATM    6  C6  UNL     1     -33.720  14.915  -5.593  1.00 20.00     0.022 C 
HETATM    7  C7  UNL     1     -34.801  15.960  -5.293  1.00 20.00     0.040 C 
HETATM    8  C8  UNL     1     -33.687  14.388  -4.153  1.00 20.00     0.013 C 
HETATM    9  C9  UNL     1     -37.834  16.241  -5.721  1.00 20.00     0.076 C 
ENDROOT
BRANCH   4  10
HETATM   10  O11 UNL     1     -38.049  14.192  -4.408  1.00 20.00    -0.360 OA
HETATM   11  C10 UNL     1     -39.326  14.715  -4.134  1.00 20.00     0.209 C 
ENDBRANCH   4  10
TORSDOF 1
ENDMDL
MODEL 7
REMARK VINA RESULT:      -4.1      2.677      4.739
REMARK  1 active torsions:
REMARK  status: ('A' for Active; 'I' for Inactive)
REMARK    1  A    between atoms: C4_4  and  O11_11 
ROOT
HETATM    1  C1  UNL     1     -33.295  16.015  -3.044  1.00 20.00    -0.021 C 
HETATM    2  C2  UNL     1     -33.325  17.356  -2.952  1.00 20.00    -0.025 C 
HETATM    3  C3  UNL     1     -35.646  15.965  -3.738  1.00 20.00    -0.043 C 
HETATM    4  C4  UNL     1     -36.340  15.183  -4.568  1.00 20.00     0.045 C 
HETATM    5  C5  UNL     1     -35.716  17.485  -3.657  1.00 20.00     0.046 C 
HETATM    6  C6  UNL     1     -35.007  16.547  -1.586  1.00 20.00     0.022 C 
HETATM    7  C7  UNL     1     -34.670  15.513  -2.666  1.00 20.00     0.040 C 
HETATM    8  C8  UNL     1     -34.719  17.745  -2.500  1.00 20.00     0.013 C 
HETATM    9  C9  UNL     1     -36.225  13.692  -4.597  1.00 20.00     0.076 C 
ENDROOT
BRANCH   4  10
HETATM   10  O11 UNL     1     -37.229  15.741  -5.470  1.00 20.00    -0.360 OA
HETATM   11  C10 UNL     1     -36.668  15.901  -6.750  1.00 20.00     0.209 C 
ENDBRANCH   4  10
TORSDOF 1
ENDMDL
MODEL 8
REMARK VINA RESULT:      -4.1     15.331     16.085
REMARK  1 active torsions:
REMARK  status: ('A' for Active; 'I' for Inactive)
REMARK    1  A    between atoms: C4_4  and  O11_11 
ROOT
HETATM    1  C1  UNL     1     -22.831  16.483   9.139  1.00 20.00    -0.021 C 
HETATM    2  C2  UNL     1     -22.422  17.360   8.207  1.00 20.00    -0.025 C 
HETATM    3  C3  UNL     1     -24.072  18.242  10.314  1.00 20.00    -0.043 C 
HETATM    4  C4  UNL     1     -25.213  18.252  11.006  1.00 20.00     0.045 C 
HETATM    5  C5  UNL     1     -23.637  19.263   9.270  1.00 20.00     0.046 C 
HETATM    6  C6  UNL     1     -21.754  18.193  10.259  1.00 20.00     0.022 C 
HETATM    7  C7  UNL     1     -22.939  17.238  10.443  1.00 20.00     0.040 C 
HETATM    8  C8  UNL     1     -22.244  18.699   8.896  1.00 20.00     0.013 C 
HETATM    9  C9  UNL     1     -25.580  17.215  12.021  1.00 20.00     0.076 C 
ENDROOT
BRANCH   4  10
HETATM   10  O11 UNL     1     -26.139  19.260  10.807  1.00 20.00    -0.360 OA
HETATM   11  C10 UNL     1     -27.334  19.043  11.517  1.00 20.00     0.209 C 
ENDBRANCH   4  10
TORSDOF 1
ENDMDL
MODEL 9
REMARK VINA RESULT:      -4.0      2.332      4.537
REMARK  1 active torsions:
REMARK  status: ('A' for Active; 'I' for Inactive)
REMARK    1  A    between atoms: C4_4  and  O11_11 
ROOT
HETATM    1  C1  UNL     1     -35.140  16.503  -1.249  1.00 20.00    -0.021 C 
HETATM    2  C2  UNL     1     -34.059  17.296  -1.158  1.00 20.00    -0.025 C 
HETATM    3  C3  UNL     1     -34.592  15.946  -3.573  1.00 20.00    -0.043 C 
HETATM    4  C4  UNL     1     -34.742  14.844  -4.312  1.00 20.00     0.045 C 
HETATM    5  C5  UNL     1     -33.350  16.827  -3.504  1.00 20.00     0.046 C 
HETATM    6  C6  UNL     1     -35.310  18.061  -2.947  1.00 20.00     0.022 C 
HETATM    7  C7  UNL     1     -35.635  16.588  -2.674  1.00 20.00     0.040 C 
HETATM    8  C8  UNL     1     -33.842  17.919  -2.523  1.00 20.00     0.013 C 
HETATM    9  C9  UNL     1     -35.992  14.022  -4.333  1.00 20.00     0.076 C 
ENDROOT
BRANCH   4  10
HETATM   10  O11 UNL     1     -33.709  14.400  -5.118  1.00 20.00    -0.360 OA
HETATM   11  C10 UNL     1     -33.818  14.868  -6.440  1.00 20.00     0.209 C 
ENDBRANCH   4  10
TORSDOF 1
ENDMDL
