MODEL 1
REMARK VINA RESULT:      -3.9      0.000      0.000
REMARK  1 active torsions:
REMARK  status: ('A' for Active; 'I' for Inactive)
REMARK    1  A    between atoms: C1_1  and  C2_2 
ROOT
HETATM    1  C1  UNL     1     -34.996   4.966   4.697  1.00 20.00     0.326 C 
HETATM    2  O3  UNL     1     -34.461   4.032   4.119  1.00 20.00    -0.257 OA
HETATM    3  F4  UNL     1     -36.002   5.585   4.065  1.00 20.00    -0.162 F 
ENDROOT
BRANCH   1   4
HETATM    4  C2  UNL     1     -34.620   5.470   6.051  1.00 20.00     0.338 C 
HETATM    5  F5  UNL     1     -34.250   6.776   6.008  1.00 20.00    -0.245 F 
ENDBRANCH   1   4
TORSDOF 1
ENDMDL
MODEL 2
REMARK VINA RESULT:      -3.6      1.265      1.405
REMARK  1 active torsions:
REMARK  status: ('A' for Active; 'I' for Inactive)
REMARK    1  A    between atoms: C1_1  and  C2_2 
ROOT
HETATM    1  C1  UNL     1     -34.742   5.206   5.053  1.00 20.00     0.326 C 
HETATM    2  O3  UNL     1     -34.858   4.251   4.299  1.00 20.00    -0.257 OA
HETATM    3  F4  UNL     1     -35.231   5.071   6.293  1.00 20.00    -0.162 F 
ENDROOT
BRANCH   1   4
HETATM    4  C2  UNL     1     -34.100   6.507   4.705  1.00 20.00     0.338 C 
HETATM    5  F5  UNL     1     -33.898   7.271   5.808  1.00 20.00    -0.245 F 
ENDBRANCH   1   4
TORSDOF 1
ENDMDL
MODEL 3
REMARK VINA RESULT:      -3.6      2.055      2.626
REMARK  1 active torsions:
REMARK  status: ('A' for Active; 'I' for Inactive)
REMARK    1  A    between atoms: C1_1  and  C2_2 
ROOT
HETATM    1  C1  UNL     1     -34.594   5.706   5.483  1.00 20.00     0.326 C 
HETATM    2  O3  UNL     1     -33.977   6.712   5.800  1.00 20.00    -0.257 OA
HETATM    3  F4  UNL     1     -35.219   5.036   6.460  1.00 20.00    -0.162 F 
ENDROOT
BRANCH   1   4
HETATM    4  C2  UNL     1     -34.708   5.166   4.097  1.00 20.00     0.338 C 
HETATM    5  F5  UNL     1     -34.298   3.872   4.033  1.00 20.00    -0.245 F 
ENDBRANCH   1   4
TORSDOF 1
ENDMDL
MODEL 4
REMARK VINA RESULT:      -3.4      1.800      2.338
REMARK  1 active torsions:
REMARK  status: ('A' for Active; 'I' for Inactive)
REMARK    1  A    between atoms: C1_1  and  C2_2 
ROOT
HETATM    1  C1  UNL     1     -34.031   6.439   4.658  1.00 20.00     0.326 C 
HETATM    2  O3  UNL     1     -33.413   6.715   3.641  1.00 20.00    -0.257 OA
HETATM    3  F4  UNL     1     -33.872   7.250   5.712  1.00 20.00    -0.162 F 
ENDROOT
BRANCH   1   4
HETATM    4  C2  UNL     1     -34.949   5.273   4.818  1.00 20.00     0.338 C 
HETATM    5  F5  UNL     1     -35.205   5.020   6.128  1.00 20.00    -0.245 F 
ENDBRANCH   1   4
TORSDOF 1
ENDMDL
MODEL 5
REMARK VINA RESULT:      -3.4      1.722      1.957
REMARK  1 active torsions:
REMARK  status: ('A' for Active; 'I' for Inactive)
REMARK    1  A    between atoms: C1_1  and  C2_2 
ROOT
HETATM    1  C1  UNL     1     -34.716   5.317   4.969  1.00 20.00     0.326 C 
HETATM    2  O3  UNL     1     -34.956   4.282   4.366  1.00 20.00    -0.257 OA
HETATM    3  F4  UNL     1     -35.100   5.384   6.250  1.00 20.00    -0.162 F 
ENDROOT
BRANCH   1   4
HETATM    4  C2  UNL     1     -34.028   6.510   4.393  1.00 20.00     0.338 C 
HETATM    5  F5  UNL     1     -33.349   6.192   3.261  1.00 20.00    -0.245 F 
ENDBRANCH   1   4
TORSDOF 1
ENDMDL
MODEL 6
REMARK VINA RESULT:      -3.4      1.434      1.434
REMARK  1 active torsions:
REMARK  status: ('A' for Active; 'I' for Inactive)
REMARK    1  A    between atoms: C1_1  and  C2_2 
ROOT
HETATM    1  C1  UNL     1     -34.431   5.148   4.467  1.00 20.00     0.326 C 
HETATM    2  O3  UNL     1     -34.044   6.049   3.737  1.00 20.00    -0.257 OA
HETATM    3  F4  UNL     1     -34.477   3.914   3.947  1.00 20.00    -0.162 F 
ENDROOT
BRANCH   1   4
HETATM    4  C2  UNL     1     -34.854   5.312   5.888  1.00 20.00     0.338 C 
HETATM    5  F5  UNL     1     -34.516   6.537   6.368  1.00 20.00    -0.245 F 
ENDBRANCH   1   4
TORSDOF 1
ENDMDL
MODEL 7
REMARK VINA RESULT:      -3.4      1.585      1.585
REMARK  1 active torsions:
REMARK  status: ('A' for Active; 'I' for Inactive)
REMARK    1  A    between atoms: C1_1  and  C2_2 
ROOT
HETATM    1  C1  UNL     1     -34.336   5.220   3.928  1.00 20.00     0.326 C 
HETATM    2  O3  UNL     1     -35.024   4.353   4.447  1.00 20.00    -0.257 OA
HETATM    3  F4  UNL     1     -33.806   4.946   2.729  1.00 20.00    -0.162 F 
ENDROOT
BRANCH   1   4
HETATM    4  C2  UNL     1     -34.041   6.556   4.522  1.00 20.00     0.338 C 
HETATM    5  F5  UNL     1     -34.309   6.577   5.854  1.00 20.00    -0.245 F 
ENDBRANCH   1   4
TORSDOF 1
ENDMDL
MODEL 8
REMARK VINA RESULT:      -3.3      1.149      1.149
REMARK  1 active torsions:
REMARK  status: ('A' for Active; 'I' for Inactive)
REMARK    1  A    between atoms: C1_1  and  C2_2 
ROOT
HETATM    1  C1  UNL     1     -34.460   5.692   4.512  1.00 20.00     0.326 C 
HETATM    2  O3  UNL     1     -34.458   4.708   3.788  1.00 20.00    -0.257 OA
HETATM    3  F4  UNL     1     -34.234   6.879   3.934  1.00 20.00    -0.162 F 
ENDROOT
BRANCH   1   4
HETATM    4  C2  UNL     1     -34.695   5.678   5.985  1.00 20.00     0.338 C 
HETATM    5  F5  UNL     1     -34.313   6.848   6.560  1.00 20.00    -0.245 F 
ENDBRANCH   1   4
TORSDOF 1
ENDMDL
MODEL 9
REMARK VINA RESULT:      -3.1      3.800      4.293
REMARK  1 active torsions:
REMARK  status: ('A' for Active; 'I' for Inactive)
REMARK    1  A    between atoms: C1_1  and  C2_2 
ROOT
HETATM    1  C1  UNL     1     -32.536   7.016   2.585  1.00 20.00     0.326 C 
HETATM    2  O3  UNL     1     -32.548   7.648   1.539  1.00 20.00    -0.257 OA
HETATM    3  F4  UNL     1     -31.749   7.471   3.569  1.00 20.00    -0.162 F 
ENDROOT
BRANCH   1   4
HETATM    4  C2  UNL     1     -33.328   5.780   2.854  1.00 20.00     0.338 C 
HETATM    5  F5  UNL     1     -32.720   4.679   2.340  1.00 20.00    -0.245 F 
ENDBRANCH   1   4
TORSDOF 1
ENDMDL
