MODEL 1
REMARK VINA RESULT:      -3.9      0.000      0.000
REMARK  0 active torsions:
REMARK  status: ('A' for Active; 'I' for Inactive)
ROOT
HETATM    1  C1  UNL     1     -24.678  18.942   7.100  1.00 20.00     0.063 C 
HETATM    2  C2  UNL     1     -22.977  18.220   8.684  1.00 20.00     0.167 C 
HETATM    3  C3  UNL     1     -25.209  19.239   9.811  1.00 20.00     0.112 C 
HETATM    4  C4  UNL     1     -25.036  19.245   5.667  1.00 20.00     0.078 C 
HETATM    5  C5  UNL     1     -22.020  17.039   8.514  1.00 20.00     0.046 C 
HETATM    6  C6  UNL     1     -26.259  19.261  10.916  1.00 20.00     0.033 C 
HETATM    7  N7  UNL     1     -23.484  18.552   7.355  1.00 20.00    -0.272 NA
HETATM    8  S8  UNL     1     -26.025  19.152   8.201  1.00 20.00    -0.100 SA
HETATM    9  S9  UNL     1     -24.121  17.814  10.036  1.00 20.00    -0.127 SA
ENDROOT
TORSDOF 0
ENDMDL
MODEL 2
REMARK VINA RESULT:      -3.4     11.975     13.694
REMARK  0 active torsions:
REMARK  status: ('A' for Active; 'I' for Inactive)
ROOT
HETATM    1  C1  UNL     1     -33.512  16.668  -2.452  1.00 20.00     0.063 C 
HETATM    2  C2  UNL     1     -32.637  18.419  -1.005  1.00 20.00     0.167 C 
HETATM    3  C3  UNL     1     -35.297  18.005  -0.793  1.00 20.00     0.112 C 
HETATM    4  C4  UNL     1     -33.269  15.733  -3.610  1.00 20.00     0.078 C 
HETATM    5  C5  UNL     1     -31.261  18.443  -0.339  1.00 20.00     0.046 C 
HETATM    6  C6  UNL     1     -36.579  17.936   0.029  1.00 20.00     0.033 C 
HETATM    7  N7  UNL     1     -32.564  17.455  -2.101  1.00 20.00    -0.272 NA
HETATM    8  S8  UNL     1     -35.105  16.480  -1.744  1.00 20.00    -0.100 SA
HETATM    9  S9  UNL     1     -33.882  18.236   0.306  1.00 20.00    -0.127 SA
ENDROOT
TORSDOF 0
ENDMDL
MODEL 3
REMARK VINA RESULT:      -3.3     16.316     18.156
REMARK  0 active torsions:
REMARK  status: ('A' for Active; 'I' for Inactive)
ROOT
HETATM    1  C1  UNL     1     -35.723  15.034  -6.412  1.00 20.00     0.063 C 
HETATM    2  C2  UNL     1     -36.983  14.521  -4.393  1.00 20.00     0.167 C 
HETATM    3  C3  UNL     1     -34.430  15.292  -3.966  1.00 20.00     0.112 C 
HETATM    4  C4  UNL     1     -35.651  14.977  -7.917  1.00 20.00     0.078 C 
HETATM    5  C5  UNL     1     -38.476  14.761  -4.169  1.00 20.00     0.046 C 
HETATM    6  C6  UNL     1     -33.373  16.024  -3.146  1.00 20.00     0.033 C 
HETATM    7  N7  UNL     1     -36.759  14.545  -5.837  1.00 20.00    -0.272 NA
HETATM    8  S8  UNL     1     -34.333  15.821  -5.691  1.00 20.00    -0.100 SA
HETATM    9  S9  UNL     1     -36.071  15.647  -3.297  1.00 20.00    -0.127 SA
ENDROOT
TORSDOF 0
ENDMDL
MODEL 4
REMARK VINA RESULT:      -3.2     14.903     16.726
REMARK  0 active torsions:
REMARK  status: ('A' for Active; 'I' for Inactive)
ROOT
HETATM    1  C1  UNL     1     -34.483  16.600  -5.795  1.00 20.00     0.063 C 
HETATM    2  C2  UNL     1     -34.886  14.619  -4.439  1.00 20.00     0.167 C 
HETATM    3  C3  UNL     1     -33.512  16.581  -3.191  1.00 20.00     0.112 C 
HETATM    4  C4  UNL     1     -34.517  17.236  -7.162  1.00 20.00     0.078 C 
HETATM    5  C5  UNL     1     -36.119  13.718  -4.492  1.00 20.00     0.046 C 
HETATM    6  C6  UNL     1     -33.169  17.390  -1.945  1.00 20.00     0.033 C 
HETATM    7  N7  UNL     1     -34.859  15.380  -5.686  1.00 20.00    -0.272 NA
HETATM    8  S8  UNL     1     -33.943  17.701  -4.541  1.00 20.00    -0.100 SA
HETATM    9  S9  UNL     1     -34.894  15.473  -2.835  1.00 20.00    -0.127 SA
ENDROOT
TORSDOF 0
ENDMDL
MODEL 5
REMARK VINA RESULT:      -3.2     15.289     16.965
REMARK  0 active torsions:
REMARK  status: ('A' for Active; 'I' for Inactive)
ROOT
HETATM    1  C1  UNL     1     -35.347  16.320  -2.343  1.00 20.00     0.063 C 
HETATM    2  C2  UNL     1     -34.528  14.736  -4.000  1.00 20.00     0.167 C 
HETATM    3  C3  UNL     1     -36.947  15.799  -4.554  1.00 20.00     0.112 C 
HETATM    4  C4  UNL     1     -35.189  16.922  -0.969  1.00 20.00     0.078 C 
HETATM    5  C5  UNL     1     -33.070  14.522  -4.407  1.00 20.00     0.046 C 
HETATM    6  C6  UNL     1     -37.981  16.329  -5.541  1.00 20.00     0.033 C 
HETATM    7  N7  UNL     1     -34.513  15.418  -2.707  1.00 20.00    -0.272 NA
HETATM    8  S8  UNL     1     -36.680  17.015  -3.245  1.00 20.00    -0.100 SA
HETATM    9  S9  UNL     1     -35.397  15.464  -5.419  1.00 20.00    -0.127 SA
ENDROOT
TORSDOF 0
ENDMDL
MODEL 6
REMARK VINA RESULT:      -3.2     15.714     17.605
REMARK  0 active torsions:
REMARK  status: ('A' for Active; 'I' for Inactive)
ROOT
HETATM    1  C1  UNL     1     -34.270  15.877  -3.777  1.00 20.00     0.063 C 
HETATM    2  C2  UNL     1     -34.527  14.823  -5.956  1.00 20.00     0.167 C 
HETATM    3  C3  UNL     1     -36.745  14.785  -4.415  1.00 20.00     0.112 C 
HETATM    4  C4  UNL     1     -33.336  16.457  -2.745  1.00 20.00     0.078 C 
HETATM    5  C5  UNL     1     -33.847  15.249  -7.256  1.00 20.00     0.046 C 
HETATM    6  C6  UNL     1     -38.258  14.857  -4.247  1.00 20.00     0.033 C 
HETATM    7  N7  UNL     1     -33.764  15.417  -4.861  1.00 20.00    -0.272 NA
HETATM    8  S8  UNL     1     -35.955  15.970  -3.302  1.00 20.00    -0.100 SA
HETATM    9  S9  UNL     1     -36.306  15.152  -6.129  1.00 20.00    -0.127 SA
ENDROOT
TORSDOF 0
ENDMDL
MODEL 7
REMARK VINA RESULT:      -3.1     15.776     17.846
REMARK  0 active torsions:
REMARK  status: ('A' for Active; 'I' for Inactive)
ROOT
HETATM    1  C1  UNL     1     -35.125  15.949  -3.206  1.00 20.00     0.063 C 
HETATM    2  C2  UNL     1     -37.020  15.465  -4.654  1.00 20.00     0.167 C 
HETATM    3  C3  UNL     1     -34.630  15.532  -5.909  1.00 20.00     0.112 C 
HETATM    4  C4  UNL     1     -34.640  16.410  -1.855  1.00 20.00     0.078 C 
HETATM    5  C5  UNL     1     -38.276  14.679  -4.275  1.00 20.00     0.046 C 
HETATM    6  C6  UNL     1     -33.661  15.022  -6.970  1.00 20.00     0.033 C 
HETATM    7  N7  UNL     1     -36.389  15.888  -3.406  1.00 20.00    -0.272 NA
HETATM    8  S8  UNL     1     -33.817  15.528  -4.295  1.00 20.00    -0.100 SA
HETATM    9  S9  UNL     1     -36.097  14.479  -5.869  1.00 20.00    -0.127 SA
ENDROOT
TORSDOF 0
ENDMDL
MODEL 8
REMARK VINA RESULT:      -3.0     16.056     17.959
REMARK  0 active torsions:
REMARK  status: ('A' for Active; 'I' for Inactive)
ROOT
HETATM    1  C1  UNL     1     -37.143  15.590  -4.761  1.00 20.00     0.063 C 
HETATM    2  C2  UNL     1     -35.187  15.299  -3.341  1.00 20.00     0.167 C 
HETATM    3  C3  UNL     1     -34.722  14.980  -5.982  1.00 20.00     0.112 C 
HETATM    4  C4  UNL     1     -38.642  15.731  -4.851  1.00 20.00     0.078 C 
HETATM    5  C5  UNL     1     -34.888  16.049  -2.043  1.00 20.00     0.046 C 
HETATM    6  C6  UNL     1     -33.834  15.131  -7.212  1.00 20.00     0.033 C 
HETATM    7  N7  UNL     1     -36.617  15.449  -3.601  1.00 20.00    -0.272 NA
HETATM    8  S8  UNL     1     -36.352  15.680  -6.323  1.00 20.00    -0.100 SA
HETATM    9  S9  UNL     1     -33.963  15.825  -4.577  1.00 20.00    -0.127 SA
ENDROOT
TORSDOF 0
ENDMDL
MODEL 9
REMARK VINA RESULT:      -3.0     13.242     14.476
REMARK  0 active torsions:
REMARK  status: ('A' for Active; 'I' for Inactive)
ROOT
HETATM    1  C1  UNL     1     -34.875  17.321  -0.610  1.00 20.00     0.063 C 
HETATM    2  C2  UNL     1     -32.659  17.877  -1.451  1.00 20.00     0.167 C 
HETATM    3  C3  UNL     1     -33.912  15.898  -2.795  1.00 20.00     0.112 C 
HETATM    4  C4  UNL     1     -35.896  17.477   0.488  1.00 20.00     0.078 C 
HETATM    5  C5  UNL     1     -32.015  19.263  -1.466  1.00 20.00     0.046 C 
HETATM    6  C6  UNL     1     -34.239  15.156  -4.086  1.00 20.00     0.033 C 
HETATM    7  N7  UNL     1     -33.752  17.925  -0.482  1.00 20.00    -0.272 NA
HETATM    8  S8  UNL     1     -35.444  16.326  -1.937  1.00 20.00    -0.100 SA
HETATM    9  S9  UNL     1     -32.971  17.393  -3.174  1.00 20.00    -0.127 SA
ENDROOT
TORSDOF 0
ENDMDL
