MODEL 1
REMARK VINA RESULT:      -3.8      0.000      0.000
REMARK  0 active torsions:
REMARK  status: ('A' for Active; 'I' for Inactive)
ROOT
HETATM    1  C1  UNL     1     -24.347  18.661   9.454  1.00 20.00     0.302 C 
HETATM    2  C2  UNL     1     -25.461  18.867  10.456  1.00 20.00     0.201 C 
HETATM    3  C3  UNL     1     -24.046  17.236  11.241  1.00 20.00     0.253 C 
HETATM    4  C4  UNL     1     -24.620  15.872  11.635  1.00 20.00     0.081 C 
HETATM    5  C5  UNL     1     -22.761  17.512  12.033  1.00 20.00     0.081 C 
HETATM    6  C6  UNL     1     -22.652  16.951   9.193  1.00 20.00     0.314 C 
HETATM    7  N7  UNL     1     -23.935  17.300   9.777  1.00 20.00     0.120 N 
HETATM    8  O8  UNL     1     -25.000  18.240  11.659  1.00 20.00    -0.351 OA
ENDROOT
TORSDOF 0
ENDMDL
MODEL 2
REMARK VINA RESULT:      -3.7      1.346      2.507
REMARK  0 active torsions:
REMARK  status: ('A' for Active; 'I' for Inactive)
ROOT
HETATM    1  C1  UNL     1     -24.608  18.340   9.285  1.00 20.00     0.302 C 
HETATM    2  C2  UNL     1     -23.247  17.807   8.898  1.00 20.00     0.201 C 
HETATM    3  C3  UNL     1     -23.706  17.179  11.060  1.00 20.00     0.253 C 
HETATM    4  C4  UNL     1     -22.705  17.519  12.168  1.00 20.00     0.081 C 
HETATM    5  C5  UNL     1     -24.512  15.932  11.449  1.00 20.00     0.081 C 
HETATM    6  C6  UNL     1     -25.765  18.544  11.403  1.00 20.00     0.314 C 
HETATM    7  N7  UNL     1     -24.485  18.383  10.737  1.00 20.00     0.120 N 
HETATM    8  O8  UNL     1     -22.941  16.816   9.888  1.00 20.00    -0.351 OA
ENDROOT
TORSDOF 0
ENDMDL
MODEL 3
REMARK VINA RESULT:      -3.5     23.205     23.815
REMARK  0 active torsions:
REMARK  status: ('A' for Active; 'I' for Inactive)
ROOT
HETATM    1  C1  UNL     1     -42.223   8.105   0.684  1.00 20.00     0.302 C 
HETATM    2  C2  UNL     1     -41.309   8.541  -0.439  1.00 20.00     0.201 C 
HETATM    3  C3  UNL     1     -42.004   6.389  -0.840  1.00 20.00     0.253 C 
HETATM    4  C4  UNL     1     -40.958   5.297  -1.084  1.00 20.00     0.081 C 
HETATM    5  C5  UNL     1     -43.320   6.018  -1.537  1.00 20.00     0.081 C 
HETATM    6  C6  UNL     1     -43.111   5.952   1.352  1.00 20.00     0.314 C 
HETATM    7  N7  UNL     1     -42.084   6.655   0.604  1.00 20.00     0.120 N 
HETATM    8  O8  UNL     1     -41.528   7.591  -1.488  1.00 20.00    -0.351 OA
ENDROOT
TORSDOF 0
ENDMDL
MODEL 4
REMARK VINA RESULT:      -3.4     23.064     23.681
REMARK  0 active torsions:
REMARK  status: ('A' for Active; 'I' for Inactive)
ROOT
HETATM    1  C1  UNL     1     -42.613   5.408   0.784  1.00 20.00     0.302 C 
HETATM    2  C2  UNL     1     -43.417   6.427   1.561  1.00 20.00     0.201 C 
HETATM    3  C3  UNL     1     -42.233   7.510  -0.083  1.00 20.00     0.253 C 
HETATM    4  C4  UNL     1     -41.320   8.679   0.297  1.00 20.00     0.081 C 
HETATM    5  C5  UNL     1     -42.709   7.668  -1.534  1.00 20.00     0.081 C 
HETATM    6  C6  UNL     1     -40.810   5.599  -0.822  1.00 20.00     0.314 C 
HETATM    7  N7  UNL     1     -41.551   6.249   0.244  1.00 20.00     0.120 N 
HETATM    8  O8  UNL     1     -43.417   7.603   0.742  1.00 20.00    -0.351 OA
ENDROOT
TORSDOF 0
ENDMDL
MODEL 5
REMARK VINA RESULT:      -3.3      2.354      3.254
REMARK  0 active torsions:
REMARK  status: ('A' for Active; 'I' for Inactive)
ROOT
HETATM    1  C1  UNL     1     -25.304  18.989   8.336  1.00 20.00     0.302 C 
HETATM    2  C2  UNL     1     -24.375  19.119   7.150  1.00 20.00     0.201 C 
HETATM    3  C3  UNL     1     -23.237  18.126   8.881  1.00 20.00     0.253 C 
HETATM    4  C4  UNL     1     -21.911  18.731   9.351  1.00 20.00     0.081 C 
HETATM    5  C5  UNL     1     -23.262  16.622   9.186  1.00 20.00     0.081 C 
HETATM    6  C6  UNL     1     -24.941  18.457  10.671  1.00 20.00     0.314 C 
HETATM    7  N7  UNL     1     -24.344  18.921   9.432  1.00 20.00     0.120 N 
HETATM    8  O8  UNL     1     -23.277  18.246   7.440  1.00 20.00    -0.351 OA
ENDROOT
TORSDOF 0
ENDMDL
MODEL 6
REMARK VINA RESULT:      -3.3     18.133     18.904
REMARK  0 active torsions:
REMARK  status: ('A' for Active; 'I' for Inactive)
ROOT
HETATM    1  C1  UNL     1     -36.414  15.207  -5.244  1.00 20.00     0.302 C 
HETATM    2  C2  UNL     1     -36.235  13.754  -4.865  1.00 20.00     0.201 C 
HETATM    3  C3  UNL     1     -34.454  14.958  -4.056  1.00 20.00     0.253 C 
HETATM    4  C4  UNL     1     -33.030  14.522  -4.412  1.00 20.00     0.081 C 
HETATM    5  C5  UNL     1     -34.451  15.708  -2.716  1.00 20.00     0.081 C 
HETATM    6  C6  UNL     1     -34.932  17.123  -5.198  1.00 20.00     0.314 C 
HETATM    7  N7  UNL     1     -35.033  15.674  -5.202  1.00 20.00     0.120 N 
HETATM    8  O8  UNL     1     -35.231  13.756  -3.843  1.00 20.00    -0.351 OA
ENDROOT
TORSDOF 0
ENDMDL
MODEL 7
REMARK VINA RESULT:      -3.2     17.872     18.728
REMARK  0 active torsions:
REMARK  status: ('A' for Active; 'I' for Inactive)
ROOT
HETATM    1  C1  UNL     1     -33.393  15.617  -3.477  1.00 20.00     0.302 C 
HETATM    2  C2  UNL     1     -32.966  14.561  -4.472  1.00 20.00     0.201 C 
HETATM    3  C3  UNL     1     -35.239  14.854  -4.628  1.00 20.00     0.253 C 
HETATM    4  C4  UNL     1     -36.162  13.640  -4.492  1.00 20.00     0.081 C 
HETATM    5  C5  UNL     1     -35.918  15.934  -5.481  1.00 20.00     0.081 C 
HETATM    6  C6  UNL     1     -35.552  16.318  -2.633  1.00 20.00     0.314 C 
HETATM    7  N7  UNL     1     -34.795  15.266  -3.288  1.00 20.00     0.120 N 
HETATM    8  O8  UNL     1     -34.074  14.426  -5.371  1.00 20.00    -0.351 OA
ENDROOT
TORSDOF 0
ENDMDL
MODEL 8
REMARK VINA RESULT:      -3.2     18.531     19.357
REMARK  0 active torsions:
REMARK  status: ('A' for Active; 'I' for Inactive)
ROOT
HETATM    1  C1  UNL     1     -35.318  15.857  -6.627  1.00 20.00     0.302 C 
HETATM    2  C2  UNL     1     -34.006  15.176  -6.947  1.00 20.00     0.201 C 
HETATM    3  C3  UNL     1     -34.364  15.074  -4.680  1.00 20.00     0.253 C 
HETATM    4  C4  UNL     1     -33.286  15.597  -3.727  1.00 20.00     0.081 C 
HETATM    5  C5  UNL     1     -35.199  13.992  -3.982  1.00 20.00     0.081 C 
HETATM    6  C6  UNL     1     -36.339  16.592  -4.558  1.00 20.00     0.314 C 
HETATM    7  N7  UNL     1     -35.108  16.217  -5.230  1.00 20.00     0.120 N 
HETATM    8  O8  UNL     1     -33.685  14.416  -5.775  1.00 20.00    -0.351 OA
ENDROOT
TORSDOF 0
ENDMDL
MODEL 9
REMARK VINA RESULT:      -3.2     18.463     19.270
REMARK  0 active torsions:
REMARK  status: ('A' for Active; 'I' for Inactive)
ROOT
HETATM    1  C1  UNL     1     -36.333  15.281  -3.897  1.00 20.00     0.302 C 
HETATM    2  C2  UNL     1     -36.530  13.966  -4.618  1.00 20.00     0.201 C 
HETATM    3  C3  UNL     1     -34.463  14.809  -5.160  1.00 20.00     0.253 C 
HETATM    4  C4  UNL     1     -34.090  14.988  -6.634  1.00 20.00     0.081 C 
HETATM    5  C5  UNL     1     -33.195  14.602  -4.321  1.00 20.00     0.081 C 
HETATM    6  C6  UNL     1     -34.709  17.064  -4.122  1.00 20.00     0.314 C 
HETATM    7  N7  UNL     1     -35.339  15.918  -4.753  1.00 20.00     0.120 N 
HETATM    8  O8  UNL     1     -35.221  13.581  -5.055  1.00 20.00    -0.351 OA
ENDROOT
TORSDOF 0
ENDMDL
