MODEL 1
REMARK VINA RESULT:      -5.8      0.000      0.000
REMARK  1 active torsions:
REMARK  status: ('A' for Active; 'I' for Inactive)
REMARK    1  A    between atoms: C8_8  and  N9_9 
ROOT
HETATM    1  C1  UNL     1     -32.922   8.769   0.836  1.00 20.00     0.013 C 
HETATM    2  C2  UNL     1     -32.669   7.885   1.608  1.00 20.00    -0.087 C 
HETATM    3  C8  UNL     1     -32.356   6.806   2.547  1.00 20.00     0.364 C 
ENDROOT
BRANCH   3   4
HETATM    4  N9  UNL     1     -33.460   6.598   3.483  1.00 20.00     0.099 N 
HETATM    5  C6  UNL     1     -33.060   6.978   4.845  1.00 20.00     0.273 C 
HETATM    6  C4  UNL     1     -34.220   6.812   5.828  1.00 20.00     0.030 C 
HETATM    7  C3  UNL     1     -34.772   5.392   5.800  1.00 20.00     0.003 C 
HETATM    8  C5  UNL     1     -35.106   4.979   4.371  1.00 20.00     0.030 C 
HETATM    9  C7  UNL     1     -33.919   5.202   3.434  1.00 20.00     0.273 C 
ENDBRANCH   3   4
TORSDOF 1
ENDMDL
MODEL 2
REMARK VINA RESULT:      -4.5      0.741      1.829
REMARK  1 active torsions:
REMARK  status: ('A' for Active; 'I' for Inactive)
REMARK    1  A    between atoms: C8_8  and  N9_9 
ROOT
HETATM    1  C1  UNL     1     -33.142   8.312   0.699  1.00 20.00     0.013 C 
HETATM    2  C2  UNL     1     -32.561   7.904   1.668  1.00 20.00    -0.087 C 
HETATM    3  C8  UNL     1     -31.849   7.410   2.849  1.00 20.00     0.364 C 
ENDROOT
BRANCH   3   4
HETATM    4  N9  UNL     1     -32.659   6.425   3.565  1.00 20.00     0.099 N 
HETATM    5  C6  UNL     1     -33.298   5.498   2.622  1.00 20.00     0.273 C 
HETATM    6  C4  UNL     1     -34.109   4.432   3.358  1.00 20.00     0.030 C 
HETATM    7  C3  UNL     1     -35.143   5.062   4.284  1.00 20.00     0.003 C 
HETATM    8  C5  UNL     1     -34.480   6.082   5.204  1.00 20.00     0.030 C 
HETATM    9  C7  UNL     1     -33.657   7.097   4.409  1.00 20.00     0.273 C 
ENDBRANCH   3   4
TORSDOF 1
ENDMDL
MODEL 3
REMARK VINA RESULT:      -4.0     11.377     12.309
REMARK  1 active torsions:
REMARK  status: ('A' for Active; 'I' for Inactive)
REMARK    1  A    between atoms: C8_8  and  N9_9 
ROOT
HETATM    1  C1  UNL     1     -30.774  18.510   0.509  1.00 20.00     0.013 C 
HETATM    2  C2  UNL     1     -31.403  18.516  -0.514  1.00 20.00    -0.087 C 
HETATM    3  C8  UNL     1     -32.167  18.527  -1.763  1.00 20.00     0.364 C 
ENDROOT
BRANCH   3   4
HETATM    4  N9  UNL     1     -32.961  17.306  -1.894  1.00 20.00     0.099 N 
HETATM    5  C6  UNL     1     -32.917  16.809  -3.276  1.00 20.00     0.273 C 
HETATM    6  C4  UNL     1     -33.704  15.506  -3.420  1.00 20.00     0.030 C 
HETATM    7  C3  UNL     1     -35.143  15.671  -2.947  1.00 20.00     0.003 C 
HETATM    8  C5  UNL     1     -35.177  16.265  -1.543  1.00 20.00     0.030 C 
HETATM    9  C7  UNL     1     -34.345  17.544  -1.459  1.00 20.00     0.273 C 
ENDBRANCH   3   4
TORSDOF 1
ENDMDL
MODEL 4
REMARK VINA RESULT:      -3.7      9.449     10.451
REMARK  1 active torsions:
REMARK  status: ('A' for Active; 'I' for Inactive)
REMARK    1  A    between atoms: C8_8  and  N9_9 
ROOT
HETATM    1  C1  UNL     1     -42.278   2.964  -3.173  1.00 20.00     0.013 C 
HETATM    2  C2  UNL     1     -42.768   3.692  -2.352  1.00 20.00    -0.087 C 
HETATM    3  C8  UNL     1     -43.369   4.575  -1.351  1.00 20.00     0.364 C 
ENDROOT
BRANCH   3   4
HETATM    4  N9  UNL     1     -42.487   5.706  -1.063  1.00 20.00     0.099 N 
HETATM    5  C6  UNL     1     -42.056   5.678   0.341  1.00 20.00     0.273 C 
HETATM    6  C4  UNL     1     -41.094   6.827   0.647  1.00 20.00     0.030 C 
HETATM    7  C3  UNL     1     -41.710   8.176   0.294  1.00 20.00     0.003 C 
HETATM    8  C5  UNL     1     -42.228   8.165  -1.140  1.00 20.00     0.030 C 
HETATM    9  C7  UNL     1     -43.154   6.974  -1.389  1.00 20.00     0.273 C 
ENDBRANCH   3   4
TORSDOF 1
ENDMDL
MODEL 5
REMARK VINA RESULT:      -3.7     11.167     11.869
REMARK  1 active torsions:
REMARK  status: ('A' for Active; 'I' for Inactive)
REMARK    1  A    between atoms: C8_8  and  N9_9 
ROOT
HETATM    1  C1  UNL     1     -35.593  17.267   0.635  1.00 20.00     0.013 C 
HETATM    2  C2  UNL     1     -34.884  17.314  -0.333  1.00 20.00    -0.087 C 
HETATM    3  C8  UNL     1     -34.016  17.375  -1.511  1.00 20.00     0.364 C 
ENDROOT
BRANCH   3   4
HETATM    4  N9  UNL     1     -34.143  16.157  -2.311  1.00 20.00     0.099 N 
HETATM    5  C6  UNL     1     -33.133  16.134  -3.378  1.00 20.00     0.273 C 
HETATM    6  C4  UNL     1     -33.221  14.844  -4.194  1.00 20.00     0.030 C 
HETATM    7  C3  UNL     1     -34.620  14.643  -4.765  1.00 20.00     0.003 C 
HETATM    8  C5  UNL     1     -35.666  14.751  -3.661  1.00 20.00     0.030 C 
HETATM    9  C7  UNL     1     -35.501  16.044  -2.862  1.00 20.00     0.273 C 
ENDBRANCH   3   4
TORSDOF 1
ENDMDL
MODEL 6
REMARK VINA RESULT:      -3.6     11.035     11.813
REMARK  1 active torsions:
REMARK  status: ('A' for Active; 'I' for Inactive)
REMARK    1  A    between atoms: C8_8  and  N9_9 
ROOT
HETATM    1  C1  UNL     1     -35.724  13.572  -4.293  1.00 20.00     0.013 C 
HETATM    2  C2  UNL     1     -34.829  14.362  -4.160  1.00 20.00    -0.087 C 
HETATM    3  C8  UNL     1     -33.738  15.326  -4.004  1.00 20.00     0.364 C 
ENDROOT
BRANCH   3   4
HETATM    4  N9  UNL     1     -33.786  15.952  -2.684  1.00 20.00     0.099 N 
HETATM    5  C6  UNL     1     -35.177  16.221  -2.291  1.00 20.00     0.273 C 
HETATM    6  C4  UNL     1     -35.247  16.833  -0.892  1.00 20.00     0.030 C 
HETATM    7  C3  UNL     1     -34.402  18.097  -0.795  1.00 20.00     0.003 C 
HETATM    8  C5  UNL     1     -32.982  17.825  -1.282  1.00 20.00     0.030 C 
HETATM    9  C7  UNL     1     -32.982  17.183  -2.669  1.00 20.00     0.273 C 
ENDBRANCH   3   4
TORSDOF 1
ENDMDL
MODEL 7
REMARK VINA RESULT:      -3.6     11.327     12.200
REMARK  1 active torsions:
REMARK  status: ('A' for Active; 'I' for Inactive)
REMARK    1  A    between atoms: C8_8  and  N9_9 
ROOT
HETATM    1  C1  UNL     1     -36.308  15.887  -7.186  1.00 20.00     0.013 C 
HETATM    2  C2  UNL     1     -36.228  15.059  -6.320  1.00 20.00    -0.087 C 
HETATM    3  C8  UNL     1     -36.133  14.045  -5.267  1.00 20.00     0.364 C 
ENDROOT
BRANCH   3   4
HETATM    4  N9  UNL     1     -35.194  14.466  -4.228  1.00 20.00     0.099 N 
HETATM    5  C6  UNL     1     -35.796  15.502  -3.378  1.00 20.00     0.273 C 
HETATM    6  C4  UNL     1     -34.844  15.918  -2.256  1.00 20.00     0.030 C 
HETATM    7  C3  UNL     1     -33.502  16.382  -2.810  1.00 20.00     0.003 C 
HETATM    8  C5  UNL     1     -32.926  15.334  -3.756  1.00 20.00     0.030 C 
HETATM    9  C7  UNL     1     -33.938  14.936  -4.830  1.00 20.00     0.273 C 
ENDBRANCH   3   4
TORSDOF 1
ENDMDL
MODEL 8
REMARK VINA RESULT:      -3.6     11.310     11.892
REMARK  1 active torsions:
REMARK  status: ('A' for Active; 'I' for Inactive)
REMARK    1  A    between atoms: C8_8  and  N9_9 
ROOT
HETATM    1  C1  UNL     1     -38.618  15.268  -4.167  1.00 20.00     0.013 C 
HETATM    2  C2  UNL     1     -37.632  14.617  -4.382  1.00 20.00    -0.087 C 
HETATM    3  C8  UNL     1     -36.433  13.820  -4.648  1.00 20.00     0.364 C 
ENDROOT
BRANCH   3   4
HETATM    4  N9  UNL     1     -35.291  14.338  -3.894  1.00 20.00     0.099 N 
HETATM    5  C6  UNL     1     -35.683  15.517  -3.109  1.00 20.00     0.273 C 
HETATM    6  C4  UNL     1     -34.513  16.042  -2.278  1.00 20.00     0.030 C 
HETATM    7  C3  UNL     1     -33.303  16.349  -3.153  1.00 20.00     0.003 C 
HETATM    8  C5  UNL     1     -32.956  15.145  -4.022  1.00 20.00     0.030 C 
HETATM    9  C7  UNL     1     -34.176  14.648  -4.799  1.00 20.00     0.273 C 
ENDBRANCH   3   4
TORSDOF 1
ENDMDL
MODEL 9
REMARK VINA RESULT:      -3.5     11.283     13.294
REMARK  1 active torsions:
REMARK  status: ('A' for Active; 'I' for Inactive)
REMARK    1  A    between atoms: C8_8  and  N9_9 
ROOT
HETATM    1  C1  UNL     1     -34.385  15.931  -2.523  1.00 20.00     0.013 C 
HETATM    2  C2  UNL     1     -34.818  15.088  -3.262  1.00 20.00    -0.087 C 
HETATM    3  C8  UNL     1     -35.347  14.058  -4.158  1.00 20.00     0.364 C 
ENDROOT
BRANCH   3   4
HETATM    4  N9  UNL     1     -35.359  14.533  -5.541  1.00 20.00     0.099 N 
HETATM    5  C6  UNL     1     -34.001  14.892  -5.975  1.00 20.00     0.273 C 
HETATM    6  C4  UNL     1     -33.989  15.345  -7.435  1.00 20.00     0.030 C 
HETATM    7  C3  UNL     1     -34.956  16.500  -7.665  1.00 20.00     0.003 C 
HETATM    8  C5  UNL     1     -36.342  16.147  -7.137  1.00 20.00     0.030 C 
HETATM    9  C7  UNL     1     -36.280  15.669  -5.686  1.00 20.00     0.273 C 
ENDBRANCH   3   4
TORSDOF 1
ENDMDL
