MODEL 1
REMARK VINA RESULT:      -4.9      0.000      0.000
REMARK  2 active torsions:
REMARK  status: ('A' for Active; 'I' for Inactive)
REMARK    1  A    between atoms: C8_8  and  C9_9 
REMARK    2  A    between atoms: C9_9  and  N11_11 
ROOT
HETATM    1  C1  UNL     1     -22.237  17.435   8.283  1.00 20.00     0.064 C 
HETATM    2  C2  UNL     1     -23.952  16.644   9.873  1.00 20.00     0.047 C 
HETATM    3  C3  UNL     1     -22.048  18.108  10.651  1.00 20.00     0.047 C 
HETATM    4  C4  UNL     1     -24.251  16.279  11.322  1.00 20.00     0.236 C 
HETATM    5  C5  UNL     1     -22.359  17.734  12.093  1.00 20.00     0.236 C 
HETATM    6  C6  UNL     1     -22.477  17.010   9.672  1.00 20.00     0.096 C 
HETATM    7  N10 UNL     1     -22.048  17.770   7.189  1.00 20.00    -0.197 NA
HETATM    8  N11 UNL     1     -23.817  17.380  12.258  1.00 20.00    -0.071 N 
HETATM    9  H28 UNL     1     -23.899  16.970  13.234  1.00 20.00     0.279 HD
ENDROOT
BRANCH   8  10
HETATM   10  C9  UNL     1     -24.734  18.573  12.257  1.00 20.00     0.234 C 
BRANCH  10  11
HETATM   11  C8  UNL     1     -26.174  18.092  12.332  1.00 20.00     0.023 C 
HETATM   12  C7  UNL     1     -27.087  18.954  11.474  1.00 20.00     0.007 C 
ENDBRANCH  10  11
ENDBRANCH   8  10
TORSDOF 2
ENDMDL
MODEL 2
REMARK VINA RESULT:      -4.7     23.508     24.690
REMARK  2 active torsions:
REMARK  status: ('A' for Active; 'I' for Inactive)
REMARK    1  A    between atoms: C8_8  and  C9_9 
REMARK    2  A    between atoms: C9_9  and  N11_11 
ROOT
HETATM    1  C1  UNL     1     -41.448   8.966   0.321  1.00 20.00     0.064 C 
HETATM    2  C2  UNL     1     -40.826   6.907  -0.889  1.00 20.00     0.047 C 
HETATM    3  C3  UNL     1     -42.746   6.910   0.751  1.00 20.00     0.047 C 
HETATM    4  C4  UNL     1     -40.811   5.383  -0.855  1.00 20.00     0.236 C 
HETATM    5  C5  UNL     1     -42.718   5.388   0.775  1.00 20.00     0.236 C 
HETATM    6  C6  UNL     1     -41.371   7.499   0.415  1.00 20.00     0.096 C 
HETATM    7  N10 UNL     1     -41.510  10.122   0.247  1.00 20.00    -0.197 NA
HETATM    8  N11 UNL     1     -42.177   4.836  -0.522  1.00 20.00    -0.071 N 
HETATM    9  H28 UNL     1     -42.032   3.799  -0.349  1.00 20.00     0.279 HD
ENDROOT
BRANCH   8  10
HETATM   10  C9  UNL     1     -43.154   4.907  -1.665  1.00 20.00     0.234 C 
BRANCH  10  11
HETATM   11  C8  UNL     1     -43.418   3.502  -2.181  1.00 20.00     0.023 C 
HETATM   12  C7  UNL     1     -42.375   3.089  -3.208  1.00 20.00     0.007 C 
ENDBRANCH  10  11
ENDBRANCH   8  10
TORSDOF 2
ENDMDL
MODEL 3
REMARK VINA RESULT:      -4.6     17.271     18.484
REMARK  2 active torsions:
REMARK  status: ('A' for Active; 'I' for Inactive)
REMARK    1  A    between atoms: C8_8  and  C9_9 
REMARK    2  A    between atoms: C9_9  and  N11_11 
ROOT
HETATM    1  C1  UNL     1     -36.987  14.399  -4.558  1.00 20.00     0.064 C 
HETATM    2  C2  UNL     1     -34.586  14.247  -4.006  1.00 20.00     0.047 C 
HETATM    3  C3  UNL     1     -35.628  16.459  -4.636  1.00 20.00     0.047 C 
HETATM    4  C4  UNL     1     -33.202  14.844  -4.233  1.00 20.00     0.236 C 
HETATM    5  C5  UNL     1     -34.239  17.041  -4.860  1.00 20.00     0.236 C 
HETATM    6  C6  UNL     1     -35.652  14.943  -4.860  1.00 20.00     0.096 C 
HETATM    7  N10 UNL     1     -38.039  13.971  -4.321  1.00 20.00    -0.197 NA
HETATM    8  N11 UNL     1     -33.213  16.336  -4.006  1.00 20.00    -0.071 N 
HETATM    9  H28 UNL     1     -32.271  16.681  -4.354  1.00 20.00     0.279 HD
ENDROOT
BRANCH   8  10
HETATM   10  C9  UNL     1     -33.261  16.728  -2.554  1.00 20.00     0.234 C 
BRANCH  10  11
HETATM   11  C8  UNL     1     -32.654  18.112  -2.393  1.00 20.00     0.023 C 
HETATM   12  C7  UNL     1     -31.908  18.235  -1.073  1.00 20.00     0.007 C 
ENDBRANCH  10  11
ENDBRANCH   8  10
TORSDOF 2
ENDMDL
MODEL 4
REMARK VINA RESULT:      -4.1     15.697     16.945
REMARK  2 active torsions:
REMARK  status: ('A' for Active; 'I' for Inactive)
REMARK    1  A    between atoms: C8_8  and  C9_9 
REMARK    2  A    between atoms: C9_9  and  N11_11 
ROOT
HETATM    1  C1  UNL     1     -34.665  14.225  -3.863  1.00 20.00     0.064 C 
HETATM    2  C2  UNL     1     -33.206  16.213  -3.732  1.00 20.00     0.047 C 
HETATM    3  C3  UNL     1     -35.384  16.124  -2.458  1.00 20.00     0.047 C 
HETATM    4  C4  UNL     1     -33.150  17.720  -3.514  1.00 20.00     0.236 C 
HETATM    5  C5  UNL     1     -35.315  17.630  -2.248  1.00 20.00     0.236 C 
HETATM    6  C6  UNL     1     -34.648  15.692  -3.730  1.00 20.00     0.096 C 
HETATM    7  N10 UNL     1     -34.678  13.070  -3.966  1.00 20.00    -0.197 NA
HETATM    8  N11 UNL     1     -33.884  18.111  -2.254  1.00 20.00    -0.071 N 
HETATM    9  H28 UNL     1     -33.943  19.171  -2.280  1.00 20.00     0.279 HD
ENDROOT
BRANCH   8  10
HETATM   10  C9  UNL     1     -33.132  17.793  -0.991  1.00 20.00     0.234 C 
BRANCH  10  11
HETATM   11  C8  UNL     1     -31.756  18.436  -1.056  1.00 20.00     0.023 C 
HETATM   12  C7  UNL     1     -31.030  18.317   0.274  1.00 20.00     0.007 C 
ENDBRANCH  10  11
ENDBRANCH   8  10
TORSDOF 2
ENDMDL
MODEL 5
REMARK VINA RESULT:      -4.1     17.095     18.295
REMARK  2 active torsions:
REMARK  status: ('A' for Active; 'I' for Inactive)
REMARK    1  A    between atoms: C8_8  and  C9_9 
REMARK    2  A    between atoms: C9_9  and  N11_11 
ROOT
HETATM    1  C1  UNL     1     -36.534  14.366  -4.507  1.00 20.00     0.064 C 
HETATM    2  C2  UNL     1     -34.557  15.101  -3.225  1.00 20.00     0.047 C 
HETATM    3  C3  UNL     1     -35.577  16.592  -4.989  1.00 20.00     0.047 C 
HETATM    4  C4  UNL     1     -33.302  15.966  -3.233  1.00 20.00     0.236 C 
HETATM    5  C5  UNL     1     -34.318  17.446  -4.986  1.00 20.00     0.236 C 
HETATM    6  C6  UNL     1     -35.286  15.146  -4.572  1.00 20.00     0.096 C 
HETATM    7  N10 UNL     1     -37.517  13.753  -4.456  1.00 20.00    -0.197 NA
HETATM    8  N11 UNL     1     -33.624  17.381  -3.648  1.00 20.00    -0.071 N 
HETATM    9  H28 UNL     1     -32.684  17.853  -3.794  1.00 20.00     0.279 HD
ENDROOT
BRANCH   8  10
HETATM   10  C9  UNL     1     -34.302  18.188  -2.574  1.00 20.00     0.234 C 
BRANCH  10  11
HETATM   11  C8  UNL     1     -33.680  17.847  -1.229  1.00 20.00     0.023 C 
HETATM   12  C7  UNL     1     -34.749  17.570  -0.184  1.00 20.00     0.007 C 
ENDBRANCH  10  11
ENDBRANCH   8  10
TORSDOF 2
ENDMDL
MODEL 6
REMARK VINA RESULT:      -4.0      1.603      4.633
REMARK  2 active torsions:
REMARK  status: ('A' for Active; 'I' for Inactive)
REMARK    1  A    between atoms: C8_8  and  C9_9 
REMARK    2  A    between atoms: C9_9  and  N11_11 
ROOT
HETATM    1  C1  UNL     1     -26.987  18.350  12.080  1.00 20.00     0.064 C 
HETATM    2  C2  UNL     1     -24.561  18.650  11.735  1.00 20.00     0.047 C 
HETATM    3  C3  UNL     1     -25.588  16.343  11.742  1.00 20.00     0.047 C 
HETATM    4  C4  UNL     1     -23.180  18.025  11.897  1.00 20.00     0.236 C 
HETATM    5  C5  UNL     1     -24.203  15.735  11.906  1.00 20.00     0.236 C 
HETATM    6  C6  UNL     1     -25.660  17.759  12.325  1.00 20.00     0.096 C 
HETATM    7  N10 UNL     1     -28.032  18.816  11.888  1.00 20.00    -0.197 NA
HETATM    8  N11 UNL     1     -23.144  16.634  11.315  1.00 20.00    -0.071 N 
HETATM    9  H28 UNL     1     -22.217  16.221  11.627  1.00 20.00     0.279 HD
ENDROOT
BRANCH   8  10
HETATM   10  C9  UNL     1     -23.096  16.607   9.811  1.00 20.00     0.234 C 
BRANCH  10  11
HETATM   11  C8  UNL     1     -21.956  17.493   9.335  1.00 20.00     0.023 C 
HETATM   12  C7  UNL     1     -21.818  17.445   7.822  1.00 20.00     0.007 C 
ENDBRANCH  10  11
ENDBRANCH   8  10
TORSDOF 2
ENDMDL
MODEL 7
REMARK VINA RESULT:      -3.9     17.711     19.052
REMARK  2 active torsions:
REMARK  status: ('A' for Active; 'I' for Inactive)
REMARK    1  A    between atoms: C8_8  and  C9_9 
REMARK    2  A    between atoms: C9_9  and  N11_11 
ROOT
HETATM    1  C1  UNL     1     -34.913  16.978  -1.608  1.00 20.00     0.064 C 
HETATM    2  C2  UNL     1     -33.322  16.095  -3.276  1.00 20.00     0.047 C 
HETATM    3  C3  UNL     1     -35.749  15.399  -3.314  1.00 20.00     0.047 C 
HETATM    4  C4  UNL     1     -32.983  14.930  -4.198  1.00 20.00     0.236 C 
HETATM    5  C5  UNL     1     -35.394  14.240  -4.234  1.00 20.00     0.236 C 
HETATM    6  C6  UNL     1     -34.565  15.805  -2.428  1.00 20.00     0.096 C 
HETATM    7  N10 UNL     1     -35.188  17.901  -0.963  1.00 20.00    -0.197 NA
HETATM    8  N11 UNL     1     -34.168  14.556  -5.055  1.00 20.00    -0.071 N 
HETATM    9  H28 UNL     1     -33.899  13.643  -5.525  1.00 20.00     0.279 HD
ENDROOT
BRANCH   8  10
HETATM   10  C9  UNL     1     -34.425  15.515  -6.185  1.00 20.00     0.234 C 
BRANCH  10  11
HETATM   11  C8  UNL     1     -35.570  14.987  -7.034  1.00 20.00     0.023 C 
HETATM   12  C7  UNL     1     -36.615  16.064  -7.279  1.00 20.00     0.007 C 
ENDBRANCH  10  11
ENDBRANCH   8  10
TORSDOF 2
ENDMDL
MODEL 8
REMARK VINA RESULT:      -3.9     15.396     16.738
REMARK  2 active torsions:
REMARK  status: ('A' for Active; 'I' for Inactive)
REMARK    1  A    between atoms: C8_8  and  C9_9 
REMARK    2  A    between atoms: C9_9  and  N11_11 
ROOT
HETATM    1  C1  UNL     1     -31.634  18.475  -0.822  1.00 20.00     0.064 C 
HETATM    2  C2  UNL     1     -33.943  17.613  -0.688  1.00 20.00     0.047 C 
HETATM    3  C3  UNL     1     -32.796  17.887  -2.920  1.00 20.00     0.047 C 
HETATM    4  C4  UNL     1     -35.284  17.490  -1.402  1.00 20.00     0.236 C 
HETATM    5  C5  UNL     1     -34.142  17.763  -3.619  1.00 20.00     0.236 C 
HETATM    6  C6  UNL     1     -32.941  18.442  -1.499  1.00 20.00     0.096 C 
HETATM    7  N10 UNL     1     -30.604  18.500  -0.289  1.00 20.00    -0.197 NA
HETATM    8  N11 UNL     1     -35.105  16.942  -2.797  1.00 20.00    -0.071 N 
HETATM    9  H28 UNL     1     -36.049  17.058  -3.268  1.00 20.00     0.279 HD
ENDROOT
BRANCH   8  10
HETATM   10  C9  UNL     1     -34.828  15.464  -2.836  1.00 20.00     0.234 C 
BRANCH  10  11
HETATM   11  C8  UNL     1     -34.582  15.042  -4.276  1.00 20.00     0.023 C 
HETATM   12  C7  UNL     1     -33.208  14.410  -4.436  1.00 20.00     0.007 C 
ENDBRANCH  10  11
ENDBRANCH   8  10
TORSDOF 2
ENDMDL
MODEL 9
REMARK VINA RESULT:      -3.9     17.111     18.438
REMARK  2 active torsions:
REMARK  status: ('A' for Active; 'I' for Inactive)
REMARK    1  A    between atoms: C8_8  and  C9_9 
REMARK    2  A    between atoms: C9_9  and  N11_11 
ROOT
HETATM    1  C1  UNL     1     -32.661  17.841  -2.058  1.00 20.00     0.064 C 
HETATM    2  C2  UNL     1     -33.131  15.832  -3.414  1.00 20.00     0.047 C 
HETATM    3  C3  UNL     1     -34.989  17.412  -2.762  1.00 20.00     0.047 C 
HETATM    4  C4  UNL     1     -34.168  14.780  -3.787  1.00 20.00     0.236 C 
HETATM    5  C5  UNL     1     -36.013  16.351  -3.138  1.00 20.00     0.236 C 
HETATM    6  C6  UNL     1     -33.654  16.790  -2.338  1.00 20.00     0.096 C 
HETATM    7  N10 UNL     1     -31.880  18.669  -1.837  1.00 20.00    -0.197 NA
HETATM    8  N11 UNL     1     -35.469  15.425  -4.198  1.00 20.00    -0.071 N 
HETATM    9  H28 UNL     1     -36.169  14.630  -4.266  1.00 20.00     0.279 HD
ENDROOT
BRANCH   8  10
HETATM   10  C9  UNL     1     -35.435  16.033  -5.575  1.00 20.00     0.234 C 
BRANCH  10  11
HETATM   11  C8  UNL     1     -35.148  14.942  -6.593  1.00 20.00     0.023 C 
HETATM   12  C7  UNL     1     -33.957  15.304  -7.467  1.00 20.00     0.007 C 
ENDBRANCH  10  11
ENDBRANCH   8  10
TORSDOF 2
ENDMDL
