MODEL 1
REMARK VINA RESULT:      -4.7      0.000      0.000
REMARK  1 active torsions:
REMARK  status: ('A' for Active; 'I' for Inactive)
REMARK    1  A    between atoms: C9_9  and  N11_11 
ROOT
HETATM    1  C1  UNL     1     -35.541  13.828  -4.360  1.00 20.00     0.102 C 
HETATM    2  C2  UNL     1     -34.946  15.925  -2.249  1.00 20.00     0.007 C 
HETATM    3  C5  UNL     1     -35.957  16.159  -3.394  1.00 20.00     0.058 C 
HETATM    4  C6  UNL     1     -33.916  15.505  -3.323  1.00 20.00     0.058 C 
HETATM    5  C9  UNL     1     -35.109  15.198  -4.256  1.00 20.00     0.246 C 
HETATM    6  N10 UNL     1     -35.888  12.723  -4.445  1.00 20.00    -0.194 NA
ENDROOT
BRANCH   5   7
HETATM    7  N11 UNL     1     -34.867  15.804  -5.570  1.00 20.00     0.112 N 
HETATM    8  C7  UNL     1     -33.901  15.015  -6.336  1.00 20.00     0.275 C 
HETATM    9  C3  UNL     1     -34.125  15.494  -7.763  1.00 20.00     0.032 C 
HETATM   10  C4  UNL     1     -35.560  16.009  -7.790  1.00 20.00     0.032 C 
HETATM   11  C8  UNL     1     -36.087  15.794  -6.379  1.00 20.00     0.275 C 
ENDBRANCH   5   7
TORSDOF 1
ENDMDL
MODEL 2
REMARK VINA RESULT:      -4.4      0.812      3.733
REMARK  1 active torsions:
REMARK  status: ('A' for Active; 'I' for Inactive)
REMARK    1  A    between atoms: C9_9  and  N11_11 
ROOT
HETATM    1  C1  UNL     1     -35.787  13.796  -4.841  1.00 20.00     0.102 C 
HETATM    2  C2  UNL     1     -35.820  15.276  -7.490  1.00 20.00     0.007 C 
HETATM    3  C5  UNL     1     -34.546  15.143  -6.627  1.00 20.00     0.058 C 
HETATM    4  C6  UNL     1     -36.549  15.799  -6.232  1.00 20.00     0.058 C 
HETATM    5  C9  UNL     1     -35.467  15.090  -5.387  1.00 20.00     0.246 C 
HETATM    6  N10 UNL     1     -36.045  12.754  -4.401  1.00 20.00    -0.194 NA
ENDROOT
BRANCH   5   7
HETATM    7  N11 UNL     1     -34.965  16.014  -4.364  1.00 20.00     0.112 N 
HETATM    8  C7  UNL     1     -35.829  16.000  -3.183  1.00 20.00     0.275 C 
HETATM    9  C3  UNL     1     -34.944  16.614  -2.107  1.00 20.00     0.032 C 
HETATM   10  C4  UNL     1     -33.515  16.344  -2.564  1.00 20.00     0.032 C 
HETATM   11  C8  UNL     1     -33.653  15.586  -3.876  1.00 20.00     0.275 C 
ENDBRANCH   5   7
TORSDOF 1
ENDMDL
MODEL 3
REMARK VINA RESULT:      -4.2      1.491      2.350
REMARK  1 active torsions:
REMARK  status: ('A' for Active; 'I' for Inactive)
REMARK    1  A    between atoms: C9_9  and  N11_11 
ROOT
HETATM    1  C1  UNL     1     -35.691  13.953  -4.325  1.00 20.00     0.102 C 
HETATM    2  C2  UNL     1     -33.711  15.809  -2.965  1.00 20.00     0.007 C 
HETATM    3  C5  UNL     1     -35.216  15.795  -2.614  1.00 20.00     0.058 C 
HETATM    4  C6  UNL     1     -34.118  15.964  -4.448  1.00 20.00     0.058 C 
HETATM    5  C9  UNL     1     -35.488  15.356  -4.070  1.00 20.00     0.246 C 
HETATM    6  N10 UNL     1     -35.854  12.823  -4.531  1.00 20.00    -0.194 NA
ENDROOT
BRANCH   5   7
HETATM    7  N11 UNL     1     -36.559  16.182  -4.638  1.00 20.00     0.112 N 
HETATM    8  C7  UNL     1     -36.598  16.053  -6.096  1.00 20.00     0.275 C 
HETATM    9  C3  UNL     1     -37.987  16.567  -6.446  1.00 20.00     0.032 C 
HETATM   10  C4  UNL     1     -38.822  16.349  -5.189  1.00 20.00     0.032 C 
HETATM   11  C8  UNL     1     -37.871  15.716  -4.184  1.00 20.00     0.275 C 
ENDBRANCH   5   7
TORSDOF 1
ENDMDL
MODEL 4
REMARK VINA RESULT:      -4.2      1.546      3.518
REMARK  1 active torsions:
REMARK  status: ('A' for Active; 'I' for Inactive)
REMARK    1  A    between atoms: C9_9  and  N11_11 
ROOT
HETATM    1  C1  UNL     1     -36.289  14.065  -4.549  1.00 20.00     0.102 C 
HETATM    2  C2  UNL     1     -38.198  16.099  -5.745  1.00 20.00     0.007 C 
HETATM    3  C5  UNL     1     -36.688  16.080  -6.074  1.00 20.00     0.058 C 
HETATM    4  C6  UNL     1     -37.813  16.094  -4.249  1.00 20.00     0.058 C 
HETATM    5  C9  UNL     1     -36.453  15.491  -4.665  1.00 20.00     0.246 C 
HETATM    6  N10 UNL     1     -36.158  12.916  -4.455  1.00 20.00    -0.194 NA
ENDROOT
BRANCH   5   7
HETATM    7  N11 UNL     1     -35.371  16.228  -4.002  1.00 20.00     0.112 N 
HETATM    8  C7  UNL     1     -35.388  15.988  -2.557  1.00 20.00     0.275 C 
HETATM    9  C3  UNL     1     -33.994  16.417  -2.124  1.00 20.00     0.032 C 
HETATM   10  C4  UNL     1     -33.124  16.260  -3.367  1.00 20.00     0.032 C 
HETATM   11  C8  UNL     1     -34.063  15.745  -4.447  1.00 20.00     0.275 C 
ENDBRANCH   5   7
TORSDOF 1
ENDMDL
MODEL 5
REMARK VINA RESULT:      -4.1      2.718      4.002
REMARK  1 active torsions:
REMARK  status: ('A' for Active; 'I' for Inactive)
REMARK    1  A    between atoms: C9_9  and  N11_11 
ROOT
HETATM    1  C1  UNL     1     -35.074  18.017  -2.984  1.00 20.00     0.102 C 
HETATM    2  C2  UNL     1     -34.283  18.105  -0.056  1.00 20.00     0.007 C 
HETATM    3  C5  UNL     1     -33.278  17.770  -1.180  1.00 20.00     0.058 C 
HETATM    4  C6  UNL     1     -35.209  17.013  -0.638  1.00 20.00     0.058 C 
HETATM    5  C9  UNL     1     -34.463  17.185  -1.980  1.00 20.00     0.246 C 
HETATM    6  N10 UNL     1     -35.568  18.686  -3.794  1.00 20.00    -0.194 NA
ENDROOT
BRANCH   5   7
HETATM    7  N11 UNL     1     -34.094  15.865  -2.504  1.00 20.00     0.112 N 
HETATM    8  C7  UNL     1     -35.250  15.208  -3.117  1.00 20.00     0.275 C 
HETATM    9  C3  UNL     1     -34.611  14.129  -3.979  1.00 20.00     0.032 C 
HETATM   10  C4  UNL     1     -33.207  14.641  -4.284  1.00 20.00     0.032 C 
HETATM   11  C8  UNL     1     -33.115  15.989  -3.585  1.00 20.00     0.275 C 
ENDBRANCH   5   7
TORSDOF 1
ENDMDL
MODEL 6
REMARK VINA RESULT:      -3.9      3.316      5.461
REMARK  1 active torsions:
REMARK  status: ('A' for Active; 'I' for Inactive)
REMARK    1  A    between atoms: C9_9  and  N11_11 
ROOT
HETATM    1  C1  UNL     1     -34.542  18.157  -3.360  1.00 20.00     0.102 C 
HETATM    2  C2  UNL     1     -34.500  15.122  -3.402  1.00 20.00     0.007 C 
HETATM    3  C5  UNL     1     -34.987  15.932  -2.179  1.00 20.00     0.058 C 
HETATM    4  C6  UNL     1     -33.211  15.975  -3.381  1.00 20.00     0.058 C 
HETATM    5  C9  UNL     1     -34.010  17.049  -2.609  1.00 20.00     0.246 C 
HETATM    6  N10 UNL     1     -34.970  19.049  -3.966  1.00 20.00    -0.194 NA
ENDROOT
BRANCH   5   7
HETATM    7  N11 UNL     1     -33.232  17.492  -1.446  1.00 20.00     0.112 N 
HETATM    8  C7  UNL     1     -32.178  18.424  -1.852  1.00 20.00     0.275 C 
HETATM    9  C3  UNL     1     -31.807  19.108  -0.543  1.00 20.00     0.032 C 
HETATM   10  C4  UNL     1     -33.049  18.992   0.334  1.00 20.00     0.032 C 
HETATM   11  C8  UNL     1     -34.070  18.252  -0.518  1.00 20.00     0.275 C 
ENDBRANCH   5   7
TORSDOF 1
ENDMDL
MODEL 7
REMARK VINA RESULT:      -3.8      1.794      2.435
REMARK  1 active torsions:
REMARK  status: ('A' for Active; 'I' for Inactive)
REMARK    1  A    between atoms: C9_9  and  N11_11 
ROOT
HETATM    1  C1  UNL     1     -33.734  14.813  -4.147  1.00 20.00     0.102 C 
HETATM    2  C2  UNL     1     -33.062  17.102  -2.270  1.00 20.00     0.007 C 
HETATM    3  C5  UNL     1     -34.354  16.264  -2.133  1.00 20.00     0.058 C 
HETATM    4  C6  UNL     1     -33.430  17.320  -3.755  1.00 20.00     0.058 C 
HETATM    5  C9  UNL     1     -34.299  16.046  -3.662  1.00 20.00     0.246 C 
HETATM    6  N10 UNL     1     -33.278  13.820  -4.538  1.00 20.00    -0.194 NA
ENDROOT
BRANCH   5   7
HETATM    7  N11 UNL     1     -35.620  16.315  -4.242  1.00 20.00     0.112 N 
HETATM    8  C7  UNL     1     -35.552  16.331  -5.704  1.00 20.00     0.275 C 
HETATM    9  C3  UNL     1     -37.006  16.154  -6.115  1.00 20.00     0.032 C 
HETATM   10  C4  UNL     1     -37.668  15.439  -4.942  1.00 20.00     0.032 C 
HETATM   11  C8  UNL     1     -36.558  15.238  -3.921  1.00 20.00     0.275 C 
ENDBRANCH   5   7
TORSDOF 1
ENDMDL
MODEL 8
REMARK VINA RESULT:      -3.7      2.218      3.458
REMARK  1 active torsions:
REMARK  status: ('A' for Active; 'I' for Inactive)
REMARK    1  A    between atoms: C9_9  and  N11_11 
ROOT
HETATM    1  C1  UNL     1     -34.528  17.316  -4.800  1.00 20.00     0.102 C 
HETATM    2  C2  UNL     1     -33.059  17.384  -2.146  1.00 20.00     0.007 C 
HETATM    3  C5  UNL     1     -33.072  16.137  -3.059  1.00 20.00     0.058 C 
HETATM    4  C6  UNL     1     -34.601  17.404  -2.247  1.00 20.00     0.058 C 
HETATM    5  C9  UNL     1     -34.462  16.594  -3.556  1.00 20.00     0.246 C 
HETATM    6  N10 UNL     1     -34.583  17.899  -5.803  1.00 20.00    -0.194 NA
ENDROOT
BRANCH   5   7
HETATM    7  N11 UNL     1     -35.390  15.458  -3.525  1.00 20.00     0.112 N 
HETATM    8  C7  UNL     1     -36.738  15.877  -3.911  1.00 20.00     0.275 C 
HETATM    9  C3  UNL     1     -37.415  14.562  -4.268  1.00 20.00     0.032 C 
HETATM   10  C4  UNL     1     -36.280  13.623  -4.663  1.00 20.00     0.032 C 
HETATM   11  C8  UNL     1     -35.011  14.450  -4.517  1.00 20.00     0.275 C 
ENDBRANCH   5   7
TORSDOF 1
ENDMDL
MODEL 9
REMARK VINA RESULT:      -3.7      2.107      4.071
REMARK  1 active torsions:
REMARK  status: ('A' for Active; 'I' for Inactive)
REMARK    1  A    between atoms: C9_9  and  N11_11 
ROOT
HETATM    1  C1  UNL     1     -34.873  16.394  -5.012  1.00 20.00     0.102 C 
HETATM    2  C2  UNL     1     -36.026  13.641  -4.461  1.00 20.00     0.007 C 
HETATM    3  C5  UNL     1     -36.519  14.912  -3.733  1.00 20.00     0.058 C 
HETATM    4  C6  UNL     1     -34.587  14.040  -4.061  1.00 20.00     0.058 C 
HETATM    5  C9  UNL     1     -35.098  15.491  -3.913  1.00 20.00     0.246 C 
HETATM    6  N10 UNL     1     -34.691  17.122  -5.898  1.00 20.00    -0.194 NA
ENDROOT
BRANCH   5   7
HETATM    7  N11 UNL     1     -34.629  16.044  -2.638  1.00 20.00     0.112 N 
HETATM    8  C7  UNL     1     -33.287  16.611  -2.779  1.00 20.00     0.275 C 
HETATM    9  C3  UNL     1     -33.168  17.511  -1.558  1.00 20.00     0.032 C 
HETATM   10  C4  UNL     1     -34.602  17.873  -1.187  1.00 20.00     0.032 C 
HETATM   11  C8  UNL     1     -35.470  17.166  -2.217  1.00 20.00     0.275 C 
ENDBRANCH   5   7
TORSDOF 1
ENDMDL
