MODEL 1
REMARK VINA RESULT:      -4.6      0.000      0.000
REMARK  0 active torsions:
REMARK  status: ('A' for Active; 'I' for Inactive)
ROOT
HETATM    1  C1  UNL     1     -36.264  14.220  -4.582  1.00 20.00     0.085 C 
HETATM    2  C2  UNL     1     -34.755  15.247  -6.113  1.00 20.00     0.085 C 
HETATM    3  C3  UNL     1     -33.833  14.345  -3.904  1.00 20.00     0.030 A 
HETATM    4  C4  UNL     1     -34.986  14.862  -4.749  1.00 20.00     0.148 A 
HETATM    5  C5  UNL     1     -34.415  15.716  -3.607  1.00 20.00    -0.007 A 
HETATM    6  C6  UNL     1     -32.454  14.155  -4.442  1.00 20.00     0.014 C 
HETATM    7  C7  UNL     1     -35.195  15.857  -2.317  1.00 20.00     0.018 C 
HETATM    8  C8  UNL     1     -33.617  16.963  -3.927  1.00 20.00     0.018 C 
HETATM    9  N9  UNL     1     -37.293  13.703  -4.448  1.00 20.00    -0.195 NA
HETATM   10  N10 UNL     1     -34.567  15.558  -7.215  1.00 20.00    -0.195 NA
ENDROOT
TORSDOF 0
ENDMDL
MODEL 2
REMARK VINA RESULT:      -4.5      1.729      2.370
REMARK  0 active torsions:
REMARK  status: ('A' for Active; 'I' for Inactive)
ROOT
HETATM    1  C1  UNL     1     -36.769  14.448  -4.212  1.00 20.00     0.085 C 
HETATM    2  C2  UNL     1     -34.388  14.488  -4.278  1.00 20.00     0.085 C 
HETATM    3  C3  UNL     1     -35.601  16.219  -2.839  1.00 20.00     0.030 A 
HETATM    4  C4  UNL     1     -35.582  15.234  -3.996  1.00 20.00     0.148 A 
HETATM    5  C5  UNL     1     -35.618  16.746  -4.264  1.00 20.00    -0.007 A 
HETATM    6  C6  UNL     1     -34.442  16.417  -1.922  1.00 20.00     0.014 C 
HETATM    7  C7  UNL     1     -36.906  17.391  -4.734  1.00 20.00     0.018 C 
HETATM    8  C8  UNL     1     -34.397  17.439  -4.830  1.00 20.00     0.018 C 
HETATM    9  N9  UNL     1     -37.724  13.814  -4.385  1.00 20.00    -0.195 NA
HETATM   10  N10 UNL     1     -33.422  13.885  -4.505  1.00 20.00    -0.195 NA
ENDROOT
TORSDOF 0
ENDMDL
MODEL 3
REMARK VINA RESULT:      -4.4      1.255      3.181
REMARK  0 active torsions:
REMARK  status: ('A' for Active; 'I' for Inactive)
ROOT
HETATM    1  C1  UNL     1     -34.409  15.037  -5.763  1.00 20.00     0.085 C 
HETATM    2  C2  UNL     1     -36.393  14.585  -4.525  1.00 20.00     0.085 C 
HETATM    3  C3  UNL     1     -35.419  16.949  -4.456  1.00 20.00     0.030 A 
HETATM    4  C4  UNL     1     -35.260  15.453  -4.680  1.00 20.00     0.148 A 
HETATM    5  C5  UNL     1     -34.638  16.125  -3.446  1.00 20.00    -0.007 A 
HETATM    6  C6  UNL     1     -36.729  17.586  -4.135  1.00 20.00     0.014 C 
HETATM    7  C7  UNL     1     -33.142  16.355  -3.395  1.00 20.00     0.018 C 
HETATM    8  C8  UNL     1     -35.219  15.861  -2.073  1.00 20.00     0.018 C 
HETATM    9  N9  UNL     1     -33.724  14.701  -6.636  1.00 20.00    -0.195 NA
HETATM   10  N10 UNL     1     -37.308  13.883  -4.399  1.00 20.00    -0.195 NA
ENDROOT
TORSDOF 0
ENDMDL
MODEL 4
REMARK VINA RESULT:      -4.3      1.635      2.206
REMARK  0 active torsions:
REMARK  status: ('A' for Active; 'I' for Inactive)
ROOT
HETATM    1  C1  UNL     1     -35.821  13.782  -4.935  1.00 20.00     0.085 C 
HETATM    2  C2  UNL     1     -36.620  15.628  -6.212  1.00 20.00     0.085 C 
HETATM    3  C3  UNL     1     -34.140  15.018  -6.360  1.00 20.00     0.030 A 
HETATM    4  C4  UNL     1     -35.471  14.995  -5.626  1.00 20.00     0.148 A 
HETATM    5  C5  UNL     1     -34.310  15.855  -5.103  1.00 20.00    -0.007 A 
HETATM    6  C6  UNL     1     -33.969  15.623  -7.713  1.00 20.00     0.014 C 
HETATM    7  C7  UNL     1     -33.540  15.405  -3.879  1.00 20.00     0.018 C 
HETATM    8  C8  UNL     1     -34.387  17.364  -5.203  1.00 20.00     0.018 C 
HETATM    9  N9  UNL     1     -36.103  12.805  -4.378  1.00 20.00    -0.195 NA
HETATM   10  N10 UNL     1     -37.547  16.139  -6.686  1.00 20.00    -0.195 NA
ENDROOT
TORSDOF 0
ENDMDL
MODEL 5
REMARK VINA RESULT:      -4.2      2.103      2.854
REMARK  0 active torsions:
REMARK  status: ('A' for Active; 'I' for Inactive)
ROOT
HETATM    1  C1  UNL     1     -38.089  15.043  -4.510  1.00 20.00     0.085 C 
HETATM    2  C2  UNL     1     -36.127  13.697  -4.390  1.00 20.00     0.085 C 
HETATM    3  C3  UNL     1     -36.050  16.063  -3.421  1.00 20.00     0.030 A 
HETATM    4  C4  UNL     1     -36.658  15.031  -4.357  1.00 20.00     0.148 A 
HETATM    5  C5  UNL     1     -35.828  16.196  -4.918  1.00 20.00    -0.007 A 
HETATM    6  C6  UNL     1     -34.946  15.745  -2.469  1.00 20.00     0.014 C 
HETATM    7  C7  UNL     1     -36.530  17.349  -5.607  1.00 20.00     0.018 C 
HETATM    8  C8  UNL     1     -34.460  15.930  -5.508  1.00 20.00     0.018 C 
HETATM    9  N9  UNL     1     -39.242  15.052  -4.633  1.00 20.00    -0.195 NA
HETATM   10  N10 UNL     1     -35.698  12.619  -4.416  1.00 20.00    -0.195 NA
ENDROOT
TORSDOF 0
ENDMDL
MODEL 6
REMARK VINA RESULT:      -4.2      1.769      2.889
REMARK  0 active torsions:
REMARK  status: ('A' for Active; 'I' for Inactive)
ROOT
HETATM    1  C1  UNL     1     -36.551  14.671  -4.240  1.00 20.00     0.085 C 
HETATM    2  C2  UNL     1     -36.306  16.732  -3.071  1.00 20.00     0.085 C 
HETATM    3  C3  UNL     1     -34.809  16.288  -5.096  1.00 20.00     0.030 A 
HETATM    4  C4  UNL     1     -35.689  15.790  -3.961  1.00 20.00     0.148 A 
HETATM    5  C5  UNL     1     -34.168  15.579  -3.915  1.00 20.00    -0.007 A 
HETATM    6  C6  UNL     1     -34.592  17.737  -5.379  1.00 20.00     0.014 C 
HETATM    7  C7  UNL     1     -33.597  14.201  -4.180  1.00 20.00     0.018 C 
HETATM    8  C8  UNL     1     -33.330  16.360  -2.925  1.00 20.00     0.018 C 
HETATM    9  N9  UNL     1     -37.246  13.770  -4.464  1.00 20.00    -0.195 NA
HETATM   10  N10 UNL     1     -36.805  17.494  -2.351  1.00 20.00    -0.195 NA
ENDROOT
TORSDOF 0
ENDMDL
MODEL 7
REMARK VINA RESULT:      -4.1      1.611      2.668
REMARK  0 active torsions:
REMARK  status: ('A' for Active; 'I' for Inactive)
ROOT
HETATM    1  C1  UNL     1     -35.269  15.819  -2.698  1.00 20.00     0.085 C 
HETATM    2  C2  UNL     1     -35.404  13.903  -4.108  1.00 20.00     0.085 C 
HETATM    3  C3  UNL     1     -33.220  15.235  -4.057  1.00 20.00     0.030 A 
HETATM    4  C4  UNL     1     -34.722  15.140  -3.843  1.00 20.00     0.148 A 
HETATM    5  C5  UNL     1     -34.154  15.962  -5.009  1.00 20.00    -0.007 A 
HETATM    6  C6  UNL     1     -32.385  14.073  -4.479  1.00 20.00     0.014 C 
HETATM    7  C7  UNL     1     -34.160  17.475  -4.930  1.00 20.00     0.018 C 
HETATM    8  C8  UNL     1     -34.321  15.468  -6.431  1.00 20.00     0.018 C 
HETATM    9  N9  UNL     1     -35.710  16.366  -1.775  1.00 20.00    -0.195 NA
HETATM   10  N10 UNL     1     -35.954  12.904  -4.322  1.00 20.00    -0.195 NA
ENDROOT
TORSDOF 0
ENDMDL
MODEL 8
REMARK VINA RESULT:      -4.1      4.166      5.704
REMARK  0 active torsions:
REMARK  status: ('A' for Active; 'I' for Inactive)
ROOT
HETATM    1  C1  UNL     1     -31.709  18.219  -0.828  1.00 20.00     0.085 C 
HETATM    2  C2  UNL     1     -33.987  17.930  -0.197  1.00 20.00     0.085 C 
HETATM    3  C3  UNL     1     -33.211  16.988  -2.445  1.00 20.00     0.030 A 
HETATM    4  C4  UNL     1     -33.049  17.956  -1.283  1.00 20.00     0.148 A 
HETATM    5  C5  UNL     1     -33.492  18.465  -2.663  1.00 20.00    -0.007 A 
HETATM    6  C6  UNL     1     -34.281  15.950  -2.493  1.00 20.00     0.014 C 
HETATM    7  C7  UNL     1     -32.508  19.222  -3.531  1.00 20.00     0.018 C 
HETATM    8  C8  UNL     1     -34.913  18.944  -2.867  1.00 20.00     0.018 C 
HETATM    9  N9  UNL     1     -30.630  18.431  -0.461  1.00 20.00    -0.195 NA
HETATM   10  N10 UNL     1     -34.746  17.909   0.681  1.00 20.00    -0.195 NA
ENDROOT
TORSDOF 0
ENDMDL
MODEL 9
REMARK VINA RESULT:      -4.0      1.975      2.352
REMARK  0 active torsions:
REMARK  status: ('A' for Active; 'I' for Inactive)
ROOT
HETATM    1  C1  UNL     1     -35.923  13.923  -4.647  1.00 20.00     0.085 C 
HETATM    2  C2  UNL     1     -37.196  15.733  -5.528  1.00 20.00     0.085 C 
HETATM    3  C3  UNL     1     -34.699  16.086  -5.103  1.00 20.00     0.030 A 
HETATM    4  C4  UNL     1     -36.000  15.348  -4.833  1.00 20.00     0.148 A 
HETATM    5  C5  UNL     1     -35.401  16.282  -3.770  1.00 20.00    -0.007 A 
HETATM    6  C6  UNL     1     -34.578  17.173  -6.117  1.00 20.00     0.014 C 
HETATM    7  C7  UNL     1     -34.722  15.690  -2.552  1.00 20.00     0.018 C 
HETATM    8  C8  UNL     1     -36.079  17.599  -3.458  1.00 20.00     0.018 C 
HETATM    9  N9  UNL     1     -35.861  12.775  -4.498  1.00 20.00    -0.195 NA
HETATM   10  N10 UNL     1     -38.162  16.044  -6.090  1.00 20.00    -0.195 NA
ENDROOT
TORSDOF 0
ENDMDL
