MODEL 1
REMARK VINA RESULT:      -4.4      0.000      0.000
REMARK  1 active torsions:
REMARK  status: ('A' for Active; 'I' for Inactive)
REMARK    1  A    between atoms: C5_5  and  C10_10 
ROOT
HETATM    1  C1  UNL     1     -35.308  16.487  -1.864  1.00 20.00    -0.018 C 
HETATM    2  C2  UNL     1     -34.946  15.512  -2.710  1.00 20.00    -0.025 C 
HETATM    3  C3  UNL     1     -33.023  17.471  -2.033  1.00 20.00     0.135 C 
HETATM    4  C4  UNL     1     -32.918  16.836  -3.401  1.00 20.00     0.087 C 
HETATM    5  C5  UNL     1     -34.434  17.646  -1.468  1.00 20.00     0.081 C 
HETATM    6  C6  UNL     1     -33.613  15.470  -3.407  1.00 20.00     0.010 C 
HETATM    7  C7  UNL     1     -33.766  14.973  -4.845  1.00 20.00     0.014 C 
HETATM    8  O11 UNL     1     -32.024  17.906  -1.459  1.00 20.00    -0.297 OA
ENDROOT
BRANCH   5   9
HETATM    9  C10 UNL     1     -34.393  17.790   0.051  1.00 20.00    -0.008 C 
HETATM   10  C8  UNL     1     -34.443  19.263   0.456  1.00 20.00     0.010 C 
HETATM   11  C9  UNL     1     -35.542  17.018   0.698  1.00 20.00     0.010 C 
ENDBRANCH   5   9
TORSDOF 1
ENDMDL
MODEL 2
REMARK VINA RESULT:      -4.4      2.511      3.709
REMARK  1 active torsions:
REMARK  status: ('A' for Active; 'I' for Inactive)
REMARK    1  A    between atoms: C5_5  and  C10_10 
ROOT
HETATM    1  C1  UNL     1     -34.981  17.092  -4.679  1.00 20.00    -0.018 C 
HETATM    2  C2  UNL     1     -35.889  16.735  -5.598  1.00 20.00    -0.025 C 
HETATM    3  C3  UNL     1     -33.797  14.923  -5.018  1.00 20.00     0.135 C 
HETATM    4  C4  UNL     1     -34.370  14.901  -6.417  1.00 20.00     0.087 C 
HETATM    5  C5  UNL     1     -33.766  16.282  -4.316  1.00 20.00     0.081 C 
HETATM    6  C6  UNL     1     -35.789  15.477  -6.419  1.00 20.00     0.010 C 
HETATM    7  C7  UNL     1     -36.245  15.729  -7.858  1.00 20.00     0.014 C 
HETATM    8  O11 UNL     1     -33.298  13.912  -4.523  1.00 20.00    -0.297 OA
ENDROOT
BRANCH   5   9
HETATM    9  C10 UNL     1     -33.676  16.105  -2.802  1.00 20.00    -0.008 C 
HETATM   10  C8  UNL     1     -32.946  17.287  -2.163  1.00 20.00     0.010 C 
HETATM   11  C9  UNL     1     -35.067  15.942  -2.193  1.00 20.00     0.010 C 
ENDBRANCH   5   9
TORSDOF 1
ENDMDL
MODEL 3
REMARK VINA RESULT:      -4.4      2.539      5.330
REMARK  1 active torsions:
REMARK  status: ('A' for Active; 'I' for Inactive)
REMARK    1  A    between atoms: C5_5  and  C10_10 
ROOT
HETATM    1  C1  UNL     1     -34.635  16.909  -5.195  1.00 20.00    -0.018 C 
HETATM    2  C2  UNL     1     -33.816  17.298  -4.208  1.00 20.00    -0.025 C 
HETATM    3  C3  UNL     1     -34.957  14.715  -4.054  1.00 20.00     0.135 C 
HETATM    4  C4  UNL     1     -34.645  15.418  -2.752  1.00 20.00     0.087 C 
HETATM    5  C5  UNL     1     -35.384  15.605  -5.223  1.00 20.00     0.081 C 
HETATM    6  C6  UNL     1     -33.564  16.482  -2.968  1.00 20.00     0.010 C 
HETATM    7  C7  UNL     1     -33.468  17.382  -1.735  1.00 20.00     0.014 C 
HETATM    8  O11 UNL     1     -34.956  13.486  -4.125  1.00 20.00    -0.297 OA
ENDROOT
BRANCH   5   9
HETATM    9  C10 UNL     1     -35.163  14.890  -6.554  1.00 20.00    -0.008 C 
HETATM   10  C8  UNL     1     -36.109  15.436  -7.623  1.00 20.00     0.010 C 
HETATM   11  C9  UNL     1     -33.710  15.026  -7.005  1.00 20.00     0.010 C 
ENDBRANCH   5   9
TORSDOF 1
ENDMDL
MODEL 4
REMARK VINA RESULT:      -4.4     11.650     12.711
REMARK  1 active torsions:
REMARK  status: ('A' for Active; 'I' for Inactive)
REMARK    1  A    between atoms: C5_5  and  C10_10 
ROOT
HETATM    1  C1  UNL     1     -33.728   7.325   4.300  1.00 20.00    -0.018 C 
HETATM    2  C2  UNL     1     -33.954   6.668   5.447  1.00 20.00    -0.025 C 
HETATM    3  C3  UNL     1     -33.699   5.154   3.072  1.00 20.00     0.135 C 
HETATM    4  C4  UNL     1     -34.589   4.599   4.161  1.00 20.00     0.087 C 
HETATM    5  C5  UNL     1     -33.649   6.678   2.944  1.00 20.00     0.081 C 
HETATM    6  C6  UNL     1     -34.195   5.185   5.521  1.00 20.00     0.010 C 
HETATM    7  C7  UNL     1     -35.272   4.860   6.558  1.00 20.00     0.014 C 
HETATM    8  O11 UNL     1     -33.127   4.406   2.280  1.00 20.00    -0.297 OA
ENDROOT
BRANCH   5   9
HETATM    9  C10 UNL     1     -32.382   7.117   2.216  1.00 20.00    -0.008 C 
HETATM   10  C8  UNL     1     -32.700   8.195   1.179  1.00 20.00     0.010 C 
HETATM   11  C9  UNL     1     -31.335   7.621   3.208  1.00 20.00     0.010 C 
ENDBRANCH   5   9
TORSDOF 1
ENDMDL
MODEL 5
REMARK VINA RESULT:      -4.4      1.223      4.050
REMARK  1 active torsions:
REMARK  status: ('A' for Active; 'I' for Inactive)
REMARK    1  A    between atoms: C5_5  and  C10_10 
ROOT
HETATM    1  C1  UNL     1     -34.843  15.939  -2.187  1.00 20.00    -0.018 C 
HETATM    2  C2  UNL     1     -35.234  16.662  -1.127  1.00 20.00    -0.025 C 
HETATM    3  C3  UNL     1     -33.044  17.604  -2.648  1.00 20.00     0.135 C 
HETATM    4  C4  UNL     1     -33.067  17.943  -1.175  1.00 20.00     0.087 C 
HETATM    5  C5  UNL     1     -33.651  16.257  -3.047  1.00 20.00     0.081 C 
HETATM    6  C6  UNL     1     -34.500  17.881  -0.637  1.00 20.00     0.010 C 
HETATM    7  C7  UNL     1     -34.483  17.927   0.892  1.00 20.00     0.014 C 
HETATM    8  O11 UNL     1     -32.480  18.340  -3.458  1.00 20.00    -0.297 OA
ENDROOT
BRANCH   5   9
HETATM    9  C10 UNL     1     -34.041  16.257  -4.522  1.00 20.00    -0.008 C 
HETATM   10  C8  UNL     1     -33.858  14.866  -5.130  1.00 20.00     0.010 C 
HETATM   11  C9  UNL     1     -35.482  16.733  -4.700  1.00 20.00     0.010 C 
ENDBRANCH   5   9
TORSDOF 1
ENDMDL
MODEL 6
REMARK VINA RESULT:      -4.2      2.465      4.480
REMARK  1 active torsions:
REMARK  status: ('A' for Active; 'I' for Inactive)
REMARK    1  A    between atoms: C5_5  and  C10_10 
ROOT
HETATM    1  C1  UNL     1     -35.742  16.105  -2.943  1.00 20.00    -0.018 C 
HETATM    2  C2  UNL     1     -34.879  17.088  -2.648  1.00 20.00    -0.025 C 
HETATM    3  C3  UNL     1     -33.993  14.999  -4.335  1.00 20.00     0.135 C 
HETATM    4  C4  UNL     1     -32.960  15.677  -3.464  1.00 20.00     0.087 C 
HETATM    5  C5  UNL     1     -35.404  14.885  -3.755  1.00 20.00     0.081 C 
HETATM    6  C6  UNL     1     -33.434  17.079  -3.070  1.00 20.00     0.010 C 
HETATM    7  C7  UNL     1     -32.540  17.637  -1.961  1.00 20.00     0.014 C 
HETATM    8  O11 UNL     1     -33.677  14.487  -5.409  1.00 20.00    -0.297 OA
ENDROOT
BRANCH   5   9
HETATM    9  C10 UNL     1     -36.430  14.684  -4.868  1.00 20.00    -0.008 C 
HETATM   10  C8  UNL     1     -37.816  14.412  -4.282  1.00 20.00     0.010 C 
HETATM   11  C9  UNL     1     -36.469  15.898  -5.793  1.00 20.00     0.010 C 
ENDBRANCH   5   9
TORSDOF 1
ENDMDL
MODEL 7
REMARK VINA RESULT:      -4.1      1.992      4.831
REMARK  1 active torsions:
REMARK  status: ('A' for Active; 'I' for Inactive)
REMARK    1  A    between atoms: C5_5  and  C10_10 
ROOT
HETATM    1  C1  UNL     1     -33.301  16.621  -3.418  1.00 20.00    -0.018 C 
HETATM    2  C2  UNL     1     -33.397  16.969  -2.127  1.00 20.00    -0.025 C 
HETATM    3  C3  UNL     1     -35.702  15.945  -3.406  1.00 20.00     0.135 C 
HETATM    4  C4  UNL     1     -35.910  16.936  -2.284  1.00 20.00     0.087 C 
HETATM    5  C5  UNL     1     -34.449  16.139  -4.263  1.00 20.00     0.081 C 
HETATM    6  C6  UNL     1     -34.691  16.955  -1.357  1.00 20.00     0.010 C 
HETATM    7  C7  UNL     1     -34.775  18.155  -0.412  1.00 20.00     0.014 C 
HETATM    8  O11 UNL     1     -36.552  15.092  -3.664  1.00 20.00    -0.297 OA
ENDROOT
BRANCH   5   9
HETATM    9  C10 UNL     1     -34.078  14.842  -4.978  1.00 20.00    -0.008 C 
HETATM   10  C8  UNL     1     -34.030  15.054  -6.491  1.00 20.00     0.010 C 
HETATM   11  C9  UNL     1     -32.739  14.309  -4.470  1.00 20.00     0.010 C 
ENDBRANCH   5   9
TORSDOF 1
ENDMDL
MODEL 8
REMARK VINA RESULT:      -4.1      2.614      4.978
REMARK  1 active torsions:
REMARK  status: ('A' for Active; 'I' for Inactive)
REMARK    1  A    between atoms: C5_5  and  C10_10 
ROOT
HETATM    1  C1  UNL     1     -34.360  15.667  -3.927  1.00 20.00    -0.018 C 
HETATM    2  C2  UNL     1     -34.066  15.899  -2.639  1.00 20.00    -0.025 C 
HETATM    3  C3  UNL     1     -36.645  16.598  -3.564  1.00 20.00     0.135 C 
HETATM    4  C4  UNL     1     -36.063  17.419  -2.436  1.00 20.00     0.087 C 
HETATM    5  C5  UNL     1     -35.652  16.053  -4.593  1.00 20.00     0.081 C 
HETATM    6  C6  UNL     1     -34.991  16.616  -1.693  1.00 20.00     0.010 C 
HETATM    7  C7  UNL     1     -34.205  17.540  -0.760  1.00 20.00     0.014 C 
HETATM    8  O11 UNL     1     -37.863  16.464  -3.687  1.00 20.00    -0.297 OA
ENDROOT
BRANCH   5   9
HETATM    9  C10 UNL     1     -36.246  14.860  -5.338  1.00 20.00    -0.008 C 
HETATM   10  C8  UNL     1     -35.594  14.701  -6.711  1.00 20.00     0.010 C 
HETATM   11  C9  UNL     1     -36.090  13.580  -4.520  1.00 20.00     0.010 C 
ENDBRANCH   5   9
TORSDOF 1
ENDMDL
MODEL 9
REMARK VINA RESULT:      -4.1      1.958      2.747
REMARK  1 active torsions:
REMARK  status: ('A' for Active; 'I' for Inactive)
REMARK    1  A    between atoms: C5_5  and  C10_10 
ROOT
HETATM    1  C1  UNL     1     -33.829  15.963  -2.697  1.00 20.00    -0.018 C 
HETATM    2  C2  UNL     1     -33.660  15.823  -4.020  1.00 20.00    -0.025 C 
HETATM    3  C3  UNL     1     -36.191  16.667  -3.082  1.00 20.00     0.135 C 
HETATM    4  C4  UNL     1     -36.154  15.868  -4.364  1.00 20.00     0.087 C 
HETATM    5  C5  UNL     1     -35.130  16.323  -2.034  1.00 20.00     0.081 C 
HETATM    6  C6  UNL     1     -34.774  15.978  -5.020  1.00 20.00     0.010 C 
HETATM    7  C7  UNL     1     -34.648  14.942  -6.139  1.00 20.00     0.014 C 
HETATM    8  O11 UNL     1     -37.090  17.481  -2.869  1.00 20.00    -0.297 OA
ENDROOT
BRANCH   5   9
HETATM    9  C10 UNL     1     -34.932  17.486  -1.065  1.00 20.00    -0.008 C 
HETATM   10  C8  UNL     1     -35.447  17.122   0.328  1.00 20.00     0.010 C 
HETATM   11  C9  UNL     1     -33.460  17.891  -1.001  1.00 20.00     0.010 C 
ENDBRANCH   5   9
TORSDOF 1
ENDMDL
