MODEL 1
REMARK VINA RESULT:      -4.8      0.000      0.000
REMARK  0 active torsions:
REMARK  status: ('A' for Active; 'I' for Inactive)
ROOT
HETATM    1  C1  UNL     1     -32.465   6.660   2.516  1.00 20.00     0.166 A 
HETATM    2  C2  UNL     1     -33.507   6.594   4.402  1.00 20.00     0.048 A 
HETATM    3  C3  UNL     1     -34.015   5.459   3.838  1.00 20.00     0.008 A 
HETATM    4  C4  UNL     1     -34.050   6.836   5.753  1.00 20.00     0.061 C 
HETATM    5  C5  UNL     1     -34.979   4.741   4.693  1.00 20.00     0.048 C 
HETATM    6  C6  UNL     1     -34.748   5.468   6.062  1.00 20.00     0.011 C 
HETATM    7  N7  UNL     1     -32.612   7.306   3.663  1.00 20.00    -0.257 NA
HETATM    8  S8  UNL     1     -33.393   5.202   2.309  1.00 20.00    -0.085 SA
ENDROOT
TORSDOF 0
ENDMDL
MODEL 2
REMARK VINA RESULT:      -4.5      2.071      3.522
REMARK  0 active torsions:
REMARK  status: ('A' for Active; 'I' for Inactive)
ROOT
HETATM    1  C1  UNL     1     -34.916   5.183   5.856  1.00 20.00     0.166 A 
HETATM    2  C2  UNL     1     -34.104   5.241   3.860  1.00 20.00     0.048 A 
HETATM    3  C3  UNL     1     -33.634   6.440   4.317  1.00 20.00     0.008 A 
HETATM    4  C4  UNL     1     -33.701   4.981   2.465  1.00 20.00     0.061 C 
HETATM    5  C5  UNL     1     -32.842   7.193   3.326  1.00 20.00     0.048 C 
HETATM    6  C6  UNL     1     -32.619   6.090   2.236  1.00 20.00     0.011 C 
HETATM    7  N7  UNL     1     -34.845   4.497   4.726  1.00 20.00    -0.257 NA
HETATM    8  S8  UNL     1     -34.101   6.721   5.896  1.00 20.00    -0.085 SA
ENDROOT
TORSDOF 0
ENDMDL
MODEL 3
REMARK VINA RESULT:      -4.4      1.344      1.965
REMARK  0 active torsions:
REMARK  status: ('A' for Active; 'I' for Inactive)
ROOT
HETATM    1  C1  UNL     1     -32.888   6.042   2.120  1.00 20.00     0.166 A 
HETATM    2  C2  UNL     1     -33.969   5.387   3.866  1.00 20.00     0.048 A 
HETATM    3  C3  UNL     1     -33.434   6.540   4.366  1.00 20.00     0.008 A 
HETATM    4  C4  UNL     1     -34.795   4.679   4.863  1.00 20.00     0.061 C 
HETATM    5  C5  UNL     1     -33.797   6.813   5.770  1.00 20.00     0.048 C 
HETATM    6  C6  UNL     1     -34.944   5.766   5.980  1.00 20.00     0.011 C 
HETATM    7  N7  UNL     1     -33.670   5.076   2.574  1.00 20.00    -0.257 NA
HETATM    8  S8  UNL     1     -32.499   7.328   3.227  1.00 20.00    -0.085 SA
ENDROOT
TORSDOF 0
ENDMDL
MODEL 4
REMARK VINA RESULT:      -4.3      1.521      2.945
REMARK  0 active torsions:
REMARK  status: ('A' for Active; 'I' for Inactive)
ROOT
HETATM    1  C1  UNL     1     -34.598   5.976   5.957  1.00 20.00     0.166 A 
HETATM    2  C2  UNL     1     -33.279   6.753   4.440  1.00 20.00     0.048 A 
HETATM    3  C3  UNL     1     -33.811   5.704   3.745  1.00 20.00     0.008 A 
HETATM    4  C4  UNL     1     -32.299   7.511   3.639  1.00 20.00     0.061 C 
HETATM    5  C5  UNL     1     -33.292   5.567   2.370  1.00 20.00     0.048 C 
HETATM    6  C6  UNL     1     -32.553   6.939   2.203  1.00 20.00     0.011 C 
HETATM    7  N7  UNL     1     -33.715   6.933   5.717  1.00 20.00    -0.257 NA
HETATM    8  S8  UNL     1     -34.915   4.853   4.666  1.00 20.00    -0.085 SA
ENDROOT
TORSDOF 0
ENDMDL
MODEL 5
REMARK VINA RESULT:      -3.9     16.691     17.304
REMARK  0 active torsions:
REMARK  status: ('A' for Active; 'I' for Inactive)
ROOT
HETATM    1  C1  UNL     1     -24.426  18.006  12.291  1.00 20.00     0.166 A 
HETATM    2  C2  UNL     1     -24.022  18.168  10.180  1.00 20.00     0.048 A 
HETATM    3  C3  UNL     1     -22.751  17.936  10.624  1.00 20.00     0.008 A 
HETATM    4  C4  UNL     1     -24.079  18.332   8.715  1.00 20.00     0.061 C 
HETATM    5  C5  UNL     1     -21.736  17.903   9.554  1.00 20.00     0.048 C 
HETATM    6  C6  UNL     1     -22.656  17.837   8.286  1.00 20.00     0.011 C 
HETATM    7  N7  UNL     1     -25.007  18.213  11.120  1.00 20.00    -0.257 NA
HETATM    8  S8  UNL     1     -22.703  17.757  12.284  1.00 20.00    -0.085 SA
ENDROOT
TORSDOF 0
ENDMDL
MODEL 6
REMARK VINA RESULT:      -3.8     15.855     16.210
REMARK  0 active torsions:
REMARK  status: ('A' for Active; 'I' for Inactive)
ROOT
HETATM    1  C1  UNL     1     -22.789  17.655   8.491  1.00 20.00     0.166 A 
HETATM    2  C2  UNL     1     -23.745  16.846  10.245  1.00 20.00     0.048 A 
HETATM    3  C3  UNL     1     -24.334  18.078  10.230  1.00 20.00     0.008 A 
HETATM    4  C4  UNL     1     -24.212  16.020  11.375  1.00 20.00     0.061 C 
HETATM    5  C5  UNL     1     -25.288  18.303  11.331  1.00 20.00     0.048 C 
HETATM    6  C6  UNL     1     -25.445  16.844  11.881  1.00 20.00     0.011 C 
HETATM    7  N7  UNL     1     -22.851  16.576   9.254  1.00 20.00    -0.257 NA
HETATM    8  S8  UNL     1     -23.793  19.002   8.947  1.00 20.00    -0.085 SA
ENDROOT
TORSDOF 0
ENDMDL
MODEL 7
REMARK VINA RESULT:      -3.8     16.193     16.375
REMARK  0 active torsions:
REMARK  status: ('A' for Active; 'I' for Inactive)
ROOT
HETATM    1  C1  UNL     1     -24.784  19.263   6.586  1.00 20.00     0.166 A 
HETATM    2  C2  UNL     1     -23.493  18.302   8.020  1.00 20.00     0.048 A 
HETATM    3  C3  UNL     1     -24.585  18.504   8.816  1.00 20.00     0.008 A 
HETATM    4  C4  UNL     1     -22.392  17.637   8.743  1.00 20.00     0.061 C 
HETATM    5  C5  UNL     1     -24.419  18.019  10.200  1.00 20.00     0.048 C 
HETATM    6  C6  UNL     1     -23.113  17.166  10.052  1.00 20.00     0.011 C 
HETATM    7  N7  UNL     1     -23.581  18.730   6.731  1.00 20.00    -0.257 NA
HETATM    8  S8  UNL     1     -25.820  19.261   7.985  1.00 20.00    -0.085 SA
ENDROOT
TORSDOF 0
ENDMDL
MODEL 8
REMARK VINA RESULT:      -3.7     12.111     12.893
REMARK  0 active torsions:
REMARK  status: ('A' for Active; 'I' for Inactive)
ROOT
HETATM    1  C1  UNL     1     -38.752  14.886  -4.291  1.00 20.00     0.166 A 
HETATM    2  C2  UNL     1     -36.642  14.486  -4.112  1.00 20.00     0.048 A 
HETATM    3  C3  UNL     1     -36.628  15.829  -3.860  1.00 20.00     0.008 A 
HETATM    4  C4  UNL     1     -35.291  13.896  -4.061  1.00 20.00     0.061 C 
HETATM    5  C5  UNL     1     -35.284  16.378  -3.598  1.00 20.00     0.048 C 
HETATM    6  C6  UNL     1     -34.463  15.056  -3.410  1.00 20.00     0.011 C 
HETATM    7  N7  UNL     1     -37.853  13.917  -4.364  1.00 20.00    -0.257 NA
HETATM    8  S8  UNL     1     -38.163  16.483  -3.925  1.00 20.00    -0.085 SA
ENDROOT
TORSDOF 0
ENDMDL
MODEL 9
REMARK VINA RESULT:      -3.7     16.310     16.642
REMARK  0 active torsions:
REMARK  status: ('A' for Active; 'I' for Inactive)
ROOT
HETATM    1  C1  UNL     1     -21.760  17.603   7.842  1.00 20.00     0.166 A 
HETATM    2  C2  UNL     1     -23.754  18.383   8.090  1.00 20.00     0.048 A 
HETATM    3  C3  UNL     1     -23.478  18.082   9.394  1.00 20.00     0.008 A 
HETATM    4  C4  UNL     1     -25.103  18.958   7.925  1.00 20.00     0.061 C 
HETATM    5  C5  UNL     1     -24.576  18.394  10.329  1.00 20.00     0.048 C 
HETATM    6  C6  UNL     1     -25.501  19.262   9.410  1.00 20.00     0.011 C 
HETATM    7  N7  UNL     1     -22.782  18.117   7.175  1.00 20.00    -0.257 NA
HETATM    8  S8  UNL     1     -21.949  17.430   9.564  1.00 20.00    -0.085 SA
ENDROOT
TORSDOF 0
ENDMDL
