MODEL 1
REMARK VINA RESULT:      -4.4      0.000      0.000
REMARK  3 active torsions:
REMARK  status: ('A' for Active; 'I' for Inactive)
REMARK    1  A    between atoms: C1_1  and  C3_3 
REMARK    2  A    between atoms: C2_2  and  C7_7 
REMARK    3  A    between atoms: C3_3  and  O9_9 
ROOT
HETATM    1  C1  UNL     1     -36.246  15.118  -5.143  1.00 20.00     0.078 C 
HETATM    2  C2  UNL     1     -35.295  15.856  -4.555  1.00 20.00    -0.017 C 
ENDROOT
BRANCH   1   3
HETATM    3  C3  UNL     1     -36.596  13.791  -4.593  1.00 20.00     0.282 C 
HETATM    4  O8  UNL     1     -35.906  12.787  -4.674  1.00 20.00    -0.260 OA
BRANCH   3   5
HETATM    5  O9  UNL     1     -37.813  13.900  -3.995  1.00 20.00    -0.323 OA
HETATM    6  C6  UNL     1     -38.604  15.019  -4.407  1.00 20.00     0.213 C 
ENDBRANCH   3   5
ENDBRANCH   1   3
BRANCH   2   7
HETATM    7  C7  UNL     1     -34.535  15.404  -3.332  1.00 20.00    -0.000 C 
HETATM    8  C4  UNL     1     -33.047  15.718  -3.489  1.00 20.00     0.013 C 
HETATM    9  C5  UNL     1     -35.097  16.079  -2.082  1.00 20.00     0.013 C 
ENDBRANCH   2   7
TORSDOF 3
ENDMDL
MODEL 2
REMARK VINA RESULT:      -4.1      1.072      1.762
REMARK  3 active torsions:
REMARK  status: ('A' for Active; 'I' for Inactive)
REMARK    1  A    between atoms: C1_1  and  C3_3 
REMARK    2  A    between atoms: C2_2  and  C7_7 
REMARK    3  A    between atoms: C3_3  and  O9_9 
ROOT
HETATM    1  C1  UNL     1     -35.568  13.430  -4.398  1.00 20.00     0.078 C 
HETATM    2  C2  UNL     1     -34.625  14.095  -3.716  1.00 20.00    -0.017 C 
ENDROOT
BRANCH   1   3
HETATM    3  C3  UNL     1     -36.697  14.166  -5.006  1.00 20.00     0.282 C 
HETATM    4  O8  UNL     1     -36.622  14.903  -5.977  1.00 20.00    -0.260 OA
BRANCH   3   5
HETATM    5  O9  UNL     1     -37.815  13.872  -4.288  1.00 20.00    -0.323 OA
HETATM    6  C6  UNL     1     -38.781  14.924  -4.195  1.00 20.00     0.213 C 
ENDBRANCH   3   5
ENDBRANCH   1   3
BRANCH   2   7
HETATM    7  C7  UNL     1     -34.644  15.591  -3.523  1.00 20.00    -0.000 C 
HETATM    8  C4  UNL     1     -35.204  15.939  -2.143  1.00 20.00     0.013 C 
HETATM    9  C5  UNL     1     -33.237  16.163  -3.691  1.00 20.00     0.013 C 
ENDBRANCH   2   7
TORSDOF 3
ENDMDL
MODEL 3
REMARK VINA RESULT:      -4.1     11.538     12.132
REMARK  3 active torsions:
REMARK  status: ('A' for Active; 'I' for Inactive)
REMARK    1  A    between atoms: C1_1  and  C3_3 
REMARK    2  A    between atoms: C2_2  and  C7_7 
REMARK    3  A    between atoms: C3_3  and  O9_9 
ROOT
HETATM    1  C1  UNL     1     -33.810   4.695   3.217  1.00 20.00     0.078 C 
HETATM    2  C2  UNL     1     -32.975   5.507   2.555  1.00 20.00    -0.017 C 
ENDROOT
BRANCH   1   3
HETATM    3  C3  UNL     1     -34.780   5.258   4.180  1.00 20.00     0.282 C 
HETATM    4  O8  UNL     1     -35.894   5.673   3.902  1.00 20.00    -0.260 OA
BRANCH   3   5
HETATM    5  O9  UNL     1     -34.202   5.227   5.412  1.00 20.00    -0.323 OA
HETATM    6  C6  UNL     1     -34.268   6.450   6.153  1.00 20.00     0.213 C 
ENDBRANCH   3   5
ENDBRANCH   1   3
BRANCH   2   7
HETATM    7  C7  UNL     1     -32.960   7.004   2.738  1.00 20.00    -0.000 C 
HETATM    8  C4  UNL     1     -31.831   7.410   3.686  1.00 20.00     0.013 C 
HETATM    9  C5  UNL     1     -32.801   7.699   1.386  1.00 20.00     0.013 C 
ENDBRANCH   2   7
TORSDOF 3
ENDMDL
MODEL 4
REMARK VINA RESULT:      -4.0      1.430      2.247
REMARK  3 active torsions:
REMARK  status: ('A' for Active; 'I' for Inactive)
REMARK    1  A    between atoms: C1_1  and  C3_3 
REMARK    2  A    between atoms: C2_2  and  C7_7 
REMARK    3  A    between atoms: C3_3  and  O9_9 
ROOT
HETATM    1  C1  UNL     1     -35.010  13.568  -4.178  1.00 20.00     0.078 C 
HETATM    2  C2  UNL     1     -34.465  14.563  -3.464  1.00 20.00    -0.017 C 
ENDROOT
BRANCH   1   3
HETATM    3  C3  UNL     1     -36.279  13.789  -4.903  1.00 20.00     0.282 C 
HETATM    4  O8  UNL     1     -37.390  13.813  -4.396  1.00 20.00    -0.260 OA
BRANCH   3   5
HETATM    5  O9  UNL     1     -35.978  13.954  -6.220  1.00 20.00    -0.323 OA
HETATM    6  C6  UNL     1     -36.193  15.270  -6.740  1.00 20.00     0.213 C 
ENDBRANCH   3   5
ENDBRANCH   1   3
BRANCH   2   7
HETATM    7  C7  UNL     1     -35.083  15.934  -3.351  1.00 20.00    -0.000 C 
HETATM    8  C4  UNL     1     -35.197  16.342  -1.881  1.00 20.00     0.013 C 
HETATM    9  C5  UNL     1     -34.251  16.954  -4.128  1.00 20.00     0.013 C 
ENDBRANCH   2   7
TORSDOF 3
ENDMDL
MODEL 5
REMARK VINA RESULT:      -4.0      1.120      1.852
REMARK  3 active torsions:
REMARK  status: ('A' for Active; 'I' for Inactive)
REMARK    1  A    between atoms: C1_1  and  C3_3 
REMARK    2  A    between atoms: C2_2  and  C7_7 
REMARK    3  A    between atoms: C3_3  and  O9_9 
ROOT
HETATM    1  C1  UNL     1     -36.596  15.844  -4.890  1.00 20.00     0.078 C 
HETATM    2  C2  UNL     1     -35.843  16.433  -3.950  1.00 20.00    -0.017 C 
ENDROOT
BRANCH   1   3
HETATM    3  C3  UNL     1     -36.616  14.371  -5.003  1.00 20.00     0.282 C 
HETATM    4  O8  UNL     1     -37.385  13.626  -4.416  1.00 20.00    -0.260 OA
BRANCH   3   5
HETATM    5  O9  UNL     1     -35.631  14.010  -5.870  1.00 20.00    -0.323 OA
HETATM    6  C6  UNL     1     -35.562  14.776  -7.076  1.00 20.00     0.213 C 
ENDBRANCH   3   5
ENDBRANCH   1   3
BRANCH   2   7
HETATM    7  C7  UNL     1     -34.990  15.665  -2.972  1.00 20.00    -0.000 C 
HETATM    8  C4  UNL     1     -33.538  15.629  -3.452  1.00 20.00     0.013 C 
HETATM    9  C5  UNL     1     -35.080  16.295  -1.583  1.00 20.00     0.013 C 
ENDBRANCH   2   7
TORSDOF 3
ENDMDL
MODEL 6
REMARK VINA RESULT:      -4.0      2.019      2.759
REMARK  3 active torsions:
REMARK  status: ('A' for Active; 'I' for Inactive)
REMARK    1  A    between atoms: C1_1  and  C3_3 
REMARK    2  A    between atoms: C2_2  and  C7_7 
REMARK    3  A    between atoms: C3_3  and  O9_9 
ROOT
HETATM    1  C1  UNL     1     -33.090  15.122  -3.942  1.00 20.00     0.078 C 
HETATM    2  C2  UNL     1     -33.555  16.074  -3.121  1.00 20.00    -0.017 C 
ENDROOT
BRANCH   1   3
HETATM    3  C3  UNL     1     -34.017  14.124  -4.517  1.00 20.00     0.282 C 
HETATM    4  O8  UNL     1     -34.412  13.117  -3.951  1.00 20.00    -0.260 OA
BRANCH   3   5
HETATM    5  O9  UNL     1     -34.337  14.535  -5.774  1.00 20.00    -0.323 OA
HETATM    6  C6  UNL     1     -35.729  14.486  -6.101  1.00 20.00     0.213 C 
ENDBRANCH   3   5
ENDBRANCH   1   3
BRANCH   2   7
HETATM    7  C7  UNL     1     -35.008  16.194  -2.734  1.00 20.00    -0.000 C 
HETATM    8  C4  UNL     1     -35.132  16.564  -1.255  1.00 20.00     0.013 C 
HETATM    9  C5  UNL     1     -35.703  17.237  -3.608  1.00 20.00     0.013 C 
ENDBRANCH   2   7
TORSDOF 3
ENDMDL
MODEL 7
REMARK VINA RESULT:      -3.9      9.892     11.173
REMARK  3 active torsions:
REMARK  status: ('A' for Active; 'I' for Inactive)
REMARK    1  A    between atoms: C1_1  and  C3_3 
REMARK    2  A    between atoms: C2_2  and  C7_7 
REMARK    3  A    between atoms: C3_3  and  O9_9 
ROOT
HETATM    1  C1  UNL     1     -42.054   5.921   0.591  1.00 20.00     0.078 C 
HETATM    2  C2  UNL     1     -42.180   7.229   0.856  1.00 20.00    -0.017 C 
ENDROOT
BRANCH   1   3
HETATM    3  C3  UNL     1     -41.761   5.472  -0.787  1.00 20.00     0.282 C 
HETATM    4  O8  UNL     1     -40.647   5.347  -1.269  1.00 20.00    -0.260 OA
BRANCH   3   5
HETATM    5  O9  UNL     1     -42.950   5.231  -1.403  1.00 20.00    -0.323 OA
HETATM    6  C6  UNL     1     -43.008   4.034  -2.184  1.00 20.00     0.213 C 
ENDBRANCH   3   5
ENDBRANCH   1   3
BRANCH   2   7
HETATM    7  C7  UNL     1     -42.038   8.303  -0.193  1.00 20.00    -0.000 C 
HETATM    8  C4  UNL     1     -43.417   8.740  -0.691  1.00 20.00     0.013 C 
HETATM    9  C5  UNL     1     -41.269   9.496   0.373  1.00 20.00     0.013 C 
ENDBRANCH   2   7
TORSDOF 3
ENDMDL
MODEL 8
REMARK VINA RESULT:      -3.8     11.166     11.909
REMARK  3 active torsions:
REMARK  status: ('A' for Active; 'I' for Inactive)
REMARK    1  A    between atoms: C1_1  and  C3_3 
REMARK    2  A    between atoms: C2_2  and  C7_7 
REMARK    3  A    between atoms: C3_3  and  O9_9 
ROOT
HETATM    1  C1  UNL     1     -32.863   5.454   2.558  1.00 20.00     0.078 C 
HETATM    2  C2  UNL     1     -33.803   4.900   3.336  1.00 20.00    -0.017 C 
ENDROOT
BRANCH   1   3
HETATM    3  C3  UNL     1     -32.580   6.902   2.658  1.00 20.00     0.282 C 
HETATM    4  O8  UNL     1     -31.829   7.422   3.469  1.00 20.00    -0.260 OA
BRANCH   3   5
HETATM    5  O9  UNL     1     -33.305   7.531   1.694  1.00 20.00    -0.323 OA
HETATM    6  C6  UNL     1     -32.564   8.408   0.841  1.00 20.00     0.213 C 
ENDBRANCH   3   5
ENDBRANCH   1   3
BRANCH   2   7
HETATM    7  C7  UNL     1     -34.615   5.683   4.337  1.00 20.00    -0.000 C 
HETATM    8  C4  UNL     1     -36.072   5.773   3.880  1.00 20.00     0.013 C 
HETATM    9  C5  UNL     1     -34.524   5.032   5.716  1.00 20.00     0.013 C 
ENDBRANCH   2   7
TORSDOF 3
ENDMDL
MODEL 9
REMARK VINA RESULT:      -3.8      2.327      3.004
REMARK  3 active torsions:
REMARK  status: ('A' for Active; 'I' for Inactive)
REMARK    1  A    between atoms: C1_1  and  C3_3 
REMARK    2  A    between atoms: C2_2  and  C7_7 
REMARK    3  A    between atoms: C3_3  and  O9_9 
ROOT
HETATM    1  C1  UNL     1     -34.854  14.793  -3.402  1.00 20.00     0.078 C 
HETATM    2  C2  UNL     1     -34.550  15.959  -2.815  1.00 20.00    -0.017 C 
ENDROOT
BRANCH   1   3
HETATM    3  C3  UNL     1     -34.022  14.287  -4.514  1.00 20.00     0.282 C 
HETATM    4  O8  UNL     1     -32.902  13.815  -4.402  1.00 20.00    -0.260 OA
BRANCH   3   5
HETATM    5  O9  UNL     1     -34.730  14.446  -5.665  1.00 20.00    -0.323 OA
HETATM    6  C6  UNL     1     -34.032  15.094  -6.733  1.00 20.00     0.213 C 
ENDBRANCH   3   5
ENDBRANCH   1   3
BRANCH   2   7
HETATM    7  C7  UNL     1     -33.377  16.812  -3.230  1.00 20.00    -0.000 C 
HETATM    8  C4  UNL     1     -33.824  17.872  -4.237  1.00 20.00     0.013 C 
HETATM    9  C5  UNL     1     -32.743  17.469  -2.005  1.00 20.00     0.013 C 
ENDBRANCH   2   7
TORSDOF 3
ENDMDL
