MODEL 1
REMARK VINA RESULT:      -5.5      0.000      0.000
REMARK  2 active torsions:
REMARK  status: ('A' for Active; 'I' for Inactive)
REMARK    1  A    between atoms: C3_3  and  C10_10 
REMARK    2  A    between atoms: C7_7  and  C10_10 
ROOT
HETATM    1  C1  UNL     1     -32.928  17.326  -2.219  1.00 20.00    -0.024 C 
HETATM    2  C2  UNL     1     -33.867  17.466  -1.267  1.00 20.00    -0.087 C 
HETATM    3  C4  UNL     1     -33.037  16.357  -3.360  1.00 20.00     0.032 C 
HETATM    4  C5  UNL     1     -35.146  16.669  -1.286  1.00 20.00     0.034 C 
HETATM    5  C6  UNL     1     -35.408  15.952  -2.615  1.00 20.00     0.010 C 
HETATM    6  C7  UNL     1     -34.131  15.297  -3.151  1.00 20.00    -0.001 C 
HETATM    7  C8  UNL     1     -33.700  18.422  -0.123  1.00 20.00     0.043 C 
ENDROOT
BRANCH   6   8
HETATM    8  C10 UNL     1     -34.404  14.538  -4.448  1.00 20.00     0.047 C 
HETATM    9  C9  UNL     1     -34.376  15.480  -5.644  1.00 20.00     0.017 C 
BRANCH   8  10
HETATM   10  C3  UNL     1     -35.732  13.818  -4.327  1.00 20.00     0.235 C 
HETATM   11  O11 UNL     1     -35.886  12.611  -4.483  1.00 20.00    -0.306 OA
ENDBRANCH   8  10
ENDBRANCH   6   8
TORSDOF 2
ENDMDL
MODEL 2
REMARK VINA RESULT:      -5.3      1.297      1.577
REMARK  2 active torsions:
REMARK  status: ('A' for Active; 'I' for Inactive)
REMARK    1  A    between atoms: C3_3  and  C10_10 
REMARK    2  A    between atoms: C7_7  and  C10_10 
ROOT
HETATM    1  C1  UNL     1     -32.925  16.303  -3.410  1.00 20.00    -0.024 C 
HETATM    2  C2  UNL     1     -33.366  16.879  -2.278  1.00 20.00    -0.087 C 
HETATM    3  C4  UNL     1     -33.743  15.350  -4.232  1.00 20.00     0.032 C 
HETATM    4  C5  UNL     1     -34.757  16.636  -1.749  1.00 20.00     0.034 C 
HETATM    5  C6  UNL     1     -35.691  15.957  -2.757  1.00 20.00     0.010 C 
HETATM    6  C7  UNL     1     -34.979  14.816  -3.489  1.00 20.00    -0.001 C 
HETATM    7  C8  UNL     1     -32.502  17.798  -1.467  1.00 20.00     0.043 C 
ENDROOT
BRANCH   6   8
HETATM    8  C10 UNL     1     -35.925  14.105  -4.454  1.00 20.00     0.047 C 
HETATM    9  C9  UNL     1     -35.568  14.425  -5.900  1.00 20.00     0.017 C 
BRANCH   8  10
HETATM   10  C3  UNL     1     -37.352  14.499  -4.124  1.00 20.00     0.235 C 
HETATM   11  O11 UNL     1     -38.345  13.863  -4.461  1.00 20.00    -0.306 OA
ENDBRANCH   8  10
ENDBRANCH   6   8
TORSDOF 2
ENDMDL
MODEL 3
REMARK VINA RESULT:      -5.3      0.369      1.553
REMARK  2 active torsions:
REMARK  status: ('A' for Active; 'I' for Inactive)
REMARK    1  A    between atoms: C3_3  and  C10_10 
REMARK    2  A    between atoms: C7_7  and  C10_10 
ROOT
HETATM    1  C1  UNL     1     -35.031  16.583  -1.367  1.00 20.00    -0.024 C 
HETATM    2  C2  UNL     1     -33.988  17.432  -1.343  1.00 20.00    -0.087 C 
HETATM    3  C4  UNL     1     -35.238  15.550  -2.436  1.00 20.00     0.032 C 
HETATM    4  C5  UNL     1     -32.903  17.391  -2.389  1.00 20.00     0.034 C 
HETATM    5  C6  UNL     1     -32.931  16.130  -3.260  1.00 20.00     0.010 C 
HETATM    6  C7  UNL     1     -34.362  15.779  -3.678  1.00 20.00    -0.001 C 
HETATM    7  C8  UNL     1     -33.838  18.474  -0.275  1.00 20.00     0.043 C 
ENDROOT
BRANCH   6   8
HETATM    8  C10 UNL     1     -34.385  14.554  -4.590  1.00 20.00     0.047 C 
HETATM    9  C9  UNL     1     -34.165  14.955  -6.043  1.00 20.00     0.017 C 
BRANCH   8  10
HETATM   10  C3  UNL     1     -35.698  13.822  -4.398  1.00 20.00     0.235 C 
HETATM   11  O11 UNL     1     -35.842  12.610  -4.515  1.00 20.00    -0.306 OA
ENDBRANCH   8  10
ENDBRANCH   6   8
TORSDOF 2
ENDMDL
MODEL 4
REMARK VINA RESULT:      -4.8      2.759      4.907
REMARK  2 active torsions:
REMARK  status: ('A' for Active; 'I' for Inactive)
REMARK    1  A    between atoms: C3_3  and  C10_10 
REMARK    2  A    between atoms: C7_7  and  C10_10 
ROOT
HETATM    1  C1  UNL     1     -35.422  15.580  -2.567  1.00 20.00    -0.024 C 
HETATM    2  C2  UNL     1     -34.696  14.886  -3.462  1.00 20.00    -0.087 C 
HETATM    3  C4  UNL     1     -34.925  16.811  -1.868  1.00 20.00     0.032 C 
HETATM    4  C5  UNL     1     -33.309  15.316  -3.868  1.00 20.00     0.034 C 
HETATM    5  C6  UNL     1     -32.950  16.739  -3.427  1.00 20.00     0.010 C 
HETATM    6  C7  UNL     1     -33.405  17.004  -1.989  1.00 20.00    -0.001 C 
HETATM    7  C8  UNL     1     -35.218  13.639  -4.111  1.00 20.00     0.043 C 
ENDROOT
BRANCH   6   8
HETATM    8  C10 UNL     1     -32.999  18.404  -1.531  1.00 20.00     0.047 C 
HETATM    9  C9  UNL     1     -32.572  19.260  -2.717  1.00 20.00     0.017 C 
BRANCH   8  10
HETATM   10  C3  UNL     1     -31.899  18.284  -0.495  1.00 20.00     0.235 C 
HETATM   11  O11 UNL     1     -30.708  18.151  -0.756  1.00 20.00    -0.306 OA
ENDBRANCH   8  10
ENDBRANCH   6   8
TORSDOF 2
ENDMDL
MODEL 5
REMARK VINA RESULT:      -4.8      1.139      2.137
REMARK  2 active torsions:
REMARK  status: ('A' for Active; 'I' for Inactive)
REMARK    1  A    between atoms: C3_3  and  C10_10 
REMARK    2  A    between atoms: C7_7  and  C10_10 
ROOT
HETATM    1  C1  UNL     1     -35.085  16.877  -1.039  1.00 20.00    -0.024 C 
HETATM    2  C2  UNL     1     -34.039  17.714  -0.922  1.00 20.00    -0.087 C 
HETATM    3  C4  UNL     1     -35.282  15.948  -2.201  1.00 20.00     0.032 C 
HETATM    4  C5  UNL     1     -32.940  17.765  -1.954  1.00 20.00     0.034 C 
HETATM    5  C6  UNL     1     -32.962  16.591  -2.938  1.00 20.00     0.010 C 
HETATM    6  C7  UNL     1     -34.389  16.287  -3.405  1.00 20.00    -0.001 C 
HETATM    7  C8  UNL     1     -33.900  18.652   0.240  1.00 20.00     0.043 C 
ENDROOT
BRANCH   6   8
HETATM    8  C10 UNL     1     -34.403  15.152  -4.427  1.00 20.00     0.047 C 
HETATM    9  C9  UNL     1     -35.529  14.170  -4.132  1.00 20.00     0.017 C 
BRANCH   8  10
HETATM   10  C3  UNL     1     -33.048  14.474  -4.430  1.00 20.00     0.235 C 
HETATM   11  O11 UNL     1     -32.875  13.263  -4.348  1.00 20.00    -0.306 OA
ENDBRANCH   8  10
ENDBRANCH   6   8
TORSDOF 2
ENDMDL
MODEL 6
REMARK VINA RESULT:      -4.7      1.196      1.586
REMARK  2 active torsions:
REMARK  status: ('A' for Active; 'I' for Inactive)
REMARK    1  A    between atoms: C3_3  and  C10_10 
REMARK    2  A    between atoms: C7_7  and  C10_10 
ROOT
HETATM    1  C1  UNL     1     -32.893  17.368  -2.115  1.00 20.00    -0.024 C 
HETATM    2  C2  UNL     1     -33.738  17.534  -1.082  1.00 20.00    -0.087 C 
HETATM    3  C4  UNL     1     -33.194  16.507  -3.306  1.00 20.00     0.032 C 
HETATM    4  C5  UNL     1     -35.098  16.882  -1.052  1.00 20.00     0.034 C 
HETATM    5  C6  UNL     1     -35.534  16.302  -2.401  1.00 20.00     0.010 C 
HETATM    6  C7  UNL     1     -34.382  15.557  -3.082  1.00 20.00    -0.001 C 
HETATM    7  C8  UNL     1     -33.382  18.376   0.106  1.00 20.00     0.043 C 
ENDROOT
BRANCH   6   8
HETATM    8  C10 UNL     1     -34.833  14.933  -4.402  1.00 20.00     0.047 C 
HETATM    9  C9  UNL     1     -35.594  13.637  -4.158  1.00 20.00     0.017 C 
BRANCH   8  10
HETATM   10  C3  UNL     1     -33.620  14.719  -5.285  1.00 20.00     0.235 C 
HETATM   11  O11 UNL     1     -33.651  14.670  -6.510  1.00 20.00    -0.306 OA
ENDBRANCH   8  10
ENDBRANCH   6   8
TORSDOF 2
ENDMDL
MODEL 7
REMARK VINA RESULT:      -4.5     13.547     15.816
REMARK  2 active torsions:
REMARK  status: ('A' for Active; 'I' for Inactive)
REMARK    1  A    between atoms: C3_3  and  C10_10 
REMARK    2  A    between atoms: C7_7  and  C10_10 
ROOT
HETATM    1  C1  UNL     1     -22.693  18.202   9.717  1.00 20.00    -0.024 C 
HETATM    2  C2  UNL     1     -23.393  18.148  10.864  1.00 20.00    -0.087 C 
HETATM    3  C4  UNL     1     -23.290  18.592   8.396  1.00 20.00     0.032 C 
HETATM    4  C5  UNL     1     -24.855  18.513  10.925  1.00 20.00     0.034 C 
HETATM    5  C6  UNL     1     -25.363  19.235   9.672  1.00 20.00     0.010 C 
HETATM    6  C7  UNL     1     -24.827  18.576   8.398  1.00 20.00    -0.001 C 
HETATM    7  C8  UNL     1     -22.765  17.718  12.156  1.00 20.00     0.043 C 
ENDROOT
BRANCH   6   8
HETATM    8  C10 UNL     1     -25.378  19.262   7.149  1.00 20.00     0.047 C 
HETATM    9  C9  UNL     1     -26.658  18.586   6.677  1.00 20.00     0.017 C 
BRANCH   8  10
HETATM   10  C3  UNL     1     -24.308  19.261   6.075  1.00 20.00     0.235 C 
HETATM   11  O11 UNL     1     -24.502  18.968   4.900  1.00 20.00    -0.306 OA
ENDBRANCH   8  10
ENDBRANCH   6   8
TORSDOF 2
ENDMDL
MODEL 8
REMARK VINA RESULT:      -4.5      2.815      5.134
REMARK  2 active torsions:
REMARK  status: ('A' for Active; 'I' for Inactive)
REMARK    1  A    between atoms: C3_3  and  C10_10 
REMARK    2  A    between atoms: C7_7  and  C10_10 
ROOT
HETATM    1  C1  UNL     1     -35.228  15.824  -2.242  1.00 20.00    -0.024 C 
HETATM    2  C2  UNL     1     -34.479  15.298  -3.228  1.00 20.00    -0.087 C 
HETATM    3  C4  UNL     1     -34.797  16.989  -1.401  1.00 20.00     0.032 C 
HETATM    4  C5  UNL     1     -33.133  15.870  -3.597  1.00 20.00     0.034 C 
HETATM    5  C6  UNL     1     -32.858  17.248  -2.985  1.00 20.00     0.010 C 
HETATM    6  C7  UNL     1     -33.296  17.299  -1.519  1.00 20.00    -0.001 C 
HETATM    7  C8  UNL     1     -34.933  14.110  -4.021  1.00 20.00     0.043 C 
ENDROOT
BRANCH   6   8
HETATM    8  C10 UNL     1     -32.973  18.656  -0.895  1.00 20.00     0.047 C 
HETATM    9  C9  UNL     1     -31.496  18.750  -0.537  1.00 20.00     0.017 C 
BRANCH   8  10
HETATM   10  C3  UNL     1     -33.863  18.866   0.315  1.00 20.00     0.235 C 
HETATM   11  O11 UNL     1     -33.516  18.675   1.475  1.00 20.00    -0.306 OA
ENDBRANCH   8  10
ENDBRANCH   6   8
TORSDOF 2
ENDMDL
MODEL 9
REMARK VINA RESULT:      -4.4      2.771      4.847
REMARK  2 active torsions:
REMARK  status: ('A' for Active; 'I' for Inactive)
REMARK    1  A    between atoms: C3_3  and  C10_10 
REMARK    2  A    between atoms: C7_7  and  C10_10 
ROOT
HETATM    1  C1  UNL     1     -33.257  15.789  -3.403  1.00 20.00    -0.024 C 
HETATM    2  C2  UNL     1     -34.515  15.329  -3.284  1.00 20.00    -0.087 C 
HETATM    3  C4  UNL     1     -32.705  16.924  -2.591  1.00 20.00     0.032 C 
HETATM    4  C5  UNL     1     -35.483  15.906  -2.281  1.00 20.00     0.034 C 
HETATM    5  C6  UNL     1     -34.822  16.807  -1.233  1.00 20.00     0.010 C 
HETATM    6  C7  UNL     1     -33.793  17.742  -1.876  1.00 20.00    -0.001 C 
HETATM    7  C8  UNL     1     -35.037  14.215  -4.141  1.00 20.00     0.043 C 
ENDROOT
BRANCH   6   8
HETATM    8  C10 UNL     1     -33.174  18.677  -0.839  1.00 20.00     0.047 C 
HETATM    9  C9  UNL     1     -31.663  18.495  -0.777  1.00 20.00     0.017 C 
BRANCH   8  10
HETATM   10  C3  UNL     1     -33.829  18.424   0.505  1.00 20.00     0.235 C 
HETATM   11  O11 UNL     1     -33.224  18.332   1.568  1.00 20.00    -0.306 OA
ENDBRANCH   8  10
ENDBRANCH   6   8
TORSDOF 2
ENDMDL
