MODEL 1
REMARK VINA RESULT:      -4.3      0.000      0.000
REMARK  2 active torsions:
REMARK  status: ('A' for Active; 'I' for Inactive)
REMARK    1  A    between atoms: C1_1  and  O6_6 
REMARK    2  A    between atoms: C4_4  and  O6_6 
ROOT
HETATM    1  O6  UNL     1     -34.221   6.472   3.725  1.00 20.00    -0.301 OA
ENDROOT
BRANCH   1   2
HETATM    2  C1  UNL     1     -34.621   5.658   4.743  1.00 20.00     0.256 C 
HETATM    3  C2  UNL     1     -34.276   6.294   6.054  1.00 20.00     0.126 C 
HETATM    4  O5  UNL     1     -35.176   4.574   4.632  1.00 20.00    -0.266 OA
ENDBRANCH   1   2
BRANCH   1   5
HETATM    5  C4  UNL     1     -32.935   6.207   3.141  1.00 20.00     0.223 C 
HETATM    6  C3  UNL     1     -32.553   7.326   2.185  1.00 20.00     0.057 C 
HETATM    7 CL7  UNL     1     -33.050   4.668   2.245  1.00 20.00    -0.095 Cl
ENDBRANCH   1   5
TORSDOF 2
ENDMDL
MODEL 2
REMARK VINA RESULT:      -4.0      2.163      3.466
REMARK  2 active torsions:
REMARK  status: ('A' for Active; 'I' for Inactive)
REMARK    1  A    between atoms: C1_1  and  O6_6 
REMARK    2  A    between atoms: C4_4  and  O6_6 
ROOT
HETATM    1  O6  UNL     1     -33.675   6.777   3.760  1.00 20.00    -0.301 OA
ENDROOT
BRANCH   1   2
HETATM    2  C1  UNL     1     -32.982   6.293   2.690  1.00 20.00     0.256 C 
HETATM    3  C2  UNL     1     -32.436   7.438   1.892  1.00 20.00     0.126 C 
HETATM    4  O5  UNL     1     -32.816   5.116   2.402  1.00 20.00    -0.266 OA
ENDBRANCH   1   2
BRANCH   1   5
HETATM    5  C4  UNL     1     -34.116   5.823   4.741  1.00 20.00     0.223 C 
HETATM    6  C3  UNL     1     -35.481   5.273   4.360  1.00 20.00     0.057 C 
HETATM    7 CL7  UNL     1     -34.227   6.667   6.310  1.00 20.00    -0.095 Cl
ENDBRANCH   1   5
TORSDOF 2
ENDMDL
MODEL 3
REMARK VINA RESULT:      -3.9      1.418      1.622
REMARK  2 active torsions:
REMARK  status: ('A' for Active; 'I' for Inactive)
REMARK    1  A    between atoms: C1_1  and  O6_6 
REMARK    2  A    between atoms: C4_4  and  O6_6 
ROOT
HETATM    1  O6  UNL     1     -33.818   6.350   4.196  1.00 20.00    -0.301 OA
ENDROOT
BRANCH   1   2
HETATM    2  C1  UNL     1     -34.887   5.651   4.672  1.00 20.00     0.256 C 
HETATM    3  C2  UNL     1     -34.629   5.252   6.093  1.00 20.00     0.126 C 
HETATM    4  O5  UNL     1     -35.909   5.378   4.058  1.00 20.00    -0.266 OA
ENDBRANCH   1   2
BRANCH   1   5
HETATM    5  C4  UNL     1     -33.500   6.194   2.803  1.00 20.00     0.223 C 
HETATM    6  C3  UNL     1     -33.044   4.771   2.526  1.00 20.00     0.057 C 
HETATM    7 CL7  UNL     1     -32.181   7.332   2.414  1.00 20.00    -0.095 Cl
ENDBRANCH   1   5
TORSDOF 2
ENDMDL
MODEL 4
REMARK VINA RESULT:      -3.8      2.170      3.645
REMARK  2 active torsions:
REMARK  status: ('A' for Active; 'I' for Inactive)
REMARK    1  A    between atoms: C1_1  and  O6_6 
REMARK    2  A    between atoms: C4_4  and  O6_6 
ROOT
HETATM    1  O6  UNL     1     -34.066   6.591   3.711  1.00 20.00    -0.301 OA
ENDROOT
BRANCH   1   2
HETATM    2  C1  UNL     1     -33.041   6.394   2.834  1.00 20.00     0.256 C 
HETATM    3  C2  UNL     1     -33.076   4.981   2.337  1.00 20.00     0.126 C 
HETATM    4  O5  UNL     1     -32.209   7.222   2.489  1.00 20.00    -0.266 OA
ENDBRANCH   1   2
BRANCH   1   5
HETATM    5  C4  UNL     1     -33.980   5.921   4.980  1.00 20.00     0.223 C 
HETATM    6  C3  UNL     1     -35.214   5.061   5.202  1.00 20.00     0.057 C 
HETATM    7 CL7  UNL     1     -33.885   7.171   6.251  1.00 20.00    -0.095 Cl
ENDBRANCH   1   5
TORSDOF 2
ENDMDL
MODEL 5
REMARK VINA RESULT:      -3.7      1.667      3.201
REMARK  2 active torsions:
REMARK  status: ('A' for Active; 'I' for Inactive)
REMARK    1  A    between atoms: C1_1  and  O6_6 
REMARK    2  A    between atoms: C4_4  and  O6_6 
ROOT
HETATM    1  O6  UNL     1     -32.992   6.498   3.993  1.00 20.00    -0.301 OA
ENDROOT
BRANCH   1   2
HETATM    2  C1  UNL     1     -32.909   6.214   2.662  1.00 20.00     0.256 C 
HETATM    3  C2  UNL     1     -32.567   7.462   1.907  1.00 20.00     0.126 C 
HETATM    4  O5  UNL     1     -33.082   5.122   2.138  1.00 20.00    -0.266 OA
ENDBRANCH   1   2
BRANCH   1   5
HETATM    5  C4  UNL     1     -34.285   6.375   4.609  1.00 20.00     0.223 C 
HETATM    6  C3  UNL     1     -34.194   6.712   6.089  1.00 20.00     0.057 C 
HETATM    7 CL7  UNL     1     -34.823   4.684   4.413  1.00 20.00    -0.095 Cl
ENDBRANCH   1   5
TORSDOF 2
ENDMDL
MODEL 6
REMARK VINA RESULT:      -3.7     11.851     12.182
REMARK  2 active torsions:
REMARK  status: ('A' for Active; 'I' for Inactive)
REMARK    1  A    between atoms: C1_1  and  O6_6 
REMARK    2  A    between atoms: C4_4  and  O6_6 
ROOT
HETATM    1  O6  UNL     1     -35.085  13.744  -4.210  1.00 20.00    -0.301 OA
ENDROOT
BRANCH   1   2
HETATM    2  C1  UNL     1     -36.256  13.861  -4.899  1.00 20.00     0.256 C 
HETATM    3  C2  UNL     1     -35.980  14.436  -6.255  1.00 20.00     0.126 C 
HETATM    4  O5  UNL     1     -37.370  13.554  -4.499  1.00 20.00    -0.266 OA
ENDBRANCH   1   2
BRANCH   1   5
HETATM    5  C4  UNL     1     -34.250  14.911  -4.134  1.00 20.00     0.223 C 
HETATM    6  C3  UNL     1     -32.791  14.524  -4.307  1.00 20.00     0.057 C 
HETATM    7 CL7  UNL     1     -34.488  15.647  -2.525  1.00 20.00    -0.095 Cl
ENDBRANCH   1   5
TORSDOF 2
ENDMDL
MODEL 7
REMARK VINA RESULT:      -3.6     11.716     12.584
REMARK  2 active torsions:
REMARK  status: ('A' for Active; 'I' for Inactive)
REMARK    1  A    between atoms: C1_1  and  O6_6 
REMARK    2  A    between atoms: C4_4  and  O6_6 
ROOT
HETATM    1  O6  UNL     1     -35.558  14.027  -6.024  1.00 20.00    -0.301 OA
ENDROOT
BRANCH   1   2
HETATM    2  C1  UNL     1     -36.121  13.630  -4.847  1.00 20.00     0.256 C 
HETATM    3  C2  UNL     1     -36.971  14.737  -4.304  1.00 20.00     0.126 C 
HETATM    4  O5  UNL     1     -35.972  12.547  -4.298  1.00 20.00    -0.266 OA
ENDBRANCH   1   2
BRANCH   1   5
HETATM    5  C4  UNL     1     -34.576  15.074  -5.961  1.00 20.00     0.223 C 
HETATM    6  C3  UNL     1     -33.923  15.262  -7.321  1.00 20.00     0.057 C 
HETATM    7 CL7  UNL     1     -33.341  14.591  -4.766  1.00 20.00    -0.095 Cl
ENDBRANCH   1   5
TORSDOF 2
ENDMDL
MODEL 8
REMARK VINA RESULT:      -3.6     16.889     17.553
REMARK  2 active torsions:
REMARK  status: ('A' for Active; 'I' for Inactive)
REMARK    1  A    between atoms: C1_1  and  O6_6 
REMARK    2  A    between atoms: C4_4  and  O6_6 
ROOT
HETATM    1  O6  UNL     1     -23.020  17.322   9.918  1.00 20.00    -0.301 OA
ENDROOT
BRANCH   1   2
HETATM    2  C1  UNL     1     -22.802  18.482   9.236  1.00 20.00     0.256 C 
HETATM    3  C2  UNL     1     -24.117  19.111   8.890  1.00 20.00     0.126 C 
HETATM    4  O5  UNL     1     -21.715  18.958   8.939  1.00 20.00    -0.266 OA
ENDBRANCH   1   2
BRANCH   1   5
HETATM    5  C4  UNL     1     -23.696  17.422  11.182  1.00 20.00     0.223 C 
HETATM    6  C3  UNL     1     -22.704  17.763  12.282  1.00 20.00     0.057 C 
HETATM    7 CL7  UNL     1     -24.450  15.841  11.525  1.00 20.00    -0.095 Cl
ENDBRANCH   1   5
TORSDOF 2
ENDMDL
MODEL 9
REMARK VINA RESULT:      -3.5     11.585     12.247
REMARK  2 active torsions:
REMARK  status: ('A' for Active; 'I' for Inactive)
REMARK    1  A    between atoms: C1_1  and  O6_6 
REMARK    2  A    between atoms: C4_4  and  O6_6 
ROOT
HETATM    1  O6  UNL     1     -35.840  15.067  -4.021  1.00 20.00    -0.301 OA
ENDROOT
BRANCH   1   2
HETATM    2  C1  UNL     1     -35.874  13.999  -4.869  1.00 20.00     0.256 C 
HETATM    3  C2  UNL     1     -35.789  14.484  -6.284  1.00 20.00     0.126 C 
HETATM    4  O5  UNL     1     -35.961  12.821  -4.553  1.00 20.00    -0.266 OA
ENDBRANCH   1   2
BRANCH   1   5
HETATM    5  C4  UNL     1     -34.798  15.084  -3.032  1.00 20.00     0.223 C 
HETATM    6  C3  UNL     1     -35.055  16.189  -2.019  1.00 20.00     0.057 C 
HETATM    7 CL7  UNL     1     -33.253  15.390  -3.872  1.00 20.00    -0.095 Cl
ENDBRANCH   1   5
TORSDOF 2
ENDMDL
