MODEL 1
REMARK VINA RESULT:      -4.3      0.000      0.000
REMARK  3 active torsions:
REMARK  status: ('A' for Active; 'I' for Inactive)
REMARK    1  A    between atoms: C2_2  and  C5_5 
REMARK    2  A    between atoms: C5_5  and  C6_6 
REMARK    3  A    between atoms: C6_6  and  C7_7 
ROOT
HETATM    1  C5  UNL     1     -32.507   7.283   2.696  1.00 20.00     0.034 C 
ENDROOT
BRANCH   1   2
HETATM    2  C2  UNL     1     -32.927   7.662   1.284  1.00 20.00     0.145 A 
HETATM    3  C1  UNL     1     -32.898   9.092   0.820  1.00 20.00     0.200 A 
HETATM    4  O8  UNL     1     -31.867   8.158   0.460  1.00 20.00    -0.381 OA
ENDBRANCH   1   2
BRANCH   1   5
HETATM    5  C6  UNL     1     -33.197   5.996   3.157  1.00 20.00     0.006 C 
BRANCH   5   6
HETATM    6  C7  UNL     1     -34.274   6.230   4.232  1.00 20.00    -0.023 C 
HETATM    7  C3  UNL     1     -33.649   6.909   5.454  1.00 20.00     0.009 C 
HETATM    8  C4  UNL     1     -34.964   4.934   4.659  1.00 20.00     0.009 C 
ENDBRANCH   5   6
ENDBRANCH   1   5
TORSDOF 3
ENDMDL
MODEL 2
REMARK VINA RESULT:      -3.9      1.694      2.344
REMARK  3 active torsions:
REMARK  status: ('A' for Active; 'I' for Inactive)
REMARK    1  A    between atoms: C2_2  and  C5_5 
REMARK    2  A    between atoms: C5_5  and  C6_6 
REMARK    3  A    between atoms: C6_6  and  C7_7 
ROOT
HETATM    1  C5  UNL     1     -33.677   5.057   2.566  1.00 20.00     0.034 C 
ENDROOT
BRANCH   1   2
HETATM    2  C2  UNL     1     -32.478   5.993   2.605  1.00 20.00     0.145 A 
HETATM    3  C1  UNL     1     -32.564   7.390   2.055  1.00 20.00     0.200 A 
HETATM    4  O8  UNL     1     -32.635   7.126   3.465  1.00 20.00    -0.381 OA
ENDBRANCH   1   2
BRANCH   1   5
HETATM    5  C6  UNL     1     -33.835   4.300   3.888  1.00 20.00     0.006 C 
BRANCH   5   6
HETATM    6  C7  UNL     1     -34.995   4.820   4.757  1.00 20.00    -0.023 C 
HETATM    7  C3  UNL     1     -35.883   5.756   3.932  1.00 20.00     0.009 C 
HETATM    8  C4  UNL     1     -34.506   5.546   6.011  1.00 20.00     0.009 C 
ENDBRANCH   5   6
ENDBRANCH   1   5
TORSDOF 3
ENDMDL
MODEL 3
REMARK VINA RESULT:      -3.8      2.360      4.251
REMARK  3 active torsions:
REMARK  status: ('A' for Active; 'I' for Inactive)
REMARK    1  A    between atoms: C2_2  and  C5_5 
REMARK    2  A    between atoms: C5_5  and  C6_6 
REMARK    3  A    between atoms: C6_6  and  C7_7 
ROOT
HETATM    1  C5  UNL     1     -33.447   4.752   3.339  1.00 20.00     0.034 C 
ENDROOT
BRANCH   1   2
HETATM    2  C2  UNL     1     -34.688   4.585   4.203  1.00 20.00     0.145 A 
HETATM    3  C1  UNL     1     -34.750   5.154   5.593  1.00 20.00     0.200 A 
HETATM    4  O8  UNL     1     -35.388   5.803   4.481  1.00 20.00    -0.381 OA
ENDBRANCH   1   2
BRANCH   1   5
HETATM    5  C6  UNL     1     -33.623   5.883   2.322  1.00 20.00     0.006 C 
BRANCH   5   6
HETATM    6  C7  UNL     1     -32.443   6.872   2.293  1.00 20.00    -0.023 C 
HETATM    7  C3  UNL     1     -32.211   7.443   3.695  1.00 20.00     0.009 C 
HETATM    8  C4  UNL     1     -32.662   8.014   1.301  1.00 20.00     0.009 C 
ENDBRANCH   5   6
ENDBRANCH   1   5
TORSDOF 3
ENDMDL
MODEL 4
REMARK VINA RESULT:      -3.7     10.329     11.029
REMARK  3 active torsions:
REMARK  status: ('A' for Active; 'I' for Inactive)
REMARK    1  A    between atoms: C2_2  and  C5_5 
REMARK    2  A    between atoms: C5_5  and  C6_6 
REMARK    3  A    between atoms: C6_6  and  C7_7 
ROOT
HETATM    1  C5  UNL     1     -34.788  14.783  -3.430  1.00 20.00     0.034 C 
ENDROOT
BRANCH   1   2
HETATM    2  C2  UNL     1     -36.047  14.249  -4.097  1.00 20.00     0.145 A 
HETATM    3  C1  UNL     1     -36.084  13.964  -5.573  1.00 20.00     0.200 A 
HETATM    4  O8  UNL     1     -35.932  12.915  -4.603  1.00 20.00    -0.381 OA
ENDBRANCH   1   2
BRANCH   1   5
HETATM    5  C6  UNL     1     -35.126  15.792  -2.329  1.00 20.00     0.006 C 
BRANCH   5   6
HETATM    6  C7  UNL     1     -34.240  17.051  -2.358  1.00 20.00    -0.023 C 
HETATM    7  C3  UNL     1     -32.883  16.716  -2.984  1.00 20.00     0.009 C 
HETATM    8  C4  UNL     1     -34.033  17.652  -0.967  1.00 20.00     0.009 C 
ENDBRANCH   5   6
ENDBRANCH   1   5
TORSDOF 3
ENDMDL
MODEL 5
REMARK VINA RESULT:      -3.7     15.512     16.223
REMARK  3 active torsions:
REMARK  status: ('A' for Active; 'I' for Inactive)
REMARK    1  A    between atoms: C2_2  and  C5_5 
REMARK    2  A    between atoms: C5_5  and  C6_6 
REMARK    3  A    between atoms: C6_6  and  C7_7 
ROOT
HETATM    1  C5  UNL     1     -23.152  18.574   9.604  1.00 20.00     0.034 C 
ENDROOT
BRANCH   1   2
HETATM    2  C2  UNL     1     -22.730  17.734   8.408  1.00 20.00     0.145 A 
HETATM    3  C1  UNL     1     -21.306  17.283   8.237  1.00 20.00     0.200 A 
HETATM    4  O8  UNL     1     -22.325  16.400   8.731  1.00 20.00    -0.381 OA
ENDBRANCH   1   2
BRANCH   1   5
HETATM    5  C6  UNL     1     -24.476  18.080  10.194  1.00 20.00     0.006 C 
BRANCH   5   6
HETATM    6  C7  UNL     1     -24.324  17.429  11.581  1.00 20.00    -0.023 C 
HETATM    7  C3  UNL     1     -22.927  17.714  12.138  1.00 20.00     0.009 C 
HETATM    8  C4  UNL     1     -24.568  15.920  11.548  1.00 20.00     0.009 C 
ENDBRANCH   5   6
ENDBRANCH   1   5
TORSDOF 3
ENDMDL
MODEL 6
REMARK VINA RESULT:      -3.7      2.276      4.287
REMARK  3 active torsions:
REMARK  status: ('A' for Active; 'I' for Inactive)
REMARK    1  A    between atoms: C2_2  and  C5_5 
REMARK    2  A    between atoms: C5_5  and  C6_6 
REMARK    3  A    between atoms: C6_6  and  C7_7 
ROOT
HETATM    1  C5  UNL     1     -33.484   5.021   3.538  1.00 20.00     0.034 C 
ENDROOT
BRANCH   1   2
HETATM    2  C2  UNL     1     -34.614   5.651   4.339  1.00 20.00     0.145 A 
HETATM    3  C1  UNL     1     -34.932   5.188   5.733  1.00 20.00     0.200 A 
HETATM    4  O8  UNL     1     -34.189   6.393   5.487  1.00 20.00    -0.381 OA
ENDBRANCH   1   2
BRANCH   1   5
HETATM    5  C6  UNL     1     -33.211   5.801   2.249  1.00 20.00     0.006 C 
BRANCH   5   6
HETATM    6  C7  UNL     1     -32.854   7.279   2.491  1.00 20.00    -0.023 C 
HETATM    7  C3  UNL     1     -32.595   7.976   1.152  1.00 20.00     0.009 C 
HETATM    8  C4  UNL     1     -31.637   7.446   3.402  1.00 20.00     0.009 C 
ENDBRANCH   5   6
ENDBRANCH   1   5
TORSDOF 3
ENDMDL
MODEL 7
REMARK VINA RESULT:      -3.6     10.882     11.776
REMARK  3 active torsions:
REMARK  status: ('A' for Active; 'I' for Inactive)
REMARK    1  A    between atoms: C2_2  and  C5_5 
REMARK    2  A    between atoms: C5_5  and  C6_6 
REMARK    3  A    between atoms: C6_6  and  C7_7 
ROOT
HETATM    1  C5  UNL     1     -32.945  18.006  -1.026  1.00 20.00     0.034 C 
ENDROOT
BRANCH   1   2
HETATM    2  C2  UNL     1     -31.737  18.882  -0.730  1.00 20.00     0.145 A 
HETATM    3  C1  UNL     1     -31.014  18.792   0.586  1.00 20.00     0.200 A 
HETATM    4  O8  UNL     1     -30.502  18.171  -0.604  1.00 20.00    -0.381 OA
ENDBRANCH   1   2
BRANCH   1   5
HETATM    5  C6  UNL     1     -32.876  17.421  -2.440  1.00 20.00     0.006 C 
BRANCH   5   6
HETATM    6  C7  UNL     1     -33.685  16.122  -2.607  1.00 20.00    -0.023 C 
HETATM    7  C3  UNL     1     -33.824  15.785  -4.094  1.00 20.00     0.009 C 
HETATM    8  C4  UNL     1     -35.071  16.210  -1.966  1.00 20.00     0.009 C 
ENDBRANCH   5   6
ENDBRANCH   1   5
TORSDOF 3
ENDMDL
MODEL 8
REMARK VINA RESULT:      -3.6     10.683     11.332
REMARK  3 active torsions:
REMARK  status: ('A' for Active; 'I' for Inactive)
REMARK    1  A    between atoms: C2_2  and  C5_5 
REMARK    2  A    between atoms: C5_5  and  C6_6 
REMARK    3  A    between atoms: C6_6  and  C7_7 
ROOT
HETATM    1  C5  UNL     1     -35.312  14.466  -4.018  1.00 20.00     0.034 C 
ENDROOT
BRANCH   1   2
HETATM    2  C2  UNL     1     -35.920  14.868  -5.352  1.00 20.00     0.145 A 
HETATM    3  C1  UNL     1     -35.084  14.935  -6.601  1.00 20.00     0.200 A 
HETATM    4  O8  UNL     1     -35.953  13.823  -6.331  1.00 20.00    -0.381 OA
ENDBRANCH   1   2
BRANCH   1   5
HETATM    5  C6  UNL     1     -35.479  15.572  -2.973  1.00 20.00     0.006 C 
BRANCH   5   6
HETATM    6  C7  UNL     1     -34.148  16.037  -2.353  1.00 20.00    -0.023 C 
HETATM    7  C3  UNL     1     -34.391  17.254  -1.455  1.00 20.00     0.009 C 
HETATM    8  C4  UNL     1     -33.098  16.379  -3.411  1.00 20.00     0.009 C 
ENDBRANCH   5   6
ENDBRANCH   1   5
TORSDOF 3
ENDMDL
MODEL 9
REMARK VINA RESULT:      -3.6     10.551     11.266
REMARK  3 active torsions:
REMARK  status: ('A' for Active; 'I' for Inactive)
REMARK    1  A    between atoms: C2_2  and  C5_5 
REMARK    2  A    between atoms: C5_5  and  C6_6 
REMARK    3  A    between atoms: C6_6  and  C7_7 
ROOT
HETATM    1  C5  UNL     1     -33.856  14.979  -4.092  1.00 20.00     0.034 C 
ENDROOT
BRANCH   1   2
HETATM    2  C2  UNL     1     -34.510  15.404  -5.398  1.00 20.00     0.145 A 
HETATM    3  C1  UNL     1     -33.926  15.008  -6.726  1.00 20.00     0.200 A 
HETATM    4  O8  UNL     1     -35.061  14.328  -6.165  1.00 20.00    -0.381 OA
ENDBRANCH   1   2
BRANCH   1   5
HETATM    5  C6  UNL     1     -34.756  15.286  -2.891  1.00 20.00     0.006 C 
BRANCH   5   6
HETATM    6  C7  UNL     1     -34.571  16.709  -2.335  1.00 20.00    -0.023 C 
HETATM    7  C3  UNL     1     -33.082  17.068  -2.310  1.00 20.00     0.009 C 
HETATM    8  C4  UNL     1     -35.164  16.871  -0.934  1.00 20.00     0.009 C 
ENDBRANCH   5   6
ENDBRANCH   1   5
TORSDOF 3
ENDMDL
