MODEL 1
REMARK VINA RESULT:      -4.3      0.000      0.000
REMARK  3 active torsions:
REMARK  status: ('A' for Active; 'I' for Inactive)
REMARK    1  A    between atoms: C1_1  and  C6_6 
REMARK    2  A    between atoms: C1_1  and  O9_9 
REMARK    3  A    between atoms: C6_6  and  C7_7 
ROOT
HETATM    1  C2  UNL     1     -37.119  15.613  -3.890  1.00 20.00     0.021 C 
HETATM    2  C6  UNL     1     -35.747  15.129  -4.368  1.00 20.00     0.085 C 
ENDROOT
BRANCH   2   3
HETATM    3  C1  UNL     1     -35.897  13.769  -5.035  1.00 20.00     0.262 C 
HETATM    4  O8  UNL     1     -35.913  12.700  -4.438  1.00 20.00    -0.265 OA
BRANCH   3   5
HETATM    5  O9  UNL     1     -36.018  13.930  -6.386  1.00 20.00    -0.326 OA
HETATM    6  C5  UNL     1     -35.260  15.006  -6.949  1.00 20.00     0.213 C 
ENDBRANCH   3   5
ENDBRANCH   2   3
BRANCH   2   7
HETATM    7  C7  UNL     1     -34.693  15.129  -3.236  1.00 20.00    -0.010 C 
HETATM    8  C3  UNL     1     -35.027  16.063  -2.069  1.00 20.00     0.010 C 
HETATM    9  C4  UNL     1     -33.293  15.449  -3.768  1.00 20.00     0.010 C 
ENDBRANCH   2   7
TORSDOF 3
ENDMDL
MODEL 2
REMARK VINA RESULT:      -4.1      1.096      1.764
REMARK  3 active torsions:
REMARK  status: ('A' for Active; 'I' for Inactive)
REMARK    1  A    between atoms: C1_1  and  C6_6 
REMARK    2  A    between atoms: C1_1  and  O9_9 
REMARK    3  A    between atoms: C6_6  and  C7_7 
ROOT
HETATM    1  C2  UNL     1     -35.229  16.117  -5.568  1.00 20.00     0.021 C 
HETATM    2  C6  UNL     1     -34.854  14.844  -4.805  1.00 20.00     0.085 C 
ENDROOT
BRANCH   2   3
HETATM    3  C1  UNL     1     -36.042  13.891  -4.801  1.00 20.00     0.262 C 
HETATM    4  O8  UNL     1     -35.987  12.714  -4.468  1.00 20.00    -0.265 OA
BRANCH   3   5
HETATM    5  O9  UNL     1     -37.163  14.552  -5.213  1.00 20.00    -0.326 OA
HETATM    6  C5  UNL     1     -38.251  14.559  -4.283  1.00 20.00     0.213 C 
ENDBRANCH   3   5
ENDBRANCH   2   3
BRANCH   2   7
HETATM    7  C7  UNL     1     -34.319  15.141  -3.385  1.00 20.00    -0.010 C 
HETATM    8  C3  UNL     1     -35.319  15.860  -2.476  1.00 20.00     0.010 C 
HETATM    9  C4  UNL     1     -33.005  15.928  -3.431  1.00 20.00     0.010 C 
ENDBRANCH   2   7
TORSDOF 3
ENDMDL
MODEL 3
REMARK VINA RESULT:      -4.1      1.209      2.083
REMARK  3 active torsions:
REMARK  status: ('A' for Active; 'I' for Inactive)
REMARK    1  A    between atoms: C1_1  and  C6_6 
REMARK    2  A    between atoms: C1_1  and  O9_9 
REMARK    3  A    between atoms: C6_6  and  C7_7 
ROOT
HETATM    1  C2  UNL     1     -33.025  14.292  -4.431  1.00 20.00     0.021 C 
HETATM    2  C6  UNL     1     -34.328  14.530  -3.664  1.00 20.00     0.085 C 
ENDROOT
BRANCH   2   3
HETATM    3  C1  UNL     1     -35.499  14.001  -4.481  1.00 20.00     0.262 C 
HETATM    4  O8  UNL     1     -35.872  12.835  -4.487  1.00 20.00    -0.265 OA
BRANCH   3   5
HETATM    5  O9  UNL     1     -36.064  15.023  -5.189  1.00 20.00    -0.326 OA
HETATM    6  C5  UNL     1     -35.865  14.976  -6.606  1.00 20.00     0.213 C 
ENDBRANCH   3   5
ENDBRANCH   2   3
BRANCH   2   7
HETATM    7  C7  UNL     1     -34.506  16.010  -3.248  1.00 20.00    -0.010 C 
HETATM    8  C3  UNL     1     -33.219  16.835  -3.304  1.00 20.00     0.010 C 
HETATM    9  C4  UNL     1     -35.139  16.133  -1.858  1.00 20.00     0.010 C 
ENDBRANCH   2   7
TORSDOF 3
ENDMDL
MODEL 4
REMARK VINA RESULT:      -4.1     11.064     11.894
REMARK  3 active torsions:
REMARK  status: ('A' for Active; 'I' for Inactive)
REMARK    1  A    between atoms: C1_1  and  C6_6 
REMARK    2  A    between atoms: C1_1  and  O9_9 
REMARK    3  A    between atoms: C6_6  and  C7_7 
ROOT
HETATM    1  C2  UNL     1     -33.596   4.883   2.569  1.00 20.00     0.021 C 
HETATM    2  C6  UNL     1     -33.670   6.178   3.381  1.00 20.00     0.085 C 
ENDROOT
BRANCH   2   3
HETATM    3  C1  UNL     1     -32.491   7.070   3.015  1.00 20.00     0.262 C 
HETATM    4  O8  UNL     1     -31.735   7.590   3.826  1.00 20.00    -0.265 OA
BRANCH   3   5
HETATM    5  O9  UNL     1     -32.409   7.189   1.657  1.00 20.00    -0.326 OA
HETATM    6  C5  UNL     1     -32.764   8.470   1.127  1.00 20.00     0.213 C 
ENDBRANCH   3   5
ENDBRANCH   2   3
BRANCH   2   7
HETATM    7  C7  UNL     1     -33.774   5.916   4.902  1.00 20.00    -0.010 C 
HETATM    8  C3  UNL     1     -34.827   4.874   5.287  1.00 20.00     0.010 C 
HETATM    9  C4  UNL     1     -34.020   7.212   5.683  1.00 20.00     0.010 C 
ENDBRANCH   2   7
TORSDOF 3
ENDMDL
MODEL 5
REMARK VINA RESULT:      -4.0      1.298      2.362
REMARK  3 active torsions:
REMARK  status: ('A' for Active; 'I' for Inactive)
REMARK    1  A    between atoms: C1_1  and  C6_6 
REMARK    2  A    between atoms: C1_1  and  O9_9 
REMARK    3  A    between atoms: C6_6  and  C7_7 
ROOT
HETATM    1  C2  UNL     1     -35.228  15.244  -2.881  1.00 20.00     0.021 C 
HETATM    2  C6  UNL     1     -35.657  15.000  -4.330  1.00 20.00     0.085 C 
ENDROOT
BRANCH   2   3
HETATM    3  C1  UNL     1     -36.386  13.666  -4.422  1.00 20.00     0.262 C 
HETATM    4  O8  UNL     1     -35.833  12.577  -4.513  1.00 20.00    -0.265 OA
BRANCH   3   5
HETATM    5  O9  UNL     1     -37.735  13.875  -4.379  1.00 20.00    -0.326 OA
HETATM    6  C5  UNL     1     -38.158  15.220  -4.626  1.00 20.00     0.213 C 
ENDBRANCH   3   5
ENDBRANCH   2   3
BRANCH   2   7
HETATM    7  C7  UNL     1     -34.475  15.108  -5.322  1.00 20.00    -0.010 C 
HETATM    8  C3  UNL     1     -33.109  14.803  -4.704  1.00 20.00     0.010 C 
HETATM    9  C4  UNL     1     -34.438  16.477  -6.009  1.00 20.00     0.010 C 
ENDBRANCH   2   7
TORSDOF 3
ENDMDL
MODEL 6
REMARK VINA RESULT:      -3.8      1.668      2.234
REMARK  3 active torsions:
REMARK  status: ('A' for Active; 'I' for Inactive)
REMARK    1  A    between atoms: C1_1  and  C6_6 
REMARK    2  A    between atoms: C1_1  and  O9_9 
REMARK    3  A    between atoms: C6_6  and  C7_7 
ROOT
HETATM    1  C2  UNL     1     -34.523  16.771  -4.987  1.00 20.00     0.021 C 
HETATM    2  C6  UNL     1     -33.623  15.816  -4.198  1.00 20.00     0.085 C 
ENDROOT
BRANCH   2   3
HETATM    3  C1  UNL     1     -33.950  14.380  -4.586  1.00 20.00     0.262 C 
HETATM    4  O8  UNL     1     -33.246  13.412  -4.325  1.00 20.00    -0.265 OA
BRANCH   3   5
HETATM    5  O9  UNL     1     -35.141  14.343  -5.253  1.00 20.00    -0.326 OA
HETATM    6  C5  UNL     1     -36.172  13.568  -4.632  1.00 20.00     0.213 C 
ENDBRANCH   3   5
ENDBRANCH   2   3
BRANCH   2   7
HETATM    7  C7  UNL     1     -33.700  16.057  -2.672  1.00 20.00    -0.010 C 
HETATM    8  C3  UNL     1     -35.124  16.079  -2.112  1.00 20.00     0.010 C 
HETATM    9  C4  UNL     1     -32.965  17.339  -2.266  1.00 20.00     0.010 C 
ENDBRANCH   2   7
TORSDOF 3
ENDMDL
MODEL 7
REMARK VINA RESULT:      -3.8     15.980     17.490
REMARK  3 active torsions:
REMARK  status: ('A' for Active; 'I' for Inactive)
REMARK    1  A    between atoms: C1_1  and  C6_6 
REMARK    2  A    between atoms: C1_1  and  O9_9 
REMARK    3  A    between atoms: C6_6  and  C7_7 
ROOT
HETATM    1  C2  UNL     1     -25.227  19.000   9.867  1.00 20.00     0.021 C 
HETATM    2  C6  UNL     1     -24.064  18.959   8.872  1.00 20.00     0.085 C 
ENDROOT
BRANCH   2   3
HETATM    3  C1  UNL     1     -24.611  19.036   7.453  1.00 20.00     0.262 C 
HETATM    4  O8  UNL     1     -23.920  19.071   6.443  1.00 20.00    -0.265 OA
BRANCH   3   5
HETATM    5  O9  UNL     1     -25.976  19.050   7.487  1.00 20.00    -0.326 OA
HETATM    6  C5  UNL     1     -26.626  18.749   6.248  1.00 20.00     0.213 C 
ENDBRANCH   3   5
ENDBRANCH   2   3
BRANCH   2   7
HETATM    7  C7  UNL     1     -23.140  17.739   9.094  1.00 20.00    -0.010 C 
HETATM    8  C3  UNL     1     -23.584  16.815  10.231  1.00 20.00     0.010 C 
HETATM    9  C4  UNL     1     -21.684  18.165   9.312  1.00 20.00     0.010 C 
ENDBRANCH   2   7
TORSDOF 3
ENDMDL
MODEL 8
REMARK VINA RESULT:      -3.7      1.557      2.463
REMARK  3 active torsions:
REMARK  status: ('A' for Active; 'I' for Inactive)
REMARK    1  A    between atoms: C1_1  and  C6_6 
REMARK    2  A    between atoms: C1_1  and  O9_9 
REMARK    3  A    between atoms: C6_6  and  C7_7 
ROOT
HETATM    1  C2  UNL     1     -33.090  16.573  -3.424  1.00 20.00     0.021 C 
HETATM    2  C6  UNL     1     -34.030  15.446  -2.986  1.00 20.00     0.085 C 
ENDROOT
BRANCH   2   3
HETATM    3  C1  UNL     1     -34.209  14.463  -4.135  1.00 20.00     0.262 C 
HETATM    4  O8  UNL     1     -34.714  13.353  -4.027  1.00 20.00    -0.265 OA
BRANCH   3   5
HETATM    5  O9  UNL     1     -33.730  15.013  -5.289  1.00 20.00    -0.326 OA
HETATM    6  C5  UNL     1     -34.631  14.993  -6.401  1.00 20.00     0.213 C 
ENDBRANCH   3   5
ENDBRANCH   2   3
BRANCH   2   7
HETATM    7  C7  UNL     1     -35.375  15.978  -2.436  1.00 20.00    -0.010 C 
HETATM    8  C3  UNL     1     -36.183  16.798  -3.446  1.00 20.00     0.010 C 
HETATM    9  C4  UNL     1     -35.179  16.789  -1.151  1.00 20.00     0.010 C 
ENDBRANCH   2   7
TORSDOF 3
ENDMDL
MODEL 9
REMARK VINA RESULT:      -3.7     18.572     19.714
REMARK  3 active torsions:
REMARK  status: ('A' for Active; 'I' for Inactive)
REMARK    1  A    between atoms: C1_1  and  C6_6 
REMARK    2  A    between atoms: C1_1  and  O9_9 
REMARK    3  A    between atoms: C6_6  and  C7_7 
ROOT
HETATM    1  C2  UNL     1     -22.286  17.771  12.198  1.00 20.00     0.021 C 
HETATM    2  C6  UNL     1     -23.471  17.944  11.244  1.00 20.00     0.085 C 
ENDROOT
BRANCH   2   3
HETATM    3  C1  UNL     1     -24.561  16.945  11.607  1.00 20.00     0.262 C 
HETATM    4  O8  UNL     1     -24.547  15.759  11.301  1.00 20.00    -0.265 OA
BRANCH   3   5
HETATM    5  O9  UNL     1     -25.538  17.571  12.326  1.00 20.00    -0.326 OA
HETATM    6  C5  UNL     1     -26.248  18.603  11.633  1.00 20.00     0.213 C 
ENDBRANCH   3   5
ENDBRANCH   2   3
BRANCH   2   7
HETATM    7  C7  UNL     1     -23.050  17.859   9.758  1.00 20.00    -0.010 C 
HETATM    8  C3  UNL     1     -21.535  17.865   9.535  1.00 20.00     0.010 C 
HETATM    9  C4  UNL     1     -23.699  18.967   8.923  1.00 20.00     0.010 C 
ENDBRANCH   2   7
TORSDOF 3
ENDMDL
