MODEL 1
REMARK VINA RESULT:      -3.6      0.000      0.000
REMARK  2 active torsions:
REMARK  status: ('A' for Active; 'I' for Inactive)
REMARK    1  A    between atoms: C1_1  and  C8_8 
REMARK    2  A    between atoms: C9_9  and  N10_10 
ROOT
HETATM    1  C1  UNL     1     -34.207  16.132  -2.771  1.00 20.00     0.092 C 
HETATM    2  N10 UNL     1     -34.436  16.191  -4.038  1.00 20.00    -0.295 NA
ENDROOT
BRANCH   1   3
HETATM    3  C8  UNL     1     -34.316  17.351  -1.864  1.00 20.00    -0.018 C 
HETATM    4  C2  UNL     1     -34.982  18.472  -2.670  1.00 20.00     0.020 C 
HETATM    5  C3  UNL     1     -35.203  16.966  -0.674  1.00 20.00     0.020 C 
HETATM    6  C4  UNL     1     -32.947  17.821  -1.359  1.00 20.00     0.020 C 
ENDBRANCH   1   3
BRANCH   2   7
HETATM    7  C9  UNL     1     -34.270  14.904  -4.708  1.00 20.00     0.042 C 
HETATM    8  C5  UNL     1     -34.441  15.118  -6.212  1.00 20.00     0.039 C 
HETATM    9  C6  UNL     1     -32.865  14.390  -4.394  1.00 20.00     0.039 C 
HETATM   10  C7  UNL     1     -35.328  13.941  -4.171  1.00 20.00     0.039 C 
ENDBRANCH   2   7
TORSDOF 2
ENDMDL
MODEL 2
REMARK VINA RESULT:      -3.6      0.014      1.377
REMARK  2 active torsions:
REMARK  status: ('A' for Active; 'I' for Inactive)
REMARK    1  A    between atoms: C1_1  and  C8_8 
REMARK    2  A    between atoms: C9_9  and  N10_10 
ROOT
HETATM    1  C1  UNL     1     -34.192  16.133  -2.781  1.00 20.00     0.092 C 
HETATM    2  N10 UNL     1     -34.435  16.187  -4.045  1.00 20.00    -0.295 NA
ENDROOT
BRANCH   1   3
HETATM    3  C8  UNL     1     -34.309  17.352  -1.874  1.00 20.00    -0.018 C 
HETATM    4  C2  UNL     1     -34.972  18.471  -2.685  1.00 20.00     0.020 C 
HETATM    5  C3  UNL     1     -35.204  16.964  -0.691  1.00 20.00     0.020 C 
HETATM    6  C4  UNL     1     -32.945  17.824  -1.359  1.00 20.00     0.020 C 
ENDBRANCH   1   3
BRANCH   2   7
HETATM    7  C9  UNL     1     -34.256  14.902  -4.715  1.00 20.00     0.042 C 
HETATM    8  C5  UNL     1     -32.852  14.385  -4.399  1.00 20.00     0.039 C 
HETATM    9  C6  UNL     1     -35.317  13.942  -4.178  1.00 20.00     0.039 C 
HETATM   10  C7  UNL     1     -34.432  15.112  -6.218  1.00 20.00     0.039 C 
ENDBRANCH   2   7
TORSDOF 2
ENDMDL
MODEL 3
REMARK VINA RESULT:      -3.6      0.085      1.944
REMARK  2 active torsions:
REMARK  status: ('A' for Active; 'I' for Inactive)
REMARK    1  A    between atoms: C1_1  and  C8_8 
REMARK    2  A    between atoms: C9_9  and  N10_10 
ROOT
HETATM    1  C1  UNL     1     -34.268  16.094  -2.792  1.00 20.00     0.092 C 
HETATM    2  N10 UNL     1     -34.482  16.151  -4.062  1.00 20.00    -0.295 NA
ENDROOT
BRANCH   1   3
HETATM    3  C8  UNL     1     -34.393  17.314  -1.888  1.00 20.00    -0.018 C 
HETATM    4  C2  UNL     1     -32.977  17.742  -1.488  1.00 20.00     0.020 C 
HETATM    5  C3  UNL     1     -35.064  18.427  -2.702  1.00 20.00     0.020 C 
HETATM    6  C4  UNL     1     -35.220  17.021  -0.631  1.00 20.00     0.020 C 
ENDBRANCH   1   3
BRANCH   2   7
HETATM    7  C9  UNL     1     -34.302  14.863  -4.727  1.00 20.00     0.042 C 
HETATM    8  C5  UNL     1     -35.343  13.887  -4.178  1.00 20.00     0.039 C 
HETATM    9  C6  UNL     1     -34.505  15.078  -6.227  1.00 20.00     0.039 C 
HETATM   10  C7  UNL     1     -32.886  14.365  -4.442  1.00 20.00     0.039 C 
ENDBRANCH   2   7
TORSDOF 2
ENDMDL
MODEL 4
REMARK VINA RESULT:      -3.5      0.238      1.407
REMARK  2 active torsions:
REMARK  status: ('A' for Active; 'I' for Inactive)
REMARK    1  A    between atoms: C1_1  and  C8_8 
REMARK    2  A    between atoms: C9_9  and  N10_10 
ROOT
HETATM    1  C1  UNL     1     -34.115  16.155  -2.889  1.00 20.00     0.092 C 
HETATM    2  N10 UNL     1     -34.843  16.015  -3.943  1.00 20.00    -0.295 NA
ENDROOT
BRANCH   1   3
HETATM    3  C8  UNL     1     -34.259  17.347  -1.951  1.00 20.00    -0.018 C 
HETATM    4  C2  UNL     1     -34.906  18.488  -2.745  1.00 20.00     0.020 C 
HETATM    5  C3  UNL     1     -35.182  16.923  -0.802  1.00 20.00     0.020 C 
HETATM    6  C4  UNL     1     -32.910  17.808  -1.388  1.00 20.00     0.020 C 
ENDBRANCH   1   3
BRANCH   2   7
HETATM    7  C9  UNL     1     -34.530  14.801  -4.693  1.00 20.00     0.042 C 
HETATM    8  C5  UNL     1     -35.486  13.697  -4.243  1.00 20.00     0.039 C 
HETATM    9  C6  UNL     1     -34.721  15.106  -6.179  1.00 20.00     0.039 C 
HETATM   10  C7  UNL     1     -33.080  14.416  -4.405  1.00 20.00     0.039 C 
ENDBRANCH   2   7
TORSDOF 2
ENDMDL
MODEL 5
REMARK VINA RESULT:      -3.5      0.673      4.352
REMARK  2 active torsions:
REMARK  status: ('A' for Active; 'I' for Inactive)
REMARK    1  A    between atoms: C1_1  and  C8_8 
REMARK    2  A    between atoms: C9_9  and  N10_10 
ROOT
HETATM    1  C1  UNL     1     -34.331  16.118  -3.569  1.00 20.00     0.092 C 
HETATM    2  N10 UNL     1     -34.540  16.000  -2.302  1.00 20.00    -0.295 NA
ENDROOT
BRANCH   1   3
HETATM    3  C8  UNL     1     -34.242  14.914  -4.497  1.00 20.00    -0.018 C 
HETATM    4  C2  UNL     1     -34.511  15.406  -5.924  1.00 20.00     0.020 C 
HETATM    5  C3  UNL     1     -32.817  14.357  -4.397  1.00 20.00     0.020 C 
HETATM    6  C4  UNL     1     -35.253  13.822  -4.128  1.00 20.00     0.020 C 
ENDBRANCH   1   3
BRANCH   2   7
HETATM    7  C9  UNL     1     -34.585  17.285  -1.610  1.00 20.00     0.042 C 
HETATM    8  C5  UNL     1     -35.348  18.278  -2.487  1.00 20.00     0.039 C 
HETATM    9  C6  UNL     1     -35.309  17.076  -0.280  1.00 20.00     0.039 C 
HETATM   10  C7  UNL     1     -33.151  17.757  -1.374  1.00 20.00     0.039 C 
ENDBRANCH   2   7
TORSDOF 2
ENDMDL
MODEL 6
REMARK VINA RESULT:      -3.4      0.622      4.347
REMARK  2 active torsions:
REMARK  status: ('A' for Active; 'I' for Inactive)
REMARK    1  A    between atoms: C1_1  and  C8_8 
REMARK    2  A    between atoms: C9_9  and  N10_10 
ROOT
HETATM    1  C1  UNL     1     -34.569  16.077  -3.551  1.00 20.00     0.092 C 
HETATM    2  N10 UNL     1     -33.870  16.219  -2.478  1.00 20.00    -0.295 NA
ENDROOT
BRANCH   1   3
HETATM    3  C8  UNL     1     -34.359  14.916  -4.514  1.00 20.00    -0.018 C 
HETATM    4  C2  UNL     1     -32.907  14.447  -4.366  1.00 20.00     0.020 C 
HETATM    5  C3  UNL     1     -35.315  13.791  -4.100  1.00 20.00     0.020 C 
HETATM    6  C4  UNL     1     -34.627  15.314  -5.970  1.00 20.00     0.020 C 
ENDBRANCH   1   3
BRANCH   2   7
HETATM    7  C9  UNL     1     -34.242  17.403  -1.708  1.00 20.00     0.042 C 
HETATM    8  C5  UNL     1     -32.978  17.981  -1.072  1.00 20.00     0.039 C 
HETATM    9  C6  UNL     1     -34.868  18.411  -2.672  1.00 20.00     0.039 C 
HETATM   10  C7  UNL     1     -35.249  16.986  -0.637  1.00 20.00     0.039 C 
ENDBRANCH   2   7
TORSDOF 2
ENDMDL
MODEL 7
REMARK VINA RESULT:      -3.3     13.115     14.747
REMARK  2 active torsions:
REMARK  status: ('A' for Active; 'I' for Inactive)
REMARK    1  A    between atoms: C1_1  and  C8_8 
REMARK    2  A    between atoms: C9_9  and  N10_10 
ROOT
HETATM    1  C1  UNL     1     -42.859   4.386  -1.994  1.00 20.00     0.092 C 
HETATM    2  N10 UNL     1     -41.974   3.690  -2.622  1.00 20.00    -0.295 NA
ENDROOT
BRANCH   1   3
HETATM    3  C8  UNL     1     -42.486   5.439  -0.959  1.00 20.00    -0.018 C 
HETATM    4  C2  UNL     1     -40.957   5.547  -0.937  1.00 20.00     0.020 C 
HETATM    5  C3  UNL     1     -43.096   6.770  -1.411  1.00 20.00     0.020 C 
HETATM    6  C4  UNL     1     -42.999   5.082   0.441  1.00 20.00     0.020 C 
ENDBRANCH   1   3
BRANCH   2   7
HETATM    7  C9  UNL     1     -42.559   2.741  -3.565  1.00 20.00     0.042 C 
HETATM    8  C5  UNL     1     -43.417   1.749  -2.780  1.00 20.00     0.039 C 
HETATM    9  C6  UNL     1     -43.417   3.530  -4.553  1.00 20.00     0.039 C 
HETATM   10  C7  UNL     1     -41.425   2.021  -4.293  1.00 20.00     0.039 C 
ENDBRANCH   2   7
TORSDOF 2
ENDMDL
MODEL 8
REMARK VINA RESULT:      -3.2      1.450      2.241
REMARK  2 active torsions:
REMARK  status: ('A' for Active; 'I' for Inactive)
REMARK    1  A    between atoms: C1_1  and  C8_8 
REMARK    2  A    between atoms: C9_9  and  N10_10 
ROOT
HETATM    1  C1  UNL     1     -35.481  16.146  -3.431  1.00 20.00     0.092 C 
HETATM    2  N10 UNL     1     -35.165  15.911  -4.658  1.00 20.00    -0.295 NA
ENDROOT
BRANCH   1   3
HETATM    3  C8  UNL     1     -34.627  17.021  -2.522  1.00 20.00    -0.018 C 
HETATM    4  C2  UNL     1     -34.865  18.481  -2.925  1.00 20.00     0.020 C 
HETATM    5  C3  UNL     1     -35.099  16.793  -1.082  1.00 20.00     0.020 C 
HETATM    6  C4  UNL     1     -33.134  16.691  -2.637  1.00 20.00     0.020 C 
ENDBRANCH   1   3
BRANCH   2   7
HETATM    7  C9  UNL     1     -36.126  15.046  -5.338  1.00 20.00     0.042 C 
HETATM    8  C5  UNL     1     -36.239  13.740  -4.552  1.00 20.00     0.039 C 
HETATM    9  C6  UNL     1     -37.470  15.774  -5.370  1.00 20.00     0.039 C 
HETATM   10  C7  UNL     1     -35.622  14.785  -6.756  1.00 20.00     0.039 C 
ENDBRANCH   2   7
TORSDOF 2
ENDMDL
MODEL 9
REMARK VINA RESULT:      -3.2      1.450      2.246
REMARK  2 active torsions:
REMARK  status: ('A' for Active; 'I' for Inactive)
REMARK    1  A    between atoms: C1_1  and  C8_8 
REMARK    2  A    between atoms: C9_9  and  N10_10 
ROOT
HETATM    1  C1  UNL     1     -35.579  16.111  -3.324  1.00 20.00     0.092 C 
HETATM    2  N10 UNL     1     -35.253  15.936  -4.559  1.00 20.00    -0.295 NA
ENDROOT
BRANCH   1   3
HETATM    3  C8  UNL     1     -34.763  16.988  -2.382  1.00 20.00    -0.018 C 
HETATM    4  C2  UNL     1     -33.288  16.604  -2.550  1.00 20.00     0.020 C 
HETATM    5  C3  UNL     1     -34.975  18.446  -2.807  1.00 20.00     0.020 C 
HETATM    6  C4  UNL     1     -35.180  16.809  -0.917  1.00 20.00     0.020 C 
ENDBRANCH   1   3
BRANCH   2   7
HETATM    7  C9  UNL     1     -36.176  15.056  -5.271  1.00 20.00     0.042 C 
HETATM    8  C5  UNL     1     -35.611  14.793  -6.667  1.00 20.00     0.039 C 
HETATM    9  C6  UNL     1     -36.285  13.752  -4.480  1.00 20.00     0.039 C 
HETATM   10  C7  UNL     1     -37.535  15.748  -5.356  1.00 20.00     0.039 C 
ENDBRANCH   2   7
TORSDOF 2
ENDMDL
