MODEL 1
REMARK VINA RESULT:      -4.4      0.000      0.000
REMARK  2 active torsions:
REMARK  status: ('A' for Active; 'I' for Inactive)
REMARK    1  A    between atoms: C2_2  and  C5_5 
REMARK    2  A    between atoms: C5_5  and  C6_6 
ROOT
HETATM    1  C1  UNL     1     -32.691   7.486   2.015  1.00 20.00     0.206 A 
HETATM    2  C2  UNL     1     -33.102   6.379   2.957  1.00 20.00     0.079 A 
HETATM    3  C3  UNL     1     -33.090   4.963   2.477  1.00 20.00     0.048 C 
HETATM    4  O7  UNL     1     -31.800   6.978   3.020  1.00 20.00    -0.375 OA
ENDROOT
BRANCH   2   5
HETATM    5  C5  UNL     1     -33.983   6.700   4.152  1.00 20.00     0.039 C 
BRANCH   5   6
HETATM    6  C6  UNL     1     -34.853   5.507   4.543  1.00 20.00    -0.002 C 
HETATM    7  C4  UNL     1     -34.742   5.201   6.029  1.00 20.00     0.005 C 
ENDBRANCH   5   6
ENDBRANCH   2   5
TORSDOF 2
ENDMDL
MODEL 2
REMARK VINA RESULT:      -4.0      1.830      3.673
REMARK  2 active torsions:
REMARK  status: ('A' for Active; 'I' for Inactive)
REMARK    1  A    between atoms: C2_2  and  C5_5 
REMARK    2  A    between atoms: C5_5  and  C6_6 
ROOT
HETATM    1  C1  UNL     1     -35.609   5.321   4.262  1.00 20.00     0.206 A 
HETATM    2  C2  UNL     1     -34.189   5.833   4.309  1.00 20.00     0.079 A 
HETATM    3  C3  UNL     1     -33.781   6.775   5.395  1.00 20.00     0.048 C 
HETATM    4  O7  UNL     1     -34.534   4.522   4.779  1.00 20.00    -0.375 OA
ENDROOT
BRANCH   2   5
HETATM    5  C5  UNL     1     -33.349   5.829   3.042  1.00 20.00     0.039 C 
BRANCH   5   6
HETATM    6  C6  UNL     1     -32.439   7.054   2.969  1.00 20.00    -0.002 C 
HETATM    7  C4  UNL     1     -32.509   7.719   1.604  1.00 20.00     0.005 C 
ENDBRANCH   5   6
ENDBRANCH   2   5
TORSDOF 2
ENDMDL
MODEL 3
REMARK VINA RESULT:      -3.9      1.762      3.461
REMARK  2 active torsions:
REMARK  status: ('A' for Active; 'I' for Inactive)
REMARK    1  A    between atoms: C2_2  and  C5_5 
REMARK    2  A    between atoms: C5_5  and  C6_6 
ROOT
HETATM    1  C1  UNL     1     -34.777   5.021   5.285  1.00 20.00     0.206 A 
HETATM    2  C2  UNL     1     -34.206   5.487   3.966  1.00 20.00     0.079 A 
HETATM    3  C3  UNL     1     -33.770   4.475   2.956  1.00 20.00     0.048 C 
HETATM    4  O7  UNL     1     -35.619   5.480   4.217  1.00 20.00    -0.375 OA
ENDROOT
BRANCH   2   5
HETATM    5  C5  UNL     1     -33.610   6.880   3.858  1.00 20.00     0.039 C 
BRANCH   5   6
HETATM    6  C6  UNL     1     -32.392   6.897   2.936  1.00 20.00    -0.002 C 
HETATM    7  C4  UNL     1     -32.636   7.759   1.708  1.00 20.00     0.005 C 
ENDBRANCH   5   6
ENDBRANCH   2   5
TORSDOF 2
ENDMDL
MODEL 4
REMARK VINA RESULT:      -3.4      1.812      3.635
REMARK  2 active torsions:
REMARK  status: ('A' for Active; 'I' for Inactive)
REMARK    1  A    between atoms: C2_2  and  C5_5 
REMARK    2  A    between atoms: C5_5  and  C6_6 
ROOT
HETATM    1  C1  UNL     1     -34.049   5.028   6.098  1.00 20.00     0.206 A 
HETATM    2  C2  UNL     1     -34.431   5.855   4.893  1.00 20.00     0.079 A 
HETATM    3  C3  UNL     1     -35.592   5.435   4.051  1.00 20.00     0.048 C 
HETATM    4  O7  UNL     1     -34.794   6.249   6.224  1.00 20.00    -0.375 OA
ENDROOT
BRANCH   2   5
HETATM    5  C5  UNL     1     -33.395   6.760   4.247  1.00 20.00     0.039 C 
BRANCH   5   6
HETATM    6  C6  UNL     1     -33.011   6.266   2.854  1.00 20.00    -0.002 C 
HETATM    7  C4  UNL     1     -32.506   7.403   1.980  1.00 20.00     0.005 C 
ENDBRANCH   5   6
ENDBRANCH   2   5
TORSDOF 2
ENDMDL
MODEL 5
REMARK VINA RESULT:      -3.3     11.464     12.240
REMARK  2 active torsions:
REMARK  status: ('A' for Active; 'I' for Inactive)
REMARK    1  A    between atoms: C2_2  and  C5_5 
REMARK    2  A    between atoms: C5_5  and  C6_6 
ROOT
HETATM    1  C1  UNL     1     -35.658  14.988  -6.235  1.00 20.00     0.206 A 
HETATM    2  C2  UNL     1     -35.944  14.503  -4.833  1.00 20.00     0.079 A 
HETATM    3  C3  UNL     1     -37.303  14.710  -4.246  1.00 20.00     0.048 C 
HETATM    4  O7  UNL     1     -35.928  13.606  -5.953  1.00 20.00    -0.375 OA
ENDROOT
BRANCH   2   5
HETATM    5  C5  UNL     1     -34.793  14.293  -3.864  1.00 20.00     0.039 C 
BRANCH   5   6
HETATM    6  C6  UNL     1     -34.696  15.435  -2.854  1.00 20.00    -0.002 C 
HETATM    7  C4  UNL     1     -33.411  16.228  -3.033  1.00 20.00     0.005 C 
ENDBRANCH   5   6
ENDBRANCH   2   5
TORSDOF 2
ENDMDL
MODEL 6
REMARK VINA RESULT:      -3.3      9.010      9.625
REMARK  2 active torsions:
REMARK  status: ('A' for Active; 'I' for Inactive)
REMARK    1  A    between atoms: C2_2  and  C5_5 
REMARK    2  A    between atoms: C5_5  and  C6_6 
ROOT
HETATM    1  C1  UNL     1     -42.783   5.168   0.981  1.00 20.00     0.206 A 
HETATM    2  C2  UNL     1     -41.860   5.972   0.096  1.00 20.00     0.079 A 
HETATM    3  C3  UNL     1     -41.208   5.314  -1.077  1.00 20.00     0.048 C 
HETATM    4  O7  UNL     1     -43.287   6.070  -0.016  1.00 20.00    -0.375 OA
ENDROOT
BRANCH   2   5
HETATM    5  C5  UNL     1     -41.201   7.226   0.644  1.00 20.00     0.039 C 
BRANCH   5   6
HETATM    6  C6  UNL     1     -41.274   8.379  -0.355  1.00 20.00    -0.002 C 
HETATM    7  C4  UNL     1     -41.346   9.724   0.352  1.00 20.00     0.005 C 
ENDBRANCH   5   6
ENDBRANCH   2   5
TORSDOF 2
ENDMDL
MODEL 7
REMARK VINA RESULT:      -3.3      1.114      1.779
REMARK  2 active torsions:
REMARK  status: ('A' for Active; 'I' for Inactive)
REMARK    1  A    between atoms: C2_2  and  C5_5 
REMARK    2  A    between atoms: C5_5  and  C6_6 
ROOT
HETATM    1  C1  UNL     1     -32.837   4.795   2.641  1.00 20.00     0.206 A 
HETATM    2  C2  UNL     1     -33.161   6.243   2.926  1.00 20.00     0.079 A 
HETATM    3  C3  UNL     1     -32.507   7.316   2.117  1.00 20.00     0.048 C 
HETATM    4  O7  UNL     1     -34.048   5.407   2.169  1.00 20.00    -0.375 OA
ENDROOT
BRANCH   2   5
HETATM    5  C5  UNL     1     -33.704   6.635   4.290  1.00 20.00     0.039 C 
BRANCH   5   6
HETATM    6  C6  UNL     1     -34.940   5.815   4.657  1.00 20.00    -0.002 C 
HETATM    7  C4  UNL     1     -34.793   5.170   6.026  1.00 20.00     0.005 C 
ENDBRANCH   5   6
ENDBRANCH   2   5
TORSDOF 2
ENDMDL
MODEL 8
REMARK VINA RESULT:      -3.3     11.511     12.007
REMARK  2 active torsions:
REMARK  status: ('A' for Active; 'I' for Inactive)
REMARK    1  A    between atoms: C2_2  and  C5_5 
REMARK    2  A    between atoms: C5_5  and  C6_6 
ROOT
HETATM    1  C1  UNL     1     -34.598  15.458  -5.970  1.00 20.00     0.206 A 
HETATM    2  C2  UNL     1     -34.666  14.785  -4.618  1.00 20.00     0.079 A 
HETATM    3  C3  UNL     1     -35.767  13.815  -4.334  1.00 20.00     0.048 C 
HETATM    4  O7  UNL     1     -33.755  14.344  -5.636  1.00 20.00    -0.375 OA
ENDROOT
BRANCH   2   5
HETATM    5  C5  UNL     1     -33.985  15.433  -3.424  1.00 20.00     0.039 C 
BRANCH   5   6
HETATM    6  C6  UNL     1     -34.994  15.818  -2.345  1.00 20.00    -0.002 C 
HETATM    7  C4  UNL     1     -34.489  16.975  -1.498  1.00 20.00     0.005 C 
ENDBRANCH   5   6
ENDBRANCH   2   5
TORSDOF 2
ENDMDL
MODEL 9
REMARK VINA RESULT:      -3.2     15.991     16.676
REMARK  2 active torsions:
REMARK  status: ('A' for Active; 'I' for Inactive)
REMARK    1  A    between atoms: C2_2  and  C5_5 
REMARK    2  A    between atoms: C5_5  and  C6_6 
ROOT
HETATM    1  C1  UNL     1     -21.297  17.529   8.979  1.00 20.00     0.206 A 
HETATM    2  C2  UNL     1     -22.628  17.843   9.620  1.00 20.00     0.079 A 
HETATM    3  C3  UNL     1     -23.553  18.811   8.957  1.00 20.00     0.048 C 
HETATM    4  O7  UNL     1     -22.417  16.638   8.869  1.00 20.00    -0.375 OA
ENDROOT
BRANCH   2   5
HETATM    5  C5  UNL     1     -22.815  17.612  11.110  1.00 20.00     0.039 C 
BRANCH   5   6
HETATM    6  C6  UNL     1     -24.287  17.405  11.464  1.00 20.00    -0.002 C 
HETATM    7  C4  UNL     1     -24.628  15.928  11.582  1.00 20.00     0.005 C 
ENDBRANCH   5   6
ENDBRANCH   2   5
TORSDOF 2
ENDMDL
