MODEL 1
REMARK VINA RESULT:      -4.5      0.000      0.000
REMARK  2 active torsions:
REMARK  status: ('A' for Active; 'I' for Inactive)
REMARK    1  A    between atoms: C3_3  and  C10_10 
REMARK    2  A    between atoms: C7_7  and  C10_10 
ROOT
HETATM    1  C1  UNL     1     -32.916  16.078  -3.802  1.00 20.00    -0.024 C 
HETATM    2  C2  UNL     1     -33.421  17.130  -3.135  1.00 20.00    -0.087 C 
HETATM    3  C4  UNL     1     -33.616  14.755  -3.926  1.00 20.00     0.032 C 
HETATM    4  C5  UNL     1     -34.746  17.061  -2.418  1.00 20.00     0.034 C 
HETATM    5  C6  UNL     1     -35.295  15.638  -2.274  1.00 20.00     0.010 C 
HETATM    6  C7  UNL     1     -35.104  14.796  -3.542  1.00 20.00    -0.001 C 
HETATM    7  C8  UNL     1     -32.699  18.443  -3.064  1.00 20.00     0.043 C 
ENDROOT
BRANCH   6   8
HETATM    8  C10 UNL     1     -35.969  15.311  -4.698  1.00 20.00     0.047 C 
HETATM    9  C9  UNL     1     -35.493  14.745  -6.029  1.00 20.00     0.017 C 
BRANCH   8  10
HETATM   10  C3  UNL     1     -37.418  14.961  -4.421  1.00 20.00     0.235 C 
HETATM   11  O11 UNL     1     -37.868  13.820  -4.404  1.00 20.00    -0.306 OA
ENDBRANCH   8  10
ENDBRANCH   6   8
TORSDOF 2
ENDMDL
MODEL 2
REMARK VINA RESULT:      -4.4      1.702      2.761
REMARK  2 active torsions:
REMARK  status: ('A' for Active; 'I' for Inactive)
REMARK    1  A    between atoms: C3_3  and  C10_10 
REMARK    2  A    between atoms: C7_7  and  C10_10 
ROOT
HETATM    1  C1  UNL     1     -36.412  17.504  -2.290  1.00 20.00    -0.024 C 
HETATM    2  C2  UNL     1     -35.408  16.912  -1.620  1.00 20.00    -0.087 C 
HETATM    3  C4  UNL     1     -36.692  17.275  -3.748  1.00 20.00     0.032 C 
HETATM    4  C5  UNL     1     -34.444  15.968  -2.295  1.00 20.00     0.034 C 
HETATM    5  C6  UNL     1     -34.531  15.989  -3.825  1.00 20.00     0.010 C 
HETATM    6  C7  UNL     1     -35.976  16.048  -4.336  1.00 20.00    -0.001 C 
HETATM    7  C8  UNL     1     -35.186  17.148  -0.155  1.00 20.00     0.043 C 
ENDROOT
BRANCH   6   8
HETATM    8  C10 UNL     1     -36.737  14.753  -4.033  1.00 20.00     0.047 C 
HETATM    9  C9  UNL     1     -38.229  14.928  -4.276  1.00 20.00     0.017 C 
BRANCH   8  10
HETATM   10  C3  UNL     1     -36.156  13.632  -4.873  1.00 20.00     0.235 C 
HETATM   11  O11 UNL     1     -35.770  12.556  -4.429  1.00 20.00    -0.306 OA
ENDBRANCH   8  10
ENDBRANCH   6   8
TORSDOF 2
ENDMDL
MODEL 3
REMARK VINA RESULT:      -4.4      1.666      1.987
REMARK  2 active torsions:
REMARK  status: ('A' for Active; 'I' for Inactive)
REMARK    1  A    between atoms: C3_3  and  C10_10 
REMARK    2  A    between atoms: C7_7  and  C10_10 
ROOT
HETATM    1  C1  UNL     1     -32.921  15.885  -3.295  1.00 20.00    -0.024 C 
HETATM    2  C2  UNL     1     -34.059  16.265  -2.689  1.00 20.00    -0.087 C 
HETATM    3  C4  UNL     1     -32.843  14.777  -4.307  1.00 20.00     0.032 C 
HETATM    4  C5  UNL     1     -35.375  15.579  -2.959  1.00 20.00     0.034 C 
HETATM    5  C6  UNL     1     -35.237  14.262  -3.730  1.00 20.00     0.010 C 
HETATM    6  C7  UNL     1     -34.209  14.343  -4.865  1.00 20.00    -0.001 C 
HETATM    7  C8  UNL     1     -34.094  17.399  -1.709  1.00 20.00     0.043 C 
ENDROOT
BRANCH   6   8
HETATM    8  C10 UNL     1     -34.679  15.274  -5.988  1.00 20.00     0.047 C 
HETATM    9  C9  UNL     1     -33.695  15.264  -7.151  1.00 20.00     0.017 C 
BRANCH   8  10
HETATM   10  C3  UNL     1     -36.070  14.857  -6.423  1.00 20.00     0.235 C 
HETATM   11  O11 UNL     1     -36.364  14.479  -7.552  1.00 20.00    -0.306 OA
ENDBRANCH   8  10
ENDBRANCH   6   8
TORSDOF 2
ENDMDL
MODEL 4
REMARK VINA RESULT:      -4.3     10.507     12.694
REMARK  2 active torsions:
REMARK  status: ('A' for Active; 'I' for Inactive)
REMARK    1  A    between atoms: C3_3  and  C10_10 
REMARK    2  A    between atoms: C7_7  and  C10_10 
ROOT
HETATM    1  C1  UNL     1     -43.417   5.057  -0.911  1.00 20.00    -0.024 C 
HETATM    2  C2  UNL     1     -42.311   4.646  -1.556  1.00 20.00    -0.087 C 
HETATM    3  C4  UNL     1     -43.405   6.040   0.225  1.00 20.00     0.032 C 
HETATM    4  C5  UNL     1     -40.935   5.127  -1.168  1.00 20.00     0.034 C 
HETATM    5  C6  UNL     1     -40.895   5.862   0.176  1.00 20.00     0.010 C 
HETATM    6  C7  UNL     1     -42.084   6.814   0.367  1.00 20.00    -0.001 C 
HETATM    7  C8  UNL     1     -42.375   3.686  -2.706  1.00 20.00     0.043 C 
ENDROOT
BRANCH   6   8
HETATM    8  C10 UNL     1     -42.019   8.000  -0.601  1.00 20.00     0.047 C 
HETATM    9  C9  UNL     1     -43.416   8.515  -0.925  1.00 20.00     0.017 C 
BRANCH   8  10
HETATM   10  C3  UNL     1     -41.146   9.082   0.004  1.00 20.00     0.235 C 
HETATM   11  O11 UNL     1     -41.542  10.195   0.333  1.00 20.00    -0.306 OA
ENDBRANCH   8  10
ENDBRANCH   6   8
TORSDOF 2
ENDMDL
MODEL 5
REMARK VINA RESULT:      -4.3      2.274      4.328
REMARK  2 active torsions:
REMARK  status: ('A' for Active; 'I' for Inactive)
REMARK    1  A    between atoms: C3_3  and  C10_10 
REMARK    2  A    between atoms: C7_7  and  C10_10 
ROOT
HETATM    1  C1  UNL     1     -36.110  14.297  -5.378  1.00 20.00    -0.024 C 
HETATM    2  C2  UNL     1     -35.322  14.801  -6.343  1.00 20.00    -0.087 C 
HETATM    3  C4  UNL     1     -35.632  13.985  -3.988  1.00 20.00     0.032 C 
HETATM    4  C5  UNL     1     -33.857  15.076  -6.116  1.00 20.00     0.034 C 
HETATM    5  C6  UNL     1     -33.308  14.463  -4.823  1.00 20.00     0.010 C 
HETATM    6  C7  UNL     1     -34.272  14.612  -3.639  1.00 20.00    -0.001 C 
HETATM    7  C8  UNL     1     -35.851  15.126  -7.708  1.00 20.00     0.043 C 
ENDROOT
BRANCH   6   8
HETATM    8  C10 UNL     1     -34.420  16.076  -3.211  1.00 20.00     0.047 C 
HETATM    9  C9  UNL     1     -35.264  16.191  -1.948  1.00 20.00     0.017 C 
BRANCH   8  10
HETATM   10  C3  UNL     1     -33.041  16.676  -3.025  1.00 20.00     0.235 C 
HETATM   11  O11 UNL     1     -32.687  17.317  -2.041  1.00 20.00    -0.306 OA
ENDBRANCH   8  10
ENDBRANCH   6   8
TORSDOF 2
ENDMDL
MODEL 6
REMARK VINA RESULT:      -4.2      2.916      4.465
REMARK  2 active torsions:
REMARK  status: ('A' for Active; 'I' for Inactive)
REMARK    1  A    between atoms: C3_3  and  C10_10 
REMARK    2  A    between atoms: C7_7  and  C10_10 
ROOT
HETATM    1  C1  UNL     1     -33.661  18.524   0.473  1.00 20.00    -0.024 C 
HETATM    2  C2  UNL     1     -32.324  18.386   0.496  1.00 20.00    -0.087 C 
HETATM    3  C4  UNL     1     -34.471  18.606  -0.790  1.00 20.00     0.032 C 
HETATM    4  C5  UNL     1     -31.505  18.329  -0.769  1.00 20.00     0.034 C 
HETATM    5  C6  UNL     1     -32.283  18.734  -2.026  1.00 20.00     0.010 C 
HETATM    6  C7  UNL     1     -33.708  18.166  -2.050  1.00 20.00    -0.001 C 
HETATM    7  C8  UNL     1     -31.561  18.276   1.783  1.00 20.00     0.043 C 
ENDROOT
BRANCH   6   8
HETATM    8  C10 UNL     1     -33.706  16.641  -2.204  1.00 20.00     0.047 C 
HETATM    9  C9  UNL     1     -35.102  16.072  -1.990  1.00 20.00     0.017 C 
BRANCH   8  10
HETATM   10  C3  UNL     1     -33.155  16.285  -3.571  1.00 20.00     0.235 C 
HETATM   11  O11 UNL     1     -32.841  15.153  -3.923  1.00 20.00    -0.306 OA
ENDBRANCH   8  10
ENDBRANCH   6   8
TORSDOF 2
ENDMDL
MODEL 7
REMARK VINA RESULT:      -4.1      1.254      1.879
REMARK  2 active torsions:
REMARK  status: ('A' for Active; 'I' for Inactive)
REMARK    1  A    between atoms: C3_3  and  C10_10 
REMARK    2  A    between atoms: C7_7  and  C10_10 
ROOT
HETATM    1  C1  UNL     1     -33.995  17.799  -4.059  1.00 20.00    -0.024 C 
HETATM    2  C2  UNL     1     -33.579  17.046  -3.026  1.00 20.00    -0.087 C 
HETATM    3  C4  UNL     1     -34.617  17.236  -5.305  1.00 20.00     0.032 C 
HETATM    4  C5  UNL     1     -33.678  15.541  -3.043  1.00 20.00     0.034 C 
HETATM    5  C6  UNL     1     -34.004  14.960  -4.423  1.00 20.00     0.010 C 
HETATM    6  C7  UNL     1     -35.069  15.772  -5.171  1.00 20.00    -0.001 C 
HETATM    7  C8  UNL     1     -32.993  17.655  -1.787  1.00 20.00     0.043 C 
ENDROOT
BRANCH   6   8
HETATM    8  C10 UNL     1     -36.440  15.666  -4.495  1.00 20.00     0.047 C 
HETATM    9  C9  UNL     1     -37.472  16.520  -5.219  1.00 20.00     0.017 C 
BRANCH   8  10
HETATM   10  C3  UNL     1     -36.851  14.208  -4.442  1.00 20.00     0.235 C 
HETATM   11  O11 UNL     1     -38.011  13.812  -4.394  1.00 20.00    -0.306 OA
ENDBRANCH   8  10
ENDBRANCH   6   8
TORSDOF 2
ENDMDL
MODEL 8
REMARK VINA RESULT:      -4.0      1.418      2.332
REMARK  2 active torsions:
REMARK  status: ('A' for Active; 'I' for Inactive)
REMARK    1  A    between atoms: C3_3  and  C10_10 
REMARK    2  A    between atoms: C7_7  and  C10_10 
ROOT
HETATM    1  C1  UNL     1     -35.221  17.957  -2.918  1.00 20.00    -0.024 C 
HETATM    2  C2  UNL     1     -34.200  17.475  -2.189  1.00 20.00    -0.087 C 
HETATM    3  C4  UNL     1     -35.664  17.367  -4.227  1.00 20.00     0.032 C 
HETATM    4  C5  UNL     1     -33.379  16.294  -2.645  1.00 20.00     0.034 C 
HETATM    5  C6  UNL     1     -33.619  15.906  -4.108  1.00 20.00     0.010 C 
HETATM    6  C7  UNL     1     -35.100  15.963  -4.502  1.00 20.00    -0.001 C 
HETATM    7  C8  UNL     1     -33.814  18.077  -0.871  1.00 20.00     0.043 C 
ENDROOT
BRANCH   6   8
HETATM    8  C10 UNL     1     -35.917  14.879  -3.790  1.00 20.00     0.047 C 
HETATM    9  C9  UNL     1     -37.369  14.902  -4.249  1.00 20.00     0.017 C 
BRANCH   8  10
HETATM   10  C3  UNL     1     -35.268  13.532  -4.037  1.00 20.00     0.235 C 
HETATM   11  O11 UNL     1     -35.836  12.565  -4.534  1.00 20.00    -0.306 OA
ENDBRANCH   8  10
ENDBRANCH   6   8
TORSDOF 2
ENDMDL
MODEL 9
REMARK VINA RESULT:      -4.0      2.001      2.758
REMARK  2 active torsions:
REMARK  status: ('A' for Active; 'I' for Inactive)
REMARK    1  A    between atoms: C3_3  and  C10_10 
REMARK    2  A    between atoms: C7_7  and  C10_10 
ROOT
HETATM    1  C1  UNL     1     -34.054  16.984  -1.515  1.00 20.00    -0.024 C 
HETATM    2  C2  UNL     1     -33.080  17.738  -2.053  1.00 20.00    -0.087 C 
HETATM    3  C4  UNL     1     -35.228  16.459  -2.290  1.00 20.00     0.032 C 
HETATM    4  C5  UNL     1     -33.099  18.152  -3.504  1.00 20.00     0.034 C 
HETATM    5  C6  UNL     1     -34.439  17.894  -4.200  1.00 20.00     0.010 C 
HETATM    6  C7  UNL     1     -35.058  16.544  -3.816  1.00 20.00    -0.001 C 
HETATM    7  C8  UNL     1     -31.908  18.214  -1.246  1.00 20.00     0.043 C 
ENDROOT
BRANCH   6   8
HETATM    8  C10 UNL     1     -34.234  15.370  -4.357  1.00 20.00     0.047 C 
HETATM    9  C9  UNL     1     -34.764  14.044  -3.828  1.00 20.00     0.017 C 
BRANCH   8  10
HETATM   10  C3  UNL     1     -34.246  15.418  -5.872  1.00 20.00     0.235 C 
HETATM   11  O11 UNL     1     -33.639  14.639  -6.599  1.00 20.00    -0.306 OA
ENDBRANCH   8  10
ENDBRANCH   6   8
TORSDOF 2
ENDMDL
