MODEL 1
REMARK VINA RESULT:      -4.8      0.000      0.000
REMARK  1 active torsions:
REMARK  status: ('A' for Active; 'I' for Inactive)
REMARK    1  A    between atoms: C5_5  and  N10_10 
ROOT
HETATM    1  C1  UNL     1     -35.357  17.319  -5.579  1.00 20.00    -0.026 C 
HETATM    2  C2  UNL     1     -33.797  16.004  -2.629  1.00 20.00    -0.026 C 
HETATM    3  C3  UNL     1     -36.138  17.218  -4.489  1.00 20.00    -0.005 C 
HETATM    4  C4  UNL     1     -33.346  15.527  -3.802  1.00 20.00    -0.005 C 
HETATM    5  C6  UNL     1     -34.392  16.234  -5.990  1.00 20.00     0.056 C 
HETATM    6  C7  UNL     1     -35.266  16.207  -2.346  1.00 20.00     0.056 C 
HETATM    7  C8  UNL     1     -36.143  15.995  -3.594  1.00 20.00     0.113 C 
HETATM    8  C9  UNL     1     -34.269  15.120  -4.932  1.00 20.00     0.113 C 
HETATM    9  N10 UNL     1     -35.598  14.871  -4.361  1.00 20.00    -0.343 N 
ENDROOT
BRANCH   9  10
HETATM   10  C5  UNL     1     -36.272  13.677  -4.524  1.00 20.00     0.352 C 
HETATM   11  O11 UNL     1     -35.798  12.547  -4.494  1.00 20.00    -0.283 OA
ENDBRANCH   9  10
TORSDOF 1
ENDMDL
MODEL 2
REMARK VINA RESULT:      -4.8      0.115      2.830
REMARK  1 active torsions:
REMARK  status: ('A' for Active; 'I' for Inactive)
REMARK    1  A    between atoms: C5_5  and  N10_10 
ROOT
HETATM    1  C1  UNL     1     -33.735  15.976  -2.680  1.00 20.00    -0.026 C 
HETATM    2  C2  UNL     1     -35.507  17.357  -5.476  1.00 20.00    -0.026 C 
HETATM    3  C3  UNL     1     -33.351  15.549  -3.895  1.00 20.00    -0.005 C 
HETATM    4  C4  UNL     1     -36.215  17.201  -4.343  1.00 20.00    -0.005 C 
HETATM    5  C6  UNL     1     -35.187  16.136  -2.296  1.00 20.00     0.056 C 
HETATM    6  C7  UNL     1     -34.548  16.308  -5.985  1.00 20.00     0.056 C 
HETATM    7  C8  UNL     1     -34.337  15.162  -4.978  1.00 20.00     0.113 C 
HETATM    8  C9  UNL     1     -36.138  15.949  -3.494  1.00 20.00     0.113 C 
HETATM    9  N10 UNL     1     -35.621  14.864  -4.335  1.00 20.00    -0.343 N 
ENDROOT
BRANCH   9  10
HETATM   10  C5  UNL     1     -36.290  13.670  -4.515  1.00 20.00     0.352 C 
HETATM   11  O11 UNL     1     -35.808  12.543  -4.526  1.00 20.00    -0.283 OA
ENDBRANCH   9  10
TORSDOF 1
ENDMDL
MODEL 3
REMARK VINA RESULT:      -4.3      1.336      2.166
REMARK  1 active torsions:
REMARK  status: ('A' for Active; 'I' for Inactive)
REMARK    1  A    between atoms: C5_5  and  N10_10 
ROOT
HETATM    1  C1  UNL     1     -33.822  14.925  -5.223  1.00 20.00    -0.026 C 
HETATM    2  C2  UNL     1     -34.900  17.207  -2.675  1.00 20.00    -0.026 C 
HETATM    3  C3  UNL     1     -34.499  16.007  -5.644  1.00 20.00    -0.005 C 
HETATM    4  C4  UNL     1     -34.854  15.909  -2.328  1.00 20.00    -0.005 C 
HETATM    5  C6  UNL     1     -34.237  14.128  -4.009  1.00 20.00     0.056 C 
HETATM    6  C7  UNL     1     -35.448  17.675  -4.001  1.00 20.00     0.056 C 
HETATM    7  C8  UNL     1     -35.754  16.507  -4.958  1.00 20.00     0.113 C 
HETATM    8  C9  UNL     1     -35.376  14.802  -3.221  1.00 20.00     0.113 C 
HETATM    9  N10 UNL     1     -36.315  15.400  -4.178  1.00 20.00    -0.343 N 
ENDROOT
BRANCH   9  10
HETATM   10  C5  UNL     1     -37.617  14.964  -4.323  1.00 20.00     0.352 C 
HETATM   11  O11 UNL     1     -38.009  13.804  -4.385  1.00 20.00    -0.283 OA
ENDBRANCH   9  10
TORSDOF 1
ENDMDL
MODEL 4
REMARK VINA RESULT:      -4.3      1.270      2.319
REMARK  1 active torsions:
REMARK  status: ('A' for Active; 'I' for Inactive)
REMARK    1  A    between atoms: C5_5  and  N10_10 
ROOT
HETATM    1  C1  UNL     1     -34.603  17.384  -3.053  1.00 20.00    -0.026 C 
HETATM    2  C2  UNL     1     -33.703  14.912  -5.491  1.00 20.00    -0.026 C 
HETATM    3  C3  UNL     1     -34.439  16.131  -2.595  1.00 20.00    -0.005 C 
HETATM    4  C4  UNL     1     -34.489  15.914  -5.924  1.00 20.00    -0.005 C 
HETATM    5  C6  UNL     1     -35.333  17.690  -4.339  1.00 20.00     0.056 C 
HETATM    6  C7  UNL     1     -33.922  14.223  -4.166  1.00 20.00     0.056 C 
HETATM    7  C8  UNL     1     -34.997  14.917  -3.309  1.00 20.00     0.113 C 
HETATM    8  C9  UNL     1     -35.681  16.419  -5.137  1.00 20.00     0.113 C 
HETATM    9  N10 UNL     1     -36.077  15.369  -4.193  1.00 20.00    -0.343 N 
ENDROOT
BRANCH   9  10
HETATM   10  C5  UNL     1     -37.352  14.843  -4.147  1.00 20.00     0.352 C 
HETATM   11  O11 UNL     1     -37.697  13.703  -4.438  1.00 20.00    -0.283 OA
ENDBRANCH   9  10
TORSDOF 1
ENDMDL
MODEL 5
REMARK VINA RESULT:      -4.2      0.757      1.138
REMARK  1 active torsions:
REMARK  status: ('A' for Active; 'I' for Inactive)
REMARK    1  A    between atoms: C5_5  and  N10_10 
ROOT
HETATM    1  C1  UNL     1     -36.691  17.586  -4.471  1.00 20.00    -0.026 C 
HETATM    2  C2  UNL     1     -33.531  16.116  -3.623  1.00 20.00    -0.026 C 
HETATM    3  C3  UNL     1     -36.629  16.954  -3.286  1.00 20.00    -0.005 C 
HETATM    4  C4  UNL     1     -33.844  16.137  -4.931  1.00 20.00    -0.005 C 
HETATM    5  C6  UNL     1     -36.073  17.019  -5.727  1.00 20.00     0.056 C 
HETATM    6  C7  UNL     1     -34.532  15.751  -2.554  1.00 20.00     0.056 C 
HETATM    7  C8  UNL     1     -35.962  15.606  -3.109  1.00 20.00     0.113 C 
HETATM    8  C9  UNL     1     -35.218  15.768  -5.451  1.00 20.00     0.113 C 
HETATM    9  N10 UNL     1     -35.887  14.962  -4.424  1.00 20.00    -0.343 N 
ENDROOT
BRANCH   9  10
HETATM   10  C5  UNL     1     -36.394  13.702  -4.672  1.00 20.00     0.352 C 
HETATM   11  O11 UNL     1     -35.847  12.626  -4.458  1.00 20.00    -0.283 OA
ENDBRANCH   9  10
TORSDOF 1
ENDMDL
MODEL 6
REMARK VINA RESULT:      -4.1      1.147      2.549
REMARK  1 active torsions:
REMARK  status: ('A' for Active; 'I' for Inactive)
REMARK    1  A    between atoms: C5_5  and  N10_10 
ROOT
HETATM    1  C1  UNL     1     -36.176  17.137  -2.048  1.00 20.00    -0.026 C 
HETATM    2  C2  UNL     1     -33.995  16.874  -4.883  1.00 20.00    -0.026 C 
HETATM    3  C3  UNL     1     -35.190  16.229  -1.955  1.00 20.00    -0.005 C 
HETATM    4  C4  UNL     1     -35.272  17.201  -5.146  1.00 20.00    -0.005 C 
HETATM    5  C6  UNL     1     -36.996  17.321  -3.303  1.00 20.00     0.056 C 
HETATM    6  C7  UNL     1     -33.619  15.803  -3.887  1.00 20.00     0.056 C 
HETATM    7  C8  UNL     1     -34.831  15.289  -3.088  1.00 20.00     0.113 C 
HETATM    8  C9  UNL     1     -36.448  16.506  -4.490  1.00 20.00     0.113 C 
HETATM    9  N10 UNL     1     -35.984  15.208  -3.990  1.00 20.00    -0.343 N 
ENDROOT
BRANCH   9  10
HETATM   10  C5  UNL     1     -36.574  14.011  -4.347  1.00 20.00     0.352 C 
HETATM   11  O11 UNL     1     -37.773  13.771  -4.432  1.00 20.00    -0.283 OA
ENDBRANCH   9  10
TORSDOF 1
ENDMDL
MODEL 7
REMARK VINA RESULT:      -4.1      1.949      3.013
REMARK  1 active torsions:
REMARK  status: ('A' for Active; 'I' for Inactive)
REMARK    1  A    between atoms: C5_5  and  N10_10 
ROOT
HETATM    1  C1  UNL     1     -34.260  16.723  -1.853  1.00 20.00    -0.026 C 
HETATM    2  C2  UNL     1     -34.889  13.920  -4.001  1.00 20.00    -0.026 C 
HETATM    3  C3  UNL     1     -35.536  16.541  -2.232  1.00 20.00    -0.005 C 
HETATM    4  C4  UNL     1     -33.693  14.519  -4.142  1.00 20.00    -0.005 C 
HETATM    5  C6  UNL     1     -33.100  16.582  -2.809  1.00 20.00     0.056 C 
HETATM    6  C7  UNL     1     -36.173  14.698  -3.838  1.00 20.00     0.056 C 
HETATM    7  C8  UNL     1     -35.929  16.208  -3.657  1.00 20.00     0.113 C 
HETATM    8  C9  UNL     1     -33.530  16.025  -4.180  1.00 20.00     0.113 C 
HETATM    9  N10 UNL     1     -34.827  16.611  -4.536  1.00 20.00    -0.343 N 
ENDROOT
BRANCH   9  10
HETATM   10  C5  UNL     1     -34.997  17.460  -5.611  1.00 20.00     0.352 C 
HETATM   11  O11 UNL     1     -34.499  17.355  -6.727  1.00 20.00    -0.283 OA
ENDBRANCH   9  10
TORSDOF 1
ENDMDL
MODEL 8
REMARK VINA RESULT:      -4.1      1.878      3.200
REMARK  1 active torsions:
REMARK  status: ('A' for Active; 'I' for Inactive)
REMARK    1  A    between atoms: C5_5  and  N10_10 
ROOT
HETATM    1  C1  UNL     1     -35.103  13.900  -4.029  1.00 20.00    -0.026 C 
HETATM    2  C2  UNL     1     -34.292  16.653  -1.878  1.00 20.00    -0.026 C 
HETATM    3  C3  UNL     1     -33.878  14.431  -4.182  1.00 20.00    -0.005 C 
HETATM    4  C4  UNL     1     -35.582  16.544  -2.242  1.00 20.00    -0.005 C 
HETATM    5  C6  UNL     1     -36.340  14.747  -3.847  1.00 20.00     0.056 C 
HETATM    6  C7  UNL     1     -33.154  16.451  -2.849  1.00 20.00     0.056 C 
HETATM    7  C8  UNL     1     -33.631  15.926  -4.216  1.00 20.00     0.113 C 
HETATM    8  C9  UNL     1     -36.010  16.241  -3.664  1.00 20.00     0.113 C 
HETATM    9  N10 UNL     1     -34.896  16.586  -4.554  1.00 20.00    -0.343 N 
ENDROOT
BRANCH   9  10
HETATM   10  C5  UNL     1     -35.025  17.464  -5.611  1.00 20.00     0.352 C 
HETATM   11  O11 UNL     1     -35.109  17.185  -6.802  1.00 20.00    -0.283 OA
ENDBRANCH   9  10
TORSDOF 1
ENDMDL
MODEL 9
REMARK VINA RESULT:      -4.0     17.597     18.937
REMARK  1 active torsions:
REMARK  status: ('A' for Active; 'I' for Inactive)
REMARK    1  A    between atoms: C5_5  and  N10_10 
ROOT
HETATM    1  C1  UNL     1     -21.990  18.052  11.553  1.00 20.00    -0.026 C 
HETATM    2  C2  UNL     1     -24.664  15.695  11.153  1.00 20.00    -0.026 C 
HETATM    3  C3  UNL     1     -23.069  18.241  12.332  1.00 20.00    -0.005 C 
HETATM    4  C4  UNL     1     -23.946  15.971  10.050  1.00 20.00    -0.005 C 
HETATM    5  C6  UNL     1     -22.097  17.692  10.090  1.00 20.00     0.056 C 
HETATM    6  C7  UNL     1     -25.107  16.765  12.122  1.00 20.00     0.056 C 
HETATM    7  C8  UNL     1     -24.487  18.139  11.808  1.00 20.00     0.113 C 
HETATM    8  C9  UNL     1     -23.545  17.380   9.664  1.00 20.00     0.113 C 
HETATM    9  N10 UNL     1     -24.445  18.310  10.353  1.00 20.00    -0.343 N 
ENDROOT
BRANCH   9  10
HETATM   10  C5  UNL     1     -25.196  19.259   9.687  1.00 20.00     0.352 C 
HETATM   11  O11 UNL     1     -25.534  19.245   8.509  1.00 20.00    -0.283 OA
ENDBRANCH   9  10
TORSDOF 1
ENDMDL
