MODEL 1
REMARK VINA RESULT:      -4.0      0.000      0.000
REMARK  1 active torsions:
REMARK  status: ('A' for Active; 'I' for Inactive)
REMARK    1  A    between atoms: C3_3  and  C8_8 
ROOT
HETATM    1  C1  UNL     1     -23.927  18.532   8.548  1.00 20.00     0.017 C 
HETATM    2  C2  UNL     1     -22.472  18.442   8.976  1.00 20.00     0.092 C 
HETATM    3  C3  UNL     1     -24.314  17.447  10.500  1.00 20.00     0.173 C 
HETATM    4  C4  UNL     1     -24.262  19.203   7.245  1.00 20.00     0.066 C 
HETATM    5  C5  UNL     1     -21.683  17.514   8.066  1.00 20.00     0.028 C 
HETATM    6  N9  UNL     1     -24.880  18.028   9.273  1.00 20.00    -0.282 NA
HETATM    7  S10 UNL     1     -22.541  17.770  10.649  1.00 20.00    -0.131 SA
ENDROOT
BRANCH   3   8
HETATM    8  C8  UNL     1     -25.053  18.030  11.697  1.00 20.00     0.012 C 
HETATM    9  C6  UNL     1     -25.859  19.263  11.289  1.00 20.00     0.012 C 
HETATM   10  C7  UNL     1     -25.967  16.982  12.332  1.00 20.00     0.012 C 
ENDBRANCH   3   8
TORSDOF 1
ENDMDL
MODEL 2
REMARK VINA RESULT:      -3.8     16.304     17.785
REMARK  1 active torsions:
REMARK  status: ('A' for Active; 'I' for Inactive)
REMARK    1  A    between atoms: C3_3  and  C8_8 
ROOT
HETATM    1  C1  UNL     1     -35.348  14.712  -4.535  1.00 20.00     0.017 C 
HETATM    2  C2  UNL     1     -35.557  15.894  -5.467  1.00 20.00     0.092 C 
HETATM    3  C3  UNL     1     -33.599  15.937  -3.771  1.00 20.00     0.173 C 
HETATM    4  C4  UNL     1     -36.290  13.544  -4.620  1.00 20.00     0.066 C 
HETATM    5  C5  UNL     1     -35.276  15.517  -6.913  1.00 20.00     0.028 C 
HETATM    6  N9  UNL     1     -34.367  14.684  -3.684  1.00 20.00    -0.282 NA
HETATM    7  S10 UNL     1     -34.367  17.126  -4.898  1.00 20.00    -0.131 SA
ENDROOT
BRANCH   3   8
HETATM    8  C8  UNL     1     -33.491  16.535  -2.376  1.00 20.00     0.012 C 
HETATM    9  C6  UNL     1     -32.855  17.924  -2.429  1.00 20.00     0.012 C 
HETATM   10  C7  UNL     1     -34.864  16.604  -1.707  1.00 20.00     0.012 C 
ENDBRANCH   3   8
TORSDOF 1
ENDMDL
MODEL 3
REMARK VINA RESULT:      -3.7     16.780     18.217
REMARK  1 active torsions:
REMARK  status: ('A' for Active; 'I' for Inactive)
REMARK    1  A    between atoms: C3_3  and  C8_8 
ROOT
HETATM    1  C1  UNL     1     -35.940  16.585  -5.257  1.00 20.00     0.017 C 
HETATM    2  C2  UNL     1     -34.921  15.850  -6.113  1.00 20.00     0.092 C 
HETATM    3  C3  UNL     1     -35.071  15.334  -3.579  1.00 20.00     0.173 C 
HETATM    4  C4  UNL     1     -36.837  17.601  -5.907  1.00 20.00     0.066 C 
HETATM    5  C5  UNL     1     -35.599  14.914  -7.101  1.00 20.00     0.028 C 
HETATM    6  N9  UNL     1     -36.062  16.341  -3.988  1.00 20.00    -0.282 NA
HETATM    7  S10 UNL     1     -33.941  14.907  -4.926  1.00 20.00    -0.131 SA
ENDROOT
BRANCH   3   8
HETATM    8  C8  UNL     1     -34.287  15.879  -2.393  1.00 20.00     0.012 C 
HETATM    9  C6  UNL     1     -33.115  16.739  -2.867  1.00 20.00     0.012 C 
HETATM   10  C7  UNL     1     -35.197  16.684  -1.466  1.00 20.00     0.012 C 
ENDBRANCH   3   8
TORSDOF 1
ENDMDL
MODEL 4
REMARK VINA RESULT:      -3.7     15.123     16.557
REMARK  1 active torsions:
REMARK  status: ('A' for Active; 'I' for Inactive)
REMARK    1  A    between atoms: C3_3  and  C8_8 
ROOT
HETATM    1  C1  UNL     1     -34.878  16.988  -1.095  1.00 20.00     0.017 C 
HETATM    2  C2  UNL     1     -33.583  17.709  -1.433  1.00 20.00     0.092 C 
HETATM    3  C3  UNL     1     -34.684  16.165  -3.199  1.00 20.00     0.173 C 
HETATM    4  C4  UNL     1     -35.488  17.188   0.264  1.00 20.00     0.066 C 
HETATM    5  C5  UNL     1     -33.794  19.211  -1.529  1.00 20.00     0.028 C 
HETATM    6  N9  UNL     1     -35.473  16.222  -1.958  1.00 20.00    -0.282 NA
HETATM    7  S10 UNL     1     -33.107  17.038  -3.040  1.00 20.00    -0.131 SA
ENDROOT
BRANCH   3   8
HETATM    8  C8  UNL     1     -34.439  14.705  -3.550  1.00 20.00     0.012 C 
HETATM    9  C6  UNL     1     -35.669  14.094  -4.222  1.00 20.00     0.012 C 
HETATM   10  C7  UNL     1     -33.214  14.564  -4.454  1.00 20.00     0.012 C 
ENDBRANCH   3   8
TORSDOF 1
ENDMDL
MODEL 5
REMARK VINA RESULT:      -3.7     18.115     19.603
REMARK  1 active torsions:
REMARK  status: ('A' for Active; 'I' for Inactive)
REMARK    1  A    between atoms: C3_3  and  C8_8 
ROOT
HETATM    1  C1  UNL     1     -38.029  15.035  -4.565  1.00 20.00     0.017 C 
HETATM    2  C2  UNL     1     -37.692  16.385  -5.176  1.00 20.00     0.092 C 
HETATM    3  C3  UNL     1     -35.830  14.605  -4.904  1.00 20.00     0.173 C 
HETATM    4  C4  UNL     1     -39.443  14.767  -4.129  1.00 20.00     0.066 C 
HETATM    5  C5  UNL     1     -38.355  16.561  -6.533  1.00 20.00     0.028 C 
HETATM    6  N9  UNL     1     -37.131  14.108  -4.430  1.00 20.00    -0.282 NA
HETATM    7  S10 UNL     1     -35.896  16.356  -5.355  1.00 20.00    -0.131 SA
ENDROOT
BRANCH   3   8
HETATM    8  C8  UNL     1     -34.799  14.388  -3.805  1.00 20.00     0.012 C 
HETATM    9  C6  UNL     1     -33.385  14.349  -4.386  1.00 20.00     0.012 C 
HETATM   10  C7  UNL     1     -34.906  15.479  -2.739  1.00 20.00     0.012 C 
ENDBRANCH   3   8
TORSDOF 1
ENDMDL
MODEL 6
REMARK VINA RESULT:      -3.7     14.401     15.926
REMARK  1 active torsions:
REMARK  status: ('A' for Active; 'I' for Inactive)
REMARK    1  A    between atoms: C3_3  and  C8_8 
ROOT
HETATM    1  C1  UNL     1     -33.609  15.694  -3.381  1.00 20.00     0.017 C 
HETATM    2  C2  UNL     1     -34.945  15.382  -2.726  1.00 20.00     0.092 C 
HETATM    3  C3  UNL     1     -33.745  17.613  -2.182  1.00 20.00     0.173 C 
HETATM    4  C4  UNL     1     -33.014  14.692  -4.330  1.00 20.00     0.066 C 
HETATM    5  C5  UNL     1     -36.074  15.378  -3.744  1.00 20.00     0.028 C 
HETATM    6  N9  UNL     1     -32.985  16.809  -3.151  1.00 20.00    -0.282 NA
HETATM    7  S10 UNL     1     -35.179  16.718  -1.535  1.00 20.00    -0.131 SA
ENDROOT
BRANCH   3   8
HETATM    8  C8  UNL     1     -32.815  18.002  -1.041  1.00 20.00     0.012 C 
HETATM    9  C6  UNL     1     -31.979  19.226  -1.416  1.00 20.00     0.012 C 
HETATM   10  C7  UNL     1     -33.609  18.271   0.237  1.00 20.00     0.012 C 
ENDBRANCH   3   8
TORSDOF 1
ENDMDL
MODEL 7
REMARK VINA RESULT:      -3.7     16.385     17.857
REMARK  1 active torsions:
REMARK  status: ('A' for Active; 'I' for Inactive)
REMARK    1  A    between atoms: C3_3  and  C8_8 
ROOT
HETATM    1  C1  UNL     1     -35.196  16.441  -2.265  1.00 20.00     0.017 C 
HETATM    2  C2  UNL     1     -33.797  16.069  -2.729  1.00 20.00     0.092 C 
HETATM    3  C3  UNL     1     -35.765  15.985  -4.412  1.00 20.00     0.173 C 
HETATM    4  C4  UNL     1     -35.403  16.846  -0.833  1.00 20.00     0.066 C 
HETATM    5  C5  UNL     1     -32.874  17.278  -2.729  1.00 20.00     0.028 C 
HETATM    6  N9  UNL     1     -36.206  16.432  -3.081  1.00 20.00    -0.282 NA
HETATM    7  S10 UNL     1     -34.033  15.461  -4.411  1.00 20.00    -0.131 SA
ENDROOT
BRANCH   3   8
HETATM    8  C8  UNL     1     -36.658  14.836  -4.858  1.00 20.00     0.012 C 
HETATM    9  C6  UNL     1     -36.034  13.490  -4.491  1.00 20.00     0.012 C 
HETATM   10  C7  UNL     1     -38.051  14.963  -4.241  1.00 20.00     0.012 C 
ENDBRANCH   3   8
TORSDOF 1
ENDMDL
MODEL 8
REMARK VINA RESULT:      -3.7     11.580     13.147
REMARK  1 active torsions:
REMARK  status: ('A' for Active; 'I' for Inactive)
REMARK    1  A    between atoms: C3_3  and  C8_8 
ROOT
HETATM    1  C1  UNL     1     -32.448  18.186   1.822  1.00 20.00     0.017 C 
HETATM    2  C2  UNL     1     -31.108  18.170   1.104  1.00 20.00     0.092 C 
HETATM    3  C3  UNL     1     -33.247  18.838  -0.196  1.00 20.00     0.173 C 
HETATM    4  C4  UNL     1     -32.498  17.808   3.276  1.00 20.00     0.066 C 
HETATM    5  C5  UNL     1     -30.187  19.262   1.625  1.00 20.00     0.028 C 
HETATM    6  N9  UNL     1     -33.540  18.534   1.213  1.00 20.00    -0.282 NA
HETATM    7  S10 UNL     1     -31.528  18.475  -0.625  1.00 20.00    -0.131 SA
ENDROOT
BRANCH   3   8
HETATM    8  C8  UNL     1     -34.187  18.022  -1.073  1.00 20.00     0.012 C 
HETATM    9  C6  UNL     1     -33.398  17.103  -2.006  1.00 20.00     0.012 C 
HETATM   10  C7  UNL     1     -35.156  17.207  -0.216  1.00 20.00     0.012 C 
ENDBRANCH   3   8
TORSDOF 1
ENDMDL
MODEL 9
REMARK VINA RESULT:      -3.7     17.205     18.765
REMARK  1 active torsions:
REMARK  status: ('A' for Active; 'I' for Inactive)
REMARK    1  A    between atoms: C3_3  and  C8_8 
ROOT
HETATM    1  C1  UNL     1     -36.972  16.464  -3.875  1.00 20.00     0.017 C 
HETATM    2  C2  UNL     1     -37.559  15.347  -4.721  1.00 20.00     0.092 C 
HETATM    3  C3  UNL     1     -35.423  14.903  -3.325  1.00 20.00     0.173 C 
HETATM    4  C4  UNL     1     -37.648  17.807  -3.872  1.00 20.00     0.066 C 
HETATM    5  C5  UNL     1     -38.905  14.891  -4.180  1.00 20.00     0.028 C 
HETATM    6  N9  UNL     1     -35.914  16.278  -3.144  1.00 20.00    -0.282 NA
HETATM    7  S10 UNL     1     -36.350  14.013  -4.599  1.00 20.00    -0.131 SA
ENDROOT
BRANCH   3   8
HETATM    8  C8  UNL     1     -33.948  14.961  -3.698  1.00 20.00     0.012 C 
HETATM    9  C6  UNL     1     -33.770  14.925  -5.216  1.00 20.00     0.012 C 
HETATM   10  C7  UNL     1     -33.291  16.212  -3.115  1.00 20.00     0.012 C 
ENDBRANCH   3   8
TORSDOF 1
ENDMDL
