MODEL 1
REMARK VINA RESULT:      -4.2      0.000      0.000
REMARK  2 active torsions:
REMARK  status: ('A' for Active; 'I' for Inactive)
REMARK    1  A    between atoms: C2_2  and  C5_5 
REMARK    2  A    between atoms: C5_5  and  C6_6 
ROOT
HETATM    1  C1  UNL     1     -31.853   7.237   2.947  1.00 20.00     0.206 A 
HETATM    2  C2  UNL     1     -33.099   6.398   3.088  1.00 20.00     0.079 A 
HETATM    3  C3  UNL     1     -33.143   5.035   2.475  1.00 20.00     0.048 C 
HETATM    4  O7  UNL     1     -33.011   7.460   2.128  1.00 20.00    -0.375 OA
ENDROOT
BRANCH   2   5
HETATM    5  C5  UNL     1     -34.067   6.680   4.226  1.00 20.00     0.039 C 
BRANCH   5   6
HETATM    6  C6  UNL     1     -34.881   5.438   4.588  1.00 20.00    -0.002 C 
HETATM    7  C4  UNL     1     -34.744   5.092   6.062  1.00 20.00     0.005 C 
ENDBRANCH   5   6
ENDBRANCH   2   5
TORSDOF 2
ENDMDL
MODEL 2
REMARK VINA RESULT:      -4.1      1.705      3.669
REMARK  2 active torsions:
REMARK  status: ('A' for Active; 'I' for Inactive)
REMARK    1  A    between atoms: C2_2  and  C5_5 
REMARK    2  A    between atoms: C5_5  and  C6_6 
ROOT
HETATM    1  C1  UNL     1     -34.810   4.536   4.720  1.00 20.00     0.206 A 
HETATM    2  C2  UNL     1     -34.156   5.825   4.283  1.00 20.00     0.079 A 
HETATM    3  C3  UNL     1     -33.789   6.849   5.308  1.00 20.00     0.048 C 
HETATM    4  O7  UNL     1     -35.570   5.616   4.156  1.00 20.00    -0.375 OA
ENDROOT
BRANCH   2   5
HETATM    5  C5  UNL     1     -33.423   5.879   2.952  1.00 20.00     0.039 C 
BRANCH   5   6
HETATM    6  C6  UNL     1     -32.444   7.051   2.900  1.00 20.00    -0.002 C 
HETATM    7  C4  UNL     1     -32.536   7.796   1.578  1.00 20.00     0.005 C 
ENDBRANCH   5   6
ENDBRANCH   2   5
TORSDOF 2
ENDMDL
MODEL 3
REMARK VINA RESULT:      -3.5      1.821      3.434
REMARK  2 active torsions:
REMARK  status: ('A' for Active; 'I' for Inactive)
REMARK    1  A    between atoms: C2_2  and  C5_5 
REMARK    2  A    between atoms: C5_5  and  C6_6 
ROOT
HETATM    1  C1  UNL     1     -35.503   5.325   4.241  1.00 20.00     0.206 A 
HETATM    2  C2  UNL     1     -34.101   5.500   3.711  1.00 20.00     0.079 A 
HETATM    3  C3  UNL     1     -33.579   4.551   2.681  1.00 20.00     0.048 C 
HETATM    4  O7  UNL     1     -34.355   4.889   4.984  1.00 20.00    -0.375 OA
ENDROOT
BRANCH   2   5
HETATM    5  C5  UNL     1     -33.427   6.860   3.809  1.00 20.00     0.039 C 
BRANCH   5   6
HETATM    6  C6  UNL     1     -32.272   6.983   2.816  1.00 20.00    -0.002 C 
HETATM    7  C4  UNL     1     -32.645   7.865   1.634  1.00 20.00     0.005 C 
ENDBRANCH   5   6
ENDBRANCH   2   5
TORSDOF 2
ENDMDL
MODEL 4
REMARK VINA RESULT:      -3.5     11.171     12.176
REMARK  2 active torsions:
REMARK  status: ('A' for Active; 'I' for Inactive)
REMARK    1  A    between atoms: C2_2  and  C5_5 
REMARK    2  A    between atoms: C5_5  and  C6_6 
ROOT
HETATM    1  C1  UNL     1     -37.333  14.888  -4.197  1.00 20.00     0.206 A 
HETATM    2  C2  UNL     1     -36.062  14.317  -4.776  1.00 20.00     0.079 A 
HETATM    3  C3  UNL     1     -35.747  14.536  -6.221  1.00 20.00     0.048 C 
HETATM    4  O7  UNL     1     -37.222  13.502  -4.555  1.00 20.00    -0.375 OA
ENDROOT
BRANCH   2   5
HETATM    5  C5  UNL     1     -34.899  13.989  -3.853  1.00 20.00     0.039 C 
BRANCH   5   6
HETATM    6  C6  UNL     1     -33.634  14.744  -4.258  1.00 20.00    -0.002 C 
HETATM    7  C4  UNL     1     -33.367  15.922  -3.334  1.00 20.00     0.005 C 
ENDBRANCH   5   6
ENDBRANCH   2   5
TORSDOF 2
ENDMDL
MODEL 5
REMARK VINA RESULT:      -3.4     11.416     11.758
REMARK  2 active torsions:
REMARK  status: ('A' for Active; 'I' for Inactive)
REMARK    1  A    between atoms: C2_2  and  C5_5 
REMARK    2  A    between atoms: C5_5  and  C6_6 
ROOT
HETATM    1  C1  UNL     1     -35.569  14.293  -5.160  1.00 20.00     0.206 A 
HETATM    2  C2  UNL     1     -34.546  14.580  -4.089  1.00 20.00     0.079 A 
HETATM    3  C3  UNL     1     -33.091  14.515  -4.423  1.00 20.00     0.048 C 
HETATM    4  O7  UNL     1     -35.214  13.313  -4.173  1.00 20.00    -0.375 OA
ENDROOT
BRANCH   2   5
HETATM    5  C5  UNL     1     -34.945  15.402  -2.874  1.00 20.00     0.039 C 
BRANCH   5   6
HETATM    6  C6  UNL     1     -33.836  16.372  -2.467  1.00 20.00    -0.002 C 
HETATM    7  C4  UNL     1     -34.286  17.294  -1.345  1.00 20.00     0.005 C 
ENDBRANCH   5   6
ENDBRANCH   2   5
TORSDOF 2
ENDMDL
MODEL 6
REMARK VINA RESULT:      -3.3     11.540     12.423
REMARK  2 active torsions:
REMARK  status: ('A' for Active; 'I' for Inactive)
REMARK    1  A    between atoms: C2_2  and  C5_5 
REMARK    2  A    between atoms: C5_5  and  C6_6 
ROOT
HETATM    1  C1  UNL     1     -36.500  15.091  -5.540  1.00 20.00     0.206 A 
HETATM    2  C2  UNL     1     -35.055  14.692  -5.364  1.00 20.00     0.079 A 
HETATM    3  C3  UNL     1     -34.054  15.070  -6.408  1.00 20.00     0.048 C 
HETATM    4  O7  UNL     1     -36.044  13.760  -5.823  1.00 20.00    -0.375 OA
ENDROOT
BRANCH   2   5
HETATM    5  C5  UNL     1     -34.527  14.387  -3.972  1.00 20.00     0.039 C 
BRANCH   5   6
HETATM    6  C6  UNL     1     -33.652  15.524  -3.444  1.00 20.00    -0.002 C 
HETATM    7  C4  UNL     1     -34.311  16.236  -2.274  1.00 20.00     0.005 C 
ENDBRANCH   5   6
ENDBRANCH   2   5
TORSDOF 2
ENDMDL
MODEL 7
REMARK VINA RESULT:      -3.3      8.812      9.493
REMARK  2 active torsions:
REMARK  status: ('A' for Active; 'I' for Inactive)
REMARK    1  A    between atoms: C2_2  and  C5_5 
REMARK    2  A    between atoms: C5_5  and  C6_6 
ROOT
HETATM    1  C1  UNL     1     -43.288   5.540   0.244  1.00 20.00     0.206 A 
HETATM    2  C2  UNL     1     -41.853   5.991   0.111  1.00 20.00     0.079 A 
HETATM    3  C3  UNL     1     -41.018   5.467  -1.013  1.00 20.00     0.048 C 
HETATM    4  O7  UNL     1     -42.243   4.986   1.058  1.00 20.00    -0.375 OA
ENDROOT
BRANCH   2   5
HETATM    5  C5  UNL     1     -41.416   7.298   0.751  1.00 20.00     0.039 C 
BRANCH   5   6
HETATM    6  C6  UNL     1     -41.257   8.405  -0.291  1.00 20.00    -0.002 C 
HETATM    7  C4  UNL     1     -41.297   9.783   0.349  1.00 20.00     0.005 C 
ENDBRANCH   5   6
ENDBRANCH   2   5
TORSDOF 2
ENDMDL
MODEL 8
REMARK VINA RESULT:      -3.2      1.820      3.613
REMARK  2 active torsions:
REMARK  status: ('A' for Active; 'I' for Inactive)
REMARK    1  A    between atoms: C2_2  and  C5_5 
REMARK    2  A    between atoms: C5_5  and  C6_6 
ROOT
HETATM    1  C1  UNL     1     -34.768   5.069   5.954  1.00 20.00     0.206 A 
HETATM    2  C2  UNL     1     -34.716   5.639   4.557  1.00 20.00     0.079 A 
HETATM    3  C3  UNL     1     -35.981   5.791   3.776  1.00 20.00     0.048 C 
HETATM    4  O7  UNL     1     -34.365   4.275   4.828  1.00 20.00    -0.375 OA
ENDROOT
BRANCH   2   5
HETATM    5  C5  UNL     1     -33.536   6.504   4.145  1.00 20.00     0.039 C 
BRANCH   5   6
HETATM    6  C6  UNL     1     -33.039   6.141   2.746  1.00 20.00    -0.002 C 
HETATM    7  C4  UNL     1     -32.511   7.361   2.008  1.00 20.00     0.005 C 
ENDBRANCH   5   6
ENDBRANCH   2   5
TORSDOF 2
ENDMDL
MODEL 9
REMARK VINA RESULT:      -3.1      1.490      2.068
REMARK  2 active torsions:
REMARK  status: ('A' for Active; 'I' for Inactive)
REMARK    1  A    between atoms: C2_2  and  C5_5 
REMARK    2  A    between atoms: C5_5  and  C6_6 
ROOT
HETATM    1  C1  UNL     1     -33.473   4.606   1.953  1.00 20.00     0.206 A 
HETATM    2  C2  UNL     1     -33.640   5.625   3.054  1.00 20.00     0.079 A 
HETATM    3  C3  UNL     1     -32.811   6.869   3.039  1.00 20.00     0.048 C 
HETATM    4  O7  UNL     1     -32.878   4.426   3.247  1.00 20.00    -0.375 OA
ENDROOT
BRANCH   2   5
HETATM    5  C5  UNL     1     -34.936   5.662   3.849  1.00 20.00     0.039 C 
BRANCH   5   6
HETATM    6  C6  UNL     1     -34.723   5.184   5.285  1.00 20.00    -0.002 C 
HETATM    7  C4  UNL     1     -34.299   6.325   6.196  1.00 20.00     0.005 C 
ENDBRANCH   5   6
ENDBRANCH   2   5
TORSDOF 2
ENDMDL
