MODEL 1
REMARK VINA RESULT:      -5.0      0.000      0.000
REMARK  1 active torsions:
REMARK  status: ('A' for Active; 'I' for Inactive)
REMARK    1  A    between atoms: C7_7  and  C10_10 
ROOT
HETATM    1  C1  UNL     1     -33.209  17.790  -1.187  1.00 20.00    -0.004 C 
HETATM    2  C2  UNL     1     -34.558  17.517  -0.723  1.00 20.00    -0.004 C 
HETATM    3  C3  UNL     1     -32.640  17.472  -2.363  1.00 20.00    -0.017 C 
HETATM    4  C4  UNL     1     -35.558  16.880  -1.362  1.00 20.00    -0.017 C 
HETATM    5  C5  UNL     1     -34.265  17.524  -4.241  1.00 20.00    -0.021 C 
HETATM    6  C6  UNL     1     -35.509  17.270  -3.814  1.00 20.00    -0.021 C 
HETATM    7  C8  UNL     1     -33.260  16.686  -3.492  1.00 20.00     0.042 C 
HETATM    8  C9  UNL     1     -35.501  16.230  -2.723  1.00 20.00     0.042 C 
HETATM    9  C10 UNL     1     -34.148  15.541  -2.975  1.00 20.00     0.077 C 
ENDROOT
BRANCH   9  10
HETATM   10  C7  UNL     1     -34.263  14.444  -4.001  1.00 20.00     0.129 C 
HETATM   11  C11 UNL     1     -35.613  13.794  -4.149  1.00 20.00     0.091 C 
HETATM   12  O12 UNL     1     -33.303  14.097  -4.686  1.00 20.00    -0.298 OA
ENDBRANCH   9  10
TORSDOF 1
ENDMDL
MODEL 2
REMARK VINA RESULT:      -4.9      1.613      2.082
REMARK  1 active torsions:
REMARK  status: ('A' for Active; 'I' for Inactive)
REMARK    1  A    between atoms: C7_7  and  C10_10 
ROOT
HETATM    1  C1  UNL     1     -33.108  16.595  -2.766  1.00 20.00    -0.004 C 
HETATM    2  C2  UNL     1     -34.226  17.478  -2.480  1.00 20.00    -0.004 C 
HETATM    3  C3  UNL     1     -33.049  15.558  -3.619  1.00 20.00    -0.017 C 
HETATM    4  C4  UNL     1     -35.466  17.466  -3.003  1.00 20.00    -0.017 C 
HETATM    5  C5  UNL     1     -34.451  15.917  -5.638  1.00 20.00    -0.021 C 
HETATM    6  C6  UNL     1     -35.484  16.729  -5.375  1.00 20.00    -0.021 C 
HETATM    7  C8  UNL     1     -34.171  15.009  -4.466  1.00 20.00     0.042 C 
HETATM    8  C9  UNL     1     -36.028  16.474  -3.992  1.00 20.00     0.042 C 
HETATM    9  C10 UNL     1     -35.520  15.046  -3.727  1.00 20.00     0.077 C 
ENDROOT
BRANCH   9  10
HETATM   10  C7  UNL     1     -36.462  14.007  -4.276  1.00 20.00     0.129 C 
HETATM   11  C11 UNL     1     -37.913  14.394  -4.375  1.00 20.00     0.091 C 
HETATM   12  O12 UNL     1     -36.066  12.897  -4.628  1.00 20.00    -0.298 OA
ENDBRANCH   9  10
TORSDOF 1
ENDMDL
MODEL 3
REMARK VINA RESULT:      -4.7      1.894      3.958
REMARK  1 active torsions:
REMARK  status: ('A' for Active; 'I' for Inactive)
REMARK    1  A    between atoms: C7_7  and  C10_10 
ROOT
HETATM    1  C1  UNL     1     -34.944  14.044  -4.163  1.00 20.00    -0.004 C 
HETATM    2  C2  UNL     1     -33.533  14.387  -4.189  1.00 20.00    -0.004 C 
HETATM    3  C3  UNL     1     -35.977  14.756  -3.677  1.00 20.00    -0.017 C 
HETATM    4  C4  UNL     1     -32.925  15.498  -3.732  1.00 20.00    -0.017 C 
HETATM    5  C5  UNL     1     -35.649  17.203  -3.955  1.00 20.00    -0.021 C 
HETATM    6  C6  UNL     1     -34.347  17.519  -3.976  1.00 20.00    -0.021 C 
HETATM    7  C8  UNL     1     -35.913  16.089  -2.972  1.00 20.00     0.042 C 
HETATM    8  C9  UNL     1     -33.569  16.659  -3.014  1.00 20.00     0.042 C 
HETATM    9  C10 UNL     1     -34.682  16.197  -2.056  1.00 20.00     0.077 C 
ENDROOT
BRANCH   9  10
HETATM   10  C7  UNL     1     -34.919  17.194  -0.952  1.00 20.00     0.129 C 
HETATM   11  C11 UNL     1     -33.716  17.949  -0.453  1.00 20.00     0.091 C 
HETATM   12  O12 UNL     1     -36.039  17.384  -0.483  1.00 20.00    -0.298 OA
ENDBRANCH   9  10
TORSDOF 1
ENDMDL
MODEL 4
REMARK VINA RESULT:      -4.6      1.161      2.448
REMARK  1 active torsions:
REMARK  status: ('A' for Active; 'I' for Inactive)
REMARK    1  A    between atoms: C7_7  and  C10_10 
ROOT
HETATM    1  C1  UNL     1     -34.126  18.461  -4.380  1.00 20.00    -0.004 C 
HETATM    2  C2  UNL     1     -33.018  17.989  -3.568  1.00 20.00    -0.004 C 
HETATM    3  C3  UNL     1     -35.312  17.871  -4.613  1.00 20.00    -0.017 C 
HETATM    4  C4  UNL     1     -32.916  16.850  -2.857  1.00 20.00    -0.017 C 
HETATM    5  C5  UNL     1     -36.119  16.570  -2.657  1.00 20.00    -0.021 C 
HETATM    6  C6  UNL     1     -35.097  16.133  -1.909  1.00 20.00    -0.021 C 
HETATM    7  C8  UNL     1     -35.770  16.519  -4.124  1.00 20.00     0.042 C 
HETATM    8  C9  UNL     1     -33.929  15.734  -2.776  1.00 20.00     0.042 C 
HETATM    9  C10 UNL     1     -34.626  15.490  -4.126  1.00 20.00     0.077 C 
ENDROOT
BRANCH   9  10
HETATM   10  C7  UNL     1     -35.165  14.087  -4.230  1.00 20.00     0.129 C 
HETATM   11  C11 UNL     1     -36.583  13.941  -4.713  1.00 20.00     0.091 C 
HETATM   12  O12 UNL     1     -34.480  13.109  -3.938  1.00 20.00    -0.298 OA
ENDBRANCH   9  10
TORSDOF 1
ENDMDL
MODEL 5
REMARK VINA RESULT:      -4.6      2.017      3.394
REMARK  1 active torsions:
REMARK  status: ('A' for Active; 'I' for Inactive)
REMARK    1  A    between atoms: C7_7  and  C10_10 
ROOT
HETATM    1  C1  UNL     1     -35.566  16.666  -2.523  1.00 20.00    -0.004 C 
HETATM    2  C2  UNL     1     -34.129  16.448  -2.534  1.00 20.00    -0.004 C 
HETATM    3  C3  UNL     1     -36.503  16.157  -3.342  1.00 20.00    -0.017 C 
HETATM    4  C4  UNL     1     -33.398  15.686  -3.368  1.00 20.00    -0.017 C 
HETATM    5  C5  UNL     1     -35.947  13.856  -4.096  1.00 20.00    -0.021 C 
HETATM    6  C6  UNL     1     -34.622  13.656  -4.109  1.00 20.00    -0.021 C 
HETATM    7  C8  UNL     1     -36.280  15.260  -4.535  1.00 20.00     0.042 C 
HETATM    8  C9  UNL     1     -33.895  14.899  -4.555  1.00 20.00     0.042 C 
HETATM    9  C10 UNL     1     -35.009  15.643  -5.313  1.00 20.00     0.077 C 
ENDROOT
BRANCH   9  10
HETATM   10  C7  UNL     1     -35.103  15.197  -6.748  1.00 20.00     0.129 C 
HETATM   11  C11 UNL     1     -33.826  15.208  -7.545  1.00 20.00     0.091 C 
HETATM   12  O12 UNL     1     -36.169  14.840  -7.246  1.00 20.00    -0.298 OA
ENDBRANCH   9  10
TORSDOF 1
ENDMDL
MODEL 6
REMARK VINA RESULT:      -4.6      2.322      4.318
REMARK  1 active torsions:
REMARK  status: ('A' for Active; 'I' for Inactive)
REMARK    1  A    between atoms: C7_7  and  C10_10 
ROOT
HETATM    1  C1  UNL     1     -35.476  16.326  -1.737  1.00 20.00    -0.004 C 
HETATM    2  C2  UNL     1     -34.507  15.787  -2.676  1.00 20.00    -0.004 C 
HETATM    3  C3  UNL     1     -35.401  17.448  -0.999  1.00 20.00    -0.017 C 
HETATM    4  C4  UNL     1     -33.306  16.282  -3.029  1.00 20.00    -0.017 C 
HETATM    5  C5  UNL     1     -34.167  19.263  -2.164  1.00 20.00    -0.021 C 
HETATM    6  C6  UNL     1     -33.273  18.765  -3.028  1.00 20.00    -0.021 C 
HETATM    7  C8  UNL     1     -34.242  18.412  -0.921  1.00 20.00     0.042 C 
HETATM    8  C9  UNL     1     -32.633  17.516  -2.479  1.00 20.00     0.042 C 
HETATM    9  C10 UNL     1     -32.886  17.686  -0.971  1.00 20.00     0.077 C 
ENDROOT
BRANCH   9  10
HETATM   10  C7  UNL     1     -31.810  18.510  -0.313  1.00 20.00     0.129 C 
HETATM   11  C11 UNL     1     -32.200  19.263   0.930  1.00 20.00     0.091 C 
HETATM   12  O12 UNL     1     -30.669  18.563  -0.768  1.00 20.00    -0.298 OA
ENDBRANCH   9  10
TORSDOF 1
ENDMDL
MODEL 7
REMARK VINA RESULT:      -4.6      2.180      3.161
REMARK  1 active torsions:
REMARK  status: ('A' for Active; 'I' for Inactive)
REMARK    1  A    between atoms: C7_7  and  C10_10 
ROOT
HETATM    1  C1  UNL     1     -33.304  15.810  -3.411  1.00 20.00    -0.004 C 
HETATM    2  C2  UNL     1     -33.825  17.161  -3.531  1.00 20.00    -0.004 C 
HETATM    3  C3  UNL     1     -33.830  14.659  -3.866  1.00 20.00    -0.017 C 
HETATM    4  C4  UNL     1     -34.957  17.579  -4.126  1.00 20.00    -0.017 C 
HETATM    5  C5  UNL     1     -35.058  14.964  -6.004  1.00 20.00    -0.021 C 
HETATM    6  C6  UNL     1     -35.540  16.209  -6.114  1.00 20.00    -0.021 C 
HETATM    7  C8  UNL     1     -35.148  14.479  -4.578  1.00 20.00     0.042 C 
HETATM    8  C9  UNL     1     -36.014  16.721  -4.777  1.00 20.00     0.042 C 
HETATM    9  C10 UNL     1     -36.239  15.404  -4.013  1.00 20.00     0.077 C 
ENDROOT
BRANCH   9  10
HETATM   10  C7  UNL     1     -37.611  14.838  -4.268  1.00 20.00     0.129 C 
HETATM   11  C11 UNL     1     -38.747  15.821  -4.339  1.00 20.00     0.091 C 
HETATM   12  O12 UNL     1     -37.794  13.630  -4.413  1.00 20.00    -0.298 OA
ENDBRANCH   9  10
TORSDOF 1
ENDMDL
MODEL 8
REMARK VINA RESULT:      -4.5      1.213      2.113
REMARK  1 active torsions:
REMARK  status: ('A' for Active; 'I' for Inactive)
REMARK    1  A    between atoms: C7_7  and  C10_10 
ROOT
HETATM    1  C1  UNL     1     -35.893  17.568  -1.403  1.00 20.00    -0.004 C 
HETATM    2  C2  UNL     1     -36.448  18.243  -2.564  1.00 20.00    -0.004 C 
HETATM    3  C3  UNL     1     -35.072  16.503  -1.357  1.00 20.00    -0.017 C 
HETATM    4  C4  UNL     1     -36.271  17.961  -3.868  1.00 20.00    -0.017 C 
HETATM    5  C5  UNL     1     -33.489  16.452  -3.271  1.00 20.00    -0.021 C 
HETATM    6  C6  UNL     1     -34.001  17.072  -4.343  1.00 20.00    -0.021 C 
HETATM    7  C8  UNL     1     -34.561  15.697  -2.526  1.00 20.00     0.042 C 
HETATM    8  C9  UNL     1     -35.482  16.816  -4.454  1.00 20.00     0.042 C 
HETATM    9  C10 UNL     1     -35.629  15.530  -3.621  1.00 20.00     0.077 C 
ENDROOT
BRANCH   9  10
HETATM   10  C7  UNL     1     -35.367  14.298  -4.445  1.00 20.00     0.129 C 
HETATM   11  C11 UNL     1     -35.834  14.328  -5.876  1.00 20.00     0.091 C 
HETATM   12  O12 UNL     1     -34.797  13.315  -3.974  1.00 20.00    -0.298 OA
ENDBRANCH   9  10
TORSDOF 1
ENDMDL
MODEL 9
REMARK VINA RESULT:      -4.4      1.909      2.951
REMARK  1 active torsions:
REMARK  status: ('A' for Active; 'I' for Inactive)
REMARK    1  A    between atoms: C7_7  and  C10_10 
ROOT
HETATM    1  C1  UNL     1     -34.072  17.071  -2.136  1.00 20.00    -0.004 C 
HETATM    2  C2  UNL     1     -33.645  17.795  -3.321  1.00 20.00    -0.004 C 
HETATM    3  C3  UNL     1     -34.809  15.949  -2.053  1.00 20.00    -0.017 C 
HETATM    4  C4  UNL     1     -33.885  17.513  -4.615  1.00 20.00    -0.017 C 
HETATM    5  C5  UNL     1     -34.387  14.402  -3.950  1.00 20.00    -0.021 C 
HETATM    6  C6  UNL     1     -33.995  15.069  -5.044  1.00 20.00    -0.021 C 
HETATM    7  C8  UNL     1     -35.433  15.182  -3.193  1.00 20.00     0.042 C 
HETATM    8  C9  UNL     1     -34.724  16.383  -5.161  1.00 20.00     0.042 C 
HETATM    9  C10 UNL     1     -35.966  16.117  -4.292  1.00 20.00     0.077 C 
ENDROOT
BRANCH   9  10
HETATM   10  C7  UNL     1     -37.065  15.452  -5.078  1.00 20.00     0.129 C 
HETATM   11  C11 UNL     1     -38.079  14.665  -4.291  1.00 20.00     0.091 C 
HETATM   12  O12 UNL     1     -37.134  15.550  -6.302  1.00 20.00    -0.298 OA
ENDBRANCH   9  10
TORSDOF 1
ENDMDL
