MODEL 1
REMARK VINA RESULT:      -4.3      0.000      0.000
REMARK  5 active torsions:
REMARK  status: ('A' for Active; 'I' for Inactive)
REMARK    1  A    between atoms: C1_1  and  C9_9 
REMARK    2  A    between atoms: C1_1  and  O11_11 
REMARK    3  A    between atoms: C6_6  and  C7_7 
REMARK    4  A    between atoms: C7_7  and  C9_9 
REMARK    5  A    between atoms: C8_8  and  O11_11 
ROOT
HETATM    1  C4  UNL     1     -33.514  14.310  -4.435  1.00 20.00     0.025 C 
HETATM    2  C5  UNL     1     -34.996  16.142  -5.248  1.00 20.00     0.025 C 
HETATM    3  C9  UNL     1     -34.900  14.960  -4.267  1.00 20.00     0.041 C 
ENDROOT
BRANCH   3   4
HETATM    4  C1  UNL     1     -35.964  13.913  -4.620  1.00 20.00     0.266 C 
HETATM    5  O10 UNL     1     -35.839  12.708  -4.434  1.00 20.00    -0.264 OA
BRANCH   4   6
HETATM    6  O11 UNL     1     -37.066  14.513  -5.162  1.00 20.00    -0.321 OA
BRANCH   6   7
HETATM    7  C8  UNL     1     -38.226  14.552  -4.324  1.00 20.00     0.174 C 
HETATM    8  C3  UNL     1     -38.612  15.996  -4.084  1.00 20.00     0.034 C 
ENDBRANCH   6   7
ENDBRANCH   4   6
ENDBRANCH   3   4
BRANCH   3   9
HETATM    9  C7  UNL     1     -35.063  15.443  -2.803  1.00 20.00     0.018 C 
BRANCH   9  10
HETATM   10  C6  UNL     1     -33.958  16.386  -2.309  1.00 20.00    -0.003 C 
HETATM   11  C2  UNL     1     -34.474  17.312  -1.216  1.00 20.00     0.005 C 
ENDBRANCH   9  10
ENDBRANCH   3   9
TORSDOF 5
ENDMDL
MODEL 2
REMARK VINA RESULT:      -4.1     16.640     18.647
REMARK  5 active torsions:
REMARK  status: ('A' for Active; 'I' for Inactive)
REMARK    1  A    between atoms: C1_1  and  C9_9 
REMARK    2  A    between atoms: C1_1  and  O11_11 
REMARK    3  A    between atoms: C6_6  and  C7_7 
REMARK    4  A    between atoms: C7_7  and  C9_9 
REMARK    5  A    between atoms: C8_8  and  O11_11 
ROOT
HETATM    1  C4  UNL     1     -24.419  15.900  11.400  1.00 20.00     0.025 C 
HETATM    2  C5  UNL     1     -22.697  17.514  12.201  1.00 20.00     0.025 C 
HETATM    3  C9  UNL     1     -23.851  17.317  11.201  1.00 20.00     0.041 C 
ENDROOT
BRANCH   3   4
HETATM    4  C1  UNL     1     -23.310  17.419   9.769  1.00 20.00     0.266 C 
HETATM    5  O10 UNL     1     -22.738  16.511   9.178  1.00 20.00    -0.264 OA
BRANCH   4   6
HETATM    6  O11 UNL     1     -23.562  18.657   9.248  1.00 20.00    -0.321 OA
BRANCH   6   7
HETATM    7  C8  UNL     1     -23.974  18.682   7.877  1.00 20.00     0.174 C 
HETATM    8  C3  UNL     1     -25.454  18.991   7.812  1.00 20.00     0.034 C 
ENDBRANCH   6   7
ENDBRANCH   4   6
ENDBRANCH   3   4
BRANCH   3   9
HETATM    9  C7  UNL     1     -24.975  18.357  11.444  1.00 20.00     0.018 C 
BRANCH   9  10
HETATM   10  C6  UNL     1     -26.125  17.866  12.332  1.00 20.00    -0.003 C 
HETATM   11  C2  UNL     1     -27.453  18.469  11.895  1.00 20.00     0.005 C 
ENDBRANCH   9  10
ENDBRANCH   3   9
TORSDOF 5
ENDMDL
MODEL 3
REMARK VINA RESULT:      -4.0     17.816     19.124
REMARK  5 active torsions:
REMARK  status: ('A' for Active; 'I' for Inactive)
REMARK    1  A    between atoms: C1_1  and  C9_9 
REMARK    2  A    between atoms: C1_1  and  O11_11 
REMARK    3  A    between atoms: C6_6  and  C7_7 
REMARK    4  A    between atoms: C7_7  and  C9_9 
REMARK    5  A    between atoms: C8_8  and  O11_11 
ROOT
HETATM    1  C4  UNL     1     -24.969  16.406  12.036  1.00 20.00     0.025 C 
HETATM    2  C5  UNL     1     -22.952  17.842  12.332  1.00 20.00     0.025 C 
HETATM    3  C9  UNL     1     -24.334  17.757  11.658  1.00 20.00     0.041 C 
ENDROOT
BRANCH   3   4
HETATM    4  C1  UNL     1     -24.164  17.795  10.134  1.00 20.00     0.266 C 
HETATM    5  O10 UNL     1     -24.637  18.660   9.406  1.00 20.00    -0.264 OA
BRANCH   4   6
HETATM    6  O11 UNL     1     -23.409  16.739   9.708  1.00 20.00    -0.321 OA
BRANCH   6   7
HETATM    7  C8  UNL     1     -22.474  17.025   8.663  1.00 20.00     0.174 C 
HETATM    8  C3  UNL     1     -21.406  17.955   9.198  1.00 20.00     0.034 C 
ENDBRANCH   6   7
ENDBRANCH   4   6
ENDBRANCH   3   4
BRANCH   3   9
HETATM    9  C7  UNL     1     -25.255  18.907  12.141  1.00 20.00     0.018 C 
BRANCH   9  10
HETATM   10  C6  UNL     1     -26.735  18.530  12.285  1.00 20.00    -0.003 C 
HETATM   11  C2  UNL     1     -27.591  19.260  11.259  1.00 20.00     0.005 C 
ENDBRANCH   9  10
ENDBRANCH   3   9
TORSDOF 5
ENDMDL
MODEL 4
REMARK VINA RESULT:      -3.9      1.138      2.888
REMARK  5 active torsions:
REMARK  status: ('A' for Active; 'I' for Inactive)
REMARK    1  A    between atoms: C1_1  and  C9_9 
REMARK    2  A    between atoms: C1_1  and  O11_11 
REMARK    3  A    between atoms: C6_6  and  C7_7 
REMARK    4  A    between atoms: C7_7  and  C9_9 
REMARK    5  A    between atoms: C8_8  and  O11_11 
ROOT
HETATM    1  C4  UNL     1     -34.593  15.615  -2.864  1.00 20.00     0.025 C 
HETATM    2  C5  UNL     1     -33.322  14.029  -4.308  1.00 20.00     0.025 C 
HETATM    3  C9  UNL     1     -34.621  14.848  -4.200  1.00 20.00     0.041 C 
ENDROOT
BRANCH   3   4
HETATM    4  C1  UNL     1     -35.826  13.899  -4.182  1.00 20.00     0.266 C 
HETATM    5  O10 UNL     1     -35.807  12.748  -4.603  1.00 20.00    -0.264 OA
BRANCH   4   6
HETATM    6  O11 UNL     1     -36.913  14.513  -3.627  1.00 20.00    -0.321 OA
BRANCH   6   7
HETATM    7  C8  UNL     1     -38.094  14.531  -4.434  1.00 20.00     0.174 C 
HETATM    8  C3  UNL     1     -38.375  15.954  -4.866  1.00 20.00     0.034 C 
ENDBRANCH   6   7
ENDBRANCH   4   6
ENDBRANCH   3   4
BRANCH   3   9
HETATM    9  C7  UNL     1     -34.732  15.862  -5.368  1.00 20.00     0.018 C 
BRANCH   9  10
HETATM   10  C6  UNL     1     -34.428  15.281  -6.755  1.00 20.00    -0.003 C 
HETATM   11  C2  UNL     1     -35.696  15.151  -7.587  1.00 20.00     0.005 C 
ENDBRANCH   9  10
ENDBRANCH   3   9
TORSDOF 5
ENDMDL
MODEL 5
REMARK VINA RESULT:      -3.9      1.632      2.461
REMARK  5 active torsions:
REMARK  status: ('A' for Active; 'I' for Inactive)
REMARK    1  A    between atoms: C1_1  and  C9_9 
REMARK    2  A    between atoms: C1_1  and  O11_11 
REMARK    3  A    between atoms: C6_6  and  C7_7 
REMARK    4  A    between atoms: C7_7  and  C9_9 
REMARK    5  A    between atoms: C8_8  and  O11_11 
ROOT
HETATM    1  C4  UNL     1     -34.932  17.089  -4.298  1.00 20.00     0.025 C 
HETATM    2  C5  UNL     1     -35.086  16.005  -2.058  1.00 20.00     0.025 C 
HETATM    3  C9  UNL     1     -34.251  16.086  -3.349  1.00 20.00     0.041 C 
ENDROOT
BRANCH   3   4
HETATM    4  C1  UNL     1     -34.233  14.714  -4.035  1.00 20.00     0.266 C 
HETATM    5  O10 UNL     1     -33.360  14.338  -4.808  1.00 20.00    -0.264 OA
BRANCH   4   6
HETATM    6  O11 UNL     1     -35.319  13.975  -3.658  1.00 20.00    -0.321 OA
BRANCH   6   7
HETATM    7  C8  UNL     1     -36.268  13.695  -4.692  1.00 20.00     0.174 C 
HETATM    8  C3  UNL     1     -37.553  14.439  -4.397  1.00 20.00     0.034 C 
ENDBRANCH   6   7
ENDBRANCH   4   6
ENDBRANCH   3   4
BRANCH   3   9
HETATM    9  C7  UNL     1     -32.810  16.571  -3.043  1.00 20.00     0.018 C 
BRANCH   9  10
HETATM   10  C6  UNL     1     -32.703  18.036  -2.603  1.00 20.00    -0.003 C 
HETATM   11  C2  UNL     1     -32.070  18.151  -1.223  1.00 20.00     0.005 C 
ENDBRANCH   9  10
ENDBRANCH   3   9
TORSDOF 5
ENDMDL
MODEL 6
REMARK VINA RESULT:      -3.8     15.809     18.034
REMARK  5 active torsions:
REMARK  status: ('A' for Active; 'I' for Inactive)
REMARK    1  A    between atoms: C1_1  and  C9_9 
REMARK    2  A    between atoms: C1_1  and  O11_11 
REMARK    3  A    between atoms: C6_6  and  C7_7 
REMARK    4  A    between atoms: C7_7  and  C9_9 
REMARK    5  A    between atoms: C8_8  and  O11_11 
ROOT
HETATM    1  C4  UNL     1     -22.333  16.877   8.897  1.00 20.00     0.025 C 
HETATM    2  C5  UNL     1     -22.654  18.058  11.069  1.00 20.00     0.025 C 
HETATM    3  C9  UNL     1     -23.388  17.362   9.909  1.00 20.00     0.041 C 
ENDROOT
BRANCH   3   4
HETATM    4  C1  UNL     1     -24.302  18.371   9.200  1.00 20.00     0.266 C 
HETATM    5  O10 UNL     1     -24.998  19.197   9.777  1.00 20.00    -0.264 OA
BRANCH   4   6
HETATM    6  O11 UNL     1     -24.222  18.221   7.844  1.00 20.00    -0.321 OA
BRANCH   6   7
HETATM    7  C8  UNL     1     -24.831  19.258   7.069  1.00 20.00     0.174 C 
HETATM    8  C3  UNL     1     -26.134  18.743   6.494  1.00 20.00     0.034 C 
ENDBRANCH   6   7
ENDBRANCH   4   6
ENDBRANCH   3   4
BRANCH   3   9
HETATM    9  C7  UNL     1     -24.201  16.145  10.422  1.00 20.00     0.018 C 
BRANCH   9  10
HETATM   10  C6  UNL     1     -24.455  16.133  11.935  1.00 20.00    -0.003 C 
HETATM   11  C2  UNL     1     -25.818  16.724  12.268  1.00 20.00     0.005 C 
ENDBRANCH   9  10
ENDBRANCH   3   9
TORSDOF 5
ENDMDL
MODEL 7
REMARK VINA RESULT:      -3.8      1.848      3.260
REMARK  5 active torsions:
REMARK  status: ('A' for Active; 'I' for Inactive)
REMARK    1  A    between atoms: C1_1  and  C9_9 
REMARK    2  A    between atoms: C1_1  and  O11_11 
REMARK    3  A    between atoms: C6_6  and  C7_7 
REMARK    4  A    between atoms: C7_7  and  C9_9 
REMARK    5  A    between atoms: C8_8  and  O11_11 
ROOT
HETATM    1  C4  UNL     1     -36.198  16.502  -4.651  1.00 20.00     0.025 C 
HETATM    2  C5  UNL     1     -37.239  14.266  -4.287  1.00 20.00     0.025 C 
HETATM    3  C9  UNL     1     -35.929  14.986  -4.658  1.00 20.00     0.041 C 
ENDROOT
BRANCH   3   4
HETATM    4  C1  UNL     1     -35.506  14.581  -6.076  1.00 20.00     0.266 C 
HETATM    5  O10 UNL     1     -36.277  14.184  -6.941  1.00 20.00    -0.264 OA
BRANCH   4   6
HETATM    6  O11 UNL     1     -34.158  14.733  -6.237  1.00 20.00    -0.321 OA
BRANCH   6   7
HETATM    7  C8  UNL     1     -33.732  15.168  -7.532  1.00 20.00     0.174 C 
HETATM    8  C3  UNL     1     -34.060  16.637  -7.692  1.00 20.00     0.034 C 
ENDBRANCH   6   7
ENDBRANCH   4   6
ENDBRANCH   3   4
BRANCH   3   9
HETATM    9  C7  UNL     1     -34.812  14.661  -3.633  1.00 20.00     0.018 C 
BRANCH   9  10
HETATM   10  C6  UNL     1     -34.459  15.809  -2.679  1.00 20.00    -0.003 C 
HETATM   11  C2  UNL     1     -33.086  16.385  -2.995  1.00 20.00     0.005 C 
ENDBRANCH   9  10
ENDBRANCH   3   9
TORSDOF 5
ENDMDL
MODEL 8
REMARK VINA RESULT:      -3.8      1.393      2.013
REMARK  5 active torsions:
REMARK  status: ('A' for Active; 'I' for Inactive)
REMARK    1  A    between atoms: C1_1  and  C9_9 
REMARK    2  A    between atoms: C1_1  and  O11_11 
REMARK    3  A    between atoms: C6_6  and  C7_7 
REMARK    4  A    between atoms: C7_7  and  C9_9 
REMARK    5  A    between atoms: C8_8  and  O11_11 
ROOT
HETATM    1  C4  UNL     1     -32.815  16.462  -3.091  1.00 20.00     0.025 C 
HETATM    2  C5  UNL     1     -34.886  17.092  -4.327  1.00 20.00     0.025 C 
HETATM    3  C9  UNL     1     -34.260  16.031  -3.404  1.00 20.00     0.041 C 
ENDROOT
BRANCH   3   4
HETATM    4  C1  UNL     1     -34.210  14.682  -4.133  1.00 20.00     0.266 C 
HETATM    5  O10 UNL     1     -33.336  14.357  -4.927  1.00 20.00    -0.264 OA
BRANCH   4   6
HETATM    6  O11 UNL     1     -35.269  13.899  -3.768  1.00 20.00    -0.321 OA
BRANCH   6   7
HETATM    7  C8  UNL     1     -36.263  13.690  -4.775  1.00 20.00     0.174 C 
HETATM    8  C3  UNL     1     -37.533  14.409  -4.373  1.00 20.00     0.034 C 
ENDBRANCH   6   7
ENDBRANCH   4   6
ENDBRANCH   3   4
BRANCH   3   9
HETATM    9  C7  UNL     1     -35.056  15.914  -2.078  1.00 20.00     0.018 C 
BRANCH   9  10
HETATM   10  C6  UNL     1     -35.533  17.250  -1.493  1.00 20.00    -0.003 C 
HETATM   11  C2  UNL     1     -35.066  17.418  -0.054  1.00 20.00     0.005 C 
ENDBRANCH   9  10
ENDBRANCH   3   9
TORSDOF 5
ENDMDL
MODEL 9
REMARK VINA RESULT:      -3.7      1.796      2.308
REMARK  5 active torsions:
REMARK  status: ('A' for Active; 'I' for Inactive)
REMARK    1  A    between atoms: C1_1  and  C9_9 
REMARK    2  A    between atoms: C1_1  and  O11_11 
REMARK    3  A    between atoms: C6_6  and  C7_7 
REMARK    4  A    between atoms: C7_7  and  C9_9 
REMARK    5  A    between atoms: C8_8  and  O11_11 
ROOT
HETATM    1  C4  UNL     1     -34.877  13.778  -3.903  1.00 20.00     0.025 C 
HETATM    2  C5  UNL     1     -32.469  14.272  -4.317  1.00 20.00     0.025 C 
HETATM    3  C9  UNL     1     -33.886  14.875  -4.334  1.00 20.00     0.041 C 
ENDROOT
BRANCH   3   4
HETATM    4  C1  UNL     1     -34.242  15.307  -5.762  1.00 20.00     0.266 C 
HETATM    5  O10 UNL     1     -33.849  14.741  -6.775  1.00 20.00    -0.264 OA
BRANCH   4   6
HETATM    6  O11 UNL     1     -35.059  16.402  -5.743  1.00 20.00    -0.321 OA
BRANCH   6   7
HETATM    7  C8  UNL     1     -36.354  16.220  -6.324  1.00 20.00     0.174 C 
HETATM    8  C3  UNL     1     -37.396  16.250  -5.226  1.00 20.00     0.034 C 
ENDBRANCH   6   7
ENDBRANCH   4   6
ENDBRANCH   3   4
BRANCH   3   9
HETATM    9  C7  UNL     1     -33.989  16.070  -3.352  1.00 20.00     0.018 C 
BRANCH   9  10
HETATM   10  C6  UNL     1     -35.029  15.901  -2.238  1.00 20.00    -0.003 C 
HETATM   11  C2  UNL     1     -34.883  16.985  -1.179  1.00 20.00     0.005 C 
ENDBRANCH   9  10
ENDBRANCH   3   9
TORSDOF 5
ENDMDL
