MODEL 1
REMARK VINA RESULT:      -5.2      0.000      0.000
REMARK  3 active torsions:
REMARK  status: ('A' for Active; 'I' for Inactive)
REMARK    1  A    between atoms: C4_4  and  C6_6 
REMARK    2  A    between atoms: C6_6  and  C8_8 
REMARK    3  A    between atoms: C7_7  and  C8_8 
ROOT
HETATM    1  C1  UNL     1     -34.313   6.630   6.211  1.00 20.00     0.011 C 
HETATM    2  C2  UNL     1     -33.325   6.932   5.095  1.00 20.00     0.016 C 
HETATM    3  C3  UNL     1     -34.682   5.163   6.072  1.00 20.00     0.074 C 
HETATM    4  C4  UNL     1     -33.964   6.425   3.805  1.00 20.00     0.047 C 
HETATM    5  S9  UNL     1     -34.789   4.872   4.285  1.00 20.00    -0.164 SA
ENDROOT
BRANCH   4   6
HETATM    6  C6  UNL     1     -32.951   6.200   2.696  1.00 20.00     0.015 C 
BRANCH   6   7
HETATM    7  C8  UNL     1     -32.266   7.505   2.291  1.00 20.00     0.001 C 
BRANCH   7   8
HETATM    8  C7  UNL     1     -32.556   7.856   0.833  1.00 20.00    -0.005 C 
HETATM    9  C5  UNL     1     -32.964   9.313   0.681  1.00 20.00     0.005 C 
ENDBRANCH   7   8
ENDBRANCH   6   7
ENDBRANCH   4   6
TORSDOF 3
ENDMDL
MODEL 2
REMARK VINA RESULT:      -4.3      1.152      1.506
REMARK  3 active torsions:
REMARK  status: ('A' for Active; 'I' for Inactive)
REMARK    1  A    between atoms: C4_4  and  C6_6 
REMARK    2  A    between atoms: C6_6  and  C8_8 
REMARK    3  A    between atoms: C7_7  and  C8_8 
ROOT
HETATM    1  C1  UNL     1     -34.829   5.024   5.637  1.00 20.00     0.011 C 
HETATM    2  C2  UNL     1     -34.715   4.979   4.122  1.00 20.00     0.016 C 
HETATM    3  C3  UNL     1     -34.542   6.458   6.047  1.00 20.00     0.074 C 
HETATM    4  C4  UNL     1     -33.374   5.618   3.772  1.00 20.00     0.047 C 
HETATM    5  S9  UNL     1     -33.211   7.005   4.943  1.00 20.00    -0.164 SA
ENDROOT
BRANCH   4   6
HETATM    6  C6  UNL     1     -33.309   6.094   2.331  1.00 20.00     0.015 C 
BRANCH   6   7
HETATM    7  C8  UNL     1     -32.522   7.398   2.208  1.00 20.00     0.001 C 
BRANCH   7   8
HETATM    8  C7  UNL     1     -32.521   7.915   0.770  1.00 20.00    -0.005 C 
HETATM    9  C5  UNL     1     -33.008   9.353   0.692  1.00 20.00     0.005 C 
ENDBRANCH   7   8
ENDBRANCH   6   7
ENDBRANCH   4   6
TORSDOF 3
ENDMDL
MODEL 3
REMARK VINA RESULT:      -3.7     11.382     12.098
REMARK  3 active torsions:
REMARK  status: ('A' for Active; 'I' for Inactive)
REMARK    1  A    between atoms: C4_4  and  C6_6 
REMARK    2  A    between atoms: C6_6  and  C8_8 
REMARK    3  A    between atoms: C7_7  and  C8_8 
ROOT
HETATM    1  C1  UNL     1     -30.854  18.841   1.005  1.00 20.00     0.011 C 
HETATM    2  C2  UNL     1     -31.022  18.186  -0.357  1.00 20.00     0.016 C 
HETATM    3  C3  UNL     1     -32.060  18.429   1.831  1.00 20.00     0.074 C 
HETATM    4  C4  UNL     1     -32.429  18.537  -0.833  1.00 20.00     0.047 C 
HETATM    5  S9  UNL     1     -33.455  18.449   0.671  1.00 20.00    -0.164 SA
ENDROOT
BRANCH   4   6
HETATM    6  C6  UNL     1     -32.937  17.595  -1.911  1.00 20.00     0.015 C 
BRANCH   6   7
HETATM    7  C8  UNL     1     -34.311  17.028  -1.556  1.00 20.00     0.001 C 
BRANCH   7   8
HETATM    8  C7  UNL     1     -34.670  15.839  -2.446  1.00 20.00    -0.005 C 
HETATM    9  C5  UNL     1     -33.595  15.579  -3.489  1.00 20.00     0.005 C 
ENDBRANCH   7   8
ENDBRANCH   6   7
ENDBRANCH   4   6
TORSDOF 3
ENDMDL
MODEL 4
REMARK VINA RESULT:      -3.7     11.014     11.974
REMARK  3 active torsions:
REMARK  status: ('A' for Active; 'I' for Inactive)
REMARK    1  A    between atoms: C4_4  and  C6_6 
REMARK    2  A    between atoms: C6_6  and  C8_8 
REMARK    3  A    between atoms: C7_7  and  C8_8 
ROOT
HETATM    1  C1  UNL     1     -36.039  13.630  -4.763  1.00 20.00     0.011 C 
HETATM    2  C2  UNL     1     -34.878  13.954  -3.835  1.00 20.00     0.016 C 
HETATM    3  C3  UNL     1     -35.981  14.643  -5.893  1.00 20.00     0.074 C 
HETATM    4  C4  UNL     1     -34.977  15.446  -3.528  1.00 20.00     0.047 C 
HETATM    5  S9  UNL     1     -35.497  16.203  -5.102  1.00 20.00    -0.164 SA
ENDROOT
BRANCH   4   6
HETATM    6  C6  UNL     1     -33.665  16.031  -3.033  1.00 20.00     0.015 C 
BRANCH   6   7
HETATM    7  C8  UNL     1     -33.885  16.973  -1.850  1.00 20.00     0.001 C 
BRANCH   7   8
HETATM    8  C7  UNL     1     -35.256  16.755  -1.211  1.00 20.00    -0.005 C 
HETATM    9  C5  UNL     1     -35.288  17.252   0.225  1.00 20.00     0.005 C 
ENDBRANCH   7   8
ENDBRANCH   6   7
ENDBRANCH   4   6
TORSDOF 3
ENDMDL
MODEL 5
REMARK VINA RESULT:      -3.7     11.199     12.307
REMARK  3 active torsions:
REMARK  status: ('A' for Active; 'I' for Inactive)
REMARK    1  A    between atoms: C4_4  and  C6_6 
REMARK    2  A    between atoms: C6_6  and  C8_8 
REMARK    3  A    between atoms: C7_7  and  C8_8 
ROOT
HETATM    1  C1  UNL     1     -37.706  15.889  -5.324  1.00 20.00     0.011 C 
HETATM    2  C2  UNL     1     -36.255  16.251  -5.599  1.00 20.00     0.016 C 
HETATM    3  C3  UNL     1     -37.685  14.807  -4.258  1.00 20.00     0.074 C 
HETATM    4  C4  UNL     1     -35.526  14.936  -5.861  1.00 20.00     0.047 C 
HETATM    5  S9  UNL     1     -36.263  13.761  -4.677  1.00 20.00    -0.164 SA
ENDROOT
BRANCH   4   6
HETATM    6  C6  UNL     1     -34.023  15.049  -5.672  1.00 20.00     0.015 C 
BRANCH   6   7
HETATM    7  C8  UNL     1     -33.604  14.635  -4.261  1.00 20.00     0.001 C 
BRANCH   7   8
HETATM    8  C7  UNL     1     -33.279  15.853  -3.397  1.00 20.00    -0.005 C 
HETATM    9  C5  UNL     1     -34.354  16.096  -2.349  1.00 20.00     0.005 C 
ENDBRANCH   7   8
ENDBRANCH   6   7
ENDBRANCH   4   6
TORSDOF 3
ENDMDL
MODEL 6
REMARK VINA RESULT:      -3.6     11.416     12.277
REMARK  3 active torsions:
REMARK  status: ('A' for Active; 'I' for Inactive)
REMARK    1  A    between atoms: C4_4  and  C6_6 
REMARK    2  A    between atoms: C6_6  and  C8_8 
REMARK    3  A    between atoms: C7_7  and  C8_8 
ROOT
HETATM    1  C1  UNL     1     -33.701  14.750  -4.999  1.00 20.00     0.011 C 
HETATM    2  C2  UNL     1     -33.254  15.500  -3.755  1.00 20.00     0.016 C 
HETATM    3  C3  UNL     1     -34.924  15.481  -5.526  1.00 20.00     0.074 C 
HETATM    4  C4  UNL     1     -34.492  15.651  -2.874  1.00 20.00     0.047 C 
HETATM    5  S9  UNL     1     -35.849  15.978  -4.046  1.00 20.00    -0.164 SA
ENDROOT
BRANCH   4   6
HETATM    6  C6  UNL     1     -34.354  16.767  -1.853  1.00 20.00     0.015 C 
BRANCH   6   7
HETATM    7  C8  UNL     1     -32.993  17.454  -1.956  1.00 20.00     0.001 C 
BRANCH   7   8
HETATM    8  C7  UNL     1     -32.669  18.240  -0.687  1.00 20.00    -0.005 C 
HETATM    9  C5  UNL     1     -31.170  18.331  -0.453  1.00 20.00     0.005 C 
ENDBRANCH   7   8
ENDBRANCH   6   7
ENDBRANCH   4   6
TORSDOF 3
ENDMDL
MODEL 7
REMARK VINA RESULT:      -3.6     11.331     12.912
REMARK  3 active torsions:
REMARK  status: ('A' for Active; 'I' for Inactive)
REMARK    1  A    between atoms: C4_4  and  C6_6 
REMARK    2  A    between atoms: C6_6  and  C8_8 
REMARK    3  A    between atoms: C7_7  and  C8_8 
ROOT
HETATM    1  C1  UNL     1     -34.825  15.527  -7.564  1.00 20.00     0.011 C 
HETATM    2  C2  UNL     1     -34.079  15.001  -6.348  1.00 20.00     0.016 C 
HETATM    3  C3  UNL     1     -35.814  16.559  -7.048  1.00 20.00     0.074 C 
HETATM    4  C4  UNL     1     -35.144  14.596  -5.332  1.00 20.00     0.047 C 
HETATM    5  S9  UNL     1     -36.431  15.878  -5.484  1.00 20.00    -0.164 SA
ENDROOT
BRANCH   4   6
HETATM    6  C6  UNL     1     -34.603  14.513  -3.915  1.00 20.00     0.015 C 
BRANCH   6   7
HETATM    7  C8  UNL     1     -33.399  15.435  -3.722  1.00 20.00     0.001 C 
BRANCH   7   8
HETATM    8  C7  UNL     1     -33.640  16.437  -2.594  1.00 20.00    -0.005 C 
HETATM    9  C5  UNL     1     -34.971  16.190  -1.903  1.00 20.00     0.005 C 
ENDBRANCH   7   8
ENDBRANCH   6   7
ENDBRANCH   4   6
TORSDOF 3
ENDMDL
MODEL 8
REMARK VINA RESULT:      -3.6     11.082     11.967
REMARK  3 active torsions:
REMARK  status: ('A' for Active; 'I' for Inactive)
REMARK    1  A    between atoms: C4_4  and  C6_6 
REMARK    2  A    between atoms: C6_6  and  C8_8 
REMARK    3  A    between atoms: C7_7  and  C8_8 
ROOT
HETATM    1  C1  UNL     1     -34.566  17.311  -1.214  1.00 20.00     0.011 C 
HETATM    2  C2  UNL     1     -34.839  16.076  -2.058  1.00 20.00     0.016 C 
HETATM    3  C3  UNL     1     -34.227  18.428  -2.185  1.00 20.00     0.074 C 
HETATM    4  C4  UNL     1     -33.650  15.930  -3.004  1.00 20.00     0.047 C 
HETATM    5  S9  UNL     1     -33.235  17.639  -3.483  1.00 20.00    -0.164 SA
ENDROOT
BRANCH   4   6
HETATM    6  C6  UNL     1     -33.965  15.071  -4.217  1.00 20.00     0.015 C 
BRANCH   6   7
HETATM    7  C8  UNL     1     -34.904  13.920  -3.857  1.00 20.00     0.001 C 
BRANCH   7   8
HETATM    8  C7  UNL     1     -36.077  13.833  -4.833  1.00 20.00    -0.005 C 
HETATM    9  C5  UNL     1     -35.785  14.578  -6.125  1.00 20.00     0.005 C 
ENDBRANCH   7   8
ENDBRANCH   6   7
ENDBRANCH   4   6
TORSDOF 3
ENDMDL
MODEL 9
REMARK VINA RESULT:      -3.6      9.826     10.397
REMARK  3 active torsions:
REMARK  status: ('A' for Active; 'I' for Inactive)
REMARK    1  A    between atoms: C4_4  and  C6_6 
REMARK    2  A    between atoms: C6_6  and  C8_8 
REMARK    3  A    between atoms: C7_7  and  C8_8 
ROOT
HETATM    1  C1  UNL     1     -41.509   8.372   0.682  1.00 20.00     0.011 C 
HETATM    2  C2  UNL     1     -41.154   6.911   0.456  1.00 20.00     0.016 C 
HETATM    3  C3  UNL     1     -42.899   8.571   0.101  1.00 20.00     0.074 C 
HETATM    4  C4  UNL     1     -41.411   6.629  -1.022  1.00 20.00     0.047 C 
HETATM    5  S9  UNL     1     -42.927   7.565  -1.408  1.00 20.00    -0.164 SA
ENDROOT
BRANCH   4   6
HETATM    6  C6  UNL     1     -41.579   5.148  -1.317  1.00 20.00     0.015 C 
BRANCH   6   7
HETATM    7  C8  UNL     1     -43.055   4.758  -1.397  1.00 20.00     0.001 C 
BRANCH   7   8
HETATM    8  C7  UNL     1     -43.262   3.546  -2.303  1.00 20.00    -0.005 C 
HETATM    9  C5  UNL     1     -41.997   3.201  -3.073  1.00 20.00     0.005 C 
ENDBRANCH   7   8
ENDBRANCH   6   7
ENDBRANCH   4   6
TORSDOF 3
ENDMDL
