MODEL 1
REMARK VINA RESULT:      -4.3      0.000      0.000
REMARK  2 active torsions:
REMARK  status: ('A' for Active; 'I' for Inactive)
REMARK    1  A    between atoms: C3_3  and  C8_8 
REMARK    2  A    between atoms: C4_4  and  O9_9 
ROOT
HETATM    1  C1  UNL     1     -34.561  14.226  -4.062  1.00 20.00     0.037 C 
HETATM    2  C2  UNL     1     -36.504  15.107  -4.111  1.00 20.00     0.037 C 
HETATM    3  C3  UNL     1     -35.368  15.087  -3.060  1.00 20.00    -0.002 C 
HETATM    4  C4  UNL     1     -35.909  13.801  -4.689  1.00 20.00     0.118 C 
ENDROOT
BRANCH   3   5
HETATM    5  C8  UNL     1     -34.770  16.426  -2.681  1.00 20.00    -0.048 C 
HETATM    6  C5  UNL     1     -35.375  17.525  -3.567  1.00 20.00     0.015 C 
HETATM    7  C6  UNL     1     -33.250  16.384  -2.884  1.00 20.00     0.015 C 
HETATM    8  C7  UNL     1     -35.082  16.727  -1.208  1.00 20.00     0.015 C 
ENDBRANCH   3   5
BRANCH   4   9
HETATM    9  O9  UNL     1     -35.924  13.677  -6.120  1.00 20.00    -0.396 OA
HETATM   10  H25 UNL     1     -36.665  14.216  -6.424  1.00 20.00     0.210 HD
ENDBRANCH   4   9
TORSDOF 2
ENDMDL
MODEL 2
REMARK VINA RESULT:      -4.3      0.022      1.444
REMARK  2 active torsions:
REMARK  status: ('A' for Active; 'I' for Inactive)
REMARK    1  A    between atoms: C3_3  and  C8_8 
REMARK    2  A    between atoms: C4_4  and  O9_9 
ROOT
HETATM    1  C1  UNL     1     -34.548  14.223  -4.085  1.00 20.00     0.037 C 
HETATM    2  C2  UNL     1     -36.502  15.080  -4.104  1.00 20.00     0.037 C 
HETATM    3  C3  UNL     1     -35.353  15.067  -3.067  1.00 20.00    -0.002 C 
HETATM    4  C4  UNL     1     -35.899  13.784  -4.698  1.00 20.00     0.118 C 
ENDROOT
BRANCH   3   5
HETATM    5  C8  UNL     1     -34.767  16.411  -2.687  1.00 20.00    -0.048 C 
HETATM    6  C5  UNL     1     -35.094  16.713  -1.217  1.00 20.00     0.015 C 
HETATM    7  C6  UNL     1     -35.370  17.503  -3.581  1.00 20.00     0.015 C 
HETATM    8  C7  UNL     1     -33.244  16.377  -2.876  1.00 20.00     0.015 C 
ENDBRANCH   3   5
BRANCH   4   9
HETATM    9  O9  UNL     1     -35.931  13.669  -6.129  1.00 20.00    -0.396 OA
HETATM   10  H25 UNL     1     -36.397  14.453  -6.447  1.00 20.00     0.210 HD
ENDBRANCH   4   9
TORSDOF 2
ENDMDL
MODEL 3
REMARK VINA RESULT:      -4.3      0.010      1.447
REMARK  2 active torsions:
REMARK  status: ('A' for Active; 'I' for Inactive)
REMARK    1  A    between atoms: C3_3  and  C8_8 
REMARK    2  A    between atoms: C4_4  and  O9_9 
ROOT
HETATM    1  C1  UNL     1     -34.571  14.217  -4.056  1.00 20.00     0.037 C 
HETATM    2  C2  UNL     1     -36.508  15.109  -4.120  1.00 20.00     0.037 C 
HETATM    3  C3  UNL     1     -35.378  15.088  -3.062  1.00 20.00    -0.002 C 
HETATM    4  C4  UNL     1     -35.918  13.796  -4.688  1.00 20.00     0.118 C 
ENDROOT
BRANCH   3   5
HETATM    5  C8  UNL     1     -34.774  16.425  -2.686  1.00 20.00    -0.048 C 
HETATM    6  C5  UNL     1     -33.253  16.376  -2.894  1.00 20.00     0.015 C 
HETATM    7  C6  UNL     1     -35.080  16.728  -1.213  1.00 20.00     0.015 C 
HETATM    8  C7  UNL     1     -35.377  17.525  -3.571  1.00 20.00     0.015 C 
ENDBRANCH   3   5
BRANCH   4   9
HETATM    9  O9  UNL     1     -35.926  13.666  -6.118  1.00 20.00    -0.396 OA
HETATM   10  H25 UNL     1     -35.498  12.821  -6.309  1.00 20.00     0.210 HD
ENDBRANCH   4   9
TORSDOF 2
ENDMDL
MODEL 4
REMARK VINA RESULT:      -4.2     10.854     11.932
REMARK  2 active torsions:
REMARK  status: ('A' for Active; 'I' for Inactive)
REMARK    1  A    between atoms: C3_3  and  C8_8 
REMARK    2  A    between atoms: C4_4  and  O9_9 
ROOT
HETATM    1  C1  UNL     1     -41.556   5.801   0.331  1.00 20.00     0.037 C 
HETATM    2  C2  UNL     1     -43.404   6.518   1.122  1.00 20.00     0.037 C 
HETATM    3  C3  UNL     1     -42.022   7.173   0.877  1.00 20.00    -0.002 C 
HETATM    4  C4  UNL     1     -42.679   5.152   1.174  1.00 20.00     0.118 C 
ENDROOT
BRANCH   3   5
HETATM    5  C8  UNL     1     -41.985   8.337  -0.091  1.00 20.00    -0.048 C 
HETATM    6  C5  UNL     1     -41.179   9.489   0.526  1.00 20.00     0.015 C 
HETATM    7  C6  UNL     1     -43.416   8.809  -0.379  1.00 20.00     0.015 C 
HETATM    8  C7  UNL     1     -41.319   7.891  -1.401  1.00 20.00     0.015 C 
ENDBRANCH   3   5
BRANCH   4   9
HETATM    9  O9  UNL     1     -43.364   4.048   0.561  1.00 20.00    -0.396 OA
HETATM   10  H25 UNL     1     -43.322   4.206  -0.391  1.00 20.00     0.210 HD
ENDBRANCH   4   9
TORSDOF 2
ENDMDL
MODEL 5
REMARK VINA RESULT:      -4.2      1.475      1.649
REMARK  2 active torsions:
REMARK  status: ('A' for Active; 'I' for Inactive)
REMARK    1  A    between atoms: C3_3  and  C8_8 
REMARK    2  A    between atoms: C4_4  and  O9_9 
ROOT
HETATM    1  C1  UNL     1     -32.865  15.271  -3.803  1.00 20.00     0.037 C 
HETATM    2  C2  UNL     1     -34.909  15.330  -4.413  1.00 20.00     0.037 C 
HETATM    3  C3  UNL     1     -34.195  15.534  -3.055  1.00 20.00    -0.002 C 
HETATM    4  C4  UNL     1     -33.684  14.498  -4.863  1.00 20.00     0.118 C 
ENDROOT
BRANCH   3   5
HETATM    5  C8  UNL     1     -34.351  16.892  -2.404  1.00 20.00    -0.048 C 
HETATM    6  C5  UNL     1     -35.054  17.849  -3.379  1.00 20.00     0.015 C 
HETATM    7  C6  UNL     1     -32.966  17.450  -2.048  1.00 20.00     0.015 C 
HETATM    8  C7  UNL     1     -35.191  16.754  -1.127  1.00 20.00     0.015 C 
ENDBRANCH   3   5
BRANCH   4   9
HETATM    9  O9  UNL     1     -33.267  14.672  -6.227  1.00 20.00    -0.396 OA
HETATM   10  H25 UNL     1     -32.992  13.798  -6.532  1.00 20.00     0.210 HD
ENDBRANCH   4   9
TORSDOF 2
ENDMDL
MODEL 6
REMARK VINA RESULT:      -4.1     10.425     11.909
REMARK  2 active torsions:
REMARK  status: ('A' for Active; 'I' for Inactive)
REMARK    1  A    between atoms: C3_3  and  C8_8 
REMARK    2  A    between atoms: C4_4  and  O9_9 
ROOT
HETATM    1  C1  UNL     1     -41.377   8.138  -0.990  1.00 20.00     0.037 C 
HETATM    2  C2  UNL     1     -42.853   8.075   0.549  1.00 20.00     0.037 C 
HETATM    3  C3  UNL     1     -42.608   7.237  -0.729  1.00 20.00    -0.002 C 
HETATM    4  C4  UNL     1     -42.062   9.221  -0.125  1.00 20.00     0.118 C 
ENDROOT
BRANCH   3   5
HETATM    5  C8  UNL     1     -42.338   5.760  -0.530  1.00 20.00    -0.048 C 
HETATM    6  C5  UNL     1     -43.319   4.941  -1.382  1.00 20.00     0.015 C 
HETATM    7  C6  UNL     1     -42.523   5.401   0.951  1.00 20.00     0.015 C 
HETATM    8  C7  UNL     1     -40.899   5.441  -0.959  1.00 20.00     0.015 C 
ENDBRANCH   3   5
BRANCH   4   9
HETATM    9  O9  UNL     1     -41.194   9.981   0.731  1.00 20.00    -0.396 OA
HETATM   10  H25 UNL     1     -40.420  10.198   0.197  1.00 20.00     0.210 HD
ENDBRANCH   4   9
TORSDOF 2
ENDMDL
MODEL 7
REMARK VINA RESULT:      -4.1      0.982      1.961
REMARK  2 active torsions:
REMARK  status: ('A' for Active; 'I' for Inactive)
REMARK    1  A    between atoms: C3_3  and  C8_8 
REMARK    2  A    between atoms: C4_4  and  O9_9 
ROOT
HETATM    1  C1  UNL     1     -36.356  14.966  -3.801  1.00 20.00     0.037 C 
HETATM    2  C2  UNL     1     -34.377  14.472  -4.426  1.00 20.00     0.037 C 
HETATM    3  C3  UNL     1     -35.103  15.809  -4.140  1.00 20.00    -0.002 C 
HETATM    4  C4  UNL     1     -35.766  13.843  -4.686  1.00 20.00     0.118 C 
ENDROOT
BRANCH   3   5
HETATM    5  C8  UNL     1     -34.538  16.663  -3.024  1.00 20.00    -0.048 C 
HETATM    6  C5  UNL     1     -35.140  16.217  -1.684  1.00 20.00     0.015 C 
HETATM    7  C6  UNL     1     -34.889  18.135  -3.280  1.00 20.00     0.015 C 
HETATM    8  C7  UNL     1     -33.012  16.501  -2.979  1.00 20.00     0.015 C 
ENDBRANCH   3   5
BRANCH   4   9
HETATM    9  O9  UNL     1     -35.954  12.502  -4.207  1.00 20.00    -0.396 OA
HETATM   10  H25 UNL     1     -36.497  12.058  -4.870  1.00 20.00     0.210 HD
ENDBRANCH   4   9
TORSDOF 2
ENDMDL
MODEL 8
REMARK VINA RESULT:      -4.1      0.980      1.957
REMARK  2 active torsions:
REMARK  status: ('A' for Active; 'I' for Inactive)
REMARK    1  A    between atoms: C3_3  and  C8_8 
REMARK    2  A    between atoms: C4_4  and  O9_9 
ROOT
HETATM    1  C1  UNL     1     -36.353  15.003  -3.856  1.00 20.00     0.037 C 
HETATM    2  C2  UNL     1     -34.354  14.461  -4.370  1.00 20.00     0.037 C 
HETATM    3  C3  UNL     1     -35.068  15.816  -4.147  1.00 20.00    -0.002 C 
HETATM    4  C4  UNL     1     -35.740  13.852  -4.688  1.00 20.00     0.118 C 
ENDROOT
BRANCH   3   5
HETATM    5  C8  UNL     1     -34.544  16.683  -3.020  1.00 20.00    -0.048 C 
HETATM    6  C5  UNL     1     -33.016  16.549  -2.941  1.00 20.00     0.015 C 
HETATM    7  C6  UNL     1     -35.167  16.229  -1.693  1.00 20.00     0.015 C 
HETATM    8  C7  UNL     1     -34.917  18.148  -3.286  1.00 20.00     0.015 C 
ENDBRANCH   3   5
BRANCH   4   9
HETATM    9  O9  UNL     1     -35.977  12.525  -4.194  1.00 20.00    -0.396 OA
HETATM   10  H25 UNL     1     -36.337  12.634  -3.304  1.00 20.00     0.210 HD
ENDBRANCH   4   9
TORSDOF 2
ENDMDL
MODEL 9
REMARK VINA RESULT:      -4.1      0.981      1.391
REMARK  2 active torsions:
REMARK  status: ('A' for Active; 'I' for Inactive)
REMARK    1  A    between atoms: C3_3  and  C8_8 
REMARK    2  A    between atoms: C4_4  and  O9_9 
ROOT
HETATM    1  C1  UNL     1     -36.332  14.992  -3.887  1.00 20.00     0.037 C 
HETATM    2  C2  UNL     1     -34.319  14.429  -4.317  1.00 20.00     0.037 C 
HETATM    3  C3  UNL     1     -35.030  15.792  -4.137  1.00 20.00    -0.002 C 
HETATM    4  C4  UNL     1     -35.697  13.827  -4.682  1.00 20.00     0.118 C 
ENDROOT
BRANCH   3   5
HETATM    5  C8  UNL     1     -34.543  16.667  -3.001  1.00 20.00    -0.048 C 
HETATM    6  C5  UNL     1     -34.971  18.120  -3.255  1.00 20.00     0.015 C 
HETATM    7  C6  UNL     1     -33.012  16.591  -2.917  1.00 20.00     0.015 C 
HETATM    8  C7  UNL     1     -35.153  16.177  -1.680  1.00 20.00     0.015 C 
ENDBRANCH   3   5
BRANCH   4   9
HETATM    9  O9  UNL     1     -35.965  12.507  -4.183  1.00 20.00    -0.396 OA
HETATM   10  H25 UNL     1     -35.147  12.008  -4.305  1.00 20.00     0.210 HD
ENDBRANCH   4   9
TORSDOF 2
ENDMDL
