MODEL 1
REMARK VINA RESULT:      -5.3      0.000      0.000
REMARK  1 active torsions:
REMARK  status: ('A' for Active; 'I' for Inactive)
REMARK    1  A    between atoms: C3_3  and  C4_4 
ROOT
HETATM    1  C1  UNL     1     -22.498  18.895   9.004  1.00 20.00    -0.018 A 
HETATM    2  C2  UNL     1     -21.970  17.754   9.478  1.00 20.00    -0.024 A 
HETATM    3  C4  UNL     1     -24.002  18.834   9.110  1.00 20.00     0.082 A 
HETATM    4  C5  UNL     1     -22.971  16.775   9.933  1.00 20.00     0.022 A 
HETATM    5  C6  UNL     1     -24.308  17.467   9.700  1.00 20.00     0.017 A 
HETATM    6  C7  UNL     1     -23.904  17.029  11.099  1.00 20.00    -0.035 A 
HETATM    7  C9  UNL     1     -24.621  15.827  11.667  1.00 20.00     0.016 C 
HETATM    8  C10 UNL     1     -23.560  18.055  12.149  1.00 20.00     0.016 C 
ENDROOT
BRANCH   3   9
HETATM    9  C3  UNL     1     -24.538  18.996   7.725  1.00 20.00     0.131 C 
HETATM   10  C8  UNL     1     -26.014  19.263   7.598  1.00 20.00     0.091 C 
HETATM   11  O11 UNL     1     -23.810  18.915   6.737  1.00 20.00    -0.298 OA
ENDBRANCH   3   9
TORSDOF 1
ENDMDL
MODEL 2
REMARK VINA RESULT:      -4.8     14.370     16.660
REMARK  1 active torsions:
REMARK  status: ('A' for Active; 'I' for Inactive)
REMARK    1  A    between atoms: C3_3  and  C4_4 
ROOT
HETATM    1  C1  UNL     1     -36.027  16.059  -3.468  1.00 20.00    -0.018 A 
HETATM    2  C2  UNL     1     -35.703  17.362  -3.488  1.00 20.00    -0.024 A 
HETATM    3  C4  UNL     1     -34.895  15.270  -2.855  1.00 20.00     0.082 A 
HETATM    4  C5  UNL     1     -34.364  17.655  -2.950  1.00 20.00     0.022 A 
HETATM    5  C6  UNL     1     -33.821  16.296  -2.528  1.00 20.00     0.017 A 
HETATM    6  C7  UNL     1     -33.983  17.408  -1.505  1.00 20.00    -0.035 A 
HETATM    7  C9  UNL     1     -32.716  18.070  -1.015  1.00 20.00     0.016 C 
HETATM    8  C10 UNL     1     -35.043  17.312  -0.437  1.00 20.00     0.016 C 
ENDROOT
BRANCH   3   9
HETATM    9  C3  UNL     1     -34.452  14.281  -3.884  1.00 20.00     0.131 C 
HETATM   10  C8  UNL     1     -33.091  14.499  -4.488  1.00 20.00     0.091 C 
HETATM   11  O11 UNL     1     -35.164  13.336  -4.219  1.00 20.00    -0.298 OA
ENDBRANCH   3   9
TORSDOF 1
ENDMDL
MODEL 3
REMARK VINA RESULT:      -4.8     15.630     17.731
REMARK  1 active torsions:
REMARK  status: ('A' for Active; 'I' for Inactive)
REMARK    1  A    between atoms: C3_3  and  C4_4 
ROOT
HETATM    1  C1  UNL     1     -34.302  14.778  -5.203  1.00 20.00    -0.018 A 
HETATM    2  C2  UNL     1     -33.257  14.935  -4.373  1.00 20.00    -0.024 A 
HETATM    3  C4  UNL     1     -35.562  15.245  -4.517  1.00 20.00     0.082 A 
HETATM    4  C5  UNL     1     -33.618  15.475  -3.052  1.00 20.00     0.022 A 
HETATM    5  C6  UNL     1     -35.125  15.686  -3.129  1.00 20.00     0.017 A 
HETATM    6  C7  UNL     1     -34.198  16.861  -2.857  1.00 20.00    -0.035 A 
HETATM    7  C9  UNL     1     -34.191  17.407  -1.449  1.00 20.00     0.016 C 
HETATM    8  C10 UNL     1     -33.999  17.931  -3.901  1.00 20.00     0.016 C 
ENDROOT
BRANCH   3   9
HETATM    9  C3  UNL     1     -36.492  14.075  -4.481  1.00 20.00     0.131 C 
HETATM   10  C8  UNL     1     -37.954  14.379  -4.293  1.00 20.00     0.091 C 
HETATM   11  O11 UNL     1     -36.083  12.922  -4.600  1.00 20.00    -0.298 OA
ENDBRANCH   3   9
TORSDOF 1
ENDMDL
MODEL 4
REMARK VINA RESULT:      -4.8     15.420     17.850
REMARK  1 active torsions:
REMARK  status: ('A' for Active; 'I' for Inactive)
REMARK    1  A    between atoms: C3_3  and  C4_4 
ROOT
HETATM    1  C1  UNL     1     -36.984  15.832  -3.905  1.00 20.00    -0.018 A 
HETATM    2  C2  UNL     1     -36.460  17.068  -3.962  1.00 20.00    -0.024 A 
HETATM    3  C4  UNL     1     -35.894  14.840  -3.579  1.00 20.00     0.082 A 
HETATM    4  C5  UNL     1     -35.007  17.114  -3.726  1.00 20.00     0.022 A 
HETATM    5  C6  UNL     1     -34.620  15.662  -3.471  1.00 20.00     0.017 A 
HETATM    6  C7  UNL     1     -34.372  16.721  -2.409  1.00 20.00    -0.035 A 
HETATM    7  C9  UNL     1     -32.938  17.144  -2.194  1.00 20.00     0.016 C 
HETATM    8  C10 UNL     1     -35.180  16.725  -1.135  1.00 20.00     0.016 C 
ENDROOT
BRANCH   3   9
HETATM    9  C3  UNL     1     -35.852  13.860  -4.706  1.00 20.00     0.131 C 
HETATM   10  C8  UNL     1     -35.770  14.431  -6.096  1.00 20.00     0.091 C 
HETATM   11  O11 UNL     1     -35.883  12.646  -4.508  1.00 20.00    -0.298 OA
ENDBRANCH   3   9
TORSDOF 1
ENDMDL
MODEL 5
REMARK VINA RESULT:      -4.6     15.324     16.864
REMARK  1 active torsions:
REMARK  status: ('A' for Active; 'I' for Inactive)
REMARK    1  A    between atoms: C3_3  and  C4_4 
ROOT
HETATM    1  C1  UNL     1     -33.981  16.449  -4.333  1.00 20.00    -0.018 A 
HETATM    2  C2  UNL     1     -33.262  17.008  -3.345  1.00 20.00    -0.024 A 
HETATM    3  C4  UNL     1     -35.148  15.698  -3.740  1.00 20.00     0.082 A 
HETATM    4  C5  UNL     1     -33.774  16.721  -1.995  1.00 20.00     0.022 A 
HETATM    5  C6  UNL     1     -35.012  15.865  -2.235  1.00 20.00     0.017 A 
HETATM    6  C7  UNL     1     -35.128  17.195  -1.508  1.00 20.00    -0.035 A 
HETATM    7  C9  UNL     1     -35.371  17.135  -0.018  1.00 20.00     0.016 C 
HETATM    8  C10 UNL     1     -35.814  18.365  -2.166  1.00 20.00     0.016 C 
ENDROOT
BRANCH   3   9
HETATM    9  C3  UNL     1     -35.010  14.275  -4.175  1.00 20.00     0.131 C 
HETATM   10  C8  UNL     1     -36.276  13.559  -4.560  1.00 20.00     0.091 C 
HETATM   11  O11 UNL     1     -33.915  13.716  -4.217  1.00 20.00    -0.298 OA
ENDBRANCH   3   9
TORSDOF 1
ENDMDL
MODEL 6
REMARK VINA RESULT:      -4.6     13.058     15.677
REMARK  1 active torsions:
REMARK  status: ('A' for Active; 'I' for Inactive)
REMARK    1  A    between atoms: C3_3  and  C4_4 
ROOT
HETATM    1  C1  UNL     1     -34.698  18.082  -1.529  1.00 20.00    -0.018 A 
HETATM    2  C2  UNL     1     -35.291  16.890  -1.712  1.00 20.00    -0.024 A 
HETATM    3  C4  UNL     1     -33.289  18.028  -2.066  1.00 20.00     0.082 A 
HETATM    4  C5  UNL     1     -34.424  15.880  -2.341  1.00 20.00     0.022 A 
HETATM    5  C6  UNL     1     -33.108  16.609  -2.582  1.00 20.00     0.017 A 
HETATM    6  C7  UNL     1     -33.883  16.018  -3.749  1.00 20.00    -0.035 A 
HETATM    7  C9  UNL     1     -33.311  14.771  -4.381  1.00 20.00     0.016 C 
HETATM    8  C10 UNL     1     -34.561  16.921  -4.748  1.00 20.00     0.016 C 
ENDROOT
BRANCH   3   9
HETATM    9  C3  UNL     1     -32.380  18.344  -0.922  1.00 20.00     0.131 C 
HETATM   10  C8  UNL     1     -33.023  18.505   0.428  1.00 20.00     0.091 C 
HETATM   11  O11 UNL     1     -31.166  18.465  -1.077  1.00 20.00    -0.298 OA
ENDBRANCH   3   9
TORSDOF 1
ENDMDL
MODEL 7
REMARK VINA RESULT:      -4.5     14.746     16.511
REMARK  1 active torsions:
REMARK  status: ('A' for Active; 'I' for Inactive)
REMARK    1  A    between atoms: C3_3  and  C4_4 
ROOT
HETATM    1  C1  UNL     1     -33.340  17.756  -3.356  1.00 20.00    -0.018 A 
HETATM    2  C2  UNL     1     -34.123  17.433  -4.399  1.00 20.00    -0.024 A 
HETATM    3  C4  UNL     1     -33.545  16.756  -2.245  1.00 20.00     0.082 A 
HETATM    4  C5  UNL     1     -34.963  16.245  -4.171  1.00 20.00     0.022 A 
HETATM    5  C6  UNL     1     -34.596  15.788  -2.765  1.00 20.00     0.017 A 
HETATM    6  C7  UNL     1     -34.391  14.860  -3.952  1.00 20.00    -0.035 A 
HETATM    7  C9  UNL     1     -35.353  13.702  -4.081  1.00 20.00     0.016 C 
HETATM    8  C10 UNL     1     -33.000  14.520  -4.422  1.00 20.00     0.016 C 
ENDROOT
BRANCH   3   9
HETATM    9  C3  UNL     1     -34.014  17.526  -1.053  1.00 20.00     0.131 C 
HETATM   10  C8  UNL     1     -35.349  17.137  -0.479  1.00 20.00     0.091 C 
HETATM   11  O11 UNL     1     -33.341  18.433  -0.565  1.00 20.00    -0.298 OA
ENDBRANCH   3   9
TORSDOF 1
ENDMDL
MODEL 8
REMARK VINA RESULT:      -4.4     16.174     18.045
REMARK  1 active torsions:
REMARK  status: ('A' for Active; 'I' for Inactive)
REMARK    1  A    between atoms: C3_3  and  C4_4 
ROOT
HETATM    1  C1  UNL     1     -33.971  14.935  -5.538  1.00 20.00    -0.018 A 
HETATM    2  C2  UNL     1     -33.670  14.358  -4.363  1.00 20.00    -0.024 A 
HETATM    3  C4  UNL     1     -35.039  15.980  -5.326  1.00 20.00     0.082 A 
HETATM    4  C5  UNL     1     -34.459  14.865  -3.228  1.00 20.00     0.022 A 
HETATM    5  C6  UNL     1     -35.360  15.930  -3.840  1.00 20.00     0.017 A 
HETATM    6  C7  UNL     1     -34.377  16.296  -2.740  1.00 20.00    -0.035 A 
HETATM    7  C9  UNL     1     -34.961  16.582  -1.376  1.00 20.00     0.016 C 
HETATM    8  C10 UNL     1     -33.170  17.146  -3.048  1.00 20.00     0.016 C 
ENDROOT
BRANCH   3   9
HETATM    9  C3  UNL     1     -36.202  15.587  -6.178  1.00 20.00     0.131 C 
HETATM   10  C8  UNL     1     -37.384  16.518  -6.180  1.00 20.00     0.091 C 
HETATM   11  O11 UNL     1     -36.192  14.554  -6.846  1.00 20.00    -0.298 OA
ENDBRANCH   3   9
TORSDOF 1
ENDMDL
MODEL 9
REMARK VINA RESULT:      -4.4     16.369     18.530
REMARK  1 active torsions:
REMARK  status: ('A' for Active; 'I' for Inactive)
REMARK    1  A    between atoms: C3_3  and  C4_4 
ROOT
HETATM    1  C1  UNL     1     -36.492  16.883  -4.416  1.00 20.00    -0.018 A 
HETATM    2  C2  UNL     1     -35.426  17.036  -5.219  1.00 20.00    -0.024 A 
HETATM    3  C4  UNL     1     -36.443  15.520  -3.771  1.00 20.00     0.082 A 
HETATM    4  C5  UNL     1     -34.542  15.860  -5.271  1.00 20.00     0.022 A 
HETATM    5  C6  UNL     1     -35.192  14.857  -4.326  1.00 20.00     0.017 A 
HETATM    6  C7  UNL     1     -33.777  15.348  -4.068  1.00 20.00    -0.035 A 
HETATM    7  C9  UNL     1     -32.659  14.370  -4.342  1.00 20.00     0.016 C 
HETATM    8  C10 UNL     1     -33.487  16.255  -2.899  1.00 20.00     0.016 C 
ENDROOT
BRANCH   3   9
HETATM    9  C3  UNL     1     -37.695  14.809  -4.169  1.00 20.00     0.131 C 
HETATM   10  C8  UNL     1     -38.951  15.636  -4.233  1.00 20.00     0.091 C 
HETATM   11  O11 UNL     1     -37.700  13.608  -4.433  1.00 20.00    -0.298 OA
ENDBRANCH   3   9
TORSDOF 1
ENDMDL
