MODEL 1
REMARK VINA RESULT:      -4.3      0.000      0.000
REMARK  1 active torsions:
REMARK  status: ('A' for Active; 'I' for Inactive)
REMARK    1  A    between atoms: C3_3  and  C8_8 
ROOT
HETATM    1  C1  UNL     1     -25.339  18.155  11.405  1.00 20.00     0.017 C 
HETATM    2  C2  UNL     1     -24.259  17.254  11.981  1.00 20.00     0.092 C 
HETATM    3  C3  UNL     1     -23.747  18.680   9.878  1.00 20.00     0.173 C 
HETATM    4  C4  UNL     1     -26.684  18.196  12.074  1.00 20.00     0.066 C 
HETATM    5  C5  UNL     1     -24.606  15.786  11.799  1.00 20.00     0.028 C 
HETATM    6  N9  UNL     1     -25.133  18.865  10.337  1.00 20.00    -0.282 NA
HETATM    7  S10 UNL     1     -22.781  17.675  11.032  1.00 20.00    -0.131 SA
ENDROOT
BRANCH   3   8
HETATM    8  C8  UNL     1     -23.774  18.024   8.504  1.00 20.00     0.012 C 
HETATM    9  C6  UNL     1     -24.400  18.960   7.470  1.00 20.00     0.012 C 
HETATM   10  C7  UNL     1     -22.367  17.616   8.071  1.00 20.00     0.012 C 
ENDBRANCH   3   8
TORSDOF 1
ENDMDL
MODEL 2
REMARK VINA RESULT:      -3.8     13.379     14.869
REMARK  1 active torsions:
REMARK  status: ('A' for Active; 'I' for Inactive)
REMARK    1  A    between atoms: C3_3  and  C8_8 
ROOT
HETATM    1  C1  UNL     1     -33.529  18.362   0.214  1.00 20.00     0.017 C 
HETATM    2  C2  UNL     1     -32.391  18.963  -0.595  1.00 20.00     0.092 C 
HETATM    3  C3  UNL     1     -34.300  17.704  -1.814  1.00 20.00     0.173 C 
HETATM    4  C4  UNL     1     -33.517  18.514   1.709  1.00 20.00     0.066 C 
HETATM    5  C5  UNL     1     -31.083  18.233  -0.339  1.00 20.00     0.028 C 
HETATM    6  N9  UNL     1     -34.491  17.700  -0.354  1.00 20.00    -0.282 NA
HETATM    7  S10 UNL     1     -32.909  18.749  -2.311  1.00 20.00    -0.131 SA
ENDROOT
BRANCH   3   8
HETATM    8  C8  UNL     1     -34.075  16.271  -2.278  1.00 20.00     0.012 C 
HETATM    9  C6  UNL     1     -35.377  15.660  -2.796  1.00 20.00     0.012 C 
HETATM   10  C7  UNL     1     -32.994  16.215  -3.356  1.00 20.00     0.012 C 
ENDBRANCH   3   8
TORSDOF 1
ENDMDL
MODEL 3
REMARK VINA RESULT:      -3.8     16.657     18.326
REMARK  1 active torsions:
REMARK  status: ('A' for Active; 'I' for Inactive)
REMARK    1  A    between atoms: C3_3  and  C8_8 
ROOT
HETATM    1  C1  UNL     1     -34.827  15.625  -5.546  1.00 20.00     0.017 C 
HETATM    2  C2  UNL     1     -36.221  15.160  -5.155  1.00 20.00     0.092 C 
HETATM    3  C3  UNL     1     -34.995  16.907  -3.684  1.00 20.00     0.173 C 
HETATM    4  C4  UNL     1     -34.193  15.054  -6.783  1.00 20.00     0.066 C 
HETATM    5  C5  UNL     1     -36.218  13.706  -4.715  1.00 20.00     0.028 C 
HETATM    6  N9  UNL     1     -34.167  16.477  -4.823  1.00 20.00    -0.282 NA
HETATM    7  S10 UNL     1     -36.673  16.236  -3.777  1.00 20.00    -0.131 SA
ENDROOT
BRANCH   3   8
HETATM    8  C8  UNL     1     -34.319  16.458  -2.395  1.00 20.00     0.012 C 
HETATM    9  C6  UNL     1     -32.960  17.139  -2.232  1.00 20.00     0.012 C 
HETATM   10  C7  UNL     1     -35.209  16.749  -1.187  1.00 20.00     0.012 C 
ENDBRANCH   3   8
TORSDOF 1
ENDMDL
MODEL 4
REMARK VINA RESULT:      -3.8     18.074     19.554
REMARK  1 active torsions:
REMARK  status: ('A' for Active; 'I' for Inactive)
REMARK    1  A    between atoms: C3_3  and  C8_8 
ROOT
HETATM    1  C1  UNL     1     -37.843  14.951  -4.590  1.00 20.00     0.017 C 
HETATM    2  C2  UNL     1     -37.314  15.889  -5.664  1.00 20.00     0.092 C 
HETATM    3  C3  UNL     1     -35.819  13.952  -4.808  1.00 20.00     0.173 C 
HETATM    4  C4  UNL     1     -39.228  15.173  -4.050  1.00 20.00     0.066 C 
HETATM    5  C5  UNL     1     -37.082  17.286  -5.114  1.00 20.00     0.028 C 
HETATM    6  N9  UNL     1     -37.118  13.986  -4.114  1.00 20.00    -0.282 NA
HETATM    7  S10 UNL     1     -35.750  15.141  -6.169  1.00 20.00    -0.131 SA
ENDROOT
BRANCH   3   8
HETATM    8  C8  UNL     1     -34.720  14.245  -3.796  1.00 20.00     0.012 C 
HETATM    9  C6  UNL     1     -33.422  14.632  -4.504  1.00 20.00     0.012 C 
HETATM   10  C7  UNL     1     -35.152  15.351  -2.833  1.00 20.00     0.012 C 
ENDBRANCH   3   8
TORSDOF 1
ENDMDL
MODEL 5
REMARK VINA RESULT:      -3.7     17.106     18.679
REMARK  1 active torsions:
REMARK  status: ('A' for Active; 'I' for Inactive)
REMARK    1  A    between atoms: C3_3  and  C8_8 
ROOT
HETATM    1  C1  UNL     1     -36.696  14.858  -4.479  1.00 20.00     0.017 C 
HETATM    2  C2  UNL     1     -36.117  15.467  -5.746  1.00 20.00     0.092 C 
HETATM    3  C3  UNL     1     -34.523  14.707  -3.849  1.00 20.00     0.173 C 
HETATM    4  C4  UNL     1     -38.187  14.712  -4.359  1.00 20.00     0.066 C 
HETATM    5  C5  UNL     1     -36.463  16.942  -5.861  1.00 20.00     0.028 C 
HETATM    6  N9  UNL     1     -35.935  14.490  -3.493  1.00 20.00    -0.282 NA
HETATM    7  S10 UNL     1     -34.334  15.248  -5.565  1.00 20.00    -0.131 SA
ENDROOT
BRANCH   3   8
HETATM    8  C8  UNL     1     -33.938  15.746  -2.902  1.00 20.00     0.012 C 
HETATM    9  C6  UNL     1     -33.388  16.940  -3.682  1.00 20.00     0.012 C 
HETATM   10  C7  UNL     1     -34.987  16.208  -1.890  1.00 20.00     0.012 C 
ENDBRANCH   3   8
TORSDOF 1
ENDMDL
MODEL 6
REMARK VINA RESULT:      -3.7     17.170     18.821
REMARK  1 active torsions:
REMARK  status: ('A' for Active; 'I' for Inactive)
REMARK    1  A    between atoms: C3_3  and  C8_8 
ROOT
HETATM    1  C1  UNL     1     -36.353  15.746  -5.642  1.00 20.00     0.017 C 
HETATM    2  C2  UNL     1     -35.371  14.601  -5.838  1.00 20.00     0.092 C 
HETATM    3  C3  UNL     1     -35.807  15.520  -3.453  1.00 20.00     0.173 C 
HETATM    4  C4  UNL     1     -37.049  16.319  -6.844  1.00 20.00     0.066 C 
HETATM    5  C5  UNL     1     -34.127  15.059  -6.579  1.00 20.00     0.028 C 
HETATM    6  N9  UNL     1     -36.579  16.254  -4.469  1.00 20.00    -0.282 NA
HETATM    7  S10 UNL     1     -34.953  14.088  -4.158  1.00 20.00    -0.131 SA
ENDROOT
BRANCH   3   8
HETATM    8  C8  UNL     1     -34.802  16.475  -2.824  1.00 20.00     0.012 C 
HETATM    9  C6  UNL     1     -35.068  16.630  -1.326  1.00 20.00     0.012 C 
HETATM   10  C7  UNL     1     -33.372  15.992  -3.064  1.00 20.00     0.012 C 
ENDBRANCH   3   8
TORSDOF 1
ENDMDL
MODEL 7
REMARK VINA RESULT:      -3.6     17.733     19.271
REMARK  1 active torsions:
REMARK  status: ('A' for Active; 'I' for Inactive)
REMARK    1  A    between atoms: C3_3  and  C8_8 
ROOT
HETATM    1  C1  UNL     1     -33.962  14.566  -4.713  1.00 20.00     0.017 C 
HETATM    2  C2  UNL     1     -35.022  14.414  -3.633  1.00 20.00     0.092 C 
HETATM    3  C3  UNL     1     -35.737  14.513  -6.123  1.00 20.00     0.173 C 
HETATM    4  C4  UNL     1     -32.518  14.655  -4.305  1.00 20.00     0.066 C 
HETATM    5  C5  UNL     1     -35.140  15.672  -2.791  1.00 20.00     0.028 C 
HETATM    6  N9  UNL     1     -34.279  14.647  -5.969  1.00 20.00    -0.282 NA
HETATM    7  S10 UNL     1     -36.549  14.124  -4.553  1.00 20.00    -0.131 SA
ENDROOT
BRANCH   3   8
HETATM    8  C8  UNL     1     -36.287  15.813  -6.693  1.00 20.00     0.012 C 
HETATM    9  C6  UNL     1     -37.335  16.414  -5.756  1.00 20.00     0.012 C 
HETATM   10  C7  UNL     1     -35.159  16.814  -6.943  1.00 20.00     0.012 C 
ENDBRANCH   3   8
TORSDOF 1
ENDMDL
MODEL 8
REMARK VINA RESULT:      -3.6     16.923     18.530
REMARK  1 active torsions:
REMARK  status: ('A' for Active; 'I' for Inactive)
REMARK    1  A    between atoms: C3_3  and  C8_8 
ROOT
HETATM    1  C1  UNL     1     -34.034  17.102  -4.580  1.00 20.00     0.017 C 
HETATM    2  C2  UNL     1     -33.483  16.147  -3.534  1.00 20.00     0.092 C 
HETATM    3  C3  UNL     1     -34.456  15.202  -5.743  1.00 20.00     0.173 C 
HETATM    4  C4  UNL     1     -34.000  18.579  -4.304  1.00 20.00     0.066 C 
HETATM    5  C5  UNL     1     -34.353  16.128  -2.288  1.00 20.00     0.028 C 
HETATM    6  N9  UNL     1     -34.555  16.670  -5.688  1.00 20.00    -0.282 NA
HETATM    7  S10 UNL     1     -33.514  14.536  -4.349  1.00 20.00    -0.131 SA
ENDROOT
BRANCH   3   8
HETATM    8  C8  UNL     1     -35.863  14.621  -5.753  1.00 20.00     0.012 C 
HETATM    9  C6  UNL     1     -36.079  13.705  -4.549  1.00 20.00     0.012 C 
HETATM   10  C7  UNL     1     -36.909  15.735  -5.770  1.00 20.00     0.012 C 
ENDBRANCH   3   8
TORSDOF 1
ENDMDL
MODEL 9
REMARK VINA RESULT:      -3.6     17.210     19.003
REMARK  1 active torsions:
REMARK  status: ('A' for Active; 'I' for Inactive)
REMARK    1  A    between atoms: C3_3  and  C8_8 
ROOT
HETATM    1  C1  UNL     1     -34.304  15.706  -6.493  1.00 20.00     0.017 C 
HETATM    2  C2  UNL     1     -34.576  17.138  -6.058  1.00 20.00     0.092 C 
HETATM    3  C3  UNL     1     -33.652  15.432  -4.339  1.00 20.00     0.173 C 
HETATM    4  C4  UNL     1     -34.580  15.316  -7.918  1.00 20.00     0.066 C 
HETATM    5  C5  UNL     1     -36.064  17.442  -6.055  1.00 20.00     0.028 C 
HETATM    6  N9  UNL     1     -33.867  14.814  -5.658  1.00 20.00    -0.282 NA
HETATM    7  S10 UNL     1     -33.910  17.222  -4.382  1.00 20.00    -0.131 SA
ENDROOT
BRANCH   3   8
HETATM    8  C8  UNL     1     -34.602  14.787  -3.340  1.00 20.00     0.012 C 
HETATM    9  C6  UNL     1     -35.135  15.825  -2.352  1.00 20.00     0.012 C 
HETATM   10  C7  UNL     1     -35.758  14.095  -4.061  1.00 20.00     0.012 C 
ENDBRANCH   3   8
TORSDOF 1
ENDMDL
