MODEL 1
REMARK VINA RESULT:      -3.8      0.000      0.000
REMARK  0 active torsions:
REMARK  status: ('A' for Active; 'I' for Inactive)
ROOT
HETATM    1  C1  UNL     1     -34.288   5.174   3.859  1.00 20.00     0.048 C 
HETATM    2  C2  UNL     1     -35.145   5.007   5.096  1.00 20.00     0.169 C 
HETATM    3  C3  UNL     1     -33.682   6.786   5.459  1.00 20.00     0.187 C 
HETATM    4  C4  UNL     1     -33.894   6.627   3.967  1.00 20.00     0.108 C 
HETATM    5  O5  UNL     1     -34.597   5.878   6.096  1.00 20.00    -0.390 OA
HETATM    6 CL6  UNL     1     -32.455   7.019   3.022  1.00 20.00    -0.123 Cl
ENDROOT
TORSDOF 0
ENDMDL
MODEL 2
REMARK VINA RESULT:      -3.8      2.483      3.102
REMARK  0 active torsions:
REMARK  status: ('A' for Active; 'I' for Inactive)
ROOT
HETATM    1  C1  UNL     1     -33.436   6.632   4.033  1.00 20.00     0.048 C 
HETATM    2  C2  UNL     1     -33.077   6.191   2.630  1.00 20.00     0.169 C 
HETATM    3  C3  UNL     1     -34.123   4.407   3.708  1.00 20.00     0.187 C 
HETATM    4  C4  UNL     1     -34.581   5.700   4.351  1.00 20.00     0.108 C 
HETATM    5  O5  UNL     1     -33.337   4.781   2.563  1.00 20.00    -0.390 OA
HETATM    6 CL6  UNL     1     -34.874   5.540   6.085  1.00 20.00    -0.123 Cl
ENDROOT
TORSDOF 0
ENDMDL
MODEL 3
REMARK VINA RESULT:      -3.5      1.217      1.802
REMARK  0 active torsions:
REMARK  status: ('A' for Active; 'I' for Inactive)
ROOT
HETATM    1  C1  UNL     1     -34.224   6.588   4.668  1.00 20.00     0.048 C 
HETATM    2  C2  UNL     1     -34.815   5.332   5.273  1.00 20.00     0.169 C 
HETATM    3  C3  UNL     1     -33.984   4.801   3.159  1.00 20.00     0.187 C 
HETATM    4  C4  UNL     1     -33.233   6.006   3.689  1.00 20.00     0.108 C 
HETATM    5  O5  UNL     1     -34.818   4.339   4.237  1.00 20.00    -0.390 OA
HETATM    6 CL6  UNL     1     -32.775   7.144   2.419  1.00 20.00    -0.123 Cl
ENDROOT
TORSDOF 0
ENDMDL
MODEL 4
REMARK VINA RESULT:      -3.2      1.721      2.107
REMARK  0 active torsions:
REMARK  status: ('A' for Active; 'I' for Inactive)
ROOT
HETATM    1  C1  UNL     1     -34.603   5.147   5.725  1.00 20.00     0.048 C 
HETATM    2  C2  UNL     1     -34.416   6.520   6.335  1.00 20.00     0.169 C 
HETATM    3  C3  UNL     1     -33.486   6.541   4.196  1.00 20.00     0.187 C 
HETATM    4  C4  UNL     1     -34.557   5.470   4.251  1.00 20.00     0.108 C 
HETATM    5  O5  UNL     1     -33.562   7.253   5.443  1.00 20.00    -0.390 OA
HETATM    6 CL6  UNL     1     -34.176   4.064   3.253  1.00 20.00    -0.123 Cl
ENDROOT
TORSDOF 0
ENDMDL
MODEL 5
REMARK VINA RESULT:      -3.1     16.654     16.846
REMARK  0 active torsions:
REMARK  status: ('A' for Active; 'I' for Inactive)
ROOT
HETATM    1  C1  UNL     1     -22.521  17.128   9.285  1.00 20.00     0.048 C 
HETATM    2  C2  UNL     1     -21.865  17.407   7.950  1.00 20.00     0.169 C 
HETATM    3  C3  UNL     1     -23.859  18.613   8.048  1.00 20.00     0.187 C 
HETATM    4  C4  UNL     1     -23.371  18.363   9.460  1.00 20.00     0.108 C 
HETATM    5  O5  UNL     1     -22.816  18.150   7.172  1.00 20.00    -0.390 OA
HETATM    6 CL6  UNL     1     -24.690  18.130  10.612  1.00 20.00    -0.123 Cl
ENDROOT
TORSDOF 0
ENDMDL
MODEL 6
REMARK VINA RESULT:      -3.1      9.114      9.379
REMARK  0 active torsions:
REMARK  status: ('A' for Active; 'I' for Inactive)
ROOT
HETATM    1  C1  UNL     1     -41.406   7.938  -0.711  1.00 20.00     0.048 C 
HETATM    2  C2  UNL     1     -42.214   8.735   0.290  1.00 20.00     0.169 C 
HETATM    3  C3  UNL     1     -42.568   6.468   0.709  1.00 20.00     0.187 C 
HETATM    4  C4  UNL     1     -41.225   6.633   0.028  1.00 20.00     0.108 C 
HETATM    5  O5  UNL     1     -43.045   7.796   0.988  1.00 20.00    -0.390 OA
HETATM    6 CL6  UNL     1     -40.828   5.288  -1.044  1.00 20.00    -0.123 Cl
ENDROOT
TORSDOF 0
ENDMDL
MODEL 7
REMARK VINA RESULT:      -3.0     16.174     16.859
REMARK  0 active torsions:
REMARK  status: ('A' for Active; 'I' for Inactive)
ROOT
HETATM    1  C1  UNL     1     -23.578  16.781   9.774  1.00 20.00     0.048 C 
HETATM    2  C2  UNL     1     -24.347  16.374  11.013  1.00 20.00     0.169 C 
HETATM    3  C3  UNL     1     -22.524  17.667  11.680  1.00 20.00     0.187 C 
HETATM    4  C4  UNL     1     -22.885  18.033  10.254  1.00 20.00     0.108 C 
HETATM    5  O5  UNL     1     -23.552  16.772  12.139  1.00 20.00    -0.390 OA
HETATM    6 CL6  UNL     1     -21.478  18.457   9.275  1.00 20.00    -0.123 Cl
ENDROOT
TORSDOF 0
ENDMDL
MODEL 8
REMARK VINA RESULT:      -3.0      8.995      9.269
REMARK  0 active torsions:
REMARK  status: ('A' for Active; 'I' for Inactive)
ROOT
HETATM    1  C1  UNL     1     -42.585   6.949   0.963  1.00 20.00     0.048 C 
HETATM    2  C2  UNL     1     -42.430   5.513   0.507  1.00 20.00     0.169 C 
HETATM    3  C3  UNL     1     -41.233   6.875  -0.959  1.00 20.00     0.187 C 
HETATM    4  C4  UNL     1     -41.344   7.579   0.378  1.00 20.00     0.108 C 
HETATM    5  O5  UNL     1     -41.770   5.555  -0.766  1.00 20.00    -0.390 OA
HETATM    6 CL6  UNL     1     -41.475   9.334   0.223  1.00 20.00    -0.123 Cl
ENDROOT
TORSDOF 0
ENDMDL
MODEL 9
REMARK VINA RESULT:      -3.0      2.459      2.775
REMARK  0 active torsions:
REMARK  status: ('A' for Active; 'I' for Inactive)
ROOT
HETATM    1  C1  UNL     1     -34.250   4.497   3.656  1.00 20.00     0.048 C 
HETATM    2  C2  UNL     1     -33.327   4.984   2.560  1.00 20.00     0.169 C 
HETATM    3  C3  UNL     1     -33.629   6.724   4.082  1.00 20.00     0.187 C 
HETATM    4  C4  UNL     1     -33.861   5.407   4.796  1.00 20.00     0.108 C 
HETATM    5  O5  UNL     1     -33.148   6.392   2.768  1.00 20.00    -0.390 OA
HETATM    6 CL6  UNL     1     -35.104   5.512   6.046  1.00 20.00    -0.123 Cl
ENDROOT
TORSDOF 0
ENDMDL
