MODEL 1
REMARK VINA RESULT:      -4.7      0.000      0.000
REMARK  2 active torsions:
REMARK  status: ('A' for Active; 'I' for Inactive)
REMARK    1  A    between atoms: C2_2  and  C5_5 
REMARK    2  A    between atoms: C5_5  and  C6_6 
ROOT
HETATM    1  C1  UNL     1     -32.634   7.114   2.102  1.00 20.00     0.223 C 
HETATM    2  C2  UNL     1     -33.186   6.212   2.868  1.00 20.00    -0.030 C 
HETATM    3  C3  UNL     1     -33.157   4.750   2.526  1.00 20.00     0.048 C 
HETATM    4  O7  UNL     1     -32.137   7.925   1.411  1.00 20.00    -0.284 OA
ENDROOT
BRANCH   2   5
HETATM    5  C5  UNL     1     -33.895   6.582   4.151  1.00 20.00     0.037 C 
BRANCH   5   6
HETATM    6  C6  UNL     1     -34.890   5.507   4.591  1.00 20.00    -0.000 C 
HETATM    7  C4  UNL     1     -34.723   5.165   6.063  1.00 20.00     0.005 C 
ENDBRANCH   5   6
ENDBRANCH   2   5
TORSDOF 2
ENDMDL
MODEL 2
REMARK VINA RESULT:      -4.4      1.566      2.042
REMARK  2 active torsions:
REMARK  status: ('A' for Active; 'I' for Inactive)
REMARK    1  A    between atoms: C2_2  and  C5_5 
REMARK    2  A    between atoms: C5_5  and  C6_6 
ROOT
HETATM    1  C1  UNL     1     -33.120   5.109   2.527  1.00 20.00     0.223 C 
HETATM    2  C2  UNL     1     -33.150   6.334   2.977  1.00 20.00    -0.030 C 
HETATM    3  C3  UNL     1     -32.446   7.459   2.273  1.00 20.00     0.048 C 
HETATM    4  O7  UNL     1     -33.091   4.006   2.121  1.00 20.00    -0.284 OA
ENDROOT
BRANCH   2   5
HETATM    5  C5  UNL     1     -33.895   6.701   4.241  1.00 20.00     0.037 C 
BRANCH   5   6
HETATM    6  C6  UNL     1     -34.928   5.641   4.629  1.00 20.00    -0.000 C 
HETATM    7  C4  UNL     1     -34.734   5.179   6.066  1.00 20.00     0.005 C 
ENDBRANCH   5   6
ENDBRANCH   2   5
TORSDOF 2
ENDMDL
MODEL 3
REMARK VINA RESULT:      -4.2      2.158      3.853
REMARK  2 active torsions:
REMARK  status: ('A' for Active; 'I' for Inactive)
REMARK    1  A    between atoms: C2_2  and  C5_5 
REMARK    2  A    between atoms: C5_5  and  C6_6 
ROOT
HETATM    1  C1  UNL     1     -33.632   6.639   4.530  1.00 20.00     0.223 C 
HETATM    2  C2  UNL     1     -33.137   6.463   3.334  1.00 20.00    -0.030 C 
HETATM    3  C3  UNL     1     -33.395   5.213   2.542  1.00 20.00     0.048 C 
HETATM    4  O7  UNL     1     -34.077   6.797   5.606  1.00 20.00    -0.284 OA
ENDROOT
BRANCH   2   5
HETATM    5  C5  UNL     1     -32.267   7.505   2.670  1.00 20.00     0.037 C 
BRANCH   5   6
HETATM    6  C6  UNL     1     -32.557   7.629   1.173  1.00 20.00    -0.000 C 
HETATM    7  C4  UNL     1     -32.902   9.060   0.792  1.00 20.00     0.005 C 
ENDBRANCH   5   6
ENDBRANCH   2   5
TORSDOF 2
ENDMDL
MODEL 4
REMARK VINA RESULT:      -4.1      2.286      3.879
REMARK  2 active torsions:
REMARK  status: ('A' for Active; 'I' for Inactive)
REMARK    1  A    between atoms: C2_2  and  C5_5 
REMARK    2  A    between atoms: C5_5  and  C6_6 
ROOT
HETATM    1  C1  UNL     1     -34.352   4.975   4.345  1.00 20.00     0.223 C 
HETATM    2  C2  UNL     1     -34.010   6.154   4.788  1.00 20.00    -0.030 C 
HETATM    3  C3  UNL     1     -34.292   6.587   6.199  1.00 20.00     0.048 C 
HETATM    4  O7  UNL     1     -34.662   3.913   3.945  1.00 20.00    -0.284 OA
ENDROOT
BRANCH   2   5
HETATM    5  C5  UNL     1     -33.309   7.164   3.909  1.00 20.00     0.037 C 
BRANCH   5   6
HETATM    6  C6  UNL     1     -32.795   6.540   2.610  1.00 20.00    -0.000 C 
HETATM    7  C4  UNL     1     -32.447   7.606   1.583  1.00 20.00     0.005 C 
ENDBRANCH   5   6
ENDBRANCH   2   5
TORSDOF 2
ENDMDL
MODEL 5
REMARK VINA RESULT:      -4.0      2.101      3.614
REMARK  2 active torsions:
REMARK  status: ('A' for Active; 'I' for Inactive)
REMARK    1  A    between atoms: C2_2  and  C5_5 
REMARK    2  A    between atoms: C5_5  and  C6_6 
ROOT
HETATM    1  C1  UNL     1     -33.847   6.626   5.115  1.00 20.00     0.223 C 
HETATM    2  C2  UNL     1     -34.037   5.780   4.139  1.00 20.00    -0.030 C 
HETATM    3  C3  UNL     1     -35.007   4.639   4.251  1.00 20.00     0.048 C 
HETATM    4  O7  UNL     1     -33.676   7.387   5.994  1.00 20.00    -0.284 OA
ENDROOT
BRANCH   2   5
HETATM    5  C5  UNL     1     -33.287   5.891   2.831  1.00 20.00     0.037 C 
BRANCH   5   6
HETATM    6  C6  UNL     1     -32.398   7.136   2.779  1.00 20.00    -0.000 C 
HETATM    7  C4  UNL     1     -32.547   7.867   1.454  1.00 20.00     0.005 C 
ENDBRANCH   5   6
ENDBRANCH   2   5
TORSDOF 2
ENDMDL
MODEL 6
REMARK VINA RESULT:      -4.0     10.907     11.508
REMARK  2 active torsions:
REMARK  status: ('A' for Active; 'I' for Inactive)
REMARK    1  A    between atoms: C2_2  and  C5_5 
REMARK    2  A    between atoms: C5_5  and  C6_6 
ROOT
HETATM    1  C1  UNL     1     -35.252  13.587  -4.155  1.00 20.00     0.223 C 
HETATM    2  C2  UNL     1     -34.473  14.561  -3.770  1.00 20.00    -0.030 C 
HETATM    3  C3  UNL     1     -33.083  14.731  -4.313  1.00 20.00     0.048 C 
HETATM    4  O7  UNL     1     -35.953  12.708  -4.501  1.00 20.00    -0.284 OA
ENDROOT
BRANCH   2   5
HETATM    5  C5  UNL     1     -34.918  15.582  -2.748  1.00 20.00     0.037 C 
BRANCH   5   6
HETATM    6  C6  UNL     1     -33.789  16.539  -2.359  1.00 20.00    -0.000 C 
HETATM    7  C4  UNL     1     -34.204  17.448  -1.212  1.00 20.00     0.005 C 
ENDBRANCH   5   6
ENDBRANCH   2   5
TORSDOF 2
ENDMDL
MODEL 7
REMARK VINA RESULT:      -3.9      1.867      3.832
REMARK  2 active torsions:
REMARK  status: ('A' for Active; 'I' for Inactive)
REMARK    1  A    between atoms: C2_2  and  C5_5 
REMARK    2  A    between atoms: C5_5  and  C6_6 
ROOT
HETATM    1  C1  UNL     1     -33.180   5.297   2.647  1.00 20.00     0.223 C 
HETATM    2  C2  UNL     1     -33.150   6.458   3.245  1.00 20.00    -0.030 C 
HETATM    3  C3  UNL     1     -33.902   6.717   4.519  1.00 20.00     0.048 C 
HETATM    4  O7  UNL     1     -33.208   4.252   2.109  1.00 20.00    -0.284 OA
ENDROOT
BRANCH   2   5
HETATM    5  C5  UNL     1     -32.358   7.620   2.691  1.00 20.00     0.037 C 
BRANCH   5   6
HETATM    6  C6  UNL     1     -32.448   7.704   1.165  1.00 20.00    -0.000 C 
HETATM    7  C4  UNL     1     -32.937   9.071   0.713  1.00 20.00     0.005 C 
ENDBRANCH   5   6
ENDBRANCH   2   5
TORSDOF 2
ENDMDL
MODEL 8
REMARK VINA RESULT:      -3.9     11.303     12.051
REMARK  2 active torsions:
REMARK  status: ('A' for Active; 'I' for Inactive)
REMARK    1  A    between atoms: C2_2  and  C5_5 
REMARK    2  A    between atoms: C5_5  and  C6_6 
ROOT
HETATM    1  C1  UNL     1     -36.948  14.090  -4.589  1.00 20.00     0.223 C 
HETATM    2  C2  UNL     1     -35.706  14.359  -4.887  1.00 20.00    -0.030 C 
HETATM    3  C3  UNL     1     -35.287  14.752  -6.275  1.00 20.00     0.048 C 
HETATM    4  O7  UNL     1     -38.067  13.846  -4.321  1.00 20.00    -0.284 OA
ENDROOT
BRANCH   2   5
HETATM    5  C5  UNL     1     -34.605  14.289  -3.854  1.00 20.00     0.037 C 
BRANCH   5   6
HETATM    6  C6  UNL     1     -34.639  15.480  -2.893  1.00 20.00    -0.000 C 
HETATM    7  C4  UNL     1     -33.353  16.288  -2.965  1.00 20.00     0.005 C 
ENDBRANCH   5   6
ENDBRANCH   2   5
TORSDOF 2
ENDMDL
MODEL 9
REMARK VINA RESULT:      -3.8      8.886      9.441
REMARK  2 active torsions:
REMARK  status: ('A' for Active; 'I' for Inactive)
REMARK    1  A    between atoms: C2_2  and  C5_5 
REMARK    2  A    between atoms: C5_5  and  C6_6 
ROOT
HETATM    1  C1  UNL     1     -41.591   9.145   0.197  1.00 20.00     0.223 C 
HETATM    2  C2  UNL     1     -41.792   7.868   0.009  1.00 20.00    -0.030 C 
HETATM    3  C3  UNL     1     -42.624   7.047   0.952  1.00 20.00     0.048 C 
HETATM    4  O7  UNL     1     -41.409  10.294   0.366  1.00 20.00    -0.284 OA
ENDROOT
BRANCH   2   5
HETATM    5  C5  UNL     1     -41.196   7.131  -1.168  1.00 20.00     0.037 C 
BRANCH   5   6
HETATM    6  C6  UNL     1     -40.981   5.646  -0.870  1.00 20.00    -0.000 C 
HETATM    7  C4  UNL     1     -41.920   4.775  -1.691  1.00 20.00     0.005 C 
ENDBRANCH   5   6
ENDBRANCH   2   5
TORSDOF 2
ENDMDL
