MODEL 1
REMARK VINA RESULT:      -4.9      0.000      0.000
REMARK  0 active torsions:
REMARK  status: ('A' for Active; 'I' for Inactive)
ROOT
HETATM    1  C1  UNL     1     -37.034  14.057  -4.581  1.00 20.00     0.094 C 
HETATM    2  C2  UNL     1     -33.920  16.334  -2.168  1.00 20.00     0.003 C 
HETATM    3  C3  UNL     1     -33.144  16.631  -3.447  1.00 20.00     0.003 C 
HETATM    4  C4  UNL     1     -35.190  15.642  -2.669  1.00 20.00     0.042 C 
HETATM    5  C5  UNL     1     -33.359  15.380  -4.304  1.00 20.00     0.042 C 
HETATM    6  C6  UNL     1     -35.628  14.131  -4.823  1.00 20.00     0.263 A 
HETATM    7  C7  UNL     1     -34.722  14.906  -3.891  1.00 20.00     0.101 A 
HETATM    8  N8  UNL     1     -38.176  13.997  -4.384  1.00 20.00    -0.194 NA
HETATM    9  O9  UNL     1     -34.849  13.479  -3.811  1.00 20.00    -0.354 OA
ENDROOT
TORSDOF 0
ENDMDL
MODEL 2
REMARK VINA RESULT:      -4.7      1.619      1.758
REMARK  0 active torsions:
REMARK  status: ('A' for Active; 'I' for Inactive)
ROOT
HETATM    1  C1  UNL     1     -35.257  14.727  -6.299  1.00 20.00     0.094 C 
HETATM    2  C2  UNL     1     -34.982  16.017  -1.944  1.00 20.00     0.003 C 
HETATM    3  C3  UNL     1     -33.722  16.817  -2.259  1.00 20.00     0.003 C 
HETATM    4  C4  UNL     1     -35.447  15.522  -3.315  1.00 20.00     0.042 C 
HETATM    5  C5  UNL     1     -33.024  15.988  -3.340  1.00 20.00     0.042 C 
HETATM    6  C6  UNL     1     -34.074  14.947  -5.529  1.00 20.00     0.263 A 
HETATM    7  C7  UNL     1     -34.162  15.336  -4.069  1.00 20.00     0.101 A 
HETATM    8  N8  UNL     1     -36.218  14.549  -6.925  1.00 20.00    -0.194 NA
HETATM    9  O9  UNL     1     -33.903  13.985  -4.478  1.00 20.00    -0.354 OA
ENDROOT
TORSDOF 0
ENDMDL
MODEL 3
REMARK VINA RESULT:      -4.5     18.038     18.789
REMARK  0 active torsions:
REMARK  status: ('A' for Active; 'I' for Inactive)
ROOT
HETATM    1  C1  UNL     1     -22.626  18.077   8.467  1.00 20.00     0.094 C 
HETATM    2  C2  UNL     1     -24.768  15.807  11.780  1.00 20.00     0.003 C 
HETATM    3  C3  UNL     1     -25.309  17.122  12.332  1.00 20.00     0.003 C 
HETATM    4  C4  UNL     1     -24.057  16.224  10.489  1.00 20.00     0.042 C 
HETATM    5  C5  UNL     1     -24.184  18.124  12.059  1.00 20.00     0.042 C 
HETATM    6  C6  UNL     1     -22.848  18.503   9.813  1.00 20.00     0.263 A 
HETATM    7  C7  UNL     1     -23.547  17.600  10.805  1.00 20.00     0.101 A 
HETATM    8  N8  UNL     1     -22.447  17.731   7.374  1.00 20.00    -0.194 NA
HETATM    9  O9  UNL     1     -22.118  17.727  10.774  1.00 20.00    -0.354 OA
ENDROOT
TORSDOF 0
ENDMDL
MODEL 4
REMARK VINA RESULT:      -4.4     11.024     11.472
REMARK  0 active torsions:
REMARK  status: ('A' for Active; 'I' for Inactive)
ROOT
HETATM    1  C1  UNL     1     -32.560   7.973   1.344  1.00 20.00     0.094 C 
HETATM    2  C2  UNL     1     -34.052   4.341   3.643  1.00 20.00     0.003 C 
HETATM    3  C3  UNL     1     -34.882   5.250   4.543  1.00 20.00     0.003 C 
HETATM    4  C4  UNL     1     -33.480   5.298   2.594  1.00 20.00     0.042 C 
HETATM    5  C5  UNL     1     -34.031   6.517   4.667  1.00 20.00     0.042 C 
HETATM    6  C6  UNL     1     -32.856   7.887   2.739  1.00 20.00     0.263 A 
HETATM    7  C7  UNL     1     -33.307   6.580   3.354  1.00 20.00     0.101 A 
HETATM    8  N8  UNL     1     -32.321   8.044   0.211  1.00 20.00    -0.194 NA
HETATM    9  O9  UNL     1     -31.950   7.035   3.452  1.00 20.00    -0.354 OA
ENDROOT
TORSDOF 0
ENDMDL
MODEL 5
REMARK VINA RESULT:      -4.3      1.675      2.149
REMARK  0 active torsions:
REMARK  status: ('A' for Active; 'I' for Inactive)
ROOT
HETATM    1  C1  UNL     1     -36.148  13.873  -4.288  1.00 20.00     0.094 C 
HETATM    2  C2  UNL     1     -33.135  16.799  -2.535  1.00 20.00     0.003 C 
HETATM    3  C3  UNL     1     -34.176  17.265  -1.523  1.00 20.00     0.003 C 
HETATM    4  C4  UNL     1     -33.827  15.638  -3.254  1.00 20.00     0.042 C 
HETATM    5  C5  UNL     1     -35.498  17.177  -2.290  1.00 20.00     0.042 C 
HETATM    6  C6  UNL     1     -36.407  15.169  -3.746  1.00 20.00     0.263 A 
HETATM    7  C7  UNL     1     -35.274  16.036  -3.239  1.00 20.00     0.101 A 
HETATM    8  N8  UNL     1     -35.938  12.820  -4.728  1.00 20.00    -0.194 NA
HETATM    9  O9  UNL     1     -35.852  16.229  -4.538  1.00 20.00    -0.354 OA
ENDROOT
TORSDOF 0
ENDMDL
MODEL 6
REMARK VINA RESULT:      -4.1     17.634     18.545
REMARK  0 active torsions:
REMARK  status: ('A' for Active; 'I' for Inactive)
ROOT
HETATM    1  C1  UNL     1     -22.204  18.002   9.654  1.00 20.00     0.094 C 
HETATM    2  C2  UNL     1     -26.504  19.263  10.446  1.00 20.00     0.003 C 
HETATM    3  C3  UNL     1     -26.262  19.150  11.948  1.00 20.00     0.003 C 
HETATM    4  C4  UNL     1     -25.121  19.014   9.838  1.00 20.00     0.042 C 
HETATM    5  C5  UNL     1     -25.283  17.979  12.073  1.00 20.00     0.042 C 
HETATM    6  C6  UNL     1     -23.062  17.558  10.707  1.00 20.00     0.263 A 
HETATM    7  C7  UNL     1     -24.489  18.051  10.801  1.00 20.00     0.101 A 
HETATM    8  N8  UNL     1     -21.507  18.363   8.799  1.00 20.00    -0.194 NA
HETATM    9  O9  UNL     1     -24.166  16.772  10.237  1.00 20.00    -0.354 OA
ENDROOT
TORSDOF 0
ENDMDL
MODEL 7
REMARK VINA RESULT:      -4.1      1.593      1.738
REMARK  0 active torsions:
REMARK  status: ('A' for Active; 'I' for Inactive)
ROOT
HETATM    1  C1  UNL     1     -35.803  13.898  -4.846  1.00 20.00     0.094 C 
HETATM    2  C2  UNL     1     -33.136  16.857  -2.647  1.00 20.00     0.003 C 
HETATM    3  C3  UNL     1     -33.868  18.016  -3.315  1.00 20.00     0.003 C 
HETATM    4  C4  UNL     1     -33.924  15.625  -3.098  1.00 20.00     0.042 C 
HETATM    5  C5  UNL     1     -34.217  17.475  -4.704  1.00 20.00     0.042 C 
HETATM    6  C6  UNL     1     -35.322  15.157  -5.322  1.00 20.00     0.263 A 
HETATM    7  C7  UNL     1     -34.402  16.004  -4.469  1.00 20.00     0.101 A 
HETATM    8  N8  UNL     1     -36.195  12.876  -4.461  1.00 20.00    -0.194 NA
HETATM    9  O9  UNL     1     -33.902  15.172  -5.526  1.00 20.00    -0.354 OA
ENDROOT
TORSDOF 0
ENDMDL
MODEL 8
REMARK VINA RESULT:      -4.0      1.644      2.070
REMARK  0 active torsions:
REMARK  status: ('A' for Active; 'I' for Inactive)
ROOT
HETATM    1  C1  UNL     1     -37.514  14.904  -4.143  1.00 20.00     0.094 C 
HETATM    2  C2  UNL     1     -33.169  15.905  -3.236  1.00 20.00     0.003 C 
HETATM    3  C3  UNL     1     -33.620  16.942  -2.212  1.00 20.00     0.003 C 
HETATM    4  C4  UNL     1     -34.475  15.237  -3.671  1.00 20.00     0.042 C 
HETATM    5  C5  UNL     1     -34.911  17.508  -2.809  1.00 20.00     0.042 C 
HETATM    6  C6  UNL     1     -36.967  16.179  -3.803  1.00 20.00     0.263 A 
HETATM    7  C7  UNL     1     -35.481  16.346  -3.571  1.00 20.00     0.101 A 
HETATM    8  N8  UNL     1     -37.959  13.869  -4.419  1.00 20.00    -0.194 NA
HETATM    9  O9  UNL     1     -36.098  16.705  -4.816  1.00 20.00    -0.354 OA
ENDROOT
TORSDOF 0
ENDMDL
MODEL 9
REMARK VINA RESULT:      -3.9     10.560     12.031
REMARK  0 active torsions:
REMARK  status: ('A' for Active; 'I' for Inactive)
ROOT
HETATM    1  C1  UNL     1     -42.184   8.808   0.333  1.00 20.00     0.094 C 
HETATM    2  C2  UNL     1     -41.197   4.740  -1.452  1.00 20.00     0.003 C 
HETATM    3  C3  UNL     1     -42.666   4.538  -1.808  1.00 20.00     0.003 C 
HETATM    4  C4  UNL     1     -41.150   6.172  -0.913  1.00 20.00     0.042 C 
HETATM    5  C5  UNL     1     -43.417   5.228  -0.665  1.00 20.00     0.042 C 
HETATM    6  C6  UNL     1     -42.994   7.632   0.346  1.00 20.00     0.263 A 
HETATM    7  C7  UNL     1     -42.492   6.340  -0.262  1.00 20.00     0.101 A 
HETATM    8  N8  UNL     1     -41.527   9.764   0.321  1.00 20.00    -0.194 NA
HETATM    9  O9  UNL     1     -42.443   6.581   1.151  1.00 20.00    -0.354 OA
ENDROOT
TORSDOF 0
ENDMDL
