MODEL 1
REMARK VINA RESULT:      -2.9      0.000      0.000
REMARK  2 active torsions:
REMARK  status: ('A' for Active; 'I' for Inactive)
REMARK    1  A    between atoms: C2_2  and  C4_4 
REMARK    2  A    between atoms: C4_4  and  S6_6 
ROOT
HETATM    1  C1  UNL     1     -32.533   7.528   1.917  1.00 20.00     0.201 A 
HETATM    2  C2  UNL     1     -32.860   6.437   2.899  1.00 20.00     0.154 A 
HETATM    3  O5  UNL     1     -31.756   7.324   3.108  1.00 20.00    -0.380 OA
ENDROOT
BRANCH   2   4
HETATM    4  C4  UNL     1     -33.969   6.589   3.876  1.00 20.00     0.107 C 
BRANCH   4   5
HETATM    5  S6  UNL     1     -34.726   4.979   4.282  1.00 20.00    -0.171 SA
HETATM    6  C3  UNL     1     -34.773   5.166   6.078  1.00 20.00     0.089 C 
ENDBRANCH   4   5
ENDBRANCH   2   4
TORSDOF 2
ENDMDL
MODEL 2
REMARK VINA RESULT:      -2.9     11.402     11.622
REMARK  2 active torsions:
REMARK  status: ('A' for Active; 'I' for Inactive)
REMARK    1  A    between atoms: C2_2  and  C4_4 
REMARK    2  A    between atoms: C4_4  and  S6_6 
ROOT
HETATM    1  C1  UNL     1     -36.289  13.912  -5.225  1.00 20.00     0.201 A 
HETATM    2  C2  UNL     1     -35.420  14.027  -4.004  1.00 20.00     0.154 A 
HETATM    3  O5  UNL     1     -35.796  12.753  -4.535  1.00 20.00    -0.380 OA
ENDROOT
BRANCH   2   4
HETATM    4  C4  UNL     1     -33.972  14.341  -4.117  1.00 20.00     0.107 C 
BRANCH   4   5
HETATM    5  S6  UNL     1     -33.568  15.930  -3.315  1.00 20.00    -0.171 SA
HETATM    6  C3  UNL     1     -34.969  16.003  -2.176  1.00 20.00     0.089 C 
ENDBRANCH   4   5
ENDBRANCH   2   4
TORSDOF 2
ENDMDL
MODEL 3
REMARK VINA RESULT:      -2.8     15.963     16.391
REMARK  2 active torsions:
REMARK  status: ('A' for Active; 'I' for Inactive)
REMARK    1  A    between atoms: C2_2  and  C4_4 
REMARK    2  A    between atoms: C4_4  and  S6_6 
ROOT
HETATM    1  C1  UNL     1     -24.473  19.135   7.626  1.00 20.00     0.201 A 
HETATM    2  C2  UNL     1     -23.607  18.138   8.345  1.00 20.00     0.154 A 
HETATM    3  O5  UNL     1     -23.335  18.528   6.995  1.00 20.00    -0.380 OA
ENDROOT
BRANCH   2   4
HETATM    4  C4  UNL     1     -22.588  18.576   9.333  1.00 20.00     0.107 C 
BRANCH   4   5
HETATM    5  S6  UNL     1     -22.840  17.776  10.953  1.00 20.00    -0.171 SA
HETATM    6  C3  UNL     1     -24.085  16.569  10.449  1.00 20.00     0.089 C 
ENDBRANCH   4   5
ENDBRANCH   2   4
TORSDOF 2
ENDMDL
MODEL 4
REMARK VINA RESULT:      -2.8     16.875     17.147
REMARK  2 active torsions:
REMARK  status: ('A' for Active; 'I' for Inactive)
REMARK    1  A    between atoms: C2_2  and  C4_4 
REMARK    2  A    between atoms: C4_4  and  S6_6 
ROOT
HETATM    1  C1  UNL     1     -22.147  17.785   8.187  1.00 20.00     0.201 A 
HETATM    2  C2  UNL     1     -22.501  17.943   9.639  1.00 20.00     0.154 A 
HETATM    3  O5  UNL     1     -21.831  18.982   8.916  1.00 20.00    -0.380 OA
ENDROOT
BRANCH   2   4
HETATM    4  C4  UNL     1     -23.886  18.278  10.062  1.00 20.00     0.107 C 
BRANCH   4   5
HETATM    5  S6  UNL     1     -24.174  17.846  11.811  1.00 20.00    -0.171 SA
HETATM    6  C3  UNL     1     -22.448  17.705  12.325  1.00 20.00     0.089 C 
ENDBRANCH   4   5
ENDBRANCH   2   4
TORSDOF 2
ENDMDL
MODEL 5
REMARK VINA RESULT:      -2.7     11.743     12.174
REMARK  2 active torsions:
REMARK  status: ('A' for Active; 'I' for Inactive)
REMARK    1  A    between atoms: C2_2  and  C4_4 
REMARK    2  A    between atoms: C4_4  and  S6_6 
ROOT
HETATM    1  C1  UNL     1     -37.965  15.118  -4.342  1.00 20.00     0.201 A 
HETATM    2  C2  UNL     1     -36.636  14.479  -4.047  1.00 20.00     0.154 A 
HETATM    3  O5  UNL     1     -37.776  13.696  -4.419  1.00 20.00    -0.380 OA
ENDROOT
BRANCH   2   4
HETATM    4  C4  UNL     1     -35.539  14.489  -5.048  1.00 20.00     0.107 C 
BRANCH   4   5
HETATM    5  S6  UNL     1     -33.923  14.814  -4.265  1.00 20.00    -0.171 SA
HETATM    6  C3  UNL     1     -34.526  15.615  -2.762  1.00 20.00     0.089 C 
ENDBRANCH   4   5
ENDBRANCH   2   4
TORSDOF 2
ENDMDL
MODEL 6
REMARK VINA RESULT:      -2.7      9.386      9.444
REMARK  2 active torsions:
REMARK  status: ('A' for Active; 'I' for Inactive)
REMARK    1  A    between atoms: C2_2  and  C4_4 
REMARK    2  A    between atoms: C4_4  and  S6_6 
ROOT
HETATM    1  C1  UNL     1     -41.296   9.672   0.387  1.00 20.00     0.201 A 
HETATM    2  C2  UNL     1     -41.599   8.208   0.234  1.00 20.00     0.154 A 
HETATM    3  O5  UNL     1     -42.641   9.190   0.242  1.00 20.00    -0.380 OA
ENDROOT
BRANCH   2   4
HETATM    4  C4  UNL     1     -41.413   7.515  -1.067  1.00 20.00     0.107 C 
BRANCH   4   5
HETATM    5  S6  UNL     1     -41.179   5.719  -0.840  1.00 20.00    -0.171 SA
HETATM    6  C3  UNL     1     -42.228   5.508   0.614  1.00 20.00     0.089 C 
ENDBRANCH   4   5
ENDBRANCH   2   4
TORSDOF 2
ENDMDL
MODEL 7
REMARK VINA RESULT:      -2.6      1.135      1.139
REMARK  2 active torsions:
REMARK  status: ('A' for Active; 'I' for Inactive)
REMARK    1  A    between atoms: C2_2  and  C4_4 
REMARK    2  A    between atoms: C4_4  and  S6_6 
ROOT
HETATM    1  C1  UNL     1     -32.643   7.373   2.090  1.00 20.00     0.201 A 
HETATM    2  C2  UNL     1     -32.954   6.459   3.242  1.00 20.00     0.154 A 
HETATM    3  O5  UNL     1     -31.774   7.269   3.229  1.00 20.00    -0.380 OA
ENDROOT
BRANCH   2   4
HETATM    4  C4  UNL     1     -33.952   6.836   4.276  1.00 20.00     0.107 C 
BRANCH   4   5
HETATM    5  S6  UNL     1     -34.826   5.372   4.927  1.00 20.00    -0.171 SA
HETATM    6  C3  UNL     1     -34.193   4.155   3.752  1.00 20.00     0.089 C 
ENDBRANCH   4   5
ENDBRANCH   2   4
TORSDOF 2
ENDMDL
MODEL 8
REMARK VINA RESULT:      -2.6      2.410      3.628
REMARK  2 active torsions:
REMARK  status: ('A' for Active; 'I' for Inactive)
REMARK    1  A    between atoms: C2_2  and  C4_4 
REMARK    2  A    between atoms: C4_4  and  S6_6 
ROOT
HETATM    1  C1  UNL     1     -34.111   6.538   6.052  1.00 20.00     0.201 A 
HETATM    2  C2  UNL     1     -34.223   5.255   5.277  1.00 20.00     0.154 A 
HETATM    3  O5  UNL     1     -35.200   5.625   6.256  1.00 20.00    -0.380 OA
ENDROOT
BRANCH   2   4
HETATM    4  C4  UNL     1     -34.724   5.242   3.878  1.00 20.00     0.107 C 
BRANCH   4   5
HETATM    5  S6  UNL     1     -33.364   5.005   2.684  1.00 20.00    -0.171 SA
HETATM    6  C3  UNL     1     -32.733   6.698   2.679  1.00 20.00     0.089 C 
ENDBRANCH   4   5
ENDBRANCH   2   4
TORSDOF 2
ENDMDL
MODEL 9
REMARK VINA RESULT:      -2.5     11.517     12.578
REMARK  2 active torsions:
REMARK  status: ('A' for Active; 'I' for Inactive)
REMARK    1  A    between atoms: C2_2  and  C4_4 
REMARK    2  A    between atoms: C4_4  and  S6_6 
ROOT
HETATM    1  C1  UNL     1     -35.011  13.762  -4.023  1.00 20.00     0.201 A 
HETATM    2  C2  UNL     1     -36.221  13.964  -4.892  1.00 20.00     0.154 A 
HETATM    3  O5  UNL     1     -35.810  12.657  -4.475  1.00 20.00    -0.380 OA
ENDROOT
BRANCH   2   4
HETATM    4  C4  UNL     1     -37.513  14.418  -4.319  1.00 20.00     0.107 C 
BRANCH   4   5
HETATM    5  S6  UNL     1     -37.847  16.166  -4.726  1.00 20.00    -0.171 SA
HETATM    6  C3  UNL     1     -36.999  16.221  -6.320  1.00 20.00     0.089 C 
ENDBRANCH   4   5
ENDBRANCH   2   4
TORSDOF 2
ENDMDL
