MODEL 1
REMARK VINA RESULT:      -4.1      0.000      0.000
REMARK  1 active torsions:
REMARK  status: ('A' for Active; 'I' for Inactive)
REMARK    1  A    between atoms: C3_3  and  C6_6 
ROOT
HETATM    1  C1  UNL     1     -24.990  15.647  11.859  1.00 20.00     0.282 C 
HETATM    2  C2  UNL     1     -25.732  16.887  12.332  1.00 20.00     0.106 C 
HETATM    3  C3  UNL     1     -23.247  17.224  11.498  1.00 20.00     0.201 C 
HETATM    4  C4  UNL     1     -22.110  17.832  12.320  1.00 20.00     0.061 C 
HETATM    5  N7  UNL     1     -23.559  15.893  12.038  1.00 20.00     0.103 N 
HETATM    6  S8  UNL     1     -24.749  18.254  11.678  1.00 20.00    -0.127 SA
HETATM    7  H21 UNL     1     -23.365  15.888  13.040  1.00 20.00     0.318 HD
ENDROOT
BRANCH   3   8
HETATM    8  C6  UNL     1     -22.859  17.149  10.018  1.00 20.00     0.048 C 
HETATM    9  C5  UNL     1     -22.817  18.503   9.393  1.00 20.00     0.009 C 
ENDBRANCH   3   8
TORSDOF 1
ENDMDL
MODEL 2
REMARK VINA RESULT:      -3.9      1.852      3.229
REMARK  1 active torsions:
REMARK  status: ('A' for Active; 'I' for Inactive)
REMARK    1  A    between atoms: C3_3  and  C6_6 
ROOT
HETATM    1  C1  UNL     1     -24.755  18.730   9.373  1.00 20.00     0.282 C 
HETATM    2  C2  UNL     1     -23.513  18.477   8.533  1.00 20.00     0.106 C 
HETATM    3  C3  UNL     1     -23.566  17.400  10.946  1.00 20.00     0.201 C 
HETATM    4  C4  UNL     1     -22.531  17.638  12.046  1.00 20.00     0.061 C 
HETATM    5  N7  UNL     1     -24.367  18.621  10.780  1.00 20.00     0.103 N 
HETATM    6  S8  UNL     1     -22.707  17.088   9.359  1.00 20.00    -0.127 SA
HETATM    7  H21 UNL     1     -23.788  19.430  11.007  1.00 20.00     0.318 HD
ENDROOT
BRANCH   3   8
HETATM    8  C6  UNL     1     -24.448  16.195  11.290  1.00 20.00     0.048 C 
HETATM    9  C5  UNL     1     -25.480  16.546  12.310  1.00 20.00     0.009 C 
ENDBRANCH   3   8
TORSDOF 1
ENDMDL
MODEL 3
REMARK VINA RESULT:      -3.8      1.954      2.733
REMARK  1 active torsions:
REMARK  status: ('A' for Active; 'I' for Inactive)
REMARK    1  A    between atoms: C3_3  and  C6_6 
ROOT
HETATM    1  C1  UNL     1     -25.529  19.198   9.861  1.00 20.00     0.282 C 
HETATM    2  C2  UNL     1     -26.275  19.235  11.185  1.00 20.00     0.106 C 
HETATM    3  C3  UNL     1     -24.385  17.406  10.927  1.00 20.00     0.201 C 
HETATM    4  C4  UNL     1     -24.583  15.898  11.085  1.00 20.00     0.061 C 
HETATM    5  N7  UNL     1     -25.025  17.836   9.676  1.00 20.00     0.103 N 
HETATM    6  S8  UNL     1     -25.224  18.278  12.300  1.00 20.00    -0.127 SA
HETATM    7  H21 UNL     1     -25.824  17.231   9.488  1.00 20.00     0.318 HD
ENDROOT
BRANCH   3   8
HETATM    8  C6  UNL     1     -22.893  17.756  10.941  1.00 20.00     0.048 C 
HETATM    9  C5  UNL     1     -22.354  17.799  12.332  1.00 20.00     0.009 C 
ENDBRANCH   3   8
TORSDOF 1
ENDMDL
MODEL 4
REMARK VINA RESULT:      -3.6      1.350      3.066
REMARK  1 active torsions:
REMARK  status: ('A' for Active; 'I' for Inactive)
REMARK    1  A    between atoms: C3_3  and  C6_6 
ROOT
HETATM    1  C1  UNL     1     -22.298  17.658   9.112  1.00 20.00     0.282 C 
HETATM    2  C2  UNL     1     -23.573  18.206   8.490  1.00 20.00     0.106 C 
HETATM    3  C3  UNL     1     -23.758  17.234  10.941  1.00 20.00     0.201 C 
HETATM    4  C4  UNL     1     -24.692  16.105  11.379  1.00 20.00     0.061 C 
HETATM    5  N7  UNL     1     -22.687  16.663  10.113  1.00 20.00     0.103 N 
HETATM    6  S8  UNL     1     -24.683  18.421   9.899  1.00 20.00    -0.127 SA
HETATM    7  H21 UNL     1     -23.049  15.848   9.617  1.00 20.00     0.318 HD
ENDROOT
BRANCH   3   8
HETATM    8  C6  UNL     1     -23.191  17.966  12.162  1.00 20.00     0.048 C 
HETATM    9  C5  UNL     1     -21.733  17.700  12.331  1.00 20.00     0.009 C 
ENDBRANCH   3   8
TORSDOF 1
ENDMDL
MODEL 5
REMARK VINA RESULT:      -3.6      1.768      2.542
REMARK  1 active torsions:
REMARK  status: ('A' for Active; 'I' for Inactive)
REMARK    1  A    between atoms: C3_3  and  C6_6 
ROOT
HETATM    1  C1  UNL     1     -23.078  17.485  12.253  1.00 20.00     0.282 C 
HETATM    2  C2  UNL     1     -23.875  16.264  11.822  1.00 20.00     0.106 C 
HETATM    3  C3  UNL     1     -23.550  18.177  10.027  1.00 20.00     0.201 C 
HETATM    4  C4  UNL     1     -24.677  18.921   9.309  1.00 20.00     0.061 C 
HETATM    5  N7  UNL     1     -23.518  18.613  11.431  1.00 20.00     0.103 N 
HETATM    6  S8  UNL     1     -23.903  16.381  10.020  1.00 20.00    -0.127 SA
HETATM    7  H21 UNL     1     -24.463  18.861  11.723  1.00 20.00     0.318 HD
ENDROOT
BRANCH   3   8
HETATM    8  C6  UNL     1     -22.209  18.433   9.332  1.00 20.00     0.048 C 
HETATM    9  C5  UNL     1     -22.017  17.527   8.162  1.00 20.00     0.009 C 
ENDBRANCH   3   8
TORSDOF 1
ENDMDL
MODEL 6
REMARK VINA RESULT:      -3.4     23.293     24.318
REMARK  1 active torsions:
REMARK  status: ('A' for Active; 'I' for Inactive)
REMARK    1  A    between atoms: C3_3  and  C6_6 
ROOT
HETATM    1  C1  UNL     1     -41.097   5.063  -1.185  1.00 20.00     0.282 C 
HETATM    2  C2  UNL     1     -42.496   4.731  -1.680  1.00 20.00     0.106 C 
HETATM    3  C3  UNL     1     -42.224   6.938  -0.250  1.00 20.00     0.201 C 
HETATM    4  C4  UNL     1     -42.971   7.252   1.046  1.00 20.00     0.061 C 
HETATM    5  N7  UNL     1     -41.237   5.882   0.019  1.00 20.00     0.103 N 
HETATM    6  S8  UNL     1     -43.402   6.282  -1.489  1.00 20.00    -0.127 SA
HETATM    7  H21 UNL     1     -41.589   5.281   0.765  1.00 20.00     0.318 HD
ENDROOT
BRANCH   3   8
HETATM    8  C6  UNL     1     -41.555   8.199  -0.804  1.00 20.00     0.048 C 
HETATM    9  C5  UNL     1     -41.481   9.278   0.225  1.00 20.00     0.009 C 
ENDBRANCH   3   8
TORSDOF 1
ENDMDL
MODEL 7
REMARK VINA RESULT:      -3.4     18.636     19.307
REMARK  1 active torsions:
REMARK  status: ('A' for Active; 'I' for Inactive)
REMARK    1  A    between atoms: C3_3  and  C6_6 
ROOT
HETATM    1  C1  UNL     1     -35.369  16.800  -5.597  1.00 20.00     0.282 C 
HETATM    2  C2  UNL     1     -36.246  15.558  -5.572  1.00 20.00     0.106 C 
HETATM    3  C3  UNL     1     -33.992  15.461  -4.195  1.00 20.00     0.201 C 
HETATM    4  C4  UNL     1     -32.879  14.429  -4.387  1.00 20.00     0.061 C 
HETATM    5  N7  UNL     1     -33.992  16.374  -5.347  1.00 20.00     0.103 N 
HETATM    6  S8  UNL     1     -35.613  14.611  -4.170  1.00 20.00    -0.127 SA
HETATM    7  H21 UNL     1     -33.668  15.867  -6.171  1.00 20.00     0.318 HD
ENDROOT
BRANCH   3   8
HETATM    8  C6  UNL     1     -33.799  16.221  -2.879  1.00 20.00     0.048 C 
HETATM    9  C5  UNL     1     -34.985  16.080  -1.985  1.00 20.00     0.009 C 
ENDBRANCH   3   8
TORSDOF 1
ENDMDL
MODEL 8
REMARK VINA RESULT:      -3.4     19.053     19.624
REMARK  1 active torsions:
REMARK  status: ('A' for Active; 'I' for Inactive)
REMARK    1  A    between atoms: C3_3  and  C6_6 
ROOT
HETATM    1  C1  UNL     1     -36.295  13.742  -4.622  1.00 20.00     0.282 C 
HETATM    2  C2  UNL     1     -35.848  14.450  -5.891  1.00 20.00     0.106 C 
HETATM    3  C3  UNL     1     -35.798  15.857  -3.654  1.00 20.00     0.201 C 
HETATM    4  C4  UNL     1     -36.540  17.173  -3.417  1.00 20.00     0.061 C 
HETATM    5  N7  UNL     1     -36.779  14.764  -3.693  1.00 20.00     0.103 N 
HETATM    6  S8  UNL     1     -34.971  15.909  -5.287  1.00 20.00    -0.127 SA
HETATM    7  H21 UNL     1     -37.662  15.123  -4.058  1.00 20.00     0.318 HD
ENDROOT
BRANCH   3   8
HETATM    8  C6  UNL     1     -34.748  15.628  -2.562  1.00 20.00     0.048 C 
HETATM    9  C5  UNL     1     -33.465  16.319  -2.881  1.00 20.00     0.009 C 
ENDBRANCH   3   8
TORSDOF 1
ENDMDL
MODEL 9
REMARK VINA RESULT:      -3.3     19.319     20.040
REMARK  1 active torsions:
REMARK  status: ('A' for Active; 'I' for Inactive)
REMARK    1  A    between atoms: C3_3  and  C6_6 
ROOT
HETATM    1  C1  UNL     1     -33.934  15.400  -7.247  1.00 20.00     0.282 C 
HETATM    2  C2  UNL     1     -35.428  15.130  -7.330  1.00 20.00     0.106 C 
HETATM    3  C3  UNL     1     -34.345  15.135  -4.919  1.00 20.00     0.201 C 
HETATM    4  C4  UNL     1     -34.392  13.976  -3.923  1.00 20.00     0.061 C 
HETATM    5  N7  UNL     1     -33.440  14.774  -6.020  1.00 20.00     0.103 N 
HETATM    6  S8  UNL     1     -36.008  15.389  -5.640  1.00 20.00    -0.127 SA
HETATM    7  H21 UNL     1     -33.467  13.763  -6.153  1.00 20.00     0.318 HD
ENDROOT
BRANCH   3   8
HETATM    8  C6  UNL     1     -33.892  16.423  -4.224  1.00 20.00     0.048 C 
HETATM    9  C5  UNL     1     -33.761  16.232  -2.749  1.00 20.00     0.009 C 
ENDBRANCH   3   8
TORSDOF 1
ENDMDL
