MODEL 1
REMARK VINA RESULT:      -4.0      0.000      0.000
REMARK  2 active torsions:
REMARK  status: ('A' for Active; 'I' for Inactive)
REMARK    1  A    between atoms: C1_1  and  C3_3 
REMARK    2  A    between atoms: C2_2  and  C9_9 
ROOT
HETATM    1  C1  UNL     1     -35.148  15.083  -3.239  1.00 20.00    -0.071 C 
HETATM    2  C2  UNL     1     -34.960  16.057  -2.559  1.00 20.00    -0.095 C 
ENDROOT
BRANCH   1   3
HETATM    3  C3  UNL     1     -35.379  13.900  -4.065  1.00 20.00     0.229 A 
HETATM    4  C4  UNL     1     -36.010  14.029  -5.411  1.00 20.00     0.160 A 
HETATM    5  C5  UNL     1     -36.423  15.320  -6.026  1.00 20.00     0.043 C 
HETATM    6  O10 UNL     1     -36.768  13.650  -4.259  1.00 20.00    -0.363 OA
ENDBRANCH   1   3
BRANCH   2   7
HETATM    7  C9  UNL     1     -34.726  17.255  -1.724  1.00 20.00     0.013 C 
HETATM    8  C6  UNL     1     -35.302  17.019  -0.320  1.00 20.00     0.028 C 
HETATM    9  C7  UNL     1     -35.416  18.467  -2.364  1.00 20.00     0.028 C 
HETATM   10  C8  UNL     1     -33.216  17.519  -1.622  1.00 20.00     0.028 C 
ENDBRANCH   2   7
TORSDOF 2
ENDMDL
MODEL 2
REMARK VINA RESULT:      -4.0      0.011      1.372
REMARK  2 active torsions:
REMARK  status: ('A' for Active; 'I' for Inactive)
REMARK    1  A    between atoms: C1_1  and  C3_3 
REMARK    2  A    between atoms: C2_2  and  C9_9 
ROOT
HETATM    1  C1  UNL     1     -35.147  15.084  -3.231  1.00 20.00    -0.071 C 
HETATM    2  C2  UNL     1     -34.957  16.056  -2.550  1.00 20.00    -0.095 C 
ENDROOT
BRANCH   1   3
HETATM    3  C3  UNL     1     -35.380  13.902  -4.058  1.00 20.00     0.229 A 
HETATM    4  C4  UNL     1     -36.012  14.034  -5.403  1.00 20.00     0.160 A 
HETATM    5  C5  UNL     1     -36.424  15.326  -6.017  1.00 20.00     0.043 C 
HETATM    6  O10 UNL     1     -36.769  13.654  -4.251  1.00 20.00    -0.363 OA
ENDBRANCH   1   3
BRANCH   2   7
HETATM    7  C9  UNL     1     -34.721  17.253  -1.713  1.00 20.00     0.013 C 
HETATM    8  C6  UNL     1     -33.212  17.512  -1.607  1.00 20.00     0.028 C 
HETATM    9  C7  UNL     1     -35.301  17.020  -0.312  1.00 20.00     0.028 C 
HETATM   10  C8  UNL     1     -35.407  18.468  -2.357  1.00 20.00     0.028 C 
ENDBRANCH   2   7
TORSDOF 2
ENDMDL
MODEL 3
REMARK VINA RESULT:      -3.9      1.832      2.265
REMARK  2 active torsions:
REMARK  status: ('A' for Active; 'I' for Inactive)
REMARK    1  A    between atoms: C1_1  and  C3_3 
REMARK    2  A    between atoms: C2_2  and  C9_9 
ROOT
HETATM    1  C1  UNL     1     -33.237  15.832  -3.438  1.00 20.00    -0.071 C 
HETATM    2  C2  UNL     1     -33.309  16.749  -2.665  1.00 20.00    -0.095 C 
ENDROOT
BRANCH   1   3
HETATM    3  C3  UNL     1     -33.147  14.717  -4.379  1.00 20.00     0.229 A 
HETATM    4  C4  UNL     1     -33.847  14.780  -5.695  1.00 20.00     0.160 A 
HETATM    5  C5  UNL     1     -34.647  15.942  -6.168  1.00 20.00     0.043 C 
HETATM    6  O10 UNL     1     -34.409  14.087  -4.577  1.00 20.00    -0.363 OA
ENDBRANCH   1   3
BRANCH   2   7
HETATM    7  C9  UNL     1     -33.400  17.877  -1.713  1.00 20.00     0.013 C 
HETATM    8  C6  UNL     1     -32.023  18.124  -1.081  1.00 20.00     0.028 C 
HETATM    9  C7  UNL     1     -34.415  17.536  -0.613  1.00 20.00     0.028 C 
HETATM   10  C8  UNL     1     -33.857  19.139  -2.460  1.00 20.00     0.028 C 
ENDBRANCH   2   7
TORSDOF 2
ENDMDL
MODEL 4
REMARK VINA RESULT:      -3.7      2.569      5.026
REMARK  2 active torsions:
REMARK  status: ('A' for Active; 'I' for Inactive)
REMARK    1  A    between atoms: C1_1  and  C3_3 
REMARK    2  A    between atoms: C2_2  and  C9_9 
ROOT
HETATM    1  C1  UNL     1     -33.499  16.977  -2.163  1.00 20.00    -0.071 C 
HETATM    2  C2  UNL     1     -33.702  16.189  -3.047  1.00 20.00    -0.095 C 
ENDROOT
BRANCH   1   3
HETATM    3  C3  UNL     1     -33.250  17.935  -1.088  1.00 20.00     0.229 A 
HETATM    4  C4  UNL     1     -34.207  18.060   0.049  1.00 20.00     0.160 A 
HETATM    5  C5  UNL     1     -35.440  17.241   0.205  1.00 20.00     0.043 C 
HETATM    6  O10 UNL     1     -34.232  18.966  -1.057  1.00 20.00    -0.363 OA
ENDBRANCH   1   3
BRANCH   2   7
HETATM    7  C9  UNL     1     -33.955  15.220  -4.137  1.00 20.00     0.013 C 
HETATM    8  C6  UNL     1     -35.075  14.259  -3.715  1.00 20.00     0.028 C 
HETATM    9  C7  UNL     1     -32.674  14.423  -4.418  1.00 20.00     0.028 C 
HETATM   10  C8  UNL     1     -34.377  15.978  -5.404  1.00 20.00     0.028 C 
ENDBRANCH   2   7
TORSDOF 2
ENDMDL
MODEL 5
REMARK VINA RESULT:      -3.7      2.608      5.062
REMARK  2 active torsions:
REMARK  status: ('A' for Active; 'I' for Inactive)
REMARK    1  A    between atoms: C1_1  and  C3_3 
REMARK    2  A    between atoms: C2_2  and  C9_9 
ROOT
HETATM    1  C1  UNL     1     -33.414  17.006  -2.163  1.00 20.00    -0.071 C 
HETATM    2  C2  UNL     1     -33.643  16.213  -3.037  1.00 20.00    -0.095 C 
ENDROOT
BRANCH   1   3
HETATM    3  C3  UNL     1     -33.134  17.969  -1.100  1.00 20.00     0.229 A 
HETATM    4  C4  UNL     1     -34.068  18.111   0.055  1.00 20.00     0.160 A 
HETATM    5  C5  UNL     1     -35.305  17.305   0.242  1.00 20.00     0.043 C 
HETATM    6  O10 UNL     1     -34.106  19.009  -1.057  1.00 20.00    -0.363 OA
ENDBRANCH   1   3
BRANCH   2   7
HETATM    7  C9  UNL     1     -33.925  15.238  -4.114  1.00 20.00     0.013 C 
HETATM    8  C6  UNL     1     -32.663  14.409  -4.395  1.00 20.00     0.028 C 
HETATM    9  C7  UNL     1     -34.339  15.989  -5.386  1.00 20.00     0.028 C 
HETATM   10  C8  UNL     1     -35.064  14.307  -3.673  1.00 20.00     0.028 C 
ENDBRANCH   2   7
TORSDOF 2
ENDMDL
MODEL 6
REMARK VINA RESULT:      -3.6      2.351      4.612
REMARK  2 active torsions:
REMARK  status: ('A' for Active; 'I' for Inactive)
REMARK    1  A    between atoms: C1_1  and  C3_3 
REMARK    2  A    between atoms: C2_2  and  C9_9 
ROOT
HETATM    1  C1  UNL     1     -35.039  16.289  -1.813  1.00 20.00    -0.071 C 
HETATM    2  C2  UNL     1     -34.837  15.711  -2.847  1.00 20.00    -0.095 C 
ENDROOT
BRANCH   1   3
HETATM    3  C3  UNL     1     -35.283  16.990  -0.554  1.00 20.00     0.229 A 
HETATM    4  C4  UNL     1     -36.446  17.916  -0.418  1.00 20.00     0.160 A 
HETATM    5  C5  UNL     1     -37.439  18.183  -1.493  1.00 20.00     0.043 C 
HETATM    6  O10 UNL     1     -35.128  18.400  -0.692  1.00 20.00    -0.363 OA
ENDBRANCH   1   3
BRANCH   2   7
HETATM    7  C9  UNL     1     -34.590  15.003  -4.122  1.00 20.00     0.013 C 
HETATM    8  C6  UNL     1     -35.389  13.692  -4.140  1.00 20.00     0.028 C 
HETATM    9  C7  UNL     1     -33.093  14.692  -4.251  1.00 20.00     0.028 C 
HETATM   10  C8  UNL     1     -35.033  15.891  -5.293  1.00 20.00     0.028 C 
ENDBRANCH   2   7
TORSDOF 2
ENDMDL
MODEL 7
REMARK VINA RESULT:      -3.6      2.348      4.884
REMARK  2 active torsions:
REMARK  status: ('A' for Active; 'I' for Inactive)
REMARK    1  A    between atoms: C1_1  and  C3_3 
REMARK    2  A    between atoms: C2_2  and  C9_9 
ROOT
HETATM    1  C1  UNL     1     -35.360  16.741  -1.641  1.00 20.00    -0.071 C 
HETATM    2  C2  UNL     1     -34.953  16.156  -2.610  1.00 20.00    -0.095 C 
ENDROOT
BRANCH   1   3
HETATM    3  C3  UNL     1     -35.854  17.450  -0.463  1.00 20.00     0.229 A 
HETATM    4  C4  UNL     1     -34.913  18.204   0.416  1.00 20.00     0.160 A 
HETATM    5  C5  UNL     1     -33.449  18.323   0.174  1.00 20.00     0.043 C 
HETATM    6  O10 UNL     1     -35.356  16.884   0.746  1.00 20.00    -0.363 OA
ENDBRANCH   1   3
BRANCH   2   7
HETATM    7  C9  UNL     1     -34.451  15.439  -3.802  1.00 20.00     0.013 C 
HETATM    8  C6  UNL     1     -32.916  15.412  -3.774  1.00 20.00     0.028 C 
HETATM    9  C7  UNL     1     -34.928  16.161  -5.070  1.00 20.00     0.028 C 
HETATM   10  C8  UNL     1     -34.991  14.001  -3.796  1.00 20.00     0.028 C 
ENDBRANCH   2   7
TORSDOF 2
ENDMDL
MODEL 8
REMARK VINA RESULT:      -3.5      3.040      5.527
REMARK  2 active torsions:
REMARK  status: ('A' for Active; 'I' for Inactive)
REMARK    1  A    between atoms: C1_1  and  C3_3 
REMARK    2  A    between atoms: C2_2  and  C9_9 
ROOT
HETATM    1  C1  UNL     1     -33.858  17.907  -1.267  1.00 20.00    -0.071 C 
HETATM    2  C2  UNL     1     -34.044  17.176  -2.202  1.00 20.00    -0.095 C 
ENDROOT
BRANCH   1   3
HETATM    3  C3  UNL     1     -33.634  18.798  -0.130  1.00 20.00     0.229 A 
HETATM    4  C4  UNL     1     -32.258  19.004   0.408  1.00 20.00     0.160 A 
HETATM    5  C5  UNL     1     -31.032  18.371  -0.150  1.00 20.00     0.043 C 
HETATM    6  O10 UNL     1     -33.174  18.090   1.017  1.00 20.00    -0.363 OA
ENDBRANCH   1   3
BRANCH   2   7
HETATM    7  C9  UNL     1     -34.271  16.273  -3.352  1.00 20.00     0.013 C 
HETATM    8  C6  UNL     1     -34.691  17.101  -4.575  1.00 20.00     0.028 C 
HETATM    9  C7  UNL     1     -35.381  15.272  -3.004  1.00 20.00     0.028 C 
HETATM   10  C8  UNL     1     -32.974  15.513  -3.667  1.00 20.00     0.028 C 
ENDBRANCH   2   7
TORSDOF 2
ENDMDL
MODEL 9
REMARK VINA RESULT:      -3.5     16.341     17.676
REMARK  2 active torsions:
REMARK  status: ('A' for Active; 'I' for Inactive)
REMARK    1  A    between atoms: C1_1  and  C3_3 
REMARK    2  A    between atoms: C2_2  and  C9_9 
ROOT
HETATM    1  C1  UNL     1     -26.543  18.487  11.651  1.00 20.00    -0.071 C 
HETATM    2  C2  UNL     1     -25.520  17.869  11.530  1.00 20.00    -0.095 C 
ENDROOT
BRANCH   1   3
HETATM    3  C3  UNL     1     -27.788  19.239  11.799  1.00 20.00     0.229 A 
HETATM    4  C4  UNL     1     -29.099  18.529  11.844  1.00 20.00     0.160 A 
HETATM    5  C5  UNL     1     -29.259  17.051  11.771  1.00 20.00     0.043 C 
HETATM    6  O10 UNL     1     -28.613  19.134  10.643  1.00 20.00    -0.363 OA
ENDBRANCH   1   3
BRANCH   2   7
HETATM    7  C9  UNL     1     -24.260  17.109  11.379  1.00 20.00     0.013 C 
HETATM    8  C6  UNL     1     -24.511  15.632  11.718  1.00 20.00     0.028 C 
HETATM    9  C7  UNL     1     -23.201  17.680  12.331  1.00 20.00     0.028 C 
HETATM   10  C8  UNL     1     -23.764  17.226   9.930  1.00 20.00     0.028 C 
ENDBRANCH   2   7
TORSDOF 2
ENDMDL
