MODEL 1
REMARK VINA RESULT:      -4.4      0.000      0.000
REMARK  1 active torsions:
REMARK  status: ('A' for Active; 'I' for Inactive)
REMARK    1  A    between atoms: C5_5  and  O12_12 
ROOT
HETATM    1  C1  UNL     1     -35.388  13.793  -4.072  1.00 20.00     0.006 C 
HETATM    2  C2  UNL     1     -36.091  14.554  -5.203  1.00 20.00     0.012 C 
HETATM    3  C3  UNL     1     -33.729  14.837  -5.382  1.00 20.00     0.017 C 
HETATM    4  C4  UNL     1     -34.063  14.559  -3.909  1.00 20.00    -0.003 C 
HETATM    5  C5  UNL     1     -34.973  16.714  -4.547  1.00 20.00     0.137 C 
HETATM    6  C6  UNL     1     -35.035  15.600  -5.633  1.00 20.00    -0.017 C 
HETATM    7  C7  UNL     1     -34.285  15.998  -3.340  1.00 20.00    -0.017 C 
HETATM    8  C8  UNL     1     -35.219  16.091  -7.056  1.00 20.00     0.018 C 
HETATM    9  C9  UNL     1     -35.186  16.032  -2.096  1.00 20.00     0.018 C 
HETATM   10  C10 UNL     1     -32.927  16.615  -2.941  1.00 20.00     0.018 C 
ENDROOT
BRANCH   5  11
HETATM   11  O12 UNL     1     -34.225  17.826  -5.017  1.00 20.00    -0.389 OA
HETATM   12  C11 UNL     1     -34.933  19.045  -4.838  1.00 20.00     0.202 C 
ENDBRANCH   5  11
TORSDOF 1
ENDMDL
MODEL 2
REMARK VINA RESULT:      -4.3      1.208      3.204
REMARK  1 active torsions:
REMARK  status: ('A' for Active; 'I' for Inactive)
REMARK    1  A    between atoms: C5_5  and  O12_12 
ROOT
HETATM    1  C1  UNL     1     -33.306  16.714  -2.593  1.00 20.00     0.006 C 
HETATM    2  C2  UNL     1     -33.703  17.782  -3.619  1.00 20.00     0.012 C 
HETATM    3  C3  UNL     1     -35.643  16.603  -2.886  1.00 20.00     0.017 C 
HETATM    4  C4  UNL     1     -34.432  15.672  -2.722  1.00 20.00    -0.003 C 
HETATM    5  C5  UNL     1     -34.829  16.066  -5.081  1.00 20.00     0.137 C 
HETATM    6  C6  UNL     1     -35.073  17.280  -4.137  1.00 20.00    -0.017 C 
HETATM    7  C7  UNL     1     -34.390  14.932  -4.098  1.00 20.00    -0.017 C 
HETATM    8  C8  UNL     1     -35.940  18.384  -4.713  1.00 20.00     0.018 C 
HETATM    9  C9  UNL     1     -32.996  14.399  -4.464  1.00 20.00     0.018 C 
HETATM   10  C10 UNL     1     -35.351  13.725  -4.070  1.00 20.00     0.018 C 
ENDROOT
BRANCH   5  11
HETATM   11  O12 UNL     1     -36.015  15.740  -5.790  1.00 20.00    -0.389 OA
HETATM   12  C11 UNL     1     -35.765  15.575  -7.179  1.00 20.00     0.202 C 
ENDBRANCH   5  11
TORSDOF 1
ENDMDL
MODEL 3
REMARK VINA RESULT:      -4.2      1.127      2.943
REMARK  1 active torsions:
REMARK  status: ('A' for Active; 'I' for Inactive)
REMARK    1  A    between atoms: C5_5  and  O12_12 
ROOT
HETATM    1  C1  UNL     1     -34.414  14.143  -3.811  1.00 20.00     0.006 C 
HETATM    2  C2  UNL     1     -33.248  15.139  -3.795  1.00 20.00     0.012 C 
HETATM    3  C3  UNL     1     -34.972  15.887  -2.326  1.00 20.00     0.017 C 
HETATM    4  C4  UNL     1     -35.619  15.012  -3.409  1.00 20.00    -0.003 C 
HETATM    5  C5  UNL     1     -34.771  17.046  -4.420  1.00 20.00     0.137 C 
HETATM    6  C6  UNL     1     -33.905  16.441  -3.277  1.00 20.00    -0.017 C 
HETATM    7  C7  UNL     1     -35.979  16.058  -4.514  1.00 20.00    -0.017 C 
HETATM    8  C8  UNL     1     -32.918  17.398  -2.635  1.00 20.00     0.018 C 
HETATM    9  C9  UNL     1     -36.084  15.451  -5.922  1.00 20.00     0.018 C 
HETATM   10  C10 UNL     1     -37.342  16.708  -4.191  1.00 20.00     0.018 C 
ENDROOT
BRANCH   5  11
HETATM   11  O12 UNL     1     -35.175  18.368  -4.093  1.00 20.00    -0.389 OA
HETATM   12  C11 UNL     1     -34.959  19.263  -5.175  1.00 20.00     0.202 C 
ENDBRANCH   5  11
TORSDOF 1
ENDMDL
MODEL 4
REMARK VINA RESULT:      -4.2      1.419      3.315
REMARK  1 active torsions:
REMARK  status: ('A' for Active; 'I' for Inactive)
REMARK    1  A    between atoms: C5_5  and  O12_12 
ROOT
HETATM    1  C1  UNL     1     -33.099  15.134  -4.178  1.00 20.00     0.006 C 
HETATM    2  C2  UNL     1     -33.227  16.142  -3.030  1.00 20.00     0.012 C 
HETATM    3  C3  UNL     1     -35.178  14.773  -3.126  1.00 20.00     0.017 C 
HETATM    4  C4  UNL     1     -34.564  14.824  -4.533  1.00 20.00    -0.003 C 
HETATM    5  C5  UNL     1     -35.404  17.021  -3.943  1.00 20.00     0.137 C 
HETATM    6  C6  UNL     1     -34.754  16.207  -2.787  1.00 20.00    -0.017 C 
HETATM    7  C7  UNL     1     -35.286  16.057  -5.169  1.00 20.00    -0.017 C 
HETATM    8  C8  UNL     1     -35.121  16.662  -1.387  1.00 20.00     0.018 C 
HETATM    9  C9  UNL     1     -34.490  16.712  -6.307  1.00 20.00     0.018 C 
HETATM   10  C10 UNL     1     -36.647  15.620  -5.752  1.00 20.00     0.018 C 
ENDROOT
BRANCH   5  11
HETATM   11  O12 UNL     1     -36.753  17.338  -3.631  1.00 20.00    -0.389 OA
HETATM   12  C11 UNL     1     -37.018  18.723  -3.809  1.00 20.00     0.202 C 
ENDBRANCH   5  11
TORSDOF 1
ENDMDL
MODEL 5
REMARK VINA RESULT:      -4.1      1.238      3.010
REMARK  1 active torsions:
REMARK  status: ('A' for Active; 'I' for Inactive)
REMARK    1  A    between atoms: C5_5  and  O12_12 
ROOT
HETATM    1  C1  UNL     1     -34.153  17.215  -1.571  1.00 20.00     0.006 C 
HETATM    2  C2  UNL     1     -34.979  15.991  -1.984  1.00 20.00     0.012 C 
HETATM    3  C3  UNL     1     -33.056  16.178  -3.383  1.00 20.00     0.017 C 
HETATM    4  C4  UNL     1     -33.404  17.582  -2.865  1.00 20.00    -0.003 C 
HETATM    5  C5  UNL     1     -35.156  16.817  -4.358  1.00 20.00     0.137 C 
HETATM    6  C6  UNL     1     -34.521  15.732  -3.440  1.00 20.00    -0.017 C 
HETATM    7  C7  UNL     1     -34.373  18.114  -3.971  1.00 20.00    -0.017 C 
HETATM    8  C8  UNL     1     -34.731  14.299  -3.891  1.00 20.00     0.018 C 
HETATM    9  C9  UNL     1     -35.333  19.205  -3.470  1.00 20.00     0.018 C 
HETATM   10  C10 UNL     1     -33.556  18.719  -5.132  1.00 20.00     0.018 C 
ENDROOT
BRANCH   5  11
HETATM   11  O12 UNL     1     -34.990  16.471  -5.725  1.00 20.00    -0.389 OA
HETATM   12  C11 UNL     1     -36.224  16.517  -6.429  1.00 20.00     0.202 C 
ENDBRANCH   5  11
TORSDOF 1
ENDMDL
MODEL 6
REMARK VINA RESULT:      -4.1      1.701      3.435
REMARK  1 active torsions:
REMARK  status: ('A' for Active; 'I' for Inactive)
REMARK    1  A    between atoms: C5_5  and  O12_12 
ROOT
HETATM    1  C1  UNL     1     -33.068  16.217  -3.383  1.00 20.00     0.006 C 
HETATM    2  C2  UNL     1     -33.834  17.545  -3.419  1.00 20.00     0.012 C 
HETATM    3  C3  UNL     1     -35.113  15.904  -2.252  1.00 20.00     0.017 C 
HETATM    4  C4  UNL     1     -34.190  15.173  -3.237  1.00 20.00    -0.003 C 
HETATM    5  C5  UNL     1     -35.840  16.447  -4.476  1.00 20.00     0.137 C 
HETATM    6  C6  UNL     1     -35.300  17.113  -3.176  1.00 20.00    -0.017 C 
HETATM    7  C7  UNL     1     -35.076  15.084  -4.523  1.00 20.00    -0.017 C 
HETATM    8  C8  UNL     1     -36.168  18.219  -2.607  1.00 20.00     0.018 C 
HETATM    9  C9  UNL     1     -34.263  14.954  -5.820  1.00 20.00     0.018 C 
HETATM   10  C10 UNL     1     -35.998  13.849  -4.434  1.00 20.00     0.018 C 
ENDROOT
BRANCH   5  11
HETATM   11  O12 UNL     1     -37.248  16.278  -4.401  1.00 20.00    -0.389 OA
HETATM   12  C11 UNL     1     -37.896  16.767  -5.568  1.00 20.00     0.202 C 
ENDBRANCH   5  11
TORSDOF 1
ENDMDL
MODEL 7
REMARK VINA RESULT:      -4.1      1.399      2.523
REMARK  1 active torsions:
REMARK  status: ('A' for Active; 'I' for Inactive)
REMARK    1  A    between atoms: C5_5  and  O12_12 
ROOT
HETATM    1  C1  UNL     1     -35.550  16.662  -1.936  1.00 20.00     0.006 C 
HETATM    2  C2  UNL     1     -36.429  17.293  -3.022  1.00 20.00     0.012 C 
HETATM    3  C3  UNL     1     -36.012  15.003  -3.546  1.00 20.00     0.017 C 
HETATM    4  C4  UNL     1     -34.850  15.511  -2.680  1.00 20.00    -0.003 C 
HETATM    5  C5  UNL     1     -34.801  16.634  -4.828  1.00 20.00     0.137 C 
HETATM    6  C6  UNL     1     -36.214  16.357  -4.236  1.00 20.00    -0.017 C 
HETATM    7  C7  UNL     1     -33.839  16.036  -3.751  1.00 20.00    -0.017 C 
HETATM    8  C8  UNL     1     -37.354  16.396  -5.235  1.00 20.00     0.018 C 
HETATM    9  C9  UNL     1     -32.881  17.111  -3.214  1.00 20.00     0.018 C 
HETATM   10  C10 UNL     1     -32.974  14.866  -4.267  1.00 20.00     0.018 C 
ENDROOT
BRANCH   5  11
HETATM   11  O12 UNL     1     -34.659  16.003  -6.093  1.00 20.00    -0.389 OA
HETATM   12  C11 UNL     1     -34.305  16.935  -7.105  1.00 20.00     0.202 C 
ENDBRANCH   5  11
TORSDOF 1
ENDMDL
MODEL 8
REMARK VINA RESULT:      -3.9      1.705      2.668
REMARK  1 active torsions:
REMARK  status: ('A' for Active; 'I' for Inactive)
REMARK    1  A    between atoms: C5_5  and  O12_12 
ROOT
HETATM    1  C1  UNL     1     -33.092  15.655  -3.610  1.00 20.00     0.006 C 
HETATM    2  C2  UNL     1     -33.823  14.526  -4.347  1.00 20.00     0.012 C 
HETATM    3  C3  UNL     1     -34.414  16.630  -5.301  1.00 20.00     0.017 C 
HETATM    4  C4  UNL     1     -34.009  16.870  -3.839  1.00 20.00    -0.003 C 
HETATM    5  C5  UNL     1     -36.065  15.586  -3.905  1.00 20.00     0.137 C 
HETATM    6  C6  UNL     1     -35.018  15.253  -5.008  1.00 20.00    -0.017 C 
HETATM    7  C7  UNL     1     -35.372  16.724  -3.087  1.00 20.00    -0.017 C 
HETATM    8  C8  UNL     1     -35.566  14.528  -6.223  1.00 20.00     0.018 C 
HETATM    9  C9  UNL     1     -35.217  16.324  -1.612  1.00 20.00     0.018 C 
HETATM   10  C10 UNL     1     -36.131  18.067  -3.122  1.00 20.00     0.018 C 
ENDROOT
BRANCH   5  11
HETATM   11  O12 UNL     1     -37.289  16.006  -4.490  1.00 20.00    -0.389 OA
HETATM   12  C11 UNL     1     -38.363  15.150  -4.125  1.00 20.00     0.202 C 
ENDBRANCH   5  11
TORSDOF 1
ENDMDL
MODEL 9
REMARK VINA RESULT:      -3.8      1.669      3.087
REMARK  1 active torsions:
REMARK  status: ('A' for Active; 'I' for Inactive)
REMARK    1  A    between atoms: C5_5  and  O12_12 
ROOT
HETATM    1  C1  UNL     1     -34.434  15.662  -2.999  1.00 20.00     0.006 C 
HETATM    2  C2  UNL     1     -35.960  15.802  -2.951  1.00 20.00     0.012 C 
HETATM    3  C3  UNL     1     -35.360  13.942  -4.319  1.00 20.00     0.017 C 
HETATM    4  C4  UNL     1     -34.193  14.940  -4.337  1.00 20.00    -0.003 C 
HETATM    5  C5  UNL     1     -36.105  15.918  -5.463  1.00 20.00     0.137 C 
HETATM    6  C6  UNL     1     -36.423  15.042  -4.217  1.00 20.00    -0.017 C 
HETATM    7  C7  UNL     1     -34.546  15.845  -5.562  1.00 20.00    -0.017 C 
HETATM    8  C8  UNL     1     -37.851  14.537  -4.128  1.00 20.00     0.018 C 
HETATM    9  C9  UNL     1     -33.925  17.249  -5.485  1.00 20.00     0.018 C 
HETATM   10  C10 UNL     1     -34.033  15.186  -6.860  1.00 20.00     0.018 C 
ENDROOT
BRANCH   5  11
HETATM   11  O12 UNL     1     -36.746  15.395  -6.617  1.00 20.00    -0.389 OA
HETATM   12  C11 UNL     1     -37.376  16.419  -7.374  1.00 20.00     0.202 C 
ENDBRANCH   5  11
TORSDOF 1
ENDMDL
