MODEL 1
REMARK VINA RESULT:      -5.8      0.000      0.000
REMARK  0 active torsions:
REMARK  status: ('A' for Active; 'I' for Inactive)
ROOT
HETATM    1  C1  UNL     1     -23.206  17.515  11.347  1.00 20.00     0.014 A 
HETATM    2  C2  UNL     1     -24.370  18.003  11.943  1.00 20.00     0.024 A 
HETATM    3  C3  UNL     1     -21.830  17.200   9.341  1.00 20.00     0.031 A 
HETATM    4  C4  UNL     1     -25.128  18.826   9.805  1.00 20.00     0.039 A 
HETATM    5  C5  UNL     1     -21.688  17.399   7.977  1.00 20.00     0.119 A 
HETATM    6  C6  UNL     1     -22.987  17.676   9.970  1.00 20.00    -0.021 A 
HETATM    7  C7  UNL     1     -23.960  18.340   9.194  1.00 20.00     0.016 A 
HETATM    8  C8  UNL     1     -25.329  18.657  11.174  1.00 20.00     0.035 A 
HETATM    9  C9  UNL     1     -23.708  18.482   7.827  1.00 20.00     0.136 A 
HETATM   10  N10 UNL     1     -22.599  18.028   7.202  1.00 20.00    -0.248 NA
HETATM   11 CL11 UNL     1     -26.763  19.255  11.916  1.00 20.00    -0.084 Cl
HETATM   12 CL12 UNL     1     -24.786  19.263   6.728  1.00 20.00    -0.061 Cl
ENDROOT
TORSDOF 0
ENDMDL
MODEL 2
REMARK VINA RESULT:      -5.1     14.477     15.991
REMARK  0 active torsions:
REMARK  status: ('A' for Active; 'I' for Inactive)
ROOT
HETATM    1  C1  UNL     1     -32.886  16.251  -3.354  1.00 20.00     0.014 A 
HETATM    2  C2  UNL     1     -33.805  15.365  -3.919  1.00 20.00     0.024 A 
HETATM    3  C3  UNL     1     -32.326  17.897  -1.625  1.00 20.00     0.031 A 
HETATM    4  C4  UNL     1     -35.423  15.953  -2.228  1.00 20.00     0.039 A 
HETATM    5  C5  UNL     1     -32.735  18.601  -0.503  1.00 20.00     0.119 A 
HETATM    6  C6  UNL     1     -33.224  17.001  -2.217  1.00 20.00    -0.021 A 
HETATM    7  C7  UNL     1     -34.507  16.848  -1.650  1.00 20.00     0.016 A 
HETATM    8  C8  UNL     1     -35.071  15.217  -3.358  1.00 20.00     0.035 A 
HETATM    9  C9  UNL     1     -34.807  17.610  -0.519  1.00 20.00     0.136 A 
HETATM   10  N10 UNL     1     -33.954  18.481   0.066  1.00 20.00    -0.248 NA
HETATM   11 CL11 UNL     1     -36.199  14.123  -4.061  1.00 20.00    -0.084 Cl
HETATM   12 CL12 UNL     1     -36.324  17.552   0.303  1.00 20.00    -0.061 Cl
ENDROOT
TORSDOF 0
ENDMDL
MODEL 3
REMARK VINA RESULT:      -4.9     15.548     16.760
REMARK  0 active torsions:
REMARK  status: ('A' for Active; 'I' for Inactive)
ROOT
HETATM    1  C1  UNL     1     -33.163  17.014  -2.125  1.00 20.00     0.014 A 
HETATM    2  C2  UNL     1     -34.037  17.644  -1.238  1.00 20.00     0.024 A 
HETATM    3  C3  UNL     1     -32.788  15.405  -3.937  1.00 20.00     0.031 A 
HETATM    4  C4  UNL     1     -35.881  16.377  -2.142  1.00 20.00     0.039 A 
HETATM    5  C5  UNL     1     -33.333  14.470  -4.803  1.00 20.00     0.119 A 
HETATM    6  C6  UNL     1     -33.637  16.055  -3.034  1.00 20.00    -0.021 A 
HETATM    7  C7  UNL     1     -35.011  15.736  -3.040  1.00 20.00     0.016 A 
HETATM    8  C8  UNL     1     -35.393  17.327  -1.246  1.00 20.00     0.035 A 
HETATM    9  C9  UNL     1     -35.447  14.777  -3.958  1.00 20.00     0.136 A 
HETATM   10  N10 UNL     1     -34.642  14.138  -4.837  1.00 20.00    -0.248 NA
HETATM   11 CL11 UNL     1     -36.464  18.108  -0.148  1.00 20.00    -0.084 Cl
HETATM   12 CL12 UNL     1     -37.088  14.263  -4.105  1.00 20.00    -0.061 Cl
ENDROOT
TORSDOF 0
ENDMDL
MODEL 4
REMARK VINA RESULT:      -4.8     15.380     16.789
REMARK  0 active torsions:
REMARK  status: ('A' for Active; 'I' for Inactive)
ROOT
HETATM    1  C1  UNL     1     -35.725  17.094  -1.975  1.00 20.00     0.014 A 
HETATM    2  C2  UNL     1     -34.684  17.837  -1.415  1.00 20.00     0.024 A 
HETATM    3  C3  UNL     1     -36.472  15.273  -3.437  1.00 20.00     0.031 A 
HETATM    4  C4  UNL     1     -33.072  16.491  -2.605  1.00 20.00     0.039 A 
HETATM    5  C5  UNL     1     -36.122  14.247  -4.301  1.00 20.00     0.119 A 
HETATM    6  C6  UNL     1     -35.453  16.038  -2.859  1.00 20.00    -0.021 A 
HETATM    7  C7  UNL     1     -34.112  15.736  -3.174  1.00 20.00     0.016 A 
HETATM    8  C8  UNL     1     -33.361  17.536  -1.729  1.00 20.00     0.035 A 
HETATM    9  C9  UNL     1     -33.879  14.679  -4.057  1.00 20.00     0.136 A 
HETATM   10  N10 UNL     1     -34.850  13.929  -4.626  1.00 20.00    -0.248 NA
HETATM   11 CL11 UNL     1     -32.083  18.457  -1.034  1.00 20.00    -0.084 Cl
HETATM   12 CL12 UNL     1     -32.306  14.170  -4.555  1.00 20.00    -0.061 Cl
ENDROOT
TORSDOF 0
ENDMDL
MODEL 5
REMARK VINA RESULT:      -4.8     16.635     17.907
REMARK  0 active torsions:
REMARK  status: ('A' for Active; 'I' for Inactive)
ROOT
HETATM    1  C1  UNL     1     -33.299  16.210  -3.634  1.00 20.00     0.014 A 
HETATM    2  C2  UNL     1     -33.578  16.625  -2.331  1.00 20.00     0.024 A 
HETATM    3  C3  UNL     1     -34.056  15.213  -5.743  1.00 20.00     0.031 A 
HETATM    4  C4  UNL     1     -35.870  15.913  -2.588  1.00 20.00     0.039 A 
HETATM    5  C5  UNL     1     -35.100  14.660  -6.467  1.00 20.00     0.119 A 
HETATM    6  C6  UNL     1     -34.303  15.639  -4.432  1.00 20.00    -0.021 A 
HETATM    7  C7  UNL     1     -35.601  15.491  -3.901  1.00 20.00     0.016 A 
HETATM    8  C8  UNL     1     -34.861  16.477  -1.809  1.00 20.00     0.035 A 
HETATM    9  C9  UNL     1     -36.574  14.920  -4.724  1.00 20.00     0.136 A 
HETATM   10  N10 UNL     1     -36.355  14.502  -5.991  1.00 20.00    -0.248 NA
HETATM   11 CL11 UNL     1     -35.198  16.992  -0.201  1.00 20.00    -0.084 Cl
HETATM   12 CL12 UNL     1     -38.211  14.662  -4.241  1.00 20.00    -0.061 Cl
ENDROOT
TORSDOF 0
ENDMDL
MODEL 6
REMARK VINA RESULT:      -4.7     14.252     15.895
REMARK  0 active torsions:
REMARK  status: ('A' for Active; 'I' for Inactive)
ROOT
HETATM    1  C1  UNL     1     -35.768  15.971  -2.337  1.00 20.00     0.014 A 
HETATM    2  C2  UNL     1     -35.061  15.272  -3.317  1.00 20.00     0.024 A 
HETATM    3  C3  UNL     1     -35.798  17.633  -0.535  1.00 20.00     0.031 A 
HETATM    4  C4  UNL     1     -33.040  16.439  -2.703  1.00 20.00     0.039 A 
HETATM    5  C5  UNL     1     -35.087  18.548   0.225  1.00 20.00     0.119 A 
HETATM    6  C6  UNL     1     -35.119  16.915  -1.526  1.00 20.00    -0.021 A 
HETATM    7  C7  UNL     1     -33.741  17.149  -1.713  1.00 20.00     0.016 A 
HETATM    8  C8  UNL     1     -33.700  15.505  -3.500  1.00 20.00     0.035 A 
HETATM    9  C9  UNL     1     -33.129  18.096  -0.888  1.00 20.00     0.136 A 
HETATM   10  N10 UNL     1     -33.768  18.798   0.075  1.00 20.00    -0.248 NA
HETATM   11 CL11 UNL     1     -32.835  14.639  -4.710  1.00 20.00    -0.084 Cl
HETATM   12 CL12 UNL     1     -31.455  18.509  -0.976  1.00 20.00    -0.061 Cl
ENDROOT
TORSDOF 0
ENDMDL
MODEL 7
REMARK VINA RESULT:      -4.6     16.393     17.808
REMARK  0 active torsions:
REMARK  status: ('A' for Active; 'I' for Inactive)
ROOT
HETATM    1  C1  UNL     1     -34.901  15.828  -2.255  1.00 20.00     0.014 A 
HETATM    2  C2  UNL     1     -34.065  16.927  -2.052  1.00 20.00     0.024 A 
HETATM    3  C3  UNL     1     -35.952  14.227  -3.787  1.00 20.00     0.031 A 
HETATM    4  C4  UNL     1     -33.645  17.056  -4.425  1.00 20.00     0.039 A 
HETATM    5  C5  UNL     1     -36.118  13.792  -5.093  1.00 20.00     0.119 A 
HETATM    6  C6  UNL     1     -35.121  15.327  -3.549  1.00 20.00    -0.021 A 
HETATM    7  C7  UNL     1     -34.484  15.950  -4.642  1.00 20.00     0.016 A 
HETATM    8  C8  UNL     1     -33.438  17.540  -3.134  1.00 20.00     0.035 A 
HETATM    9  C9  UNL     1     -34.725  15.424  -5.914  1.00 20.00     0.136 A 
HETATM   10  N10 UNL     1     -35.525  14.363  -6.164  1.00 20.00    -0.248 NA
HETATM   11 CL11 UNL     1     -32.409  18.895  -2.875  1.00 20.00    -0.084 Cl
HETATM   12 CL12 UNL     1     -34.033  16.058  -7.363  1.00 20.00    -0.061 Cl
ENDROOT
TORSDOF 0
ENDMDL
MODEL 8
REMARK VINA RESULT:      -4.5     13.420     14.929
REMARK  0 active torsions:
REMARK  status: ('A' for Active; 'I' for Inactive)
ROOT
HETATM    1  C1  UNL     1     -32.565  17.509  -1.919  1.00 20.00     0.014 A 
HETATM    2  C2  UNL     1     -33.328  16.669  -2.731  1.00 20.00     0.024 A 
HETATM    3  C3  UNL     1     -32.340  18.832   0.133  1.00 20.00     0.031 A 
HETATM    4  C4  UNL     1     -35.139  16.763  -1.139  1.00 20.00     0.039 A 
HETATM    5  C5  UNL     1     -32.919  19.263   1.317  1.00 20.00     0.119 A 
HETATM    6  C6  UNL     1     -33.079  17.989  -0.704  1.00 20.00    -0.021 A 
HETATM    7  C7  UNL     1     -34.380  17.609  -0.313  1.00 20.00     0.016 A 
HETATM    8  C8  UNL     1     -34.612  16.296  -2.342  1.00 20.00     0.035 A 
HETATM    9  C9  UNL     1     -34.859  18.106   0.902  1.00 20.00     0.136 A 
HETATM   10  N10 UNL     1     -34.161  18.921   1.723  1.00 20.00    -0.248 NA
HETATM   11 CL11 UNL     1     -35.548  15.260  -3.349  1.00 20.00    -0.084 Cl
HETATM   12 CL12 UNL     1     -36.424  17.747   1.536  1.00 20.00    -0.061 Cl
ENDROOT
TORSDOF 0
ENDMDL
MODEL 9
REMARK VINA RESULT:      -4.3     16.180     17.523
REMARK  0 active torsions:
REMARK  status: ('A' for Active; 'I' for Inactive)
ROOT
HETATM    1  C1  UNL     1     -36.705  16.930  -3.043  1.00 20.00     0.014 A 
HETATM    2  C2  UNL     1     -36.073  17.484  -1.929  1.00 20.00     0.024 A 
HETATM    3  C3  UNL     1     -36.617  15.483  -5.020  1.00 20.00     0.031 A 
HETATM    4  C4  UNL     1     -34.041  16.308  -2.488  1.00 20.00     0.039 A 
HETATM    5  C5  UNL     1     -35.866  14.630  -5.813  1.00 20.00     0.119 A 
HETATM    6  C6  UNL     1     -36.012  16.056  -3.896  1.00 20.00    -0.021 A 
HETATM    7  C7  UNL     1     -34.667  15.744  -3.612  1.00 20.00     0.016 A 
HETATM    8  C8  UNL     1     -34.744  17.174  -1.651  1.00 20.00     0.035 A 
HETATM    9  C9  UNL     1     -34.010  14.872  -4.483  1.00 20.00     0.136 A 
HETATM   10  N10 UNL     1     -34.576  14.309  -5.574  1.00 20.00    -0.248 NA
HETATM   11 CL11 UNL     1     -33.970  17.862  -0.276  1.00 20.00    -0.084 Cl
HETATM   12 CL12 UNL     1     -32.366  14.381  -4.292  1.00 20.00    -0.061 Cl
ENDROOT
TORSDOF 0
ENDMDL
