MODEL 1
REMARK VINA RESULT:      -4.4      0.000      0.000
REMARK  0 active torsions:
REMARK  status: ('A' for Active; 'I' for Inactive)
ROOT
HETATM    1  C1  UNL     1     -35.223   5.031   4.797  1.00 20.00     0.003 C 
HETATM    2  C2  UNL     1     -34.494   5.720   5.949  1.00 20.00     0.003 C 
HETATM    3  C3  UNL     1     -34.239   5.137   3.630  1.00 20.00     0.040 C 
HETATM    4  C4  UNL     1     -33.813   6.919   5.284  1.00 20.00     0.040 C 
HETATM    5  C5  UNL     1     -32.352   6.898   3.083  1.00 20.00     0.207 A 
HETATM    6  C6  UNL     1     -33.527   6.426   3.898  1.00 20.00     0.082 A 
HETATM    7  O7  UNL     1     -33.671   7.418   2.872  1.00 20.00    -0.375 OA
ENDROOT
TORSDOF 0
ENDMDL
MODEL 2
REMARK VINA RESULT:      -4.1      1.030      1.835
REMARK  0 active torsions:
REMARK  status: ('A' for Active; 'I' for Inactive)
ROOT
HETATM    1  C1  UNL     1     -34.401   5.750   5.279  1.00 20.00     0.003 C 
HETATM    2  C2  UNL     1     -34.765   4.800   4.140  1.00 20.00     0.003 C 
HETATM    3  C3  UNL     1     -33.936   7.017   4.559  1.00 20.00     0.040 C 
HETATM    4  C4  UNL     1     -33.673   5.047   3.096  1.00 20.00     0.040 C 
HETATM    5  C5  UNL     1     -32.844   7.384   2.185  1.00 20.00     0.207 A 
HETATM    6  C6  UNL     1     -33.326   6.491   3.298  1.00 20.00     0.082 A 
HETATM    7  O7  UNL     1     -31.935   6.799   3.126  1.00 20.00    -0.375 OA
ENDROOT
TORSDOF 0
ENDMDL
MODEL 3
REMARK VINA RESULT:      -4.0      1.512      3.126
REMARK  0 active torsions:
REMARK  status: ('A' for Active; 'I' for Inactive)
ROOT
HETATM    1  C1  UNL     1     -33.017   6.459   2.520  1.00 20.00     0.003 C 
HETATM    2  C2  UNL     1     -32.845   4.943   2.453  1.00 20.00     0.003 C 
HETATM    3  C3  UNL     1     -33.499   6.705   3.952  1.00 20.00     0.040 C 
HETATM    4  C4  UNL     1     -34.041   4.404   3.242  1.00 20.00     0.040 C 
HETATM    5  C5  UNL     1     -34.850   5.185   5.633  1.00 20.00     0.207 A 
HETATM    6  C6  UNL     1     -34.284   5.470   4.267  1.00 20.00     0.082 A 
HETATM    7  O7  UNL     1     -35.667   5.698   4.573  1.00 20.00    -0.375 OA
ENDROOT
TORSDOF 0
ENDMDL
MODEL 4
REMARK VINA RESULT:      -3.8     11.503     12.074
REMARK  0 active torsions:
REMARK  status: ('A' for Active; 'I' for Inactive)
ROOT
HETATM    1  C1  UNL     1     -32.976  15.512  -3.740  1.00 20.00     0.003 C 
HETATM    2  C2  UNL     1     -34.064  16.173  -2.895  1.00 20.00     0.003 C 
HETATM    3  C3  UNL     1     -33.758  14.816  -4.856  1.00 20.00     0.040 C 
HETATM    4  C4  UNL     1     -35.188  15.135  -2.870  1.00 20.00     0.040 C 
HETATM    5  C5  UNL     1     -36.212  13.848  -4.937  1.00 20.00     0.207 A 
HETATM    6  C6  UNL     1     -35.047  14.443  -4.191  1.00 20.00     0.082 A 
HETATM    7  O7  UNL     1     -35.323  13.035  -4.160  1.00 20.00    -0.375 OA
ENDROOT
TORSDOF 0
ENDMDL
MODEL 5
REMARK VINA RESULT:      -3.6      8.719      9.328
REMARK  0 active torsions:
REMARK  status: ('A' for Active; 'I' for Inactive)
ROOT
HETATM    1  C1  UNL     1     -41.244   8.554  -0.389  1.00 20.00     0.003 C 
HETATM    2  C2  UNL     1     -41.952   7.944   0.820  1.00 20.00     0.003 C 
HETATM    3  C3  UNL     1     -41.545   7.568  -1.520  1.00 20.00     0.040 C 
HETATM    4  C4  UNL     1     -41.699   6.442   0.671  1.00 20.00     0.040 C 
HETATM    5  C5  UNL     1     -42.049   4.978  -1.499  1.00 20.00     0.207 A 
HETATM    6  C6  UNL     1     -41.629   6.251  -0.813  1.00 20.00     0.082 A 
HETATM    7  O7  UNL     1     -40.670   5.274  -1.243  1.00 20.00    -0.375 OA
ENDROOT
TORSDOF 0
ENDMDL
MODEL 6
REMARK VINA RESULT:      -3.6      1.550      2.525
REMARK  0 active torsions:
REMARK  status: ('A' for Active; 'I' for Inactive)
ROOT
HETATM    1  C1  UNL     1     -34.274   6.786   6.404  1.00 20.00     0.003 C 
HETATM    2  C2  UNL     1     -33.324   7.295   5.321  1.00 20.00     0.003 C 
HETATM    3  C3  UNL     1     -34.460   5.308   6.056  1.00 20.00     0.040 C 
HETATM    4  C4  UNL     1     -33.808   6.591   4.051  1.00 20.00     0.040 C 
HETATM    5  C5  UNL     1     -34.324   4.017   3.759  1.00 20.00     0.207 A 
HETATM    6  C6  UNL     1     -34.345   5.289   4.564  1.00 20.00     0.082 A 
HETATM    7  O7  UNL     1     -35.510   4.813   3.875  1.00 20.00    -0.375 OA
ENDROOT
TORSDOF 0
ENDMDL
MODEL 7
REMARK VINA RESULT:      -3.6     11.700     12.344
REMARK  0 active torsions:
REMARK  status: ('A' for Active; 'I' for Inactive)
ROOT
HETATM    1  C1  UNL     1     -33.758  16.488  -2.208  1.00 20.00     0.003 C 
HETATM    2  C2  UNL     1     -35.212  16.036  -2.332  1.00 20.00     0.003 C 
HETATM    3  C3  UNL     1     -33.225  16.393  -3.639  1.00 20.00     0.040 C 
HETATM    4  C4  UNL     1     -35.149  14.878  -3.331  1.00 20.00     0.040 C 
HETATM    5  C5  UNL     1     -33.922  14.861  -5.671  1.00 20.00     0.207 A 
HETATM    6  C6  UNL     1     -34.000  15.251  -4.219  1.00 20.00     0.082 A 
HETATM    7  O7  UNL     1     -33.203  14.143  -4.659  1.00 20.00    -0.375 OA
ENDROOT
TORSDOF 0
ENDMDL
MODEL 8
REMARK VINA RESULT:      -3.5      9.035      9.296
REMARK  0 active torsions:
REMARK  status: ('A' for Active; 'I' for Inactive)
ROOT
HETATM    1  C1  UNL     1     -41.689   6.045  -1.127  1.00 20.00     0.003 C 
HETATM    2  C2  UNL     1     -41.736   5.785   0.377  1.00 20.00     0.003 C 
HETATM    3  C3  UNL     1     -41.197   7.490  -1.230  1.00 20.00     0.040 C 
HETATM    4  C4  UNL     1     -42.271   7.097   0.957  1.00 20.00     0.040 C 
HETATM    5  C5  UNL     1     -41.419   9.538   0.419  1.00 20.00     0.207 A 
HETATM    6  C6  UNL     1     -41.754   8.130   0.003  1.00 20.00     0.082 A 
HETATM    7  O7  UNL     1     -42.653   9.222  -0.238  1.00 20.00    -0.375 OA
ENDROOT
TORSDOF 0
ENDMDL
MODEL 9
REMARK VINA RESULT:      -3.5     16.462     17.088
REMARK  0 active torsions:
REMARK  status: ('A' for Active; 'I' for Inactive)
ROOT
HETATM    1  C1  UNL     1     -24.601  18.095  11.322  1.00 20.00     0.003 C 
HETATM    2  C2  UNL     1     -23.413  17.402  11.987  1.00 20.00     0.003 C 
HETATM    3  C3  UNL     1     -24.321  17.937   9.826  1.00 20.00     0.040 C 
HETATM    4  C4  UNL     1     -22.221  17.805  11.116  1.00 20.00     0.040 C 
HETATM    5  C5  UNL     1     -22.065  17.687   8.482  1.00 20.00     0.207 A 
HETATM    6  C6  UNL     1     -22.826  17.953   9.753  1.00 20.00     0.082 A 
HETATM    7  O7  UNL     1     -22.273  19.019   8.968  1.00 20.00    -0.375 OA
ENDROOT
TORSDOF 0
ENDMDL
