MODEL 1
REMARK VINA RESULT:      -5.2      0.000      0.000
REMARK  1 active torsions:
REMARK  status: ('A' for Active; 'I' for Inactive)
REMARK    1  A    between atoms: C2_2  and  C4_4 
ROOT
HETATM    1  C1  UNL     1     -32.375   6.892   2.581  1.00 20.00     0.236 A 
HETATM    2  C2  UNL     1     -33.783   6.004   3.961  1.00 20.00     0.199 A 
HETATM    3  C3  UNL     1     -33.122   7.030   4.605  1.00 20.00     0.245 A 
HETATM    4  N5  UNL     1     -33.309   5.926   2.699  1.00 20.00    -0.233 NA
HETATM    5  N6  UNL     1     -32.245   7.578   3.737  1.00 20.00    -0.212 NA
HETATM    6  F7  UNL     1     -33.311   7.418   5.866  1.00 20.00    -0.182 F 
ENDROOT
BRANCH   2   7
HETATM    7  C4  UNL     1     -34.827   5.091   4.442  1.00 20.00     0.439 C 
HETATM    8  F8  UNL     1     -34.912   4.993   5.811  1.00 20.00    -0.164 F 
HETATM    9  F9  UNL     1     -36.102   5.427   4.051  1.00 20.00    -0.164 F 
HETATM   10  F10 UNL     1     -34.664   3.797   4.012  1.00 20.00    -0.164 F 
ENDBRANCH   2   7
TORSDOF 1
ENDMDL
MODEL 2
REMARK VINA RESULT:      -5.2      1.190      2.206
REMARK  1 active torsions:
REMARK  status: ('A' for Active; 'I' for Inactive)
REMARK    1  A    between atoms: C2_2  and  C4_4 
ROOT
HETATM    1  C1  UNL     1     -32.202   7.475   3.336  1.00 20.00     0.236 A 
HETATM    2  C2  UNL     1     -33.716   6.059   3.951  1.00 20.00     0.199 A 
HETATM    3  C3  UNL     1     -33.229   5.677   2.717  1.00 20.00     0.245 A 
HETATM    4  N5  UNL     1     -33.069   7.183   4.328  1.00 20.00    -0.233 NA
HETATM    5  N6  UNL     1     -32.285   6.566   2.341  1.00 20.00    -0.212 NA
HETATM    6  F7  UNL     1     -33.619   4.614   2.012  1.00 20.00    -0.182 F 
ENDROOT
BRANCH   2   7
HETATM    7  C4  UNL     1     -34.744   5.448   4.802  1.00 20.00     0.439 C 
HETATM    8  F8  UNL     1     -34.535   4.118   5.084  1.00 20.00    -0.164 F 
HETATM    9  F9  UNL     1     -34.881   6.035   6.038  1.00 20.00    -0.164 F 
HETATM   10  F10 UNL     1     -36.004   5.492   4.256  1.00 20.00    -0.164 F 
ENDBRANCH   2   7
TORSDOF 1
ENDMDL
MODEL 3
REMARK VINA RESULT:      -5.2      2.373      3.595
REMARK  1 active torsions:
REMARK  status: ('A' for Active; 'I' for Inactive)
REMARK    1  A    between atoms: C2_2  and  C4_4 
ROOT
HETATM    1  C1  UNL     1     -34.385   6.496   6.283  1.00 20.00     0.236 A 
HETATM    2  C2  UNL     1     -33.617   6.330   4.268  1.00 20.00     0.199 A 
HETATM    3  C3  UNL     1     -34.438   5.250   4.518  1.00 20.00     0.245 A 
HETATM    4  N5  UNL     1     -33.589   7.102   5.377  1.00 20.00    -0.233 NA
HETATM    5  N6  UNL     1     -34.913   5.362   5.777  1.00 20.00    -0.212 NA
HETATM    6  F7  UNL     1     -34.720   4.262   3.668  1.00 20.00    -0.182 F 
ENDROOT
BRANCH   2   7
HETATM    7  C4  UNL     1     -32.854   6.691   3.068  1.00 20.00     0.439 C 
HETATM    8  F8  UNL     1     -33.477   7.604   2.249  1.00 20.00    -0.164 F 
HETATM    9  F9  UNL     1     -31.625   7.256   3.322  1.00 20.00    -0.164 F 
HETATM   10  F10 UNL     1     -32.580   5.623   2.250  1.00 20.00    -0.164 F 
ENDBRANCH   2   7
TORSDOF 1
ENDMDL
MODEL 4
REMARK VINA RESULT:      -5.2      2.353      3.264
REMARK  1 active torsions:
REMARK  status: ('A' for Active; 'I' for Inactive)
REMARK    1  A    between atoms: C2_2  and  C4_4 
ROOT
HETATM    1  C1  UNL     1     -35.167   4.972   4.827  1.00 20.00     0.236 A 
HETATM    2  C2  UNL     1     -33.649   6.294   4.036  1.00 20.00     0.199 A 
HETATM    3  C3  UNL     1     -33.844   6.594   5.369  1.00 20.00     0.245 A 
HETATM    4  N5  UNL     1     -34.480   5.281   3.708  1.00 20.00    -0.233 NA
HETATM    5  N6  UNL     1     -34.793   5.764   5.855  1.00 20.00    -0.212 NA
HETATM    6  F7  UNL     1     -33.210   7.538   6.064  1.00 20.00    -0.182 F 
ENDROOT
BRANCH   2   7
HETATM    7  C4  UNL     1     -32.742   6.888   3.047  1.00 20.00     0.439 C 
HETATM    8  F8  UNL     1     -33.334   7.802   2.207  1.00 20.00    -0.164 F 
HETATM    9  F9  UNL     1     -31.679   7.572   3.589  1.00 20.00    -0.164 F 
HETATM   10  F10 UNL     1     -32.167   5.966   2.207  1.00 20.00    -0.164 F 
ENDBRANCH   2   7
TORSDOF 1
ENDMDL
MODEL 5
REMARK VINA RESULT:      -5.1      1.096      2.407
REMARK  1 active torsions:
REMARK  status: ('A' for Active; 'I' for Inactive)
REMARK    1  A    between atoms: C2_2  and  C4_4 
ROOT
HETATM    1  C1  UNL     1     -32.856   6.589   2.624  1.00 20.00     0.236 A 
HETATM    2  C2  UNL     1     -33.847   5.840   4.393  1.00 20.00     0.199 A 
HETATM    3  C3  UNL     1     -33.821   4.838   3.444  1.00 20.00     0.245 A 
HETATM    4  N5  UNL     1     -33.243   6.929   3.871  1.00 20.00    -0.233 NA
HETATM    5  N6  UNL     1     -33.201   5.315   2.344  1.00 20.00    -0.212 NA
HETATM    6  F7  UNL     1     -34.320   3.609   3.583  1.00 20.00    -0.182 F 
ENDROOT
BRANCH   2   7
HETATM    7  C4  UNL     1     -34.398   5.851   5.754  1.00 20.00     0.439 C 
HETATM    8  F8  UNL     1     -34.314   7.066   6.393  1.00 20.00    -0.164 F 
HETATM    9  F9  UNL     1     -35.733   5.526   5.830  1.00 20.00    -0.164 F 
HETATM   10  F10 UNL     1     -33.778   4.968   6.604  1.00 20.00    -0.164 F 
ENDBRANCH   2   7
TORSDOF 1
ENDMDL
MODEL 6
REMARK VINA RESULT:      -4.8      2.342      3.041
REMARK  1 active torsions:
REMARK  status: ('A' for Active; 'I' for Inactive)
REMARK    1  A    between atoms: C2_2  and  C4_4 
ROOT
HETATM    1  C1  UNL     1     -35.131   5.071   5.686  1.00 20.00     0.236 A 
HETATM    2  C2  UNL     1     -33.897   5.580   3.985  1.00 20.00     0.199 A 
HETATM    3  C3  UNL     1     -33.637   6.476   5.002  1.00 20.00     0.245 A 
HETATM    4  N5  UNL     1     -34.831   4.707   4.422  1.00 20.00    -0.233 NA
HETATM    5  N6  UNL     1     -34.411   6.150   6.059  1.00 20.00    -0.212 NA
HETATM    6  F7  UNL     1     -32.772   7.489   4.955  1.00 20.00    -0.182 F 
ENDROOT
BRANCH   2   7
HETATM    7  C4  UNL     1     -33.334   5.482   2.632  1.00 20.00     0.439 C 
HETATM    8  F8  UNL     1     -32.498   6.517   2.286  1.00 20.00    -0.164 F 
HETATM    9  F9  UNL     1     -32.579   4.353   2.410  1.00 20.00    -0.164 F 
HETATM   10  F10 UNL     1     -34.287   5.461   1.643  1.00 20.00    -0.164 F 
ENDBRANCH   2   7
TORSDOF 1
ENDMDL
MODEL 7
REMARK VINA RESULT:      -4.6      1.408      1.808
REMARK  1 active torsions:
REMARK  status: ('A' for Active; 'I' for Inactive)
REMARK    1  A    between atoms: C2_2  and  C4_4 
ROOT
HETATM    1  C1  UNL     1     -33.354   5.376   2.317  1.00 20.00     0.236 A 
HETATM    2  C2  UNL     1     -33.802   5.888   4.370  1.00 20.00     0.199 A 
HETATM    3  C3  UNL     1     -32.862   6.776   3.889  1.00 20.00     0.245 A 
HETATM    4  N5  UNL     1     -34.102   5.017   3.382  1.00 20.00    -0.233 NA
HETATM    5  N6  UNL     1     -32.588   6.450   2.608  1.00 20.00    -0.212 NA
HETATM    6  F7  UNL     1     -32.314   7.785   4.567  1.00 20.00    -0.182 F 
ENDROOT
BRANCH   2   7
HETATM    7  C4  UNL     1     -34.439   5.793   5.689  1.00 20.00     0.439 C 
HETATM    8  F8  UNL     1     -33.871   4.867   6.532  1.00 20.00    -0.164 F 
HETATM    9  F9  UNL     1     -34.421   6.962   6.415  1.00 20.00    -0.164 F 
HETATM   10  F10 UNL     1     -35.766   5.443   5.633  1.00 20.00    -0.164 F 
ENDBRANCH   2   7
TORSDOF 1
ENDMDL
MODEL 8
REMARK VINA RESULT:      -4.5     16.729     17.408
REMARK  1 active torsions:
REMARK  status: ('A' for Active; 'I' for Inactive)
REMARK    1  A    between atoms: C2_2  and  C4_4 
ROOT
HETATM    1  C1  UNL     1     -24.069  18.857   8.338  1.00 20.00     0.236 A 
HETATM    2  C2  UNL     1     -23.070  17.981  10.044  1.00 20.00     0.199 A 
HETATM    3  C3  UNL     1     -22.413  17.585   8.896  1.00 20.00     0.245 A 
HETATM    4  N5  UNL     1     -24.102  18.774   9.685  1.00 20.00    -0.233 NA
HETATM    5  N6  UNL     1     -23.044  18.136   7.837  1.00 20.00    -0.212 NA
HETATM    6  F7  UNL     1     -21.341  16.795   8.836  1.00 20.00    -0.182 F 
ENDROOT
BRANCH   2   7
HETATM    7  C4  UNL     1     -22.801  17.670  11.453  1.00 20.00     0.439 C 
HETATM    8  F8  UNL     1     -23.159  16.398  11.834  1.00 20.00    -0.164 F 
HETATM    9  F9  UNL     1     -21.477  17.767  11.814  1.00 20.00    -0.164 F 
HETATM   10  F10 UNL     1     -23.460  18.493  12.332  1.00 20.00    -0.164 F 
ENDBRANCH   2   7
TORSDOF 1
ENDMDL
MODEL 9
REMARK VINA RESULT:      -4.3     11.730     12.637
REMARK  1 active torsions:
REMARK  status: ('A' for Active; 'I' for Inactive)
REMARK    1  A    between atoms: C2_2  and  C4_4 
ROOT
HETATM    1  C1  UNL     1     -38.025  15.261  -4.377  1.00 20.00     0.236 A 
HETATM    2  C2  UNL     1     -35.941  15.117  -3.822  1.00 20.00     0.199 A 
HETATM    3  C3  UNL     1     -36.382  13.867  -4.205  1.00 20.00     0.245 A 
HETATM    4  N5  UNL     1     -36.974  15.980  -3.932  1.00 20.00    -0.233 NA
HETATM    5  N6  UNL     1     -37.684  13.966  -4.550  1.00 20.00    -0.212 NA
HETATM    6  F7  UNL     1     -35.655  12.750  -4.232  1.00 20.00    -0.182 F 
ENDROOT
BRANCH   2   7
HETATM    7  C4  UNL     1     -34.621  15.563  -3.358  1.00 20.00     0.439 C 
HETATM    8  F8  UNL     1     -34.518  15.719  -1.996  1.00 20.00    -0.164 F 
HETATM    9  F9  UNL     1     -33.589  14.710  -3.675  1.00 20.00    -0.164 F 
HETATM   10  F10 UNL     1     -34.239  16.776  -3.876  1.00 20.00    -0.164 F 
ENDBRANCH   2   7
TORSDOF 1
ENDMDL
