MODEL 1
REMARK VINA RESULT:      -4.2      0.000      0.000
REMARK  0 active torsions:
REMARK  status: ('A' for Active; 'I' for Inactive)
ROOT
HETATM    1  C1  UNL     1     -23.249  17.529  11.187  1.00 20.00     0.033 A 
HETATM    2  C2  UNL     1     -24.046  17.664  12.312  1.00 20.00     0.117 A 
HETATM    3  C3  UNL     1     -25.737  18.776  11.177  1.00 20.00     0.136 A 
HETATM    4  C4  UNL     1     -23.982  18.700   7.739  1.00 20.00     0.070 A 
HETATM    5  C5  UNL     1     -23.745  18.058   9.979  1.00 20.00     0.002 A 
HETATM    6  C6  UNL     1     -24.996  18.680   9.997  1.00 20.00     0.034 A 
HETATM    7  C7  UNL     1     -23.173  18.079   8.663  1.00 20.00     0.029 A 
HETATM    8  N8  UNL     1     -25.252  18.265  12.328  1.00 20.00    -0.272 NA
HETATM    9  S9  UNL     1     -25.432  19.263   8.436  1.00 20.00    -0.098 SA
HETATM   10 BR10 UNL     1     -21.489  17.333   8.243  1.00 20.00    -0.050 Br
ENDROOT
TORSDOF 0
ENDMDL
MODEL 2
REMARK VINA RESULT:      -4.0     17.493     18.444
REMARK  0 active torsions:
REMARK  status: ('A' for Active; 'I' for Inactive)
ROOT
HETATM    1  C1  UNL     1     -35.075  14.460  -3.852  1.00 20.00     0.033 A 
HETATM    2  C2  UNL     1     -35.940  13.508  -4.366  1.00 20.00     0.117 A 
HETATM    3  C3  UNL     1     -37.790  14.906  -4.275  1.00 20.00     0.136 A 
HETATM    4  C4  UNL     1     -35.888  17.935  -2.822  1.00 20.00     0.070 A 
HETATM    5  C5  UNL     1     -35.621  15.719  -3.533  1.00 20.00     0.002 A 
HETATM    6  C6  UNL     1     -36.986  15.920  -3.753  1.00 20.00     0.034 A 
HETATM    7  C7  UNL     1     -35.002  16.897  -2.993  1.00 20.00     0.029 A 
HETATM    8  N8  UNL     1     -37.256  13.703  -4.577  1.00 20.00    -0.272 NA
HETATM    9  S9  UNL     1     -37.468  17.512  -3.304  1.00 20.00    -0.098 SA
HETATM   10 BR10 UNL     1     -33.166  17.009  -2.565  1.00 20.00    -0.050 Br
ENDROOT
TORSDOF 0
ENDMDL
MODEL 3
REMARK VINA RESULT:      -3.8     12.104     13.169
REMARK  0 active torsions:
REMARK  status: ('A' for Active; 'I' for Inactive)
ROOT
HETATM    1  C1  UNL     1     -33.072  18.170  -0.618  1.00 20.00     0.033 A 
HETATM    2  C2  UNL     1     -31.805  18.240  -1.174  1.00 20.00     0.117 A 
HETATM    3  C3  UNL     1     -30.747  18.527   0.872  1.00 20.00     0.136 A 
HETATM    4  C4  UNL     1     -33.983  18.409   2.975  1.00 20.00     0.070 A 
HETATM    5  C5  UNL     1     -33.167  18.287   0.783  1.00 20.00     0.002 A 
HETATM    6  C6  UNL     1     -31.987  18.466   1.510  1.00 20.00     0.034 A 
HETATM    7  C7  UNL     1     -34.311  18.257   1.648  1.00 20.00     0.029 A 
HETATM    8  N8  UNL     1     -30.668  18.413  -0.471  1.00 20.00    -0.272 NA
HETATM    9  S9  UNL     1     -32.302  18.589   3.200  1.00 20.00    -0.098 SA
HETATM   10 BR10 UNL     1     -36.082  18.031   1.030  1.00 20.00    -0.050 Br
ENDROOT
TORSDOF 0
ENDMDL
MODEL 4
REMARK VINA RESULT:      -3.8     17.663     18.585
REMARK  0 active torsions:
REMARK  status: ('A' for Active; 'I' for Inactive)
ROOT
HETATM    1  C1  UNL     1     -34.904  14.625  -3.675  1.00 20.00     0.033 A 
HETATM    2  C2  UNL     1     -35.590  13.632  -4.354  1.00 20.00     0.117 A 
HETATM    3  C3  UNL     1     -35.822  14.891  -6.290  1.00 20.00     0.136 A 
HETATM    4  C4  UNL     1     -33.976  17.996  -4.927  1.00 20.00     0.070 A 
HETATM    5  C5  UNL     1     -34.667  15.830  -4.365  1.00 20.00     0.002 A 
HETATM    6  C6  UNL     1     -35.137  15.942  -5.677  1.00 20.00     0.034 A 
HETATM    7  C7  UNL     1     -33.997  17.030  -3.950  1.00 20.00     0.029 A 
HETATM    8  N8  UNL     1     -36.043  13.741  -5.619  1.00 20.00    -0.272 NA
HETATM    9  S9  UNL     1     -34.755  17.480  -6.353  1.00 20.00    -0.098 SA
HETATM   10 BR10 UNL     1     -33.227  17.257  -2.239  1.00 20.00    -0.050 Br
ENDROOT
TORSDOF 0
ENDMDL
MODEL 5
REMARK VINA RESULT:      -3.8     17.482     18.646
REMARK  0 active torsions:
REMARK  status: ('A' for Active; 'I' for Inactive)
ROOT
HETATM    1  C1  UNL     1     -37.202  16.093  -3.847  1.00 20.00     0.033 A 
HETATM    2  C2  UNL     1     -37.986  14.998  -4.173  1.00 20.00     0.117 A 
HETATM    3  C3  UNL     1     -36.167  13.610  -4.563  1.00 20.00     0.136 A 
HETATM    4  C4  UNL     1     -33.494  16.276  -3.759  1.00 20.00     0.070 A 
HETATM    5  C5  UNL     1     -35.804  15.918  -3.884  1.00 20.00     0.002 A 
HETATM    6  C6  UNL     1     -35.307  14.663  -4.246  1.00 20.00     0.034 A 
HETATM    7  C7  UNL     1     -34.739  16.838  -3.606  1.00 20.00     0.029 A 
HETATM    8  N8  UNL     1     -37.505  13.789  -4.523  1.00 20.00    -0.272 NA
HETATM    9  S9  UNL     1     -33.585  14.642  -4.237  1.00 20.00    -0.098 SA
HETATM   10 BR10 UNL     1     -35.018  18.632  -3.084  1.00 20.00    -0.050 Br
ENDROOT
TORSDOF 0
ENDMDL
MODEL 6
REMARK VINA RESULT:      -3.8     14.733     15.978
REMARK  0 active torsions:
REMARK  status: ('A' for Active; 'I' for Inactive)
ROOT
HETATM    1  C1  UNL     1     -35.284  15.915  -2.146  1.00 20.00     0.033 A 
HETATM    2  C2  UNL     1     -34.878  15.251  -3.292  1.00 20.00     0.117 A 
HETATM    3  C3  UNL     1     -32.850  16.373  -3.418  1.00 20.00     0.136 A 
HETATM    4  C4  UNL     1     -33.427  18.523  -0.263  1.00 20.00     0.070 A 
HETATM    5  C5  UNL     1     -34.399  16.871  -1.609  1.00 20.00     0.002 A 
HETATM    6  C6  UNL     1     -33.183  17.085  -2.264  1.00 20.00     0.034 A 
HETATM    7  C7  UNL     1     -34.522  17.713  -0.453  1.00 20.00     0.029 A 
HETATM    8  N8  UNL     1     -33.705  15.458  -3.923  1.00 20.00    -0.272 NA
HETATM    9  S9  UNL     1     -32.241  18.285  -1.465  1.00 20.00    -0.098 SA
HETATM   10 BR10 UNL     1     -36.028  17.708   0.688  1.00 20.00    -0.050 Br
ENDROOT
TORSDOF 0
ENDMDL
MODEL 7
REMARK VINA RESULT:      -3.8     17.411     18.297
REMARK  0 active torsions:
REMARK  status: ('A' for Active; 'I' for Inactive)
ROOT
HETATM    1  C1  UNL     1     -33.736  15.304  -3.457  1.00 20.00     0.033 A 
HETATM    2  C2  UNL     1     -33.224  14.623  -4.549  1.00 20.00     0.117 A 
HETATM    3  C3  UNL     1     -35.060  15.074  -5.895  1.00 20.00     0.136 A 
HETATM    4  C4  UNL     1     -36.982  17.092  -3.223  1.00 20.00     0.070 A 
HETATM    5  C5  UNL     1     -34.999  15.908  -3.610  1.00 20.00     0.002 A 
HETATM    6  C6  UNL     1     -35.646  15.780  -4.842  1.00 20.00     0.034 A 
HETATM    7  C7  UNL     1     -35.789  16.671  -2.686  1.00 20.00     0.029 A 
HETATM    8  N8  UNL     1     -33.849  14.499  -5.737  1.00 20.00    -0.272 NA
HETATM    9  S9  UNL     1     -37.172  16.580  -4.838  1.00 20.00    -0.098 SA
HETATM   10 BR10 UNL     1     -35.245  17.058  -0.918  1.00 20.00    -0.050 Br
ENDROOT
TORSDOF 0
ENDMDL
MODEL 8
REMARK VINA RESULT:      -3.7     14.791     15.918
REMARK  0 active torsions:
REMARK  status: ('A' for Active; 'I' for Inactive)
ROOT
HETATM    1  C1  UNL     1     -32.924  16.485  -3.001  1.00 20.00     0.033 A 
HETATM    2  C2  UNL     1     -33.591  15.646  -3.878  1.00 20.00     0.117 A 
HETATM    3  C3  UNL     1     -35.620  15.830  -2.767  1.00 20.00     0.136 A 
HETATM    4  C4  UNL     1     -34.318  18.217  -0.026  1.00 20.00     0.070 A 
HETATM    5  C5  UNL     1     -33.672  17.029  -1.937  1.00 20.00     0.002 A 
HETATM    6  C6  UNL     1     -35.023  16.687  -1.839  1.00 20.00     0.034 A 
HETATM    7  C7  UNL     1     -33.283  17.916  -0.878  1.00 20.00     0.029 A 
HETATM    8  N8  UNL     1     -34.894  15.315  -3.782  1.00 20.00    -0.272 NA
HETATM    9  S9  UNL     1     -35.767  17.443  -0.482  1.00 20.00    -0.098 SA
HETATM   10 BR10 UNL     1     -31.532  18.599  -0.678  1.00 20.00    -0.050 Br
ENDROOT
TORSDOF 0
ENDMDL
MODEL 9
REMARK VINA RESULT:      -3.5     17.034     18.169
REMARK  0 active torsions:
REMARK  status: ('A' for Active; 'I' for Inactive)
ROOT
HETATM    1  C1  UNL     1     -35.614  16.100  -2.485  1.00 20.00     0.033 A 
HETATM    2  C2  UNL     1     -34.484  16.586  -1.848  1.00 20.00     0.117 A 
HETATM    3  C3  UNL     1     -33.086  16.148  -3.648  1.00 20.00     0.136 A 
HETATM    4  C4  UNL     1     -35.849  14.679  -5.908  1.00 20.00     0.070 A 
HETATM    5  C5  UNL     1     -35.453  15.608  -3.795  1.00 20.00     0.002 A 
HETATM    6  C6  UNL     1     -34.175  15.642  -4.359  1.00 20.00     0.034 A 
HETATM    7  C7  UNL     1     -36.409  15.047  -4.707  1.00 20.00     0.029 A 
HETATM    8  N8  UNL     1     -33.252  16.618  -2.392  1.00 20.00    -0.272 NA
HETATM    9  S9  UNL     1     -34.175  15.000  -5.957  1.00 20.00    -0.098 SA
HETATM   10 BR10 UNL     1     -38.242  14.837  -4.301  1.00 20.00    -0.050 Br
ENDROOT
TORSDOF 0
ENDMDL
