MODEL 1
REMARK VINA RESULT:      -3.0      0.000      0.000
REMARK  2 active torsions:
REMARK  status: ('A' for Active; 'I' for Inactive)
REMARK    1  A    between atoms: C2_2  and  C4_4 
REMARK    2  A    between atoms: C4_4  and  S6_6 
ROOT
HETATM    1  C1  UNL     1     -34.867   4.975   5.867  1.00 20.00     0.201 A 
HETATM    2  C2  UNL     1     -34.930   5.727   4.568  1.00 20.00     0.154 A 
HETATM    3  O5  UNL     1     -34.651   4.325   4.605  1.00 20.00    -0.380 OA
ENDROOT
BRANCH   2   4
HETATM    4  C4  UNL     1     -33.796   6.571   4.111  1.00 20.00     0.107 C 
BRANCH   4   5
HETATM    5  S6  UNL     1     -33.038   5.907   2.590  1.00 20.00    -0.171 SA
HETATM    6  C3  UNL     1     -32.510   7.473   1.864  1.00 20.00     0.089 C 
ENDBRANCH   4   5
ENDBRANCH   2   4
TORSDOF 2
ENDMDL
MODEL 2
REMARK VINA RESULT:      -2.9      2.256      3.653
REMARK  2 active torsions:
REMARK  status: ('A' for Active; 'I' for Inactive)
REMARK    1  A    between atoms: C2_2  and  C4_4 
REMARK    2  A    between atoms: C4_4  and  S6_6 
ROOT
HETATM    1  C1  UNL     1     -32.536   7.449   1.989  1.00 20.00     0.201 A 
HETATM    2  C2  UNL     1     -33.264   6.858   3.163  1.00 20.00     0.154 A 
HETATM    3  O5  UNL     1     -31.867   7.160   3.227  1.00 20.00    -0.380 OA
ENDROOT
BRANCH   2   4
HETATM    4  C4  UNL     1     -33.587   5.408   3.219  1.00 20.00     0.107 C 
BRANCH   4   5
HETATM    5  S6  UNL     1     -34.882   5.059   4.455  1.00 20.00    -0.171 SA
HETATM    6  C3  UNL     1     -34.316   6.189   5.744  1.00 20.00     0.089 C 
ENDBRANCH   4   5
ENDBRANCH   2   4
TORSDOF 2
ENDMDL
MODEL 3
REMARK VINA RESULT:      -2.8     17.096     17.787
REMARK  2 active torsions:
REMARK  status: ('A' for Active; 'I' for Inactive)
REMARK    1  A    between atoms: C2_2  and  C4_4 
REMARK    2  A    between atoms: C4_4  and  S6_6 
ROOT
HETATM    1  C1  UNL     1     -22.231  17.764   8.415  1.00 20.00     0.201 A 
HETATM    2  C2  UNL     1     -22.866  18.329   9.654  1.00 20.00     0.154 A 
HETATM    3  O5  UNL     1     -21.788  19.000   8.996  1.00 20.00    -0.380 OA
ENDROOT
BRANCH   2   4
HETATM    4  C4  UNL     1     -22.533  17.797  11.001  1.00 20.00     0.107 C 
BRANCH   4   5
HETATM    5  S6  UNL     1     -24.019  17.649  12.048  1.00 20.00    -0.171 SA
HETATM    6  C3  UNL     1     -24.546  16.008  11.509  1.00 20.00     0.089 C 
ENDBRANCH   4   5
ENDBRANCH   2   4
TORSDOF 2
ENDMDL
MODEL 4
REMARK VINA RESULT:      -2.7     11.686     12.209
REMARK  2 active torsions:
REMARK  status: ('A' for Active; 'I' for Inactive)
REMARK    1  A    between atoms: C2_2  and  C4_4 
REMARK    2  A    between atoms: C4_4  and  S6_6 
ROOT
HETATM    1  C1  UNL     1     -37.438  15.041  -4.273  1.00 20.00     0.201 A 
HETATM    2  C2  UNL     1     -36.312  14.215  -4.827  1.00 20.00     0.154 A 
HETATM    3  O5  UNL     1     -37.559  13.621  -4.455  1.00 20.00    -0.380 OA
ENDROOT
BRANCH   2   4
HETATM    4  C4  UNL     1     -35.160  13.815  -3.978  1.00 20.00     0.107 C 
BRANCH   4   5
HETATM    5  S6  UNL     1     -33.653  14.747  -4.414  1.00 20.00    -0.171 SA
HETATM    6  C3  UNL     1     -33.685  15.933  -3.052  1.00 20.00     0.089 C 
ENDBRANCH   4   5
ENDBRANCH   2   4
TORSDOF 2
ENDMDL
MODEL 5
REMARK VINA RESULT:      -2.6     11.779     12.095
REMARK  2 active torsions:
REMARK  status: ('A' for Active; 'I' for Inactive)
REMARK    1  A    between atoms: C2_2  and  C4_4 
REMARK    2  A    between atoms: C4_4  and  S6_6 
ROOT
HETATM    1  C1  UNL     1     -36.889  14.094  -4.407  1.00 20.00     0.201 A 
HETATM    2  C2  UNL     1     -35.439  14.173  -4.795  1.00 20.00     0.154 A 
HETATM    3  O5  UNL     1     -36.138  12.925  -4.771  1.00 20.00    -0.380 OA
ENDROOT
BRANCH   2   4
HETATM    4  C4  UNL     1     -34.373  14.304  -3.767  1.00 20.00     0.107 C 
BRANCH   4   5
HETATM    5  S6  UNL     1     -33.890  16.046  -3.524  1.00 20.00    -0.171 SA
HETATM    6  C3  UNL     1     -34.777  16.342  -1.979  1.00 20.00     0.089 C 
ENDBRANCH   4   5
ENDBRANCH   2   4
TORSDOF 2
ENDMDL
MODEL 6
REMARK VINA RESULT:      -2.6     16.438     16.847
REMARK  2 active torsions:
REMARK  status: ('A' for Active; 'I' for Inactive)
REMARK    1  A    between atoms: C2_2  and  C4_4 
REMARK    2  A    between atoms: C4_4  and  S6_6 
ROOT
HETATM    1  C1  UNL     1     -24.591  15.825  11.614  1.00 20.00     0.201 A 
HETATM    2  C2  UNL     1     -23.936  16.727  10.606  1.00 20.00     0.154 A 
HETATM    3  O5  UNL     1     -23.374  16.530  11.907  1.00 20.00    -0.380 OA
ENDROOT
BRANCH   2   4
HETATM    4  C4  UNL     1     -24.446  18.100  10.355  1.00 20.00     0.107 C 
BRANCH   4   5
HETATM    5  S6  UNL     1     -23.653  18.851   8.895  1.00 20.00    -0.171 SA
HETATM    6  C3  UNL     1     -21.954  18.350   9.243  1.00 20.00     0.089 C 
ENDBRANCH   4   5
ENDBRANCH   2   4
TORSDOF 2
ENDMDL
MODEL 7
REMARK VINA RESULT:      -2.6      2.297      3.272
REMARK  2 active torsions:
REMARK  status: ('A' for Active; 'I' for Inactive)
REMARK    1  A    between atoms: C2_2  and  C4_4 
REMARK    2  A    between atoms: C4_4  and  S6_6 
ROOT
HETATM    1  C1  UNL     1     -33.014   6.044   2.468  1.00 20.00     0.201 A 
HETATM    2  C2  UNL     1     -33.453   5.087   3.540  1.00 20.00     0.154 A 
HETATM    3  O5  UNL     1     -33.362   4.682   2.171  1.00 20.00    -0.380 OA
ENDROOT
BRANCH   2   4
HETATM    4  C4  UNL     1     -34.836   5.121   4.084  1.00 20.00     0.107 C 
BRANCH   4   5
HETATM    5  S6  UNL     1     -34.837   5.337   5.895  1.00 20.00    -0.171 SA
HETATM    6  C3  UNL     1     -33.862   6.855   5.971  1.00 20.00     0.089 C 
ENDBRANCH   4   5
ENDBRANCH   2   4
TORSDOF 2
ENDMDL
MODEL 8
REMARK VINA RESULT:      -2.5      9.314      9.598
REMARK  2 active torsions:
REMARK  status: ('A' for Active; 'I' for Inactive)
REMARK    1  A    between atoms: C2_2  and  C4_4 
REMARK    2  A    between atoms: C4_4  and  S6_6 
ROOT
HETATM    1  C1  UNL     1     -41.410   9.389   0.307  1.00 20.00     0.201 A 
HETATM    2  C2  UNL     1     -42.219   8.197  -0.120  1.00 20.00     0.154 A 
HETATM    3  O5  UNL     1     -42.798   9.503  -0.046  1.00 20.00    -0.380 OA
ENDROOT
BRANCH   2   4
HETATM    4  C4  UNL     1     -42.749   7.229   0.875  1.00 20.00     0.107 C 
BRANCH   4   5
HETATM    5  S6  UNL     1     -42.187   5.530   0.521  1.00 20.00    -0.171 SA
HETATM    6  C3  UNL     1     -41.128   5.903  -0.893  1.00 20.00     0.089 C 
ENDBRANCH   4   5
ENDBRANCH   2   4
TORSDOF 2
ENDMDL
MODEL 9
REMARK VINA RESULT:      -2.5     12.360     12.681
REMARK  2 active torsions:
REMARK  status: ('A' for Active; 'I' for Inactive)
REMARK    1  A    between atoms: C2_2  and  C4_4 
REMARK    2  A    between atoms: C4_4  and  S6_6 
ROOT
HETATM    1  C1  UNL     1     -36.255  13.651  -4.849  1.00 20.00     0.201 A 
HETATM    2  C2  UNL     1     -36.692  14.701  -3.866  1.00 20.00     0.154 A 
HETATM    3  O5  UNL     1     -37.632  13.808  -4.471  1.00 20.00    -0.380 OA
ENDROOT
BRANCH   2   4
HETATM    4  C4  UNL     1     -36.840  16.122  -4.273  1.00 20.00     0.107 C 
BRANCH   4   5
HETATM    5  S6  UNL     1     -35.597  17.183  -3.463  1.00 20.00    -0.171 SA
HETATM    6  C3  UNL     1     -35.016  15.997  -2.231  1.00 20.00     0.089 C 
ENDBRANCH   4   5
ENDBRANCH   2   4
TORSDOF 2
ENDMDL
