MODEL 1
REMARK VINA RESULT:      -4.0      0.000      0.000
REMARK  0 active torsions:
REMARK  status: ('A' for Active; 'I' for Inactive)
ROOT
HETATM    1  C1  UNL     1     -35.773  13.875  -4.485  1.00 20.00     0.139 C 
HETATM    2  C2  UNL     1     -36.764  14.904  -3.901  1.00 20.00     0.057 C 
HETATM    3  C3  UNL     1     -35.948  16.005  -4.655  1.00 20.00     0.007 C 
HETATM    4  C4  UNL     1     -34.766  14.989  -4.908  1.00 20.00     0.018 C 
HETATM    5  C5  UNL     1     -38.209  14.740  -4.325  1.00 20.00     0.018 C 
HETATM    6  C6  UNL     1     -35.678  17.275  -3.864  1.00 20.00     0.012 C 
HETATM    7  C7  UNL     1     -33.552  15.067  -3.985  1.00 20.00     0.023 C 
HETATM    8  C8  UNL     1     -34.347  14.912  -6.375  1.00 20.00     0.023 C 
HETATM    9  O9  UNL     1     -35.775  12.665  -4.569  1.00 20.00    -0.297 OA
ENDROOT
TORSDOF 0
ENDMDL
MODEL 2
REMARK VINA RESULT:      -4.0      1.399      2.087
REMARK  0 active torsions:
REMARK  status: ('A' for Active; 'I' for Inactive)
ROOT
HETATM    1  C1  UNL     1     -34.923  14.361  -4.150  1.00 20.00     0.139 C 
HETATM    2  C2  UNL     1     -35.853  15.079  -5.151  1.00 20.00     0.057 C 
HETATM    3  C3  UNL     1     -35.128  16.407  -4.755  1.00 20.00     0.007 C 
HETATM    4  C4  UNL     1     -34.481  15.706  -3.496  1.00 20.00     0.018 C 
HETATM    5  C5  UNL     1     -35.716  14.653  -6.598  1.00 20.00     0.018 C 
HETATM    6  C6  UNL     1     -36.034  17.611  -4.549  1.00 20.00     0.012 C 
HETATM    7  C7  UNL     1     -35.134  15.943  -2.137  1.00 20.00     0.023 C 
HETATM    8  C8  UNL     1     -32.965  15.883  -3.426  1.00 20.00     0.023 C 
HETATM    9  O9  UNL     1     -34.654  13.195  -3.945  1.00 20.00    -0.297 OA
ENDROOT
TORSDOF 0
ENDMDL
MODEL 3
REMARK VINA RESULT:      -3.9      1.556      3.169
REMARK  0 active torsions:
REMARK  status: ('A' for Active; 'I' for Inactive)
ROOT
HETATM    1  C1  UNL     1     -34.597  14.959  -5.467  1.00 20.00     0.139 C 
HETATM    2  C2  UNL     1     -33.565  15.271  -4.363  1.00 20.00     0.057 C 
HETATM    3  C3  UNL     1     -34.716  15.051  -3.329  1.00 20.00     0.007 C 
HETATM    4  C4  UNL     1     -35.795  15.114  -4.480  1.00 20.00     0.018 C 
HETATM    5  C5  UNL     1     -32.393  14.316  -4.268  1.00 20.00     0.018 C 
HETATM    6  C6  UNL     1     -34.781  16.062  -2.195  1.00 20.00     0.012 C 
HETATM    7  C7  UNL     1     -36.551  16.427  -4.674  1.00 20.00     0.023 C 
HETATM    8  C8  UNL     1     -36.745  13.918  -4.477  1.00 20.00     0.023 C 
HETATM    9  O9  UNL     1     -34.507  14.704  -6.650  1.00 20.00    -0.297 OA
ENDROOT
TORSDOF 0
ENDMDL
MODEL 4
REMARK VINA RESULT:      -3.9      1.820      2.689
REMARK  0 active torsions:
REMARK  status: ('A' for Active; 'I' for Inactive)
ROOT
HETATM    1  C1  UNL     1     -33.812  14.516  -4.606  1.00 20.00     0.139 C 
HETATM    2  C2  UNL     1     -33.609  15.925  -4.009  1.00 20.00     0.057 C 
HETATM    3  C3  UNL     1     -34.681  16.429  -5.030  1.00 20.00     0.007 C 
HETATM    4  C4  UNL     1     -34.575  15.080  -5.844  1.00 20.00     0.018 C 
HETATM    5  C5  UNL     1     -33.962  16.076  -2.544  1.00 20.00     0.018 C 
HETATM    6  C6  UNL     1     -34.357  17.742  -5.725  1.00 20.00     0.012 C 
HETATM    7  C7  UNL     1     -33.724  15.080  -7.111  1.00 20.00     0.023 C 
HETATM    8  C8  UNL     1     -35.931  14.416  -6.081  1.00 20.00     0.023 C 
HETATM    9  O9  UNL     1     -33.488  13.402  -4.251  1.00 20.00    -0.297 OA
ENDROOT
TORSDOF 0
ENDMDL
MODEL 5
REMARK VINA RESULT:      -3.9      2.285      3.237
REMARK  0 active torsions:
REMARK  status: ('A' for Active; 'I' for Inactive)
ROOT
HETATM    1  C1  UNL     1     -33.765  16.497  -3.711  1.00 20.00     0.139 C 
HETATM    2  C2  UNL     1     -35.122  16.230  -3.026  1.00 20.00     0.057 C 
HETATM    3  C3  UNL     1     -35.023  14.767  -3.568  1.00 20.00     0.007 C 
HETATM    4  C4  UNL     1     -33.857  15.184  -4.548  1.00 20.00     0.018 C 
HETATM    5  C5  UNL     1     -35.139  16.381  -1.518  1.00 20.00     0.018 C 
HETATM    6  C6  UNL     1     -36.307  14.194  -4.145  1.00 20.00     0.012 C 
HETATM    7  C7  UNL     1     -34.216  15.441  -6.010  1.00 20.00     0.023 C 
HETATM    8  C8  UNL     1     -32.623  14.292  -4.424  1.00 20.00     0.023 C 
HETATM    9  O9  UNL     1     -32.950  17.393  -3.634  1.00 20.00    -0.297 OA
ENDROOT
TORSDOF 0
ENDMDL
MODEL 6
REMARK VINA RESULT:      -3.8      1.460      1.927
REMARK  0 active torsions:
REMARK  status: ('A' for Active; 'I' for Inactive)
ROOT
HETATM    1  C1  UNL     1     -35.503  14.088  -4.876  1.00 20.00     0.139 C 
HETATM    2  C2  UNL     1     -35.947  15.223  -5.823  1.00 20.00     0.057 C 
HETATM    3  C3  UNL     1     -34.622  15.960  -5.440  1.00 20.00     0.007 C 
HETATM    4  C4  UNL     1     -34.401  14.979  -4.223  1.00 20.00     0.018 C 
HETATM    5  C5  UNL     1     -36.098  14.842  -7.282  1.00 20.00     0.018 C 
HETATM    6  C6  UNL     1     -34.755  17.451  -5.176  1.00 20.00     0.012 C 
HETATM    7  C7  UNL     1     -34.791  15.473  -2.832  1.00 20.00     0.023 C 
HETATM    8  C8  UNL     1     -33.016  14.333  -4.218  1.00 20.00     0.023 C 
HETATM    9  O9  UNL     1     -35.879  12.948  -4.701  1.00 20.00    -0.297 OA
ENDROOT
TORSDOF 0
ENDMDL
MODEL 7
REMARK VINA RESULT:      -3.8      1.750      2.165
REMARK  0 active torsions:
REMARK  status: ('A' for Active; 'I' for Inactive)
ROOT
HETATM    1  C1  UNL     1     -34.206  15.009  -4.802  1.00 20.00     0.139 C 
HETATM    2  C2  UNL     1     -35.258  14.528  -3.781  1.00 20.00     0.057 C 
HETATM    3  C3  UNL     1     -35.341  16.008  -3.283  1.00 20.00     0.007 C 
HETATM    4  C4  UNL     1     -34.017  16.369  -4.063  1.00 20.00     0.018 C 
HETATM    5  C5  UNL     1     -36.530  13.952  -4.369  1.00 20.00     0.018 C 
HETATM    6  C6  UNL     1     -35.385  16.188  -1.773  1.00 20.00     0.012 C 
HETATM    7  C7  UNL     1     -32.716  16.430  -3.265  1.00 20.00     0.023 C 
HETATM    8  C8  UNL     1     -34.172  17.587  -4.972  1.00 20.00     0.023 C 
HETATM    9  O9  UNL     1     -33.710  14.511  -5.791  1.00 20.00    -0.297 OA
ENDROOT
TORSDOF 0
ENDMDL
MODEL 8
REMARK VINA RESULT:      -3.8      1.487      2.827
REMARK  0 active torsions:
REMARK  status: ('A' for Active; 'I' for Inactive)
ROOT
HETATM    1  C1  UNL     1     -33.901  14.673  -4.530  1.00 20.00     0.139 C 
HETATM    2  C2  UNL     1     -33.915  16.152  -4.086  1.00 20.00     0.057 C 
HETATM    3  C3  UNL     1     -35.464  16.122  -4.297  1.00 20.00     0.007 C 
HETATM    4  C4  UNL     1     -35.354  14.761  -5.091  1.00 20.00     0.018 C 
HETATM    5  C5  UNL     1     -33.441  16.419  -2.673  1.00 20.00     0.018 C 
HETATM    6  C6  UNL     1     -36.054  17.339  -4.990  1.00 20.00     0.012 C 
HETATM    7  C7  UNL     1     -35.394  14.824  -6.616  1.00 20.00     0.023 C 
HETATM    8  C8  UNL     1     -36.285  13.676  -4.552  1.00 20.00     0.023 C 
HETATM    9  O9  UNL     1     -33.071  13.790  -4.474  1.00 20.00    -0.297 OA
ENDROOT
TORSDOF 0
ENDMDL
MODEL 9
REMARK VINA RESULT:      -3.7      2.090      3.544
REMARK  0 active torsions:
REMARK  status: ('A' for Active; 'I' for Inactive)
ROOT
HETATM    1  C1  UNL     1     -35.470  16.317  -2.921  1.00 20.00     0.139 C 
HETATM    2  C2  UNL     1     -33.976  16.064  -2.626  1.00 20.00     0.057 C 
HETATM    3  C3  UNL     1     -33.830  15.639  -4.123  1.00 20.00     0.007 C 
HETATM    4  C4  UNL     1     -35.400  15.546  -4.275  1.00 20.00     0.018 C 
HETATM    5  C5  UNL     1     -33.175  17.276  -2.197  1.00 20.00     0.018 C 
HETATM    6  C6  UNL     1     -32.987  14.398  -4.373  1.00 20.00     0.012 C 
HETATM    7  C7  UNL     1     -36.040  14.162  -4.199  1.00 20.00     0.023 C 
HETATM    8  C8  UNL     1     -35.934  16.345  -5.463  1.00 20.00     0.023 C 
HETATM    9  O9  UNL     1     -36.357  16.887  -2.320  1.00 20.00    -0.297 OA
ENDROOT
TORSDOF 0
ENDMDL
