MODEL 1
REMARK VINA RESULT:      -4.4      0.000      0.000
REMARK  3 active torsions:
REMARK  status: ('A' for Active; 'I' for Inactive)
REMARK    1  A    between atoms: C2_2  and  C6_6 
REMARK    2  A    between atoms: C2_2  and  O9_9 
REMARK    3  A    between atoms: C5_5  and  C6_6 
ROOT
HETATM    1  C1  UNL     1     -36.912  14.467  -4.214  1.00 20.00     0.074 C 
HETATM    2  C6  UNL     1     -35.544  15.001  -4.081  1.00 20.00     0.192 C 
HETATM    3  N7  UNL     1     -37.990  14.048  -4.323  1.00 20.00    -0.196 NA
ENDROOT
BRANCH   2   4
HETATM    4  C2  UNL     1     -34.503  13.933  -4.370  1.00 20.00     0.276 C 
HETATM    5  O8  UNL     1     -34.476  12.819  -3.860  1.00 20.00    -0.264 OA
BRANCH   4   6
HETATM    6  O9  UNL     1     -33.598  14.411  -5.277  1.00 20.00    -0.325 OA
HETATM    7  C4  UNL     1     -34.157  15.095  -6.404  1.00 20.00     0.213 C 
ENDBRANCH   4   6
ENDBRANCH   2   4
BRANCH   2   8
HETATM    8  C5  UNL     1     -35.325  15.646  -2.703  1.00 20.00     0.025 C 
HETATM    9  C3  UNL     1     -33.937  16.246  -2.500  1.00 20.00     0.007 C 
ENDBRANCH   2   8
TORSDOF 3
ENDMDL
MODEL 2
REMARK VINA RESULT:      -4.2     11.065     11.630
REMARK  3 active torsions:
REMARK  status: ('A' for Active; 'I' for Inactive)
REMARK    1  A    between atoms: C2_2  and  C6_6 
REMARK    2  A    between atoms: C2_2  and  O9_9 
REMARK    3  A    between atoms: C5_5  and  C6_6 
ROOT
HETATM    1  C1  UNL     1     -34.037   5.096   3.651  1.00 20.00     0.074 C 
HETATM    2  C6  UNL     1     -33.850   6.539   3.890  1.00 20.00     0.192 C 
HETATM    3  N7  UNL     1     -34.188   3.961   3.459  1.00 20.00    -0.196 NA
ENDROOT
BRANCH   2   4
HETATM    4  C2  UNL     1     -32.613   7.062   3.179  1.00 20.00     0.276 C 
HETATM    5  O8  UNL     1     -31.619   7.514   3.734  1.00 20.00    -0.264 OA
BRANCH   4   6
HETATM    6  O9  UNL     1     -32.787   6.958   1.827  1.00 20.00    -0.325 OA
HETATM    7  C4  UNL     1     -32.636   8.176   1.089  1.00 20.00     0.213 C 
ENDBRANCH   4   6
ENDBRANCH   2   4
BRANCH   2   8
HETATM    8  C5  UNL     1     -33.816   6.859   5.393  1.00 20.00     0.025 C 
HETATM    9  C3  UNL     1     -34.594   5.877   6.265  1.00 20.00     0.007 C 
ENDBRANCH   2   8
TORSDOF 3
ENDMDL
MODEL 3
REMARK VINA RESULT:      -4.1      1.430      1.805
REMARK  3 active torsions:
REMARK  status: ('A' for Active; 'I' for Inactive)
REMARK    1  A    between atoms: C2_2  and  C6_6 
REMARK    2  A    between atoms: C2_2  and  O9_9 
REMARK    3  A    between atoms: C5_5  and  C6_6 
ROOT
HETATM    1  C1  UNL     1     -37.023  14.450  -4.457  1.00 20.00     0.074 C 
HETATM    2  C6  UNL     1     -35.716  15.111  -4.636  1.00 20.00     0.192 C 
HETATM    3  N7  UNL     1     -38.054  13.935  -4.317  1.00 20.00    -0.196 NA
ENDROOT
BRANCH   2   4
HETATM    4  C2  UNL     1     -35.060  14.692  -5.941  1.00 20.00     0.276 C 
HETATM    5  O8  UNL     1     -33.856  14.541  -6.106  1.00 20.00    -0.264 OA
BRANCH   4   6
HETATM    6  O9  UNL     1     -36.019  14.522  -6.899  1.00 20.00    -0.325 OA
HETATM    7  C4  UNL     1     -36.060  15.527  -7.918  1.00 20.00     0.213 C 
ENDBRANCH   4   6
ENDBRANCH   2   4
BRANCH   2   8
HETATM    8  C5  UNL     1     -34.793  14.862  -3.432  1.00 20.00     0.025 C 
HETATM    9  C3  UNL     1     -34.907  15.905  -2.323  1.00 20.00     0.007 C 
ENDBRANCH   2   8
TORSDOF 3
ENDMDL
MODEL 4
REMARK VINA RESULT:      -4.1      2.104      2.798
REMARK  3 active torsions:
REMARK  status: ('A' for Active; 'I' for Inactive)
REMARK    1  A    between atoms: C2_2  and  C6_6 
REMARK    2  A    between atoms: C2_2  and  O9_9 
REMARK    3  A    between atoms: C5_5  and  C6_6 
ROOT
HETATM    1  C1  UNL     1     -34.275  15.168  -5.514  1.00 20.00     0.074 C 
HETATM    2  C6  UNL     1     -34.469  14.517  -4.205  1.00 20.00     0.192 C 
HETATM    3  N7  UNL     1     -34.120  15.677  -6.546  1.00 20.00    -0.196 NA
ENDROOT
BRANCH   2   4
HETATM    4  C2  UNL     1     -35.758  13.713  -4.173  1.00 20.00     0.276 C 
HETATM    5  O8  UNL     1     -35.883  12.566  -4.584  1.00 20.00    -0.264 OA
BRANCH   4   6
HETATM    6  O9  UNL     1     -36.754  14.472  -3.624  1.00 20.00    -0.325 OA
HETATM    7  C4  UNL     1     -37.939  14.602  -4.417  1.00 20.00     0.213 C 
ENDBRANCH   4   6
ENDBRANCH   2   4
BRANCH   2   8
HETATM    8  C5  UNL     1     -34.409  15.537  -3.057  1.00 20.00     0.025 C 
HETATM    9  C3  UNL     1     -33.140  16.385  -3.032  1.00 20.00     0.007 C 
ENDBRANCH   2   8
TORSDOF 3
ENDMDL
MODEL 5
REMARK VINA RESULT:      -4.1      1.433      1.800
REMARK  3 active torsions:
REMARK  status: ('A' for Active; 'I' for Inactive)
REMARK    1  A    between atoms: C2_2  and  C6_6 
REMARK    2  A    between atoms: C2_2  and  O9_9 
REMARK    3  A    between atoms: C5_5  and  C6_6 
ROOT
HETATM    1  C1  UNL     1     -37.209  14.413  -4.497  1.00 20.00     0.074 C 
HETATM    2  C6  UNL     1     -35.877  14.948  -4.839  1.00 20.00     0.192 C 
HETATM    3  N7  UNL     1     -38.258  13.996  -4.229  1.00 20.00    -0.196 NA
ENDROOT
BRANCH   2   4
HETATM    4  C2  UNL     1     -35.489  14.594  -6.265  1.00 20.00     0.276 C 
HETATM    5  O8  UNL     1     -36.274  14.285  -7.153  1.00 20.00    -0.264 OA
BRANCH   4   6
HETATM    6  O9  UNL     1     -34.130  14.665  -6.398  1.00 20.00    -0.325 OA
HETATM    7  C4  UNL     1     -33.657  15.211  -7.634  1.00 20.00     0.213 C 
ENDBRANCH   4   6
ENDBRANCH   2   4
BRANCH   2   8
HETATM    8  C5  UNL     1     -34.812  14.488  -3.832  1.00 20.00     0.025 C 
HETATM    9  C3  UNL     1     -34.278  15.596  -2.927  1.00 20.00     0.007 C 
ENDBRANCH   2   8
TORSDOF 3
ENDMDL
MODEL 6
REMARK VINA RESULT:      -4.1      9.844     11.112
REMARK  3 active torsions:
REMARK  status: ('A' for Active; 'I' for Inactive)
REMARK    1  A    between atoms: C2_2  and  C6_6 
REMARK    2  A    between atoms: C2_2  and  O9_9 
REMARK    3  A    between atoms: C5_5  and  C6_6 
ROOT
HETATM    1  C1  UNL     1     -41.624   9.127   0.380  1.00 20.00     0.074 C 
HETATM    2  C6  UNL     1     -41.960   7.693   0.294  1.00 20.00     0.192 C 
HETATM    3  N7  UNL     1     -41.354  10.254   0.448  1.00 20.00    -0.196 NA
ENDROOT
BRANCH   2   4
HETATM    4  C2  UNL     1     -42.027   7.226  -1.151  1.00 20.00     0.276 C 
HETATM    5  O8  UNL     1     -42.956   7.444  -1.919  1.00 20.00    -0.264 OA
BRANCH   4   6
HETATM    6  O9  UNL     1     -40.898   6.518  -1.453  1.00 20.00    -0.325 OA
HETATM    7  C4  UNL     1     -40.951   5.117  -1.164  1.00 20.00     0.213 C 
ENDBRANCH   4   6
ENDBRANCH   2   4
BRANCH   2   8
HETATM    8  C5  UNL     1     -43.259   7.376   1.052  1.00 20.00     0.025 C 
HETATM    9  C3  UNL     1     -43.385   5.926   1.510  1.00 20.00     0.007 C 
ENDBRANCH   2   8
TORSDOF 3
ENDMDL
MODEL 7
REMARK VINA RESULT:      -4.1      2.142      3.474
REMARK  3 active torsions:
REMARK  status: ('A' for Active; 'I' for Inactive)
REMARK    1  A    between atoms: C2_2  and  C6_6 
REMARK    2  A    between atoms: C2_2  and  O9_9 
REMARK    3  A    between atoms: C5_5  and  C6_6 
ROOT
HETATM    1  C1  UNL     1     -34.847  15.347  -3.566  1.00 20.00     0.074 C 
HETATM    2  C6  UNL     1     -35.672  14.963  -4.727  1.00 20.00     0.192 C 
HETATM    3  N7  UNL     1     -34.201  15.652  -2.650  1.00 20.00    -0.196 NA
ENDROOT
BRANCH   2   4
HETATM    4  C2  UNL     1     -36.301  13.594  -4.530  1.00 20.00     0.276 C 
HETATM    5  O8  UNL     1     -35.681  12.552  -4.358  1.00 20.00    -0.264 OA
BRANCH   4   6
HETATM    6  O9  UNL     1     -37.663  13.707  -4.584  1.00 20.00    -0.325 OA
HETATM    7  C4  UNL     1     -38.189  15.001  -4.272  1.00 20.00     0.213 C 
ENDBRANCH   4   6
ENDBRANCH   2   4
BRANCH   2   8
HETATM    8  C5  UNL     1     -34.867  15.033  -6.034  1.00 20.00     0.025 C 
HETATM    9  C3  UNL     1     -35.713  14.960  -7.302  1.00 20.00     0.007 C 
ENDBRANCH   2   8
TORSDOF 3
ENDMDL
MODEL 8
REMARK VINA RESULT:      -4.1     17.145     18.598
REMARK  3 active torsions:
REMARK  status: ('A' for Active; 'I' for Inactive)
REMARK    1  A    between atoms: C2_2  and  C6_6 
REMARK    2  A    between atoms: C2_2  and  O9_9 
REMARK    3  A    between atoms: C5_5  and  C6_6 
ROOT
HETATM    1  C1  UNL     1     -22.355  17.537   8.215  1.00 20.00     0.074 C 
HETATM    2  C6  UNL     1     -23.056  18.311   9.258  1.00 20.00     0.192 C 
HETATM    3  N7  UNL     1     -21.799  16.931   7.396  1.00 20.00    -0.196 NA
ENDROOT
BRANCH   2   4
HETATM    4  C2  UNL     1     -23.123  17.540  10.566  1.00 20.00     0.276 C 
HETATM    5  O8  UNL     1     -22.560  17.864  11.604  1.00 20.00    -0.264 OA
BRANCH   4   6
HETATM    6  O9  UNL     1     -23.901  16.428  10.400  1.00 20.00    -0.325 OA
HETATM    7  C4  UNL     1     -24.594  15.978  11.569  1.00 20.00     0.213 C 
ENDBRANCH   4   6
ENDBRANCH   2   4
BRANCH   2   8
HETATM    8  C5  UNL     1     -24.451  18.750   8.787  1.00 20.00     0.025 C 
HETATM    9  C3  UNL     1     -24.524  19.149   7.315  1.00 20.00     0.007 C 
ENDBRANCH   2   8
TORSDOF 3
ENDMDL
MODEL 9
REMARK VINA RESULT:      -4.1      2.331      2.582
REMARK  3 active torsions:
REMARK  status: ('A' for Active; 'I' for Inactive)
REMARK    1  A    between atoms: C2_2  and  C6_6 
REMARK    2  A    between atoms: C2_2  and  O9_9 
REMARK    3  A    between atoms: C5_5  and  C6_6 
ROOT
HETATM    1  C1  UNL     1     -33.953  14.259  -4.149  1.00 20.00     0.074 C 
HETATM    2  C6  UNL     1     -35.341  14.381  -3.662  1.00 20.00     0.192 C 
HETATM    3  N7  UNL     1     -32.861  14.158  -4.530  1.00 20.00    -0.196 NA
ENDROOT
BRANCH   2   4
HETATM    4  C2  UNL     1     -36.338  13.931  -4.716  1.00 20.00     0.276 C 
HETATM    5  O8  UNL     1     -37.515  13.667  -4.505  1.00 20.00    -0.264 OA
BRANCH   4   6
HETATM    6  O9  UNL     1     -35.715  13.857  -5.931  1.00 20.00    -0.325 OA
HETATM    7  C4  UNL     1     -35.985  14.938  -6.830  1.00 20.00     0.213 C 
ENDBRANCH   4   6
ENDBRANCH   2   4
BRANCH   2   8
HETATM    8  C5  UNL     1     -35.639  15.806  -3.172  1.00 20.00     0.025 C 
HETATM    9  C3  UNL     1     -34.899  16.204  -1.898  1.00 20.00     0.007 C 
ENDBRANCH   2   8
TORSDOF 3
ENDMDL
