MODEL 1
REMARK VINA RESULT:      -3.7      0.000      0.000
REMARK  0 active torsions:
REMARK  status: ('A' for Active; 'I' for Inactive)
ROOT
HETATM    1  C1  UNL     1     -24.702  18.279  11.317  1.00 20.00     0.116 C 
HETATM    2  C2  UNL     1     -24.578  15.694  11.766  1.00 20.00     0.344 C 
HETATM    3  C3  UNL     1     -23.343  17.606  11.058  1.00 20.00     0.159 C 
HETATM    4  C4  UNL     1     -22.677  18.232   9.823  1.00 20.00     0.049 C 
HETATM    5  C5  UNL     1     -22.385  17.754  12.253  1.00 20.00     0.049 C 
HETATM    6  N6  UNL     1     -23.611  16.176  10.777  1.00 20.00     0.102 N 
HETATM    7  S7  UNL     1     -25.690  17.048  12.200  1.00 20.00    -0.137 SA
HETATM    8  H18 UNL     1     -22.747  15.657  10.905  1.00 20.00     0.317 HD
ENDROOT
TORSDOF 0
ENDMDL
MODEL 2
REMARK VINA RESULT:      -3.6      2.081      2.913
REMARK  0 active torsions:
REMARK  status: ('A' for Active; 'I' for Inactive)
ROOT
HETATM    1  C1  UNL     1     -23.195  16.919   9.963  1.00 20.00     0.116 C 
HETATM    2  C2  UNL     1     -24.927  18.883   9.746  1.00 20.00     0.344 C 
HETATM    3  C3  UNL     1     -24.159  17.113  11.146  1.00 20.00     0.159 C 
HETATM    4  C4  UNL     1     -24.572  15.746  11.712  1.00 20.00     0.049 C 
HETATM    5  C5  UNL     1     -23.524  17.937  12.282  1.00 20.00     0.049 C 
HETATM    6  N6  UNL     1     -25.365  17.792  10.619  1.00 20.00     0.102 N 
HETATM    7  S7  UNL     1     -23.388  18.396   8.936  1.00 20.00    -0.137 SA
HETATM    8  H18 UNL     1     -25.870  18.200  11.401  1.00 20.00     0.317 HD
ENDROOT
TORSDOF 0
ENDMDL
MODEL 3
REMARK VINA RESULT:      -3.5      1.671      2.218
REMARK  0 active torsions:
REMARK  status: ('A' for Active; 'I' for Inactive)
ROOT
HETATM    1  C1  UNL     1     -23.748  16.582  10.089  1.00 20.00     0.116 C 
HETATM    2  C2  UNL     1     -24.397  17.787  12.332  1.00 20.00     0.344 C 
HETATM    3  C3  UNL     1     -23.582  18.112  10.115  1.00 20.00     0.159 C 
HETATM    4  C4  UNL     1     -22.324  18.514   9.331  1.00 20.00     0.049 C 
HETATM    5  C5  UNL     1     -24.792  18.836   9.498  1.00 20.00     0.049 C 
HETATM    6  N6  UNL     1     -23.404  18.506  11.532  1.00 20.00     0.102 N 
HETATM    7  S7  UNL     1     -24.693  16.173  11.577  1.00 20.00    -0.137 SA
HETATM    8  H18 UNL     1     -23.597  19.501  11.614  1.00 20.00     0.317 HD
ENDROOT
TORSDOF 0
ENDMDL
MODEL 4
REMARK VINA RESULT:      -3.5      2.168      3.157
REMARK  0 active torsions:
REMARK  status: ('A' for Active; 'I' for Inactive)
ROOT
HETATM    1  C1  UNL     1     -22.362  17.721  11.321  1.00 20.00     0.116 C 
HETATM    2  C2  UNL     1     -22.206  17.025   8.793  1.00 20.00     0.344 C 
HETATM    3  C3  UNL     1     -23.611  17.057  10.718  1.00 20.00     0.159 C 
HETATM    4  C4  UNL     1     -24.267  16.135  11.758  1.00 20.00     0.049 C 
HETATM    5  C5  UNL     1     -24.655  18.092  10.260  1.00 20.00     0.049 C 
HETATM    6  N6  UNL     1     -23.157  16.232   9.574  1.00 20.00     0.102 N 
HETATM    7  S7  UNL     1     -21.293  18.107   9.914  1.00 20.00    -0.137 SA
HETATM    8  H18 UNL     1     -23.960  16.035   8.983  1.00 20.00     0.317 HD
ENDROOT
TORSDOF 0
ENDMDL
MODEL 5
REMARK VINA RESULT:      -3.4     22.583     23.487
REMARK  0 active torsions:
REMARK  status: ('A' for Active; 'I' for Inactive)
ROOT
HETATM    1  C1  UNL     1     -41.583   7.635  -1.310  1.00 20.00     0.116 C 
HETATM    2  C2  UNL     1     -41.628   5.807   0.576  1.00 20.00     0.344 C 
HETATM    3  C3  UNL     1     -41.902   8.129   0.112  1.00 20.00     0.159 C 
HETATM    4  C4  UNL     1     -41.249   9.499   0.348  1.00 20.00     0.049 C 
HETATM    5  C5  UNL     1     -43.416   8.265   0.352  1.00 20.00     0.049 C 
HETATM    6  N6  UNL     1     -41.309   7.153   1.055  1.00 20.00     0.102 N 
HETATM    7  S7  UNL     1     -41.684   5.831  -1.230  1.00 20.00    -0.137 SA
HETATM    8  H18 UNL     1     -41.750   7.275   1.962  1.00 20.00     0.317 HD
ENDROOT
TORSDOF 0
ENDMDL
MODEL 6
REMARK VINA RESULT:      -3.3      1.988      2.928
REMARK  0 active torsions:
REMARK  status: ('A' for Active; 'I' for Inactive)
ROOT
HETATM    1  C1  UNL     1     -24.461  18.035  10.057  1.00 20.00     0.116 C 
HETATM    2  C2  UNL     1     -22.544  17.763  11.834  1.00 20.00     0.344 C 
HETATM    3  C3  UNL     1     -24.894  18.029  11.533  1.00 20.00     0.159 C 
HETATM    4  C4  UNL     1     -26.040  19.030  11.745  1.00 20.00     0.049 C 
HETATM    5  C5  UNL     1     -25.373  16.639  11.991  1.00 20.00     0.049 C 
HETATM    6  N6  UNL     1     -23.727  18.468  12.332  1.00 20.00     0.102 N 
HETATM    7  S7  UNL     1     -22.735  17.492  10.058  1.00 20.00    -0.137 SA
HETATM    8  H18 UNL     1     -23.875  18.187  13.297  1.00 20.00     0.317 HD
ENDROOT
TORSDOF 0
ENDMDL
MODEL 7
REMARK VINA RESULT:      -3.2     16.427     17.465
REMARK  0 active torsions:
REMARK  status: ('A' for Active; 'I' for Inactive)
ROOT
HETATM    1  C1  UNL     1     -33.627   6.696   4.362  1.00 20.00     0.116 C 
HETATM    2  C2  UNL     1     -33.365   4.827   2.534  1.00 20.00     0.344 C 
HETATM    3  C3  UNL     1     -34.561   5.480   4.490  1.00 20.00     0.159 C 
HETATM    4  C4  UNL     1     -34.752   5.123   5.972  1.00 20.00     0.049 C 
HETATM    5  C5  UNL     1     -35.945   5.744   3.872  1.00 20.00     0.049 C 
HETATM    6  N6  UNL     1     -33.893   4.345   3.811  1.00 20.00     0.102 N 
HETATM    7  S7  UNL     1     -32.871   6.554   2.724  1.00 20.00    -0.137 SA
HETATM    8  H18 UNL     1     -34.592   3.635   3.613  1.00 20.00     0.317 HD
ENDROOT
TORSDOF 0
ENDMDL
MODEL 8
REMARK VINA RESULT:      -3.1     19.239     19.673
REMARK  0 active torsions:
REMARK  status: ('A' for Active; 'I' for Inactive)
ROOT
HETATM    1  C1  UNL     1     -34.852  16.626  -5.035  1.00 20.00     0.116 C 
HETATM    2  C2  UNL     1     -33.977  14.961  -6.869  1.00 20.00     0.344 C 
HETATM    3  C3  UNL     1     -34.030  15.428  -4.532  1.00 20.00     0.159 C 
HETATM    4  C4  UNL     1     -33.136  15.863  -3.360  1.00 20.00     0.049 C 
HETATM    5  C5  UNL     1     -34.925  14.270  -4.055  1.00 20.00     0.049 C 
HETATM    6  N6  UNL     1     -33.164  14.992  -5.652  1.00 20.00     0.102 N 
HETATM    7  S7  UNL     1     -35.224  16.263  -6.769  1.00 20.00    -0.137 SA
HETATM    8  H18 UNL     1     -32.847  14.046  -5.462  1.00 20.00     0.317 HD
ENDROOT
TORSDOF 0
ENDMDL
MODEL 9
REMARK VINA RESULT:      -3.1     17.960     18.389
REMARK  0 active torsions:
REMARK  status: ('A' for Active; 'I' for Inactive)
ROOT
HETATM    1  C1  UNL     1     -34.332  17.268  -4.449  1.00 20.00     0.116 C 
HETATM    2  C2  UNL     1     -33.617  14.832  -5.126  1.00 20.00     0.344 C 
HETATM    3  C3  UNL     1     -33.737  16.396  -3.331  1.00 20.00     0.159 C 
HETATM    4  C4  UNL     1     -32.858  17.256  -2.409  1.00 20.00     0.049 C 
HETATM    5  C5  UNL     1     -34.827  15.727  -2.475  1.00 20.00     0.049 C 
HETATM    6  N6  UNL     1     -32.883  15.375  -3.981  1.00 20.00     0.102 N 
HETATM    7  S7  UNL     1     -34.651  16.138  -5.825  1.00 20.00    -0.137 SA
HETATM    8  H18 UNL     1     -32.729  14.619  -3.321  1.00 20.00     0.317 HD
ENDROOT
TORSDOF 0
ENDMDL
