MODEL 1
REMARK VINA RESULT:      -4.8      0.000      0.000
REMARK  1 active torsions:
REMARK  status: ('A' for Active; 'I' for Inactive)
REMARK    1  A    between atoms: C6_6  and  N7_7 
ROOT
HETATM    1  C1  UNL     1     -34.144  16.108  -2.333  1.00 20.00     0.000 C 
HETATM    2  C2  UNL     1     -35.583  16.350  -2.777  1.00 20.00     0.003 C 
HETATM    3  C3  UNL     1     -33.236  15.759  -3.509  1.00 20.00     0.003 C 
HETATM    4  C4  UNL     1     -36.134  15.166  -3.575  1.00 20.00     0.046 C 
HETATM    5  C5  UNL     1     -33.781  14.574  -4.309  1.00 20.00     0.046 C 
HETATM    6  C6  UNL     1     -35.236  14.776  -4.758  1.00 20.00     0.136 C 
HETATM    7 CL9  UNL     1     -35.320  16.029  -6.041  1.00 20.00    -0.098 Cl
ENDROOT
BRANCH   6   8
HETATM    8  N7  UNL     1     -35.743  13.501  -5.356  1.00 20.00    -0.037 NA
HETATM    9  O8  UNL     1     -35.818  12.607  -4.513  1.00 20.00    -0.099 OA
ENDBRANCH   6   8
TORSDOF 1
ENDMDL
MODEL 2
REMARK VINA RESULT:      -4.4      1.716      2.215
REMARK  1 active torsions:
REMARK  status: ('A' for Active; 'I' for Inactive)
REMARK    1  A    between atoms: C6_6  and  N7_7 
ROOT
HETATM    1  C1  UNL     1     -35.407  17.201  -4.455  1.00 20.00     0.000 C 
HETATM    2  C2  UNL     1     -34.949  16.411  -5.677  1.00 20.00     0.003 C 
HETATM    3  C3  UNL     1     -34.700  16.743  -3.183  1.00 20.00     0.003 C 
HETATM    4  C4  UNL     1     -35.104  14.903  -5.465  1.00 20.00     0.046 C 
HETATM    5  C5  UNL     1     -34.855  15.236  -2.964  1.00 20.00     0.046 C 
HETATM    6  C6  UNL     1     -34.419  14.409  -4.182  1.00 20.00     0.136 C 
HETATM    7 CL9  UNL     1     -32.635  14.472  -4.369  1.00 20.00    -0.098 Cl
ENDROOT
BRANCH   6   8
HETATM    8  N7  UNL     1     -34.786  12.976  -3.955  1.00 20.00    -0.037 NA
HETATM    9  O8  UNL     1     -35.839  12.685  -4.521  1.00 20.00    -0.099 OA
ENDBRANCH   6   8
TORSDOF 1
ENDMDL
MODEL 3
REMARK VINA RESULT:      -4.2      1.405      1.641
REMARK  1 active torsions:
REMARK  status: ('A' for Active; 'I' for Inactive)
REMARK    1  A    between atoms: C6_6  and  N7_7 
ROOT
HETATM    1  C1  UNL     1     -33.485  16.832  -3.669  1.00 20.00     0.000 C 
HETATM    2  C2  UNL     1     -34.212  15.902  -2.704  1.00 20.00     0.003 C 
HETATM    3  C3  UNL     1     -34.345  17.180  -4.881  1.00 20.00     0.003 C 
HETATM    4  C4  UNL     1     -34.721  14.642  -3.408  1.00 20.00     0.046 C 
HETATM    5  C5  UNL     1     -34.853  15.924  -5.591  1.00 20.00     0.046 C 
HETATM    6  C6  UNL     1     -35.577  14.955  -4.644  1.00 20.00     0.136 C 
HETATM    7 CL9  UNL     1     -37.158  15.641  -4.145  1.00 20.00    -0.098 Cl
ENDROOT
BRANCH   6   8
HETATM    8  N7  UNL     1     -35.862  13.680  -5.375  1.00 20.00    -0.037 NA
HETATM    9  O8  UNL     1     -35.882  12.717  -4.609  1.00 20.00    -0.099 OA
ENDBRANCH   6   8
TORSDOF 1
ENDMDL
MODEL 4
REMARK VINA RESULT:      -4.2      1.474      2.044
REMARK  1 active torsions:
REMARK  status: ('A' for Active; 'I' for Inactive)
REMARK    1  A    between atoms: C6_6  and  N7_7 
ROOT
HETATM    1  C1  UNL     1     -33.193  14.853  -4.370  1.00 20.00     0.000 C 
HETATM    2  C2  UNL     1     -33.803  15.662  -3.231  1.00 20.00     0.003 C 
HETATM    3  C3  UNL     1     -34.041  14.923  -5.637  1.00 20.00     0.003 C 
HETATM    4  C4  UNL     1     -35.251  15.250  -2.957  1.00 20.00     0.046 C 
HETATM    5  C5  UNL     1     -35.490  14.509  -5.369  1.00 20.00     0.046 C 
HETATM    6  C6  UNL     1     -36.131  15.293  -4.215  1.00 20.00     0.136 C 
HETATM    7 CL9  UNL     1     -36.424  16.994  -4.708  1.00 20.00    -0.098 Cl
ENDROOT
BRANCH   6   8
HETATM    8  N7  UNL     1     -37.464  14.691  -3.898  1.00 20.00    -0.037 NA
HETATM    9  O8  UNL     1     -37.614  13.606  -4.460  1.00 20.00    -0.099 OA
ENDBRANCH   6   8
TORSDOF 1
ENDMDL
MODEL 5
REMARK VINA RESULT:      -4.2     18.538     18.824
REMARK  1 active torsions:
REMARK  status: ('A' for Active; 'I' for Inactive)
REMARK    1  A    between atoms: C6_6  and  N7_7 
ROOT
HETATM    1  C1  UNL     1     -26.139  17.012  12.332  1.00 20.00     0.000 C 
HETATM    2  C2  UNL     1     -25.615  18.413  12.036  1.00 20.00     0.003 C 
HETATM    3  C3  UNL     1     -25.038  15.960  12.235  1.00 20.00     0.003 C 
HETATM    4  C4  UNL     1     -24.901  18.476  10.684  1.00 20.00     0.046 C 
HETATM    5  C5  UNL     1     -24.323  16.015  10.883  1.00 20.00     0.046 C 
HETATM    6  C6  UNL     1     -23.796  17.418  10.544  1.00 20.00     0.136 C 
HETATM    7 CL9  UNL     1     -22.406  17.830  11.602  1.00 20.00    -0.098 Cl
ENDROOT
BRANCH   6   8
HETATM    8  N7  UNL     1     -23.292  17.422   9.135  1.00 20.00    -0.037 NA
HETATM    9  O8  UNL     1     -22.479  16.518   8.945  1.00 20.00    -0.099 OA
ENDBRANCH   6   8
TORSDOF 1
ENDMDL
MODEL 6
REMARK VINA RESULT:      -4.2      1.759      2.409
REMARK  1 active torsions:
REMARK  status: ('A' for Active; 'I' for Inactive)
REMARK    1  A    between atoms: C6_6  and  N7_7 
ROOT
HETATM    1  C1  UNL     1     -33.531  15.972  -3.008  1.00 20.00     0.000 C 
HETATM    2  C2  UNL     1     -33.129  15.011  -4.123  1.00 20.00     0.003 C 
HETATM    3  C3  UNL     1     -34.963  15.731  -2.537  1.00 20.00     0.003 C 
HETATM    4  C4  UNL     1     -34.116  15.057  -5.291  1.00 20.00     0.046 C 
HETATM    5  C5  UNL     1     -35.954  15.779  -3.701  1.00 20.00     0.046 C 
HETATM    6  C6  UNL     1     -35.571  14.836  -4.851  1.00 20.00     0.136 C 
HETATM    7 CL9  UNL     1     -35.816  13.127  -4.358  1.00 20.00    -0.098 Cl
ENDROOT
BRANCH   6   8
HETATM    8  N7  UNL     1     -36.477  15.092  -6.014  1.00 20.00    -0.037 NA
HETATM    9  O8  UNL     1     -36.228  14.336  -6.954  1.00 20.00    -0.099 OA
ENDBRANCH   6   8
TORSDOF 1
ENDMDL
MODEL 7
REMARK VINA RESULT:      -4.1      1.950      2.841
REMARK  1 active torsions:
REMARK  status: ('A' for Active; 'I' for Inactive)
REMARK    1  A    between atoms: C6_6  and  N7_7 
ROOT
HETATM    1  C1  UNL     1     -36.401  16.803  -5.800  1.00 20.00     0.000 C 
HETATM    2  C2  UNL     1     -34.884  16.642  -5.777  1.00 20.00     0.003 C 
HETATM    3  C3  UNL     1     -37.045  16.310  -4.508  1.00 20.00     0.003 C 
HETATM    4  C4  UNL     1     -34.474  15.202  -5.463  1.00 20.00     0.046 C 
HETATM    5  C5  UNL     1     -36.641  14.869  -4.190  1.00 20.00     0.046 C 
HETATM    6  C6  UNL     1     -35.119  14.666  -4.176  1.00 20.00     0.136 C 
HETATM    7 CL9  UNL     1     -34.399  15.469  -2.741  1.00 20.00    -0.098 Cl
ENDROOT
BRANCH   6   8
HETATM    8  N7  UNL     1     -34.823  13.204  -4.055  1.00 20.00    -0.037 NA
HETATM    9  O8  UNL     1     -35.763  12.519  -4.458  1.00 20.00    -0.099 OA
ENDBRANCH   6   8
TORSDOF 1
ENDMDL
MODEL 8
REMARK VINA RESULT:      -4.0      1.542      2.174
REMARK  1 active torsions:
REMARK  status: ('A' for Active; 'I' for Inactive)
REMARK    1  A    between atoms: C6_6  and  N7_7 
ROOT
HETATM    1  C1  UNL     1     -37.290  16.794  -3.472  1.00 20.00     0.000 C 
HETATM    2  C2  UNL     1     -38.155  15.980  -4.428  1.00 20.00     0.003 C 
HETATM    3  C3  UNL     1     -35.801  16.570  -3.718  1.00 20.00     0.003 C 
HETATM    4  C4  UNL     1     -37.800  14.492  -4.383  1.00 20.00     0.046 C 
HETATM    5  C5  UNL     1     -35.439  15.084  -3.672  1.00 20.00     0.046 C 
HETATM    6  C6  UNL     1     -36.303  14.230  -4.611  1.00 20.00     0.136 C 
HETATM    7 CL9  UNL     1     -35.870  14.559  -6.322  1.00 20.00    -0.098 Cl
ENDROOT
BRANCH   6   8
HETATM    8  N7  UNL     1     -36.017  12.783  -4.357  1.00 20.00    -0.037 NA
HETATM    9  O8  UNL     1     -34.864  12.615  -3.961  1.00 20.00    -0.099 OA
ENDBRANCH   6   8
TORSDOF 1
ENDMDL
MODEL 9
REMARK VINA RESULT:      -4.0     17.514     18.102
REMARK  1 active torsions:
REMARK  status: ('A' for Active; 'I' for Inactive)
REMARK    1  A    between atoms: C6_6  and  N7_7 
ROOT
HETATM    1  C1  UNL     1     -25.235  18.364  10.524  1.00 20.00     0.000 C 
HETATM    2  C2  UNL     1     -24.688  19.255   9.414  1.00 20.00     0.003 C 
HETATM    3  C3  UNL     1     -24.145  17.493  11.144  1.00 20.00     0.003 C 
HETATM    4  C4  UNL     1     -23.951  18.442   8.348  1.00 20.00     0.046 C 
HETATM    5  C5  UNL     1     -23.406  16.676  10.083  1.00 20.00     0.046 C 
HETATM    6  C6  UNL     1     -22.856  17.540   8.939  1.00 20.00     0.136 C 
HETATM    7 CL9  UNL     1     -21.480  18.535   9.520  1.00 20.00    -0.098 Cl
ENDROOT
BRANCH   6   8
HETATM    8  N7  UNL     1     -22.328  16.646   7.862  1.00 20.00    -0.037 NA
HETATM    9  O8  UNL     1     -21.813  17.294   6.951  1.00 20.00    -0.099 OA
ENDBRANCH   6   8
TORSDOF 1
ENDMDL
