MODEL 1
REMARK VINA RESULT:      -4.1      0.000      0.000
REMARK  2 active torsions:
REMARK  status: ('A' for Active; 'I' for Inactive)
REMARK    1  A    between atoms: C3_3  and  C8_8 
REMARK       I    between atoms: C3_3  and  N10_10 
REMARK    2  A    between atoms: C9_9  and  N10_10 
ROOT
HETATM    1  C1  UNL     1     -31.665  18.346  -0.836  1.00 20.00     0.015 C 
HETATM    2  C2  UNL     1     -32.757  17.985  -1.184  1.00 20.00    -0.086 C 
HETATM    3  C6  UNL     1     -34.984  17.326  -0.379  1.00 20.00     0.052 C 
HETATM    4  C7  UNL     1     -34.728  18.600  -2.525  1.00 20.00     0.052 C 
HETATM    5  C9  UNL     1     -34.099  17.543  -1.612  1.00 20.00     0.088 C 
ENDROOT
BRANCH   5   6
HETATM    6  N10 UNL     1     -33.975  16.301  -2.339  1.00 20.00    -0.341 N 
HETATM    7  C3  UNL     1     -35.049  15.691  -2.971  1.00 20.00     0.222 C 
HETATM    8  O11 UNL     1     -36.197  16.131  -2.983  1.00 20.00    -0.273 OA
HETATM    9  H26 UNL     1     -33.064  15.855  -2.389  1.00 20.00     0.164 HD
BRANCH   7  10
HETATM   10  C8  UNL     1     -34.656  14.389  -3.665  1.00 20.00     0.070 C 
HETATM   11  C4  UNL     1     -35.781  13.921  -4.585  1.00 20.00     0.019 C 
HETATM   12  C5  UNL     1     -33.358  14.556  -4.453  1.00 20.00     0.019 C 
ENDBRANCH   7  10
ENDBRANCH   5   6
TORSDOF 2
ENDMDL
MODEL 2
REMARK VINA RESULT:      -4.1      0.366      1.814
REMARK  2 active torsions:
REMARK  status: ('A' for Active; 'I' for Inactive)
REMARK    1  A    between atoms: C3_3  and  C8_8 
REMARK       I    between atoms: C3_3  and  N10_10 
REMARK    2  A    between atoms: C9_9  and  N10_10 
ROOT
HETATM    1  C1  UNL     1     -35.448  17.275   0.392  1.00 20.00     0.015 C 
HETATM    2  C2  UNL     1     -34.734  17.406  -0.565  1.00 20.00    -0.086 C 
HETATM    3  C6  UNL     1     -34.426  18.651  -2.662  1.00 20.00     0.052 C 
HETATM    4  C7  UNL     1     -32.446  17.958  -1.287  1.00 20.00     0.052 C 
HETATM    5  C9  UNL     1     -33.856  17.567  -1.741  1.00 20.00     0.088 C 
ENDROOT
BRANCH   5   6
HETATM    6  N10 UNL     1     -33.793  16.313  -2.456  1.00 20.00    -0.341 N 
HETATM    7  C3  UNL     1     -34.917  15.693  -2.981  1.00 20.00     0.222 C 
HETATM    8  O11 UNL     1     -36.063  16.131  -2.899  1.00 20.00    -0.273 OA
HETATM    9  H26 UNL     1     -32.890  15.867  -2.580  1.00 20.00     0.164 HD
BRANCH   7  10
HETATM   10  C8  UNL     1     -34.584  14.380  -3.687  1.00 20.00     0.070 C 
HETATM   11  C4  UNL     1     -35.754  13.941  -4.566  1.00 20.00     0.019 C 
HETATM   12  C5  UNL     1     -33.310  14.510  -4.520  1.00 20.00     0.019 C 
ENDBRANCH   7  10
ENDBRANCH   5   6
TORSDOF 2
ENDMDL
MODEL 3
REMARK VINA RESULT:      -4.0      2.172      4.796
REMARK  2 active torsions:
REMARK  status: ('A' for Active; 'I' for Inactive)
REMARK    1  A    between atoms: C3_3  and  C8_8 
REMARK       I    between atoms: C3_3  and  N10_10 
REMARK    2  A    between atoms: C9_9  and  N10_10 
ROOT
HETATM    1  C1  UNL     1     -34.024  15.238  -7.403  1.00 20.00     0.015 C 
HETATM    2  C2  UNL     1     -34.830  15.232  -6.512  1.00 20.00    -0.086 C 
HETATM    3  C6  UNL     1     -37.078  15.982  -5.858  1.00 20.00     0.052 C 
HETATM    4  C7  UNL     1     -36.184  13.780  -5.056  1.00 20.00     0.052 C 
HETATM    5  C9  UNL     1     -35.821  15.224  -5.418  1.00 20.00     0.088 C 
ENDROOT
BRANCH   5   6
HETATM    6  N10 UNL     1     -35.249  15.873  -4.261  1.00 20.00    -0.341 N 
HETATM    7  C3  UNL     1     -34.064  15.453  -3.674  1.00 20.00     0.222 C 
HETATM    8  O11 UNL     1     -33.385  14.506  -4.065  1.00 20.00    -0.273 OA
HETATM    9  H26 UNL     1     -35.735  16.670  -3.860  1.00 20.00     0.164 HD
BRANCH   7  10
HETATM   10  C8  UNL     1     -33.678  16.303  -2.465  1.00 20.00     0.070 C 
HETATM   11  C4  UNL     1     -32.971  17.578  -2.920  1.00 20.00     0.019 C 
HETATM   12  C5  UNL     1     -34.903  16.645  -1.619  1.00 20.00     0.019 C 
ENDBRANCH   7  10
ENDBRANCH   5   6
TORSDOF 2
ENDMDL
MODEL 4
REMARK VINA RESULT:      -4.0      2.006      4.936
REMARK  2 active torsions:
REMARK  status: ('A' for Active; 'I' for Inactive)
REMARK    1  A    between atoms: C3_3  and  C8_8 
REMARK       I    between atoms: C3_3  and  N10_10 
REMARK    2  A    between atoms: C9_9  and  N10_10 
ROOT
HETATM    1  C1  UNL     1     -39.116  14.947  -4.163  1.00 20.00     0.015 C 
HETATM    2  C2  UNL     1     -37.931  14.878  -4.348  1.00 20.00    -0.086 C 
HETATM    3  C6  UNL     1     -36.037  13.326  -4.561  1.00 20.00     0.052 C 
HETATM    4  C7  UNL     1     -36.123  15.428  -5.926  1.00 20.00     0.052 C 
HETATM    5  C9  UNL     1     -36.474  14.795  -4.576  1.00 20.00     0.088 C 
ENDROOT
BRANCH   5   6
HETATM    6  N10 UNL     1     -35.792  15.510  -3.524  1.00 20.00    -0.341 N 
HETATM    7  C3  UNL     1     -34.413  15.486  -3.372  1.00 20.00     0.222 C 
HETATM    8  O11 UNL     1     -33.638  14.868  -4.099  1.00 20.00    -0.273 OA
HETATM    9  H26 UNL     1     -36.343  16.053  -2.867  1.00 20.00     0.164 HD
BRANCH   7  10
HETATM   10  C8  UNL     1     -33.941  16.319  -2.182  1.00 20.00     0.070 C 
HETATM   11  C4  UNL     1     -33.108  17.505  -2.666  1.00 20.00     0.019 C 
HETATM   12  C5  UNL     1     -35.124  16.804  -1.346  1.00 20.00     0.019 C 
ENDBRANCH   7  10
ENDBRANCH   5   6
TORSDOF 2
ENDMDL
MODEL 5
REMARK VINA RESULT:      -4.0      2.802      5.060
REMARK  2 active torsions:
REMARK  status: ('A' for Active; 'I' for Inactive)
REMARK    1  A    between atoms: C3_3  and  C8_8 
REMARK       I    between atoms: C3_3  and  N10_10 
REMARK    2  A    between atoms: C9_9  and  N10_10 
ROOT
HETATM    1  C1  UNL     1     -36.085  17.657  -7.778  1.00 20.00     0.015 C 
HETATM    2  C2  UNL     1     -35.578  16.733  -7.201  1.00 20.00    -0.086 C 
HETATM    3  C6  UNL     1     -35.955  14.439  -6.402  1.00 20.00     0.052 C 
HETATM    4  C7  UNL     1     -33.699  15.143  -7.243  1.00 20.00     0.052 C 
HETATM    5  C9  UNL     1     -34.955  15.597  -6.493  1.00 20.00     0.088 C 
ENDROOT
BRANCH   5   6
HETATM    6  N10 UNL     1     -34.586  16.019  -5.161  1.00 20.00    -0.341 N 
HETATM    7  C3  UNL     1     -34.005  15.163  -4.237  1.00 20.00     0.222 C 
HETATM    8  O11 UNL     1     -33.744  13.980  -4.445  1.00 20.00    -0.273 OA
HETATM    9  H26 UNL     1     -34.760  16.982  -4.890  1.00 20.00     0.164 HD
BRANCH   7  10
HETATM   10  C8  UNL     1     -33.715  15.851  -2.905  1.00 20.00     0.070 C 
HETATM   11  C4  UNL     1     -33.032  17.196  -3.143  1.00 20.00     0.019 C 
HETATM   12  C5  UNL     1     -34.995  16.039  -2.093  1.00 20.00     0.019 C 
ENDBRANCH   7  10
ENDBRANCH   5   6
TORSDOF 2
ENDMDL
MODEL 6
REMARK VINA RESULT:      -3.9      2.913      3.778
REMARK  2 active torsions:
REMARK  status: ('A' for Active; 'I' for Inactive)
REMARK    1  A    between atoms: C3_3  and  C8_8 
REMARK       I    between atoms: C3_3  and  N10_10 
REMARK    2  A    between atoms: C9_9  and  N10_10 
ROOT
HETATM    1  C1  UNL     1     -32.900  17.387  -2.109  1.00 20.00     0.015 C 
HETATM    2  C2  UNL     1     -33.265  16.605  -2.945  1.00 20.00    -0.086 C 
HETATM    3  C6  UNL     1     -32.604  14.618  -4.234  1.00 20.00     0.052 C 
HETATM    4  C7  UNL     1     -34.982  14.929  -3.497  1.00 20.00     0.052 C 
HETATM    5  C9  UNL     1     -33.713  15.644  -3.973  1.00 20.00     0.088 C 
ENDROOT
BRANCH   5   6
HETATM    6  N10 UNL     1     -34.001  16.361  -5.193  1.00 20.00    -0.341 N 
HETATM    7  C3  UNL     1     -34.473  15.735  -6.337  1.00 20.00     0.222 C 
HETATM    8  O11 UNL     1     -34.694  14.529  -6.437  1.00 20.00    -0.273 OA
HETATM    9  H26 UNL     1     -33.852  17.365  -5.215  1.00 20.00     0.164 HD
BRANCH   7  10
HETATM   10  C8  UNL     1     -34.695  16.712  -7.490  1.00 20.00     0.070 C 
HETATM   11  C4  UNL     1     -36.181  16.798  -7.831  1.00 20.00     0.019 C 
HETATM   12  C5  UNL     1     -34.144  18.097  -7.150  1.00 20.00     0.019 C 
ENDBRANCH   7  10
ENDBRANCH   5   6
TORSDOF 2
ENDMDL
MODEL 7
REMARK VINA RESULT:      -3.9      1.791      4.577
REMARK  2 active torsions:
REMARK  status: ('A' for Active; 'I' for Inactive)
REMARK    1  A    between atoms: C3_3  and  C8_8 
REMARK       I    between atoms: C3_3  and  N10_10 
REMARK    2  A    between atoms: C9_9  and  N10_10 
ROOT
HETATM    1  C1  UNL     1     -35.117  16.788  -5.910  1.00 20.00     0.015 C 
HETATM    2  C2  UNL     1     -35.455  16.020  -5.051  1.00 20.00    -0.086 C 
HETATM    3  C6  UNL     1     -37.244  14.490  -4.341  1.00 20.00     0.052 C 
HETATM    4  C7  UNL     1     -34.840  13.948  -3.872  1.00 20.00     0.052 C 
HETATM    5  C9  UNL     1     -35.870  15.075  -3.995  1.00 20.00     0.088 C 
ENDROOT
BRANCH   5   6
HETATM    6  N10 UNL     1     -35.952  15.782  -2.737  1.00 20.00    -0.341 N 
HETATM    7  C3  UNL     1     -34.836  16.283  -2.084  1.00 20.00     0.222 C 
HETATM    8  O11 UNL     1     -33.681  16.184  -2.493  1.00 20.00    -0.273 OA
HETATM    9  H26 UNL     1     -36.865  15.918  -2.314  1.00 20.00     0.164 HD
BRANCH   7  10
HETATM   10  C8  UNL     1     -35.191  16.984  -0.774  1.00 20.00     0.070 C 
HETATM   11  C4  UNL     1     -34.041  17.886  -0.330  1.00 20.00     0.019 C 
HETATM   12  C5  UNL     1     -36.480  17.792  -0.914  1.00 20.00     0.019 C 
ENDBRANCH   7  10
ENDBRANCH   5   6
TORSDOF 2
ENDMDL
MODEL 8
REMARK VINA RESULT:      -3.9      1.957      4.556
REMARK  2 active torsions:
REMARK  status: ('A' for Active; 'I' for Inactive)
REMARK    1  A    between atoms: C3_3  and  C8_8 
REMARK       I    between atoms: C3_3  and  N10_10 
REMARK    2  A    between atoms: C9_9  and  N10_10 
ROOT
HETATM    1  C1  UNL     1     -32.801  15.064  -4.102  1.00 20.00     0.015 C 
HETATM    2  C2  UNL     1     -33.371  15.879  -3.427  1.00 20.00    -0.086 C 
HETATM    3  C6  UNL     1     -34.641  17.983  -3.495  1.00 20.00     0.052 C 
HETATM    4  C7  UNL     1     -35.204  16.206  -1.816  1.00 20.00     0.052 C 
HETATM    5  C9  UNL     1     -34.070  16.879  -2.596  1.00 20.00     0.088 C 
ENDROOT
BRANCH   5   6
HETATM    6  N10 UNL     1     -33.130  17.457  -1.664  1.00 20.00    -0.341 N 
HETATM    7  C3  UNL     1     -33.514  18.327  -0.654  1.00 20.00     0.222 C 
HETATM    8  O11 UNL     1     -34.669  18.693  -0.445  1.00 20.00    -0.273 OA
HETATM    9  H26 UNL     1     -32.148  17.218  -1.752  1.00 20.00     0.164 HD
BRANCH   7  10
HETATM   10  C8  UNL     1     -32.332  18.799   0.191  1.00 20.00     0.070 C 
HETATM   11  C4  UNL     1     -32.531  18.392   1.649  1.00 20.00     0.019 C 
HETATM   12  C5  UNL     1     -31.015  18.240  -0.344  1.00 20.00     0.019 C 
ENDBRANCH   7  10
ENDBRANCH   5   6
TORSDOF 2
ENDMDL
MODEL 9
REMARK VINA RESULT:      -3.8      2.166      4.898
REMARK  2 active torsions:
REMARK  status: ('A' for Active; 'I' for Inactive)
REMARK    1  A    between atoms: C3_3  and  C8_8 
REMARK       I    between atoms: C3_3  and  N10_10 
REMARK    2  A    between atoms: C9_9  and  N10_10 
ROOT
HETATM    1  C1  UNL     1     -36.332  13.545  -4.624  1.00 20.00     0.015 C 
HETATM    2  C2  UNL     1     -35.788  14.477  -5.152  1.00 20.00    -0.086 C 
HETATM    3  C6  UNL     1     -34.044  15.109  -6.765  1.00 20.00     0.052 C 
HETATM    4  C7  UNL     1     -36.150  16.458  -6.568  1.00 20.00     0.052 C 
HETATM    5  C9  UNL     1     -35.120  15.622  -5.801  1.00 20.00     0.088 C 
ENDROOT
BRANCH   5   6
HETATM    6  N10 UNL     1     -34.503  16.444  -4.786  1.00 20.00    -0.341 N 
HETATM    7  C3  UNL     1     -33.505  15.974  -3.945  1.00 20.00     0.222 C 
HETATM    8  O11 UNL     1     -33.045  14.835  -3.970  1.00 20.00    -0.273 OA
HETATM    9  H26 UNL     1     -34.813  17.405  -4.683  1.00 20.00     0.164 HD
BRANCH   7  10
HETATM   10  C8  UNL     1     -33.023  17.037  -2.959  1.00 20.00     0.070 C 
HETATM   11  C4  UNL     1     -32.945  18.398  -3.647  1.00 20.00     0.019 C 
HETATM   12  C5  UNL     1     -33.938  17.109  -1.738  1.00 20.00     0.019 C 
ENDBRANCH   7  10
ENDBRANCH   5   6
TORSDOF 2
ENDMDL
