MODEL 1
REMARK VINA RESULT:      -4.5      0.000      0.000
REMARK  2 active torsions:
REMARK  status: ('A' for Active; 'I' for Inactive)
REMARK    1  A    between atoms: C1_1  and  C6_6 
REMARK    2  A    between atoms: C1_1  and  O9_9 
ROOT
HETATM    1  C2  UNL     1     -34.706  15.450  -2.832  1.00 20.00     0.024 C 
HETATM    2  C3  UNL     1     -33.364  14.588  -4.229  1.00 20.00     0.024 C 
HETATM    3  C4  UNL     1     -34.636  16.177  -4.823  1.00 20.00     0.024 C 
HETATM    4  C5  UNL     1     -33.548  16.053  -3.700  1.00 20.00    -0.011 C 
HETATM    5  C6  UNL     1     -34.913  14.766  -4.217  1.00 20.00     0.049 C 
ENDROOT
BRANCH   5   6
HETATM    6  C1  UNL     1     -35.954  13.782  -4.610  1.00 20.00     0.267 C 
HETATM    7  O8  UNL     1     -35.852  12.575  -4.445  1.00 20.00    -0.264 OA
BRANCH   6   8
HETATM    8  O9  UNL     1     -37.011  14.437  -5.170  1.00 20.00    -0.326 OA
HETATM    9  C7  UNL     1     -38.094  14.729  -4.280  1.00 20.00     0.213 C 
ENDBRANCH   6   8
ENDBRANCH   5   6
TORSDOF 2
ENDMDL
MODEL 2
REMARK VINA RESULT:      -4.5      0.028      1.225
REMARK  2 active torsions:
REMARK  status: ('A' for Active; 'I' for Inactive)
REMARK    1  A    between atoms: C1_1  and  C6_6 
REMARK    2  A    between atoms: C1_1  and  O9_9 
ROOT
HETATM    1  C2  UNL     1     -34.625  16.157  -4.849  1.00 20.00     0.024 C 
HETATM    2  C3  UNL     1     -34.683  15.440  -2.855  1.00 20.00     0.024 C 
HETATM    3  C4  UNL     1     -33.350  14.570  -4.255  1.00 20.00     0.024 C 
HETATM    4  C5  UNL     1     -33.530  16.038  -3.733  1.00 20.00    -0.011 C 
HETATM    5  C6  UNL     1     -34.900  14.750  -4.236  1.00 20.00     0.049 C 
ENDROOT
BRANCH   5   6
HETATM    6  C1  UNL     1     -35.947  13.769  -4.619  1.00 20.00     0.267 C 
HETATM    7  O8  UNL     1     -35.849  12.562  -4.448  1.00 20.00    -0.264 OA
BRANCH   6   8
HETATM    8  O9  UNL     1     -37.003  14.425  -5.179  1.00 20.00    -0.326 OA
HETATM    9  C7  UNL     1     -38.076  14.737  -4.284  1.00 20.00     0.213 C 
ENDBRANCH   6   8
ENDBRANCH   5   6
TORSDOF 2
ENDMDL
MODEL 3
REMARK VINA RESULT:      -4.5      0.032      1.223
REMARK  2 active torsions:
REMARK  status: ('A' for Active; 'I' for Inactive)
REMARK    1  A    between atoms: C1_1  and  C6_6 
REMARK    2  A    between atoms: C1_1  and  O9_9 
ROOT
HETATM    1  C2  UNL     1     -33.377  14.584  -4.186  1.00 20.00     0.024 C 
HETATM    2  C3  UNL     1     -34.640  16.178  -4.788  1.00 20.00     0.024 C 
HETATM    3  C4  UNL     1     -34.734  15.444  -2.801  1.00 20.00     0.024 C 
HETATM    4  C5  UNL     1     -33.564  16.047  -3.654  1.00 20.00    -0.011 C 
HETATM    5  C6  UNL     1     -34.926  14.765  -4.193  1.00 20.00     0.049 C 
ENDROOT
BRANCH   5   6
HETATM    6  C1  UNL     1     -35.964  13.787  -4.607  1.00 20.00     0.267 C 
HETATM    7  O8  UNL     1     -35.862  12.577  -4.458  1.00 20.00    -0.264 OA
BRANCH   6   8
HETATM    8  O9  UNL     1     -37.017  14.449  -5.164  1.00 20.00    -0.326 OA
HETATM    9  C7  UNL     1     -38.106  14.728  -4.278  1.00 20.00     0.213 C 
ENDBRANCH   6   8
ENDBRANCH   5   6
TORSDOF 2
ENDMDL
MODEL 4
REMARK VINA RESULT:      -4.5     11.681     12.489
REMARK  2 active torsions:
REMARK  status: ('A' for Active; 'I' for Inactive)
REMARK    1  A    between atoms: C1_1  and  C6_6 
REMARK    2  A    between atoms: C1_1  and  O9_9 
ROOT
HETATM    1  C2  UNL     1     -35.544   5.559   4.369  1.00 20.00     0.024 C 
HETATM    2  C3  UNL     1     -33.972   4.462   5.276  1.00 20.00     0.024 C 
HETATM    3  C4  UNL     1     -34.022   6.576   5.441  1.00 20.00     0.024 C 
HETATM    4  C5  UNL     1     -35.041   5.456   5.851  1.00 20.00    -0.011 C 
HETATM    5  C6  UNL     1     -33.993   5.607   4.218  1.00 20.00     0.049 C 
ENDROOT
BRANCH   5   6
HETATM    6  C1  UNL     1     -33.194   5.721   2.971  1.00 20.00     0.267 C 
HETATM    7  O8  UNL     1     -33.160   4.865   2.099  1.00 20.00    -0.264 OA
BRANCH   6   8
HETATM    8  O9  UNL     1     -32.524   6.909   2.966  1.00 20.00    -0.326 OA
HETATM    9  C7  UNL     1     -32.508   7.600   1.712  1.00 20.00     0.213 C 
ENDBRANCH   6   8
ENDBRANCH   5   6
TORSDOF 2
ENDMDL
MODEL 5
REMARK VINA RESULT:      -4.1      1.003      1.764
REMARK  2 active torsions:
REMARK  status: ('A' for Active; 'I' for Inactive)
REMARK    1  A    between atoms: C1_1  and  C6_6 
REMARK    2  A    between atoms: C1_1  and  O9_9 
ROOT
HETATM    1  C2  UNL     1     -34.529  16.430  -4.587  1.00 20.00     0.024 C 
HETATM    2  C3  UNL     1     -34.761  15.363  -2.769  1.00 20.00     0.024 C 
HETATM    3  C4  UNL     1     -33.282  14.767  -4.167  1.00 20.00     0.024 C 
HETATM    4  C5  UNL     1     -33.542  16.115  -3.409  1.00 20.00    -0.011 C 
HETATM    5  C6  UNL     1     -34.830  14.934  -4.267  1.00 20.00     0.049 C 
ENDROOT
BRANCH   5   6
HETATM    6  C1  UNL     1     -35.814  14.035  -4.921  1.00 20.00     0.267 C 
HETATM    7  O8  UNL     1     -35.993  12.868  -4.602  1.00 20.00    -0.264 OA
BRANCH   6   8
HETATM    8  O9  UNL     1     -36.464  14.714  -5.909  1.00 20.00    -0.326 OA
HETATM    9  C7  UNL     1     -35.819  14.705  -7.187  1.00 20.00     0.213 C 
ENDBRANCH   6   8
ENDBRANCH   5   6
TORSDOF 2
ENDMDL
MODEL 6
REMARK VINA RESULT:      -3.9      1.538      2.347
REMARK  2 active torsions:
REMARK  status: ('A' for Active; 'I' for Inactive)
REMARK    1  A    between atoms: C1_1  and  C6_6 
REMARK    2  A    between atoms: C1_1  and  O9_9 
ROOT
HETATM    1  C2  UNL     1     -34.802  17.146  -3.884  1.00 20.00     0.024 C 
HETATM    2  C3  UNL     1     -34.930  15.871  -2.194  1.00 20.00     0.024 C 
HETATM    3  C4  UNL     1     -33.035  16.519  -2.891  1.00 20.00     0.024 C 
HETATM    4  C5  UNL     1     -34.307  17.296  -2.403  1.00 20.00    -0.011 C 
HETATM    5  C6  UNL     1     -34.205  15.740  -3.568  1.00 20.00     0.049 C 
ENDROOT
BRANCH   5   6
HETATM    6  C1  UNL     1     -34.130  14.554  -4.458  1.00 20.00     0.267 C 
HETATM    7  O8  UNL     1     -33.383  14.468  -5.423  1.00 20.00    -0.264 OA
BRANCH   6   8
HETATM    8  O9  UNL     1     -35.009  13.605  -4.028  1.00 20.00    -0.326 OA
HETATM    9  C7  UNL     1     -36.289  13.618  -4.670  1.00 20.00     0.213 C 
ENDBRANCH   6   8
ENDBRANCH   5   6
TORSDOF 2
ENDMDL
MODEL 7
REMARK VINA RESULT:      -3.9     17.888     19.041
REMARK  2 active torsions:
REMARK  status: ('A' for Active; 'I' for Inactive)
REMARK    1  A    between atoms: C1_1  and  C6_6 
REMARK    2  A    between atoms: C1_1  and  O9_9 
ROOT
HETATM    1  C2  UNL     1     -23.879  16.463  10.786  1.00 20.00     0.024 C 
HETATM    2  C3  UNL     1     -22.809  17.920  11.896  1.00 20.00     0.024 C 
HETATM    3  C4  UNL     1     -24.787  18.324  11.247  1.00 20.00     0.024 C 
HETATM    4  C5  UNL     1     -24.176  17.191  12.143  1.00 20.00    -0.011 C 
HETATM    5  C6  UNL     1     -23.479  17.941  10.488  1.00 20.00     0.049 C 
ENDROOT
BRANCH   5   6
HETATM    6  C1  UNL     1     -22.945  18.511   9.225  1.00 20.00     0.267 C 
HETATM    7  O8  UNL     1     -21.922  19.177   9.153  1.00 20.00    -0.264 OA
BRANCH   6   8
HETATM    8  O9  UNL     1     -23.767  18.174   8.190  1.00 20.00    -0.326 OA
HETATM    9  C7  UNL     1     -24.526  19.253   7.633  1.00 20.00     0.213 C 
ENDBRANCH   6   8
ENDBRANCH   5   6
TORSDOF 2
ENDMDL
MODEL 8
REMARK VINA RESULT:      -3.9      1.423      2.169
REMARK  2 active torsions:
REMARK  status: ('A' for Active; 'I' for Inactive)
REMARK    1  A    between atoms: C1_1  and  C6_6 
REMARK    2  A    between atoms: C1_1  and  O9_9 
ROOT
HETATM    1  C2  UNL     1     -32.955  16.405  -3.062  1.00 20.00     0.024 C 
HETATM    2  C3  UNL     1     -34.724  16.957  -4.093  1.00 20.00     0.024 C 
HETATM    3  C4  UNL     1     -34.851  15.853  -2.287  1.00 20.00     0.024 C 
HETATM    4  C5  UNL     1     -34.212  17.242  -2.638  1.00 20.00    -0.011 C 
HETATM    5  C6  UNL     1     -34.141  15.581  -3.649  1.00 20.00     0.049 C 
ENDROOT
BRANCH   5   6
HETATM    6  C1  UNL     1     -34.085  14.314  -4.422  1.00 20.00     0.267 C 
HETATM    7  O8  UNL     1     -33.207  13.472  -4.294  1.00 20.00    -0.264 OA
BRANCH   6   8
HETATM    8  O9  UNL     1     -35.149  14.252  -5.273  1.00 20.00    -0.326 OA
HETATM    9  C7  UNL     1     -36.328  13.641  -4.740  1.00 20.00     0.213 C 
ENDBRANCH   6   8
ENDBRANCH   5   6
TORSDOF 2
ENDMDL
MODEL 9
REMARK VINA RESULT:      -3.9     11.456     12.314
REMARK  2 active torsions:
REMARK  status: ('A' for Active; 'I' for Inactive)
REMARK    1  A    between atoms: C1_1  and  C6_6 
REMARK    2  A    between atoms: C1_1  and  O9_9 
ROOT
HETATM    1  C2  UNL     1     -34.026   4.463   4.340  1.00 20.00     0.024 C 
HETATM    2  C3  UNL     1     -34.327   6.011   5.758  1.00 20.00     0.024 C 
HETATM    3  C4  UNL     1     -35.470   5.972   3.973  1.00 20.00     0.024 C 
HETATM    4  C5  UNL     1     -35.289   4.938   5.139  1.00 20.00    -0.011 C 
HETATM    5  C6  UNL     1     -33.935   6.017   4.249  1.00 20.00     0.049 C 
ENDROOT
BRANCH   5   6
HETATM    6  C1  UNL     1     -32.900   6.839   3.572  1.00 20.00     0.267 C 
HETATM    7  O8  UNL     1     -32.128   7.586   4.156  1.00 20.00    -0.264 OA
BRANCH   6   8
HETATM    8  O9  UNL     1     -32.956   6.623   2.226  1.00 20.00    -0.326 OA
HETATM    9  C7  UNL     1     -32.538   7.723   1.410  1.00 20.00     0.213 C 
ENDBRANCH   6   8
ENDBRANCH   5   6
TORSDOF 2
ENDMDL
