MODEL 1
REMARK VINA RESULT:      -4.7      0.000      0.000
REMARK  0 active torsions:
REMARK  status: ('A' for Active; 'I' for Inactive)
ROOT
HETATM    1  C1  UNL     1     -35.633  14.701  -5.942  1.00 20.00     0.045 C 
HETATM    2  C2  UNL     1     -35.047  15.902  -6.116  1.00 20.00     0.011 C 
HETATM    3  C3  UNL     1     -35.650  14.019  -4.624  1.00 20.00     0.028 C 
HETATM    4  C4  UNL     1     -34.345  16.593  -4.951  1.00 20.00     0.059 C 
HETATM    5  C5  UNL     1     -35.059  14.726  -3.424  1.00 20.00     0.067 C 
HETATM    6  C6  UNL     1     -33.893  15.644  -3.814  1.00 20.00    -0.038 C 
HETATM    7  C7  UNL     1     -32.671  14.809  -4.252  1.00 20.00     0.015 C 
HETATM    8  C8  UNL     1     -33.482  16.484  -2.591  1.00 20.00     0.015 C 
HETATM    9  N9  UNL     1     -36.185  12.853  -4.451  1.00 20.00    -0.305 NA
HETATM   10  S10 UNL     1     -35.005  16.806  -7.617  1.00 20.00    -0.085 SA
HETATM   11  H22 UNL     1     -36.080  12.581  -3.471  1.00 20.00     0.186 HD
ENDROOT
TORSDOF 0
ENDMDL
MODEL 2
REMARK VINA RESULT:      -4.4      2.225      2.707
REMARK  0 active torsions:
REMARK  status: ('A' for Active; 'I' for Inactive)
ROOT
HETATM    1  C1  UNL     1     -35.343  14.719  -5.160  1.00 20.00     0.045 C 
HETATM    2  C2  UNL     1     -36.197  15.149  -4.210  1.00 20.00     0.011 C 
HETATM    3  C3  UNL     1     -33.876  14.917  -5.043  1.00 20.00     0.028 C 
HETATM    4  C4  UNL     1     -35.677  15.891  -2.983  1.00 20.00     0.059 C 
HETATM    5  C5  UNL     1     -33.318  15.550  -3.788  1.00 20.00     0.067 C 
HETATM    6  C6  UNL     1     -34.293  16.562  -3.172  1.00 20.00    -0.038 C 
HETATM    7  C7  UNL     1     -34.411  17.814  -4.066  1.00 20.00     0.015 C 
HETATM    8  C8  UNL     1     -33.759  17.007  -1.798  1.00 20.00     0.015 C 
HETATM    9  N9  UNL     1     -33.049  14.533  -5.960  1.00 20.00    -0.305 NA
HETATM   10  S10 UNL     1     -37.937  14.934  -4.234  1.00 20.00    -0.085 SA
HETATM   11  H22 UNL     1     -32.097  14.770  -5.670  1.00 20.00     0.186 HD
ENDROOT
TORSDOF 0
ENDMDL
MODEL 3
REMARK VINA RESULT:      -4.3      2.075      2.356
REMARK  0 active torsions:
REMARK  status: ('A' for Active; 'I' for Inactive)
ROOT
HETATM    1  C1  UNL     1     -37.129  14.869  -4.218  1.00 20.00     0.045 C 
HETATM    2  C2  UNL     1     -37.095  16.125  -3.733  1.00 20.00     0.011 C 
HETATM    3  C3  UNL     1     -35.928  13.997  -4.223  1.00 20.00     0.028 C 
HETATM    4  C4  UNL     1     -35.793  16.709  -3.194  1.00 20.00     0.059 C 
HETATM    5  C5  UNL     1     -34.649  14.505  -3.595  1.00 20.00     0.067 C 
HETATM    6  C6  UNL     1     -34.509  16.027  -3.728  1.00 20.00    -0.038 C 
HETATM    7  C7  UNL     1     -34.253  16.421  -5.198  1.00 20.00     0.015 C 
HETATM    8  C8  UNL     1     -33.304  16.498  -2.892  1.00 20.00     0.015 C 
HETATM    9  N9  UNL     1     -35.941  12.799  -4.712  1.00 20.00    -0.305 NA
HETATM   10  S10 UNL     1     -38.461  17.220  -3.647  1.00 20.00    -0.085 SA
HETATM   11  H22 UNL     1     -35.010  12.387  -4.609  1.00 20.00     0.186 HD
ENDROOT
TORSDOF 0
ENDMDL
MODEL 4
REMARK VINA RESULT:      -4.2      2.101      2.598
REMARK  0 active torsions:
REMARK  status: ('A' for Active; 'I' for Inactive)
ROOT
HETATM    1  C1  UNL     1     -36.885  16.002  -3.669  1.00 20.00     0.045 C 
HETATM    2  C2  UNL     1     -35.823  16.779  -3.383  1.00 20.00     0.011 C 
HETATM    3  C3  UNL     1     -36.730  14.593  -4.113  1.00 20.00     0.028 C 
HETATM    4  C4  UNL     1     -34.406  16.237  -3.540  1.00 20.00     0.059 C 
HETATM    5  C5  UNL     1     -35.344  13.991  -4.173  1.00 20.00     0.067 C 
HETATM    6  C6  UNL     1     -34.276  15.038  -4.512  1.00 20.00    -0.038 C 
HETATM    7  C7  UNL     1     -34.421  15.505  -5.976  1.00 20.00     0.015 C 
HETATM    8  C8  UNL     1     -32.880  14.407  -4.349  1.00 20.00     0.015 C 
HETATM    9  N9  UNL     1     -37.741  13.846  -4.417  1.00 20.00    -0.305 NA
HETATM   10  S10 UNL     1     -35.898  18.437  -2.817  1.00 20.00    -0.085 SA
HETATM   11  H22 UNL     1     -37.400  12.922  -4.694  1.00 20.00     0.186 HD
ENDROOT
TORSDOF 0
ENDMDL
MODEL 5
REMARK VINA RESULT:      -4.2      2.665      3.760
REMARK  0 active torsions:
REMARK  status: ('A' for Active; 'I' for Inactive)
ROOT
HETATM    1  C1  UNL     1     -33.663  15.631  -3.016  1.00 20.00     0.045 C 
HETATM    2  C2  UNL     1     -34.838  16.237  -2.753  1.00 20.00     0.011 C 
HETATM    3  C3  UNL     1     -33.353  15.068  -4.354  1.00 20.00     0.028 C 
HETATM    4  C4  UNL     1     -35.913  16.335  -3.831  1.00 20.00     0.059 C 
HETATM    5  C5  UNL     1     -34.352  15.245  -5.475  1.00 20.00     0.067 C 
HETATM    6  C6  UNL     1     -35.797  15.280  -4.959  1.00 20.00    -0.038 C 
HETATM    7  C7  UNL     1     -36.222  13.886  -4.448  1.00 20.00     0.015 C 
HETATM    8  C8  UNL     1     -36.737  15.671  -6.114  1.00 20.00     0.015 C 
HETATM    9  N9  UNL     1     -32.240  14.460  -4.610  1.00 20.00    -0.305 NA
HETATM   10  S10 UNL     1     -35.288  16.966  -1.224  1.00 20.00    -0.085 SA
HETATM   11  H22 UNL     1     -32.244  14.157  -5.587  1.00 20.00     0.186 HD
ENDROOT
TORSDOF 0
ENDMDL
MODEL 6
REMARK VINA RESULT:      -4.2      1.715      2.149
REMARK  0 active torsions:
REMARK  status: ('A' for Active; 'I' for Inactive)
ROOT
HETATM    1  C1  UNL     1     -34.286  16.166  -5.561  1.00 20.00     0.045 C 
HETATM    2  C2  UNL     1     -34.947  17.261  -5.136  1.00 20.00     0.011 C 
HETATM    3  C3  UNL     1     -33.930  15.058  -4.638  1.00 20.00     0.028 C 
HETATM    4  C4  UNL     1     -35.326  17.412  -3.666  1.00 20.00     0.059 C 
HETATM    5  C5  UNL     1     -34.388  15.126  -3.198  1.00 20.00     0.067 C 
HETATM    6  C6  UNL     1     -34.470  16.570  -2.688  1.00 20.00    -0.038 C 
HETATM    7  C7  UNL     1     -33.057  17.174  -2.542  1.00 20.00     0.015 C 
HETATM    8  C8  UNL     1     -35.137  16.578  -1.300  1.00 20.00     0.015 C 
HETATM    9  N9  UNL     1     -33.272  14.015  -5.028  1.00 20.00    -0.305 NA
HETATM   10  S10 UNL     1     -35.447  18.603  -6.147  1.00 20.00    -0.085 SA
HETATM   11  H22 UNL     1     -33.139  13.388  -4.230  1.00 20.00     0.186 HD
ENDROOT
TORSDOF 0
ENDMDL
MODEL 7
REMARK VINA RESULT:      -4.2      1.389      1.611
REMARK  0 active torsions:
REMARK  status: ('A' for Active; 'I' for Inactive)
ROOT
HETATM    1  C1  UNL     1     -34.992  16.240  -6.577  1.00 20.00     0.045 C 
HETATM    2  C2  UNL     1     -34.593  17.312  -5.864  1.00 20.00     0.011 C 
HETATM    3  C3  UNL     1     -35.484  15.002  -5.922  1.00 20.00     0.028 C 
HETATM    4  C4  UNL     1     -34.606  17.273  -4.340  1.00 20.00     0.059 C 
HETATM    5  C5  UNL     1     -35.613  14.970  -4.416  1.00 20.00     0.067 C 
HETATM    6  C6  UNL     1     -34.562  15.851  -3.729  1.00 20.00    -0.038 C 
HETATM    7  C7  UNL     1     -33.155  15.234  -3.883  1.00 20.00     0.015 C 
HETATM    8  C8  UNL     1     -34.881  15.938  -2.225  1.00 20.00     0.015 C 
HETATM    9  N9  UNL     1     -35.843  13.957  -6.595  1.00 20.00    -0.305 NA
HETATM   10  S10 UNL     1     -34.033  18.831  -6.538  1.00 20.00    -0.085 SA
HETATM   11  H22 UNL     1     -36.144  13.229  -5.942  1.00 20.00     0.186 HD
ENDROOT
TORSDOF 0
ENDMDL
MODEL 8
REMARK VINA RESULT:      -4.2      2.085      3.221
REMARK  0 active torsions:
REMARK  status: ('A' for Active; 'I' for Inactive)
ROOT
HETATM    1  C1  UNL     1     -35.953  15.178  -3.404  1.00 20.00     0.045 C 
HETATM    2  C2  UNL     1     -34.759  15.790  -3.531  1.00 20.00     0.011 C 
HETATM    3  C3  UNL     1     -36.575  14.430  -4.526  1.00 20.00     0.028 C 
HETATM    4  C4  UNL     1     -34.014  15.758  -4.862  1.00 20.00     0.059 C 
HETATM    5  C5  UNL     1     -35.813  14.287  -5.824  1.00 20.00     0.067 C 
HETATM    6  C6  UNL     1     -34.910  15.497  -6.098  1.00 20.00    -0.038 C 
HETATM    7  C7  UNL     1     -35.759  16.742  -6.430  1.00 20.00     0.015 C 
HETATM    8  C8  UNL     1     -34.014  15.193  -7.313  1.00 20.00     0.015 C 
HETATM    9  N9  UNL     1     -37.733  13.862  -4.424  1.00 20.00    -0.305 NA
HETATM   10  S10 UNL     1     -33.923  16.663  -2.262  1.00 20.00    -0.085 SA
HETATM   11  H22 UNL     1     -37.960  13.410  -5.313  1.00 20.00     0.186 HD
ENDROOT
TORSDOF 0
ENDMDL
MODEL 9
REMARK VINA RESULT:      -4.1      3.694      4.926
REMARK  0 active torsions:
REMARK  status: ('A' for Active; 'I' for Inactive)
ROOT
HETATM    1  C1  UNL     1     -32.920  16.947  -2.718  1.00 20.00     0.045 C 
HETATM    2  C2  UNL     1     -33.991  16.129  -2.712  1.00 20.00     0.011 C 
HETATM    3  C3  UNL     1     -32.701  17.959  -1.655  1.00 20.00     0.028 C 
HETATM    4  C4  UNL     1     -35.043  16.243  -1.613  1.00 20.00     0.059 C 
HETATM    5  C5  UNL     1     -33.665  18.024  -0.492  1.00 20.00     0.067 C 
HETATM    6  C6  UNL     1     -35.087  17.618  -0.901  1.00 20.00    -0.038 C 
HETATM    7  C7  UNL     1     -35.713  18.688  -1.820  1.00 20.00     0.015 C 
HETATM    8  C8  UNL     1     -35.962  17.503   0.361  1.00 20.00     0.015 C 
HETATM    9  N9  UNL     1     -31.691  18.769  -1.665  1.00 20.00    -0.305 NA
HETATM   10  S10 UNL     1     -34.323  14.879  -3.895  1.00 20.00    -0.085 SA
HETATM   11  H22 UNL     1     -31.743  19.375  -0.842  1.00 20.00     0.186 HD
ENDROOT
TORSDOF 0
ENDMDL
