MODEL 1
REMARK VINA RESULT:      -3.8      0.000      0.000
REMARK  2 active torsions:
REMARK  status: ('A' for Active; 'I' for Inactive)
REMARK    1  A    between atoms: C1_1  and  C7_7 
REMARK    2  A    between atoms: C6_6  and  N8_8 
ROOT
HETATM    1  C1  UNL     1     -24.141  18.121  10.122  1.00 20.00     0.108 C 
HETATM    2  N8  UNL     1     -25.022  18.915   9.617  1.00 20.00    -0.299 NA
ENDROOT
BRANCH   1   3
HETATM    3  C7  UNL     1     -24.223  17.629  11.555  1.00 20.00     0.063 C 
HETATM    4  C4  UNL     1     -25.347  18.375  12.272  1.00 20.00     0.038 C 
HETATM    5  C5  UNL     1     -22.907  17.763  12.317  1.00 20.00     0.038 C 
HETATM    6 CL9  UNL     1     -24.655  15.893  11.436  1.00 20.00    -0.114 Cl
ENDBRANCH   1   3
BRANCH   2   7
HETATM    7  C6  UNL     1     -24.745  19.263   8.226  1.00 20.00     0.099 C 
HETATM    8  C2  UNL     1     -23.530  18.478   7.753  1.00 20.00     0.034 C 
HETATM    9  C3  UNL     1     -25.975  18.957   7.385  1.00 20.00     0.034 C 
ENDBRANCH   2   7
TORSDOF 2
ENDMDL
MODEL 2
REMARK VINA RESULT:      -3.6     15.617     16.553
REMARK  2 active torsions:
REMARK  status: ('A' for Active; 'I' for Inactive)
REMARK    1  A    between atoms: C1_1  and  C7_7 
REMARK    2  A    between atoms: C6_6  and  N8_8 
ROOT
HETATM    1  C1  UNL     1     -33.592   6.298   3.869  1.00 20.00     0.108 C 
HETATM    2  N8  UNL     1     -33.150   6.111   2.672  1.00 20.00    -0.299 NA
ENDROOT
BRANCH   1   3
HETATM    3  C7  UNL     1     -34.628   5.386   4.500  1.00 20.00     0.063 C 
HETATM    4  C4  UNL     1     -35.992   5.682   3.882  1.00 20.00     0.038 C 
HETATM    5  C5  UNL     1     -34.683   5.494   6.022  1.00 20.00     0.038 C 
HETATM    6 CL9  UNL     1     -34.130   3.723   4.051  1.00 20.00    -0.114 Cl
ENDBRANCH   1   3
BRANCH   2   7
HETATM    7  C6  UNL     1     -32.164   7.109   2.266  1.00 20.00     0.099 C 
HETATM    8  C2  UNL     1     -32.818   8.083   1.297  1.00 20.00     0.034 C 
HETATM    9  C3  UNL     1     -31.637   7.815   3.506  1.00 20.00     0.034 C 
ENDBRANCH   2   7
TORSDOF 2
ENDMDL
MODEL 3
REMARK VINA RESULT:      -3.3     13.224     15.203
REMARK  2 active torsions:
REMARK  status: ('A' for Active; 'I' for Inactive)
REMARK    1  A    between atoms: C1_1  and  C7_7 
REMARK    2  A    between atoms: C6_6  and  N8_8 
ROOT
HETATM    1  C1  UNL     1     -33.113  17.491  -1.968  1.00 20.00     0.108 C 
HETATM    2  N8  UNL     1     -33.580  17.872  -0.828  1.00 20.00    -0.299 NA
ENDROOT
BRANCH   1   3
HETATM    3  C7  UNL     1     -33.919  16.636  -2.927  1.00 20.00     0.063 C 
HETATM    4  C4  UNL     1     -35.055  15.965  -2.159  1.00 20.00     0.038 C 
HETATM    5  C5  UNL     1     -33.077  15.602  -3.671  1.00 20.00     0.038 C 
HETATM    6 CL9  UNL     1     -34.614  17.785  -4.115  1.00 20.00    -0.114 Cl
ENDBRANCH   1   3
BRANCH   2   7
HETATM    7  C6  UNL     1     -32.634  18.681  -0.065  1.00 20.00     0.099 C 
HETATM    8  C2  UNL     1     -32.863  18.441   1.420  1.00 20.00     0.034 C 
HETATM    9  C3  UNL     1     -31.219  18.313  -0.484  1.00 20.00     0.034 C 
ENDBRANCH   2   7
TORSDOF 2
ENDMDL
MODEL 4
REMARK VINA RESULT:      -3.3     15.092     16.781
REMARK  2 active torsions:
REMARK  status: ('A' for Active; 'I' for Inactive)
REMARK    1  A    between atoms: C1_1  and  C7_7 
REMARK    2  A    between atoms: C6_6  and  N8_8 
ROOT
HETATM    1  C1  UNL     1     -34.176  16.015  -2.650  1.00 20.00     0.108 C 
HETATM    2  N8  UNL     1     -35.195  15.304  -2.994  1.00 20.00    -0.299 NA
ENDROOT
BRANCH   1   3
HETATM    3  C7  UNL     1     -34.312  17.266  -1.803  1.00 20.00     0.063 C 
HETATM    4  C4  UNL     1     -32.919  17.774  -1.441  1.00 20.00     0.038 C 
HETATM    5  C5  UNL     1     -35.160  17.060  -0.550  1.00 20.00     0.038 C 
HETATM    6 CL9  UNL     1     -35.118  18.468  -2.861  1.00 20.00    -0.114 Cl
ENDBRANCH   1   3
BRANCH   2   7
HETATM    7  C6  UNL     1     -34.834  14.148  -3.811  1.00 20.00     0.099 C 
HETATM    8  C2  UNL     1     -36.004  13.802  -4.721  1.00 20.00     0.034 C 
HETATM    9  C3  UNL     1     -33.580  14.478  -4.607  1.00 20.00     0.034 C 
ENDBRANCH   2   7
TORSDOF 2
ENDMDL
MODEL 5
REMARK VINA RESULT:      -3.2     15.420     16.722
REMARK  2 active torsions:
REMARK  status: ('A' for Active; 'I' for Inactive)
REMARK    1  A    between atoms: C1_1  and  C7_7 
REMARK    2  A    between atoms: C6_6  and  N8_8 
ROOT
HETATM    1  C1  UNL     1     -34.180  16.052  -2.655  1.00 20.00     0.108 C 
HETATM    2  N8  UNL     1     -35.204  15.359  -3.018  1.00 20.00    -0.299 NA
ENDROOT
BRANCH   1   3
HETATM    3  C7  UNL     1     -34.314  17.335  -1.856  1.00 20.00     0.063 C 
HETATM    4  C4  UNL     1     -35.133  17.052  -0.598  1.00 20.00     0.038 C 
HETATM    5  C5  UNL     1     -34.922  18.485  -2.655  1.00 20.00     0.038 C 
HETATM    6 CL9  UNL     1     -32.643  17.774  -1.380  1.00 20.00    -0.114 Cl
ENDBRANCH   1   3
BRANCH   2   7
HETATM    7  C6  UNL     1     -34.844  14.167  -3.781  1.00 20.00     0.099 C 
HETATM    8  C2  UNL     1     -36.022  13.767  -4.657  1.00 20.00     0.034 C 
HETATM    9  C3  UNL     1     -33.603  14.465  -4.608  1.00 20.00     0.034 C 
ENDBRANCH   2   7
TORSDOF 2
ENDMDL
MODEL 6
REMARK VINA RESULT:      -3.2     14.958     17.094
REMARK  2 active torsions:
REMARK  status: ('A' for Active; 'I' for Inactive)
REMARK    1  A    between atoms: C1_1  and  C7_7 
REMARK    2  A    between atoms: C6_6  and  N8_8 
ROOT
HETATM    1  C1  UNL     1     -34.510  16.062  -3.658  1.00 20.00     0.108 C 
HETATM    2  N8  UNL     1     -33.845  16.177  -2.560  1.00 20.00    -0.299 NA
ENDROOT
BRANCH   1   3
HETATM    3  C7  UNL     1     -34.279  14.918  -4.627  1.00 20.00     0.063 C 
HETATM    4  C4  UNL     1     -32.868  14.371  -4.421  1.00 20.00     0.038 C 
HETATM    5  C5  UNL     1     -34.506  15.304  -6.086  1.00 20.00     0.038 C 
HETATM    6 CL9  UNL     1     -35.468  13.659  -4.165  1.00 20.00    -0.114 Cl
ENDBRANCH   1   3
BRANCH   2   7
HETATM    7  C6  UNL     1     -34.226  17.354  -1.783  1.00 20.00     0.099 C 
HETATM    8  C2  UNL     1     -35.245  16.942  -0.731  1.00 20.00     0.034 C 
HETATM    9  C3  UNL     1     -32.979  17.956  -1.154  1.00 20.00     0.034 C 
ENDBRANCH   2   7
TORSDOF 2
ENDMDL
MODEL 7
REMARK VINA RESULT:      -3.2     15.021     17.082
REMARK  2 active torsions:
REMARK  status: ('A' for Active; 'I' for Inactive)
REMARK    1  A    between atoms: C1_1  and  C7_7 
REMARK    2  A    between atoms: C6_6  and  N8_8 
ROOT
HETATM    1  C1  UNL     1     -34.437  16.115  -3.580  1.00 20.00     0.108 C 
HETATM    2  N8  UNL     1     -34.542  15.979  -2.303  1.00 20.00    -0.299 NA
ENDROOT
BRANCH   1   3
HETATM    3  C7  UNL     1     -34.377  14.923  -4.518  1.00 20.00     0.063 C 
HETATM    4  C4  UNL     1     -34.602  15.406  -5.949  1.00 20.00     0.038 C 
HETATM    5  C5  UNL     1     -35.363  13.816  -4.154  1.00 20.00     0.038 C 
HETATM    6 CL9  UNL     1     -32.707  14.288  -4.369  1.00 20.00    -0.114 Cl
ENDBRANCH   1   3
BRANCH   2   7
HETATM    7  C6  UNL     1     -34.578  17.256  -1.594  1.00 20.00     0.099 C 
HETATM    8  C2  UNL     1     -35.319  17.069  -0.278  1.00 20.00     0.034 C 
HETATM    9  C3  UNL     1     -33.153  17.740  -1.376  1.00 20.00     0.034 C 
ENDBRANCH   2   7
TORSDOF 2
ENDMDL
MODEL 8
REMARK VINA RESULT:      -3.2     15.262     16.988
REMARK  2 active torsions:
REMARK  status: ('A' for Active; 'I' for Inactive)
REMARK    1  A    between atoms: C1_1  and  C7_7 
REMARK    2  A    between atoms: C6_6  and  N8_8 
ROOT
HETATM    1  C1  UNL     1     -34.317  16.199  -3.466  1.00 20.00     0.108 C 
HETATM    2  N8  UNL     1     -34.534  16.037  -2.206  1.00 20.00    -0.299 NA
ENDROOT
BRANCH   1   3
HETATM    3  C7  UNL     1     -34.186  15.027  -4.421  1.00 20.00     0.063 C 
HETATM    4  C4  UNL     1     -35.272  14.002  -4.100  1.00 20.00     0.038 C 
HETATM    5  C5  UNL     1     -32.803  14.380  -4.400  1.00 20.00     0.038 C 
HETATM    6 CL9  UNL     1     -34.487  15.708  -6.051  1.00 20.00    -0.114 Cl
ENDBRANCH   1   3
BRANCH   2   7
HETATM    7  C6  UNL     1     -34.620  17.298  -1.476  1.00 20.00     0.099 C 
HETATM    8  C2  UNL     1     -35.375  17.066  -0.175  1.00 20.00     0.034 C 
HETATM    9  C3  UNL     1     -33.214  17.821  -1.225  1.00 20.00     0.034 C 
ENDBRANCH   2   7
TORSDOF 2
ENDMDL
MODEL 9
REMARK VINA RESULT:      -3.2     16.639     18.476
REMARK  2 active torsions:
REMARK  status: ('A' for Active; 'I' for Inactive)
REMARK    1  A    between atoms: C1_1  and  C7_7 
REMARK    2  A    between atoms: C6_6  and  N8_8 
ROOT
HETATM    1  C1  UNL     1     -34.357  15.940  -4.845  1.00 20.00     0.108 C 
HETATM    2  N8  UNL     1     -34.693  15.343  -3.753  1.00 20.00    -0.299 NA
ENDROOT
BRANCH   1   3
HETATM    3  C7  UNL     1     -34.897  15.516  -6.198  1.00 20.00     0.063 C 
HETATM    4  C4  UNL     1     -35.894  14.376  -5.999  1.00 20.00     0.038 C 
HETATM    5  C5  UNL     1     -33.806  15.120  -7.189  1.00 20.00     0.038 C 
HETATM    6 CL9  UNL     1     -35.767  16.951  -6.831  1.00 20.00    -0.114 Cl
ENDBRANCH   1   3
BRANCH   2   7
HETATM    7  C6  UNL     1     -34.052  15.912  -2.571  1.00 20.00     0.099 C 
HETATM    8  C2  UNL     1     -33.071  16.989  -3.012  1.00 20.00     0.034 C 
HETATM    9  C3  UNL     1     -35.123  16.469  -1.647  1.00 20.00     0.034 C 
ENDBRANCH   2   7
TORSDOF 2
ENDMDL
