MODEL 1
REMARK VINA RESULT:      -4.1      0.000      0.000
REMARK  1 active torsions:
REMARK  status: ('A' for Active; 'I' for Inactive)
REMARK    1  A    between atoms: C4_4  and  C5_5 
ROOT
HETATM    1  C1  UNL     1     -34.582   5.496   5.572  1.00 20.00     0.127 C 
HETATM    2  C2  UNL     1     -33.821   6.812   5.344  1.00 20.00     0.084 C 
HETATM    3  C3  UNL     1     -35.094   5.471   4.122  1.00 20.00     0.084 C 
HETATM    4  C4  UNL     1     -34.096   6.626   3.825  1.00 20.00     0.013 C 
HETATM    5  O6  UNL     1     -34.718   4.757   6.525  1.00 20.00    -0.298 OA
ENDROOT
BRANCH   4   6
HETATM    6  C5  UNL     1     -32.883   6.229   2.996  1.00 20.00     0.120 C 
HETATM    7 CL7  UNL     1     -32.475   7.512   1.840  1.00 20.00    -0.130 Cl
ENDBRANCH   4   6
TORSDOF 1
ENDMDL
MODEL 2
REMARK VINA RESULT:      -3.8      1.756      2.191
REMARK  1 active torsions:
REMARK  status: ('A' for Active; 'I' for Inactive)
REMARK    1  A    between atoms: C4_4  and  C5_5 
ROOT
HETATM    1  C1  UNL     1     -34.026   6.526   5.666  1.00 20.00     0.127 C 
HETATM    2  C2  UNL     1     -34.338   6.551   4.160  1.00 20.00     0.084 C 
HETATM    3  C3  UNL     1     -34.857   5.249   5.877  1.00 20.00     0.084 C 
HETATM    4  C4  UNL     1     -34.922   5.120   4.330  1.00 20.00     0.013 C 
HETATM    5  O6  UNL     1     -33.369   7.233   6.400  1.00 20.00    -0.298 OA
ENDROOT
BRANCH   4   6
HETATM    6  C5  UNL     1     -34.071   4.005   3.742  1.00 20.00     0.120 C 
HETATM    7 CL7  UNL     1     -33.149   4.598   2.346  1.00 20.00    -0.130 Cl
ENDBRANCH   4   6
TORSDOF 1
ENDMDL
MODEL 3
REMARK VINA RESULT:      -3.7      3.314      3.857
REMARK  1 active torsions:
REMARK  status: ('A' for Active; 'I' for Inactive)
REMARK    1  A    between atoms: C4_4  and  C5_5 
ROOT
HETATM    1  C1  UNL     1     -32.754   7.047   2.235  1.00 20.00     0.127 C 
HETATM    2  C2  UNL     1     -32.702   7.173   3.766  1.00 20.00     0.084 C 
HETATM    3  C3  UNL     1     -33.117   5.555   2.310  1.00 20.00     0.084 C 
HETATM    4  C4  UNL     1     -33.349   5.760   3.833  1.00 20.00     0.013 C 
HETATM    5  O6  UNL     1     -32.585   7.827   1.321  1.00 20.00    -0.298 OA
ENDROOT
BRANCH   4   6
HETATM    6  C5  UNL     1     -34.806   5.741   4.270  1.00 20.00     0.120 C 
HETATM    7 CL7  UNL     1     -34.938   5.240   5.967  1.00 20.00    -0.130 Cl
ENDBRANCH   4   6
TORSDOF 1
ENDMDL
MODEL 4
REMARK VINA RESULT:      -3.7     11.762     12.128
REMARK  1 active torsions:
REMARK  status: ('A' for Active; 'I' for Inactive)
REMARK    1  A    between atoms: C4_4  and  C5_5 
ROOT
HETATM    1  C1  UNL     1     -35.537  13.750  -4.229  1.00 20.00     0.127 C 
HETATM    2  C2  UNL     1     -36.334  15.049  -4.031  1.00 20.00     0.084 C 
HETATM    3  C3  UNL     1     -34.194  14.475  -4.045  1.00 20.00     0.084 C 
HETATM    4  C4  UNL     1     -35.007  15.708  -3.560  1.00 20.00     0.013 C 
HETATM    5  O6  UNL     1     -35.849  12.596  -4.439  1.00 20.00    -0.298 OA
ENDROOT
BRANCH   4   6
HETATM    6  C5  UNL     1     -34.922  15.987  -2.067  1.00 20.00     0.120 C 
HETATM    7 CL7  UNL     1     -33.675  17.205  -1.733  1.00 20.00    -0.130 Cl
ENDBRANCH   4   6
TORSDOF 1
ENDMDL
MODEL 5
REMARK VINA RESULT:      -3.6      1.401      2.110
REMARK  1 active torsions:
REMARK  status: ('A' for Active; 'I' for Inactive)
REMARK    1  A    between atoms: C4_4  and  C5_5 
ROOT
HETATM    1  C1  UNL     1     -34.244   5.291   3.783  1.00 20.00     0.127 C 
HETATM    2  C2  UNL     1     -33.282   5.091   2.600  1.00 20.00     0.084 C 
HETATM    3  C3  UNL     1     -33.559   6.604   4.195  1.00 20.00     0.084 C 
HETATM    4  C4  UNL     1     -32.792   6.546   2.844  1.00 20.00     0.013 C 
HETATM    5  O6  UNL     1     -35.186   4.661   4.216  1.00 20.00    -0.298 OA
ENDROOT
BRANCH   4   6
HETATM    6  C5  UNL     1     -33.246   7.560   1.804  1.00 20.00     0.120 C 
HETATM    7 CL7  UNL     1     -31.922   7.933   0.683  1.00 20.00    -0.130 Cl
ENDBRANCH   4   6
TORSDOF 1
ENDMDL
MODEL 6
REMARK VINA RESULT:      -3.6     16.911     17.372
REMARK  1 active torsions:
REMARK  status: ('A' for Active; 'I' for Inactive)
REMARK    1  A    between atoms: C4_4  and  C5_5 
ROOT
HETATM    1  C1  UNL     1     -21.999  17.402   8.074  1.00 20.00     0.127 C 
HETATM    2  C2  UNL     1     -23.307  18.075   8.520  1.00 20.00     0.084 C 
HETATM    3  C3  UNL     1     -21.293  17.767   9.391  1.00 20.00     0.084 C 
HETATM    4  C4  UNL     1     -22.686  18.179   9.942  1.00 20.00     0.013 C 
HETATM    5  O6  UNL     1     -21.659  16.804   7.075  1.00 20.00    -0.298 OA
ENDROOT
BRANCH   4   6
HETATM    6  C5  UNL     1     -23.277  17.228  10.972  1.00 20.00     0.120 C 
HETATM    7 CL7  UNL     1     -23.970  18.136  12.330  1.00 20.00    -0.130 Cl
ENDBRANCH   4   6
TORSDOF 1
ENDMDL
MODEL 7
REMARK VINA RESULT:      -3.5      3.019      3.646
REMARK  1 active torsions:
REMARK  status: ('A' for Active; 'I' for Inactive)
REMARK    1  A    between atoms: C4_4  and  C5_5 
ROOT
HETATM    1  C1  UNL     1     -32.806   6.632   3.101  1.00 20.00     0.127 C 
HETATM    2  C2  UNL     1     -33.334   5.305   2.531  1.00 20.00     0.084 C 
HETATM    3  C3  UNL     1     -34.069   6.837   3.954  1.00 20.00     0.084 C 
HETATM    4  C4  UNL     1     -34.457   5.373   3.604  1.00 20.00     0.013 C 
HETATM    5  O6  UNL     1     -31.783   7.265   2.945  1.00 20.00    -0.298 OA
ENDROOT
BRANCH   4   6
HETATM    6  C5  UNL     1     -34.315   4.380   4.748  1.00 20.00     0.120 C 
HETATM    7 CL7  UNL     1     -34.866   5.104   6.271  1.00 20.00    -0.130 Cl
ENDBRANCH   4   6
TORSDOF 1
ENDMDL
MODEL 8
REMARK VINA RESULT:      -3.5      9.127      9.767
REMARK  1 active torsions:
REMARK  status: ('A' for Active; 'I' for Inactive)
REMARK    1  A    between atoms: C4_4  and  C5_5 
ROOT
HETATM    1  C1  UNL     1     -41.610   8.475  -0.034  1.00 20.00     0.127 C 
HETATM    2  C2  UNL     1     -41.203   7.181   0.691  1.00 20.00     0.084 C 
HETATM    3  C3  UNL     1     -41.572   7.787  -1.409  1.00 20.00     0.084 C 
HETATM    4  C4  UNL     1     -41.450   6.435  -0.651  1.00 20.00     0.013 C 
HETATM    5  O6  UNL     1     -41.872   9.599   0.337  1.00 20.00    -0.298 OA
ENDROOT
BRANCH   4   6
HETATM    6  C5  UNL     1     -42.699   5.567  -0.682  1.00 20.00     0.120 C 
HETATM    7 CL7  UNL     1     -42.572   4.341  -1.959  1.00 20.00    -0.130 Cl
ENDBRANCH   4   6
TORSDOF 1
ENDMDL
MODEL 9
REMARK VINA RESULT:      -3.5     16.422     16.970
REMARK  1 active torsions:
REMARK  status: ('A' for Active; 'I' for Inactive)
REMARK    1  A    between atoms: C4_4  and  C5_5 
ROOT
HETATM    1  C1  UNL     1     -22.682  18.517   9.228  1.00 20.00     0.127 C 
HETATM    2  C2  UNL     1     -22.775  17.018   9.560  1.00 20.00     0.084 C 
HETATM    3  C3  UNL     1     -24.199  18.709   9.395  1.00 20.00     0.084 C 
HETATM    4  C4  UNL     1     -24.241  17.281  10.008  1.00 20.00     0.013 C 
HETATM    5  O6  UNL     1     -21.765  19.261   8.952  1.00 20.00    -0.298 OA
ENDROOT
BRANCH   4   6
HETATM    6  C5  UNL     1     -24.471  17.234  11.511  1.00 20.00     0.120 C 
HETATM    7 CL7  UNL     1     -24.776  15.568  12.041  1.00 20.00    -0.130 Cl
ENDBRANCH   4   6
TORSDOF 1
ENDMDL
