MODEL 1
REMARK VINA RESULT:      -3.3      0.000      0.000
REMARK  2 active torsions:
REMARK  status: ('A' for Active; 'I' for Inactive)
REMARK    1  A    between atoms: C2_2  and  C4_4 
REMARK    2  A    between atoms: C4_4  and  S5_5 
ROOT
HETATM    1  C1  UNL     1     -23.980  16.723  10.315  1.00 20.00     0.051 A 
HETATM    2  C2  UNL     1     -23.873  18.171   9.926  1.00 20.00     0.036 A 
HETATM    3  C3  UNL     1     -23.872  17.778  11.387  1.00 20.00     0.118 A 
HETATM    4 CL6  UNL     1     -25.317  18.140  12.331  1.00 20.00    -0.101 Cl
HETATM    5 CL7  UNL     1     -22.390  17.850  12.331  1.00 20.00    -0.101 Cl
ENDROOT
BRANCH   2   6
HETATM    6  C4  UNL     1     -22.655  18.665   9.223  1.00 20.00     0.078 C 
BRANCH   6   7
HETATM    7  S5  UNL     1     -21.943  17.379   8.145  1.00 20.00    -0.182 SA
HETATM    8  H13 UNL     1     -22.909  17.430   7.218  1.00 20.00     0.101 HD
ENDBRANCH   6   7
ENDBRANCH   2   6
TORSDOF 2
ENDMDL
MODEL 2
REMARK VINA RESULT:      -3.3      2.666      3.400
REMARK  2 active torsions:
REMARK  status: ('A' for Active; 'I' for Inactive)
REMARK    1  A    between atoms: C2_2  and  C4_4 
REMARK    2  A    between atoms: C4_4  and  S5_5 
ROOT
HETATM    1  C1  UNL     1     -24.100  18.161  10.357  1.00 20.00     0.051 A 
HETATM    2  C2  UNL     1     -23.988  16.665  10.452  1.00 20.00     0.036 A 
HETATM    3  C3  UNL     1     -22.759  17.527  10.628  1.00 20.00     0.118 A 
HETATM    4 CL6  UNL     1     -21.570  17.532   9.326  1.00 20.00    -0.101 Cl
HETATM    5 CL7  UNL     1     -22.045  17.752  12.219  1.00 20.00    -0.101 Cl
ENDROOT
BRANCH   2   6
HETATM    6  C4  UNL     1     -24.634  15.940  11.583  1.00 20.00     0.078 C 
BRANCH   6   7
HETATM    7  S5  UNL     1     -25.968  16.932  12.332  1.00 20.00    -0.182 SA
HETATM    8  H13 UNL     1     -26.975  16.207  11.829  1.00 20.00     0.101 HD
ENDBRANCH   6   7
ENDBRANCH   2   6
TORSDOF 2
ENDMDL
MODEL 3
REMARK VINA RESULT:      -3.1     23.662     24.242
REMARK  2 active torsions:
REMARK  status: ('A' for Active; 'I' for Inactive)
REMARK    1  A    between atoms: C2_2  and  C4_4 
REMARK    2  A    between atoms: C4_4  and  S5_5 
ROOT
HETATM    1  C1  UNL     1     -42.510   7.766  -1.511  1.00 20.00     0.051 A 
HETATM    2  C2  UNL     1     -41.267   7.067  -1.036  1.00 20.00     0.036 A 
HETATM    3  C3  UNL     1     -42.059   7.932  -0.081  1.00 20.00     0.118 A 
HETATM    4 CL6  UNL     1     -41.364   9.483   0.387  1.00 20.00    -0.101 Cl
HETATM    5 CL7  UNL     1     -43.038   7.201   1.185  1.00 20.00    -0.101 Cl
ENDROOT
BRANCH   2   6
HETATM    6  C4  UNL     1     -41.238   5.580  -0.943  1.00 20.00     0.078 C 
BRANCH   6   7
HETATM    7  S5  UNL     1     -42.731   4.840  -1.681  1.00 20.00    -0.182 SA
HETATM    8  H13 UNL     1     -42.126   3.733  -2.130  1.00 20.00     0.101 HD
ENDBRANCH   6   7
ENDBRANCH   2   6
TORSDOF 2
ENDMDL
MODEL 4
REMARK VINA RESULT:      -3.1      2.923      3.281
REMARK  2 active torsions:
REMARK  status: ('A' for Active; 'I' for Inactive)
REMARK    1  A    between atoms: C2_2  and  C4_4 
REMARK    2  A    between atoms: C4_4  and  S5_5 
ROOT
HETATM    1  C1  UNL     1     -24.286  16.733  10.918  1.00 20.00     0.051 A 
HETATM    2  C2  UNL     1     -24.680  18.089  11.432  1.00 20.00     0.036 A 
HETATM    3  C3  UNL     1     -23.247  17.820  11.033  1.00 20.00     0.118 A 
HETATM    4 CL6  UNL     1     -22.052  17.679  12.323  1.00 20.00    -0.101 Cl
HETATM    5 CL7  UNL     1     -22.588  18.496   9.549  1.00 20.00    -0.101 Cl
ENDROOT
BRANCH   2   6
HETATM    6  C4  UNL     1     -25.591  18.954  10.629  1.00 20.00     0.078 C 
BRANCH   6   7
HETATM    7  S5  UNL     1     -27.214  19.140  11.438  1.00 20.00    -0.182 SA
HETATM    8  H13 UNL     1     -26.792  19.972  12.399  1.00 20.00     0.101 HD
ENDBRANCH   6   7
ENDBRANCH   2   6
TORSDOF 2
ENDMDL
MODEL 5
REMARK VINA RESULT:      -3.1     16.171     16.885
REMARK  2 active torsions:
REMARK  status: ('A' for Active; 'I' for Inactive)
REMARK    1  A    between atoms: C2_2  and  C4_4 
REMARK    2  A    between atoms: C4_4  and  S5_5 
ROOT
HETATM    1  C1  UNL     1     -32.994   5.106   3.100  1.00 20.00     0.051 A 
HETATM    2  C2  UNL     1     -33.425   6.400   2.468  1.00 20.00     0.036 A 
HETATM    3  C3  UNL     1     -33.924   6.029   3.846  1.00 20.00     0.118 A 
HETATM    4 CL6  UNL     1     -35.613   5.544   4.001  1.00 20.00    -0.101 Cl
HETATM    5 CL7  UNL     1     -33.305   6.851   5.272  1.00 20.00    -0.101 Cl
ENDROOT
BRANCH   2   6
HETATM    6  C4  UNL     1     -32.428   7.483   2.235  1.00 20.00     0.078 C 
BRANCH   6   7
HETATM    7  S5  UNL     1     -32.867   8.489   0.780  1.00 20.00    -0.182 SA
HETATM    8  H13 UNL     1     -33.325   7.468   0.043  1.00 20.00     0.101 HD
ENDBRANCH   6   7
ENDBRANCH   2   6
TORSDOF 2
ENDMDL
MODEL 6
REMARK VINA RESULT:      -3.0     17.137     17.607
REMARK  2 active torsions:
REMARK  status: ('A' for Active; 'I' for Inactive)
REMARK    1  A    between atoms: C2_2  and  C4_4 
REMARK    2  A    between atoms: C4_4  and  S5_5 
ROOT
HETATM    1  C1  UNL     1     -34.943  16.060  -2.082  1.00 20.00     0.051 A 
HETATM    2  C2  UNL     1     -33.591  16.218  -2.719  1.00 20.00     0.036 A 
HETATM    3  C3  UNL     1     -34.740  15.646  -3.518  1.00 20.00     0.118 A 
HETATM    4 CL6  UNL     1     -34.706  13.920  -3.878  1.00 20.00    -0.101 Cl
HETATM    5 CL7  UNL     1     -35.521  16.601  -4.772  1.00 20.00    -0.101 Cl
ENDROOT
BRANCH   2   6
HETATM    6  C4  UNL     1     -33.038  17.581  -2.964  1.00 20.00     0.078 C 
BRANCH   6   7
HETATM    7  S5  UNL     1     -32.290  18.275  -1.454  1.00 20.00    -0.182 SA
HETATM    8  H13 UNL     1     -31.028  18.249  -1.903  1.00 20.00     0.101 HD
ENDBRANCH   6   7
ENDBRANCH   2   6
TORSDOF 2
ENDMDL
MODEL 7
REMARK VINA RESULT:      -2.9     17.688     18.161
REMARK  2 active torsions:
REMARK  status: ('A' for Active; 'I' for Inactive)
REMARK    1  A    between atoms: C2_2  and  C4_4 
REMARK    2  A    between atoms: C4_4  and  S5_5 
ROOT
HETATM    1  C1  UNL     1     -33.442  15.273  -3.795  1.00 20.00     0.051 A 
HETATM    2  C2  UNL     1     -34.666  15.520  -2.959  1.00 20.00     0.036 A 
HETATM    3  C3  UNL     1     -33.747  16.669  -3.313  1.00 20.00     0.118 A 
HETATM    4 CL6  UNL     1     -32.738  17.333  -2.029  1.00 20.00    -0.101 Cl
HETATM    5 CL7  UNL     1     -34.233  17.867  -4.504  1.00 20.00    -0.101 Cl
ENDROOT
BRANCH   2   6
HETATM    6  C4  UNL     1     -36.021  15.358  -3.557  1.00 20.00     0.078 C 
BRANCH   6   7
HETATM    7  S5  UNL     1     -36.126  13.841  -4.562  1.00 20.00    -0.182 SA
HETATM    8  H13 UNL     1     -36.834  14.387  -5.559  1.00 20.00     0.101 HD
ENDBRANCH   6   7
ENDBRANCH   2   6
TORSDOF 2
ENDMDL
MODEL 8
REMARK VINA RESULT:      -2.9     18.014     18.489
REMARK  2 active torsions:
REMARK  status: ('A' for Active; 'I' for Inactive)
REMARK    1  A    between atoms: C2_2  and  C4_4 
REMARK    2  A    between atoms: C4_4  and  S5_5 
ROOT
HETATM    1  C1  UNL     1     -32.919  14.555  -4.346  1.00 20.00     0.051 A 
HETATM    2  C2  UNL     1     -33.664  15.809  -3.982  1.00 20.00     0.036 A 
HETATM    3  C3  UNL     1     -34.335  14.749  -4.827  1.00 20.00     0.118 A 
HETATM    4 CL6  UNL     1     -34.581  15.100  -6.537  1.00 20.00    -0.101 Cl
HETATM    5 CL7  UNL     1     -35.588  13.721  -4.143  1.00 20.00    -0.101 Cl
ENDROOT
BRANCH   2   6
HETATM    6  C4  UNL     1     -34.040  16.067  -2.563  1.00 20.00     0.078 C 
BRANCH   6   7
HETATM    7  S5  UNL     1     -33.202  17.550  -1.913  1.00 20.00    -0.182 SA
HETATM    8  H13 UNL     1     -33.939  17.644  -0.798  1.00 20.00     0.101 HD
ENDBRANCH   6   7
ENDBRANCH   2   6
TORSDOF 2
ENDMDL
MODEL 9
REMARK VINA RESULT:      -2.9     16.582     17.345
REMARK  2 active torsions:
REMARK  status: ('A' for Active; 'I' for Inactive)
REMARK    1  A    between atoms: C2_2  and  C4_4 
REMARK    2  A    between atoms: C4_4  and  S5_5 
ROOT
HETATM    1  C1  UNL     1     -32.845   6.771   4.308  1.00 20.00     0.051 A 
HETATM    2  C2  UNL     1     -34.261   6.702   3.810  1.00 20.00     0.036 A 
HETATM    3  C3  UNL     1     -33.114   6.393   2.873  1.00 20.00     0.118 A 
HETATM    4 CL6  UNL     1     -32.735   7.580   1.626  1.00 20.00    -0.101 Cl
HETATM    5 CL7  UNL     1     -32.785   4.737   2.379  1.00 20.00    -0.101 Cl
ENDROOT
BRANCH   2   6
HETATM    6  C4  UNL     1     -35.182   5.652   4.330  1.00 20.00     0.078 C 
BRANCH   6   7
HETATM    7  S5  UNL     1     -34.731   5.153   6.024  1.00 20.00    -0.182 SA
HETATM    8  H13 UNL     1     -35.839   5.632   6.606  1.00 20.00     0.101 HD
ENDBRANCH   6   7
ENDBRANCH   2   6
TORSDOF 2
ENDMDL
