MODEL 1
REMARK VINA RESULT:      -4.5      0.000      0.000
REMARK  4 active torsions:
REMARK  status: ('A' for Active; 'I' for Inactive)
REMARK    1  A    between atoms: C1_1  and  C6_6 
REMARK    2  A    between atoms: C1_1  and  C9_9 
REMARK    3  A    between atoms: C7_7  and  C8_8 
REMARK    4  A    between atoms: C8_8  and  N10_10 
ROOT
HETATM    1  C1  UNL     1     -33.800   6.334   3.554  1.00 20.00     0.009 C 
HETATM    2  N10 UNL     1     -33.018   7.325   3.287  1.00 20.00    -0.298 NA
ENDROOT
BRANCH   1   3
HETATM    3  C6  UNL     1     -34.109   5.185   2.609  1.00 20.00     0.050 C 
HETATM    4  C2  UNL     1     -32.907   4.266   2.477  1.00 20.00     0.011 C 
ENDBRANCH   1   3
BRANCH   1   5
HETATM    5  C9  UNL     1     -34.466   6.293   4.933  1.00 20.00     0.025 C 
HETATM    6  C4  UNL     1     -33.563   6.955   5.967  1.00 20.00     0.016 C 
HETATM    7  C5  UNL     1     -34.810   4.860   5.326  1.00 20.00     0.016 C 
ENDBRANCH   1   5
BRANCH   2   8
HETATM    8  C8  UNL     1     -32.355   7.393   1.997  1.00 20.00     0.148 C 
BRANCH   8   9
HETATM    9  C7  UNL     1     -32.737   8.685   1.286  1.00 20.00     0.017 C 
HETATM   10  C3  UNL     1     -33.228   8.449  -0.135  1.00 20.00     0.007 C 
ENDBRANCH   8   9
ENDBRANCH   2   8
TORSDOF 4
ENDMDL
MODEL 2
REMARK VINA RESULT:      -4.2      1.106      2.415
REMARK  4 active torsions:
REMARK  status: ('A' for Active; 'I' for Inactive)
REMARK    1  A    between atoms: C1_1  and  C6_6 
REMARK    2  A    between atoms: C1_1  and  C9_9 
REMARK    3  A    between atoms: C7_7  and  C8_8 
REMARK    4  A    between atoms: C8_8  and  N10_10 
ROOT
HETATM    1  C1  UNL     1     -33.549   6.305   3.901  1.00 20.00     0.009 C 
HETATM    2  N10 UNL     1     -33.095   6.372   2.695  1.00 20.00    -0.298 NA
ENDROOT
BRANCH   1   3
HETATM    3  C6  UNL     1     -33.263   7.315   5.000  1.00 20.00     0.050 C 
HETATM    4  C2  UNL     1     -33.933   6.896   6.297  1.00 20.00     0.011 C 
ENDBRANCH   1   3
BRANCH   1   5
HETATM    5  C9  UNL     1     -34.458   5.127   4.265  1.00 20.00     0.025 C 
HETATM    6  C4  UNL     1     -33.990   3.868   3.546  1.00 20.00     0.016 C 
HETATM    7  C5  UNL     1     -35.914   5.447   3.943  1.00 20.00     0.016 C 
ENDBRANCH   1   5
BRANCH   2   8
HETATM    8  C8  UNL     1     -32.242   7.481   2.306  1.00 20.00     0.148 C 
BRANCH   8   9
HETATM    9  C7  UNL     1     -32.501   7.846   0.850  1.00 20.00     0.017 C 
HETATM   10  C3  UNL     1     -32.993   9.277   0.684  1.00 20.00     0.007 C 
ENDBRANCH   8   9
ENDBRANCH   2   8
TORSDOF 4
ENDMDL
MODEL 3
REMARK VINA RESULT:      -4.0     11.174     12.164
REMARK  4 active torsions:
REMARK  status: ('A' for Active; 'I' for Inactive)
REMARK    1  A    between atoms: C1_1  and  C6_6 
REMARK    2  A    between atoms: C1_1  and  C9_9 
REMARK    3  A    between atoms: C7_7  and  C8_8 
REMARK    4  A    between atoms: C8_8  and  N10_10 
ROOT
HETATM    1  C1  UNL     1     -33.907  17.103  -1.901  1.00 20.00     0.009 C 
HETATM    2  N10 UNL     1     -32.673  17.463  -2.012  1.00 20.00    -0.298 NA
ENDROOT
BRANCH   1   3
HETATM    3  C6  UNL     1     -34.974  17.865  -1.132  1.00 20.00     0.050 C 
HETATM    4  C2  UNL     1     -35.242  17.201   0.207  1.00 20.00     0.011 C 
ENDBRANCH   1   3
BRANCH   1   5
HETATM    5  C9  UNL     1     -34.349  15.816  -2.604  1.00 20.00     0.025 C 
HETATM    6  C4  UNL     1     -33.353  15.455  -3.700  1.00 20.00     0.016 C 
HETATM    7  C5  UNL     1     -35.763  15.959  -3.157  1.00 20.00     0.016 C 
ENDBRANCH   1   5
BRANCH   2   8
HETATM    8  C8  UNL     1     -32.217  18.685  -1.373  1.00 20.00     0.148 C 
BRANCH   8   9
HETATM    9  C7  UNL     1     -31.148  18.360  -0.338  1.00 20.00     0.017 C 
HETATM   10  C3  UNL     1     -31.686  18.387   1.086  1.00 20.00     0.007 C 
ENDBRANCH   8   9
ENDBRANCH   2   8
TORSDOF 4
ENDMDL
MODEL 4
REMARK VINA RESULT:      -3.9     11.085     12.276
REMARK  4 active torsions:
REMARK  status: ('A' for Active; 'I' for Inactive)
REMARK    1  A    between atoms: C1_1  and  C6_6 
REMARK    2  A    between atoms: C1_1  and  C9_9 
REMARK    3  A    between atoms: C7_7  and  C8_8 
REMARK    4  A    between atoms: C8_8  and  N10_10 
ROOT
HETATM    1  C1  UNL     1     -35.189  15.920  -3.949  1.00 20.00     0.009 C 
HETATM    2  N10 UNL     1     -34.786  16.712  -4.884  1.00 20.00    -0.298 NA
ENDROOT
BRANCH   1   3
HETATM    3  C6  UNL     1     -36.408  15.016  -4.034  1.00 20.00     0.050 C 
HETATM    4  C2  UNL     1     -36.001  13.611  -4.440  1.00 20.00     0.011 C 
ENDBRANCH   1   3
BRANCH   1   5
HETATM    5  C9  UNL     1     -34.379  15.867  -2.650  1.00 20.00     0.025 C 
HETATM    6  C4  UNL     1     -35.189  16.468  -1.507  1.00 20.00     0.016 C 
HETATM    7  C5  UNL     1     -33.039  16.574  -2.818  1.00 20.00     0.016 C 
ENDBRANCH   1   5
BRANCH   2   8
HETATM    8  C8  UNL     1     -35.518  16.780  -6.136  1.00 20.00     0.148 C 
BRANCH   8   9
HETATM    9  C7  UNL     1     -34.556  16.619  -7.307  1.00 20.00     0.017 C 
HETATM   10  C3  UNL     1     -33.954  15.222  -7.382  1.00 20.00     0.007 C 
ENDBRANCH   8   9
ENDBRANCH   2   8
TORSDOF 4
ENDMDL
MODEL 5
REMARK VINA RESULT:      -3.8     11.081     12.091
REMARK  4 active torsions:
REMARK  status: ('A' for Active; 'I' for Inactive)
REMARK    1  A    between atoms: C1_1  and  C6_6 
REMARK    2  A    between atoms: C1_1  and  C9_9 
REMARK    3  A    between atoms: C7_7  and  C8_8 
REMARK    4  A    between atoms: C8_8  and  N10_10 
ROOT
HETATM    1  C1  UNL     1     -33.603  16.315  -2.733  1.00 20.00     0.009 C 
HETATM    2  N10 UNL     1     -33.003  15.694  -3.692  1.00 20.00    -0.298 NA
ENDROOT
BRANCH   1   3
HETATM    3  C6  UNL     1     -34.985  15.975  -2.202  1.00 20.00     0.050 C 
HETATM    4  C2  UNL     1     -36.054  16.727  -2.976  1.00 20.00     0.011 C 
ENDBRANCH   1   3
BRANCH   1   5
HETATM    5  C9  UNL     1     -32.872  17.481  -2.060  1.00 20.00     0.025 C 
HETATM    6  C4  UNL     1     -33.603  17.886  -0.785  1.00 20.00     0.016 C 
HETATM    7  C5  UNL     1     -32.726  18.657  -3.020  1.00 20.00     0.016 C 
ENDBRANCH   1   5
BRANCH   2   8
HETATM    8  C8  UNL     1     -33.657  14.575  -4.346  1.00 20.00     0.148 C 
BRANCH   8   9
HETATM    9  C7  UNL     1     -34.096  14.979  -5.748  1.00 20.00     0.017 C 
HETATM   10  C3  UNL     1     -35.546  14.613  -6.034  1.00 20.00     0.007 C 
ENDBRANCH   8   9
ENDBRANCH   2   8
TORSDOF 4
ENDMDL
MODEL 6
REMARK VINA RESULT:      -3.8     10.922     12.502
REMARK  4 active torsions:
REMARK  status: ('A' for Active; 'I' for Inactive)
REMARK    1  A    between atoms: C1_1  and  C6_6 
REMARK    2  A    between atoms: C1_1  and  C9_9 
REMARK    3  A    between atoms: C7_7  and  C8_8 
REMARK    4  A    between atoms: C8_8  and  N10_10 
ROOT
HETATM    1  C1  UNL     1     -34.444  15.361  -4.832  1.00 20.00     0.009 C 
HETATM    2  N10 UNL     1     -33.722  16.322  -4.360  1.00 20.00    -0.298 NA
ENDROOT
BRANCH   1   3
HETATM    3  C6  UNL     1     -34.818  14.097  -4.076  1.00 20.00     0.050 C 
HETATM    4  C2  UNL     1     -36.202  13.623  -4.484  1.00 20.00     0.011 C 
ENDBRANCH   1   3
BRANCH   1   5
HETATM    5  C9  UNL     1     -34.981  15.497  -6.260  1.00 20.00     0.025 C 
HETATM    6  C4  UNL     1     -33.869  15.214  -7.263  1.00 20.00     0.016 C 
HETATM    7  C5  UNL     1     -35.595  16.876  -6.478  1.00 20.00     0.016 C 
ENDBRANCH   1   5
BRANCH   2   8
HETATM    8  C8  UNL     1     -33.206  16.238  -3.006  1.00 20.00     0.148 C 
BRANCH   8   9
HETATM    9  C7  UNL     1     -33.940  17.229  -2.110  1.00 20.00     0.017 C 
HETATM   10  C3  UNL     1     -35.117  16.597  -1.380  1.00 20.00     0.007 C 
ENDBRANCH   8   9
ENDBRANCH   2   8
TORSDOF 4
ENDMDL
MODEL 7
REMARK VINA RESULT:      -3.8     11.137     12.146
REMARK  4 active torsions:
REMARK  status: ('A' for Active; 'I' for Inactive)
REMARK    1  A    between atoms: C1_1  and  C6_6 
REMARK    2  A    between atoms: C1_1  and  C9_9 
REMARK    3  A    between atoms: C7_7  and  C8_8 
REMARK    4  A    between atoms: C8_8  and  N10_10 
ROOT
HETATM    1  C1  UNL     1     -35.451  15.556  -3.501  1.00 20.00     0.009 C 
HETATM    2  N10 UNL     1     -35.190  14.566  -4.286  1.00 20.00    -0.298 NA
ENDROOT
BRANCH   1   3
HETATM    3  C6  UNL     1     -36.680  16.445  -3.593  1.00 20.00     0.050 C 
HETATM    4  C2  UNL     1     -36.408  17.639  -4.491  1.00 20.00     0.011 C 
ENDBRANCH   1   3
BRANCH   1   5
HETATM    5  C9  UNL     1     -34.460  15.864  -2.374  1.00 20.00     0.025 C 
HETATM    6  C4  UNL     1     -35.133  16.721  -1.309  1.00 20.00     0.016 C 
HETATM    7  C5  UNL     1     -33.206  16.536  -2.924  1.00 20.00     0.016 C 
ENDBRANCH   1   5
BRANCH   2   8
HETATM    8  C8  UNL     1     -36.113  14.233  -5.357  1.00 20.00     0.148 C 
BRANCH   8   9
HETATM    9  C7  UNL     1     -35.558  14.722  -6.689  1.00 20.00     0.017 C 
HETATM   10  C3  UNL     1     -34.064  15.012  -6.630  1.00 20.00     0.007 C 
ENDBRANCH   8   9
ENDBRANCH   2   8
TORSDOF 4
ENDMDL
MODEL 8
REMARK VINA RESULT:      -3.7     10.826     11.969
REMARK  4 active torsions:
REMARK  status: ('A' for Active; 'I' for Inactive)
REMARK    1  A    between atoms: C1_1  and  C6_6 
REMARK    2  A    between atoms: C1_1  and  C9_9 
REMARK    3  A    between atoms: C7_7  and  C8_8 
REMARK    4  A    between atoms: C8_8  and  N10_10 
ROOT
HETATM    1  C1  UNL     1     -35.018  15.578  -3.341  1.00 20.00     0.009 C 
HETATM    2  N10 UNL     1     -36.053  16.171  -3.833  1.00 20.00    -0.298 NA
ENDROOT
BRANCH   1   3
HETATM    3  C6  UNL     1     -34.478  14.235  -3.802  1.00 20.00     0.050 C 
HETATM    4  C2  UNL     1     -33.133  14.407  -4.485  1.00 20.00     0.011 C 
ENDBRANCH   1   3
BRANCH   1   5
HETATM    5  C9  UNL     1     -34.255  16.278  -2.212  1.00 20.00     0.025 C 
HETATM    6  C4  UNL     1     -35.229  16.727  -1.128  1.00 20.00     0.016 C 
HETATM    7  C5  UNL     1     -33.440  17.449  -2.752  1.00 20.00     0.016 C 
ENDBRANCH   1   5
BRANCH   2   8
HETATM    8  C8  UNL     1     -36.794  15.548  -4.916  1.00 20.00     0.148 C 
BRANCH   8   9
HETATM    9  C7  UNL     1     -36.372  16.153  -6.248  1.00 20.00     0.017 C 
HETATM   10  C3  UNL     1     -35.738  15.131  -7.181  1.00 20.00     0.007 C 
ENDBRANCH   8   9
ENDBRANCH   2   8
TORSDOF 4
ENDMDL
MODEL 9
REMARK VINA RESULT:      -3.7     10.832     11.741
REMARK  4 active torsions:
REMARK  status: ('A' for Active; 'I' for Inactive)
REMARK    1  A    between atoms: C1_1  and  C6_6 
REMARK    2  A    between atoms: C1_1  and  C9_9 
REMARK    3  A    between atoms: C7_7  and  C8_8 
REMARK    4  A    between atoms: C8_8  and  N10_10 
ROOT
HETATM    1  C1  UNL     1     -34.507  16.146  -2.298  1.00 20.00     0.009 C 
HETATM    2  N10 UNL     1     -35.233  15.172  -2.732  1.00 20.00    -0.298 NA
ENDROOT
BRANCH   1   3
HETATM    3  C6  UNL     1     -33.176  16.577  -2.891  1.00 20.00     0.050 C 
HETATM    4  C2  UNL     1     -33.385  17.650  -3.946  1.00 20.00     0.011 C 
ENDBRANCH   1   3
BRANCH   1   5
HETATM    5  C9  UNL     1     -35.021  16.948  -1.098  1.00 20.00     0.025 C 
HETATM    6  C4  UNL     1     -36.257  17.746  -1.497  1.00 20.00     0.016 C 
HETATM    7  C5  UNL     1     -33.926  17.853  -0.542  1.00 20.00     0.016 C 
ENDBRANCH   1   5
BRANCH   2   8
HETATM    8  C8  UNL     1     -34.788  14.396  -3.877  1.00 20.00     0.148 C 
BRANCH   8   9
HETATM    9  C7  UNL     1     -35.981  13.715  -4.535  1.00 20.00     0.017 C 
HETATM   10  C3  UNL     1     -37.279  14.485  -4.336  1.00 20.00     0.007 C 
ENDBRANCH   8   9
ENDBRANCH   2   8
TORSDOF 4
ENDMDL
