MODEL 1
REMARK VINA RESULT:      -4.8      0.000      0.000
REMARK  1 active torsions:
REMARK  status: ('A' for Active; 'I' for Inactive)
REMARK    1  A    between atoms: C2_2  and  C5_5 
ROOT
HETATM    1  C1  UNL     1     -35.580  15.386  -6.234  1.00 20.00     0.065 A 
HETATM    2  C2  UNL     1     -35.626  14.918  -4.938  1.00 20.00     0.015 A 
HETATM    3  C3  UNL     1     -34.894  15.751  -4.039  1.00 20.00    -0.031 A 
HETATM    4  C4  UNL     1     -34.316  16.818  -4.701  1.00 20.00    -0.010 A 
HETATM    5  C6  UNL     1     -34.715  15.534  -2.568  1.00 20.00     0.040 C 
HETATM    6  C7  UNL     1     -33.502  17.894  -4.050  1.00 20.00     0.046 C 
HETATM    7  C8  UNL     1     -34.205  16.801  -1.863  1.00 20.00     0.005 C 
HETATM    8  C9  UNL     1     -33.059  17.461  -2.644  1.00 20.00     0.005 C 
HETATM    9  S11 UNL     1     -34.658  16.823  -6.368  1.00 20.00    -0.105 SA
ENDROOT
BRANCH   2  10
HETATM   10  C5  UNL     1     -36.343  13.721  -4.586  1.00 20.00     0.271 C 
HETATM   11  O10 UNL     1     -35.812  12.601  -4.499  1.00 20.00    -0.301 OA
ENDBRANCH   2  10
TORSDOF 1
ENDMDL
MODEL 2
REMARK VINA RESULT:      -4.6      3.577      5.342
REMARK  1 active torsions:
REMARK  status: ('A' for Active; 'I' for Inactive)
REMARK    1  A    between atoms: C2_2  and  C5_5 
ROOT
HETATM    1  C1  UNL     1     -33.903  18.338   0.170  1.00 20.00     0.065 A 
HETATM    2  C2  UNL     1     -32.997  18.157  -0.853  1.00 20.00     0.015 A 
HETATM    3  C3  UNL     1     -33.470  17.236  -1.836  1.00 20.00    -0.031 A 
HETATM    4  C4  UNL     1     -34.723  16.752  -1.508  1.00 20.00    -0.010 A 
HETATM    5  C6  UNL     1     -32.741  16.793  -3.066  1.00 20.00     0.040 C 
HETATM    6  C7  UNL     1     -35.516  15.789  -2.336  1.00 20.00     0.046 C 
HETATM    7  C8  UNL     1     -33.682  16.110  -4.071  1.00 20.00     0.005 C 
HETATM    8  C9  UNL     1     -34.617  15.107  -3.380  1.00 20.00     0.005 C 
HETATM    9  S11 UNL     1     -35.320  17.401  -0.052  1.00 20.00    -0.105 SA
ENDROOT
BRANCH   2  10
HETATM   10  C5  UNL     1     -31.730  18.841  -0.876  1.00 20.00     0.271 C 
HETATM   11  O10 UNL     1     -30.652  18.304  -0.571  1.00 20.00    -0.301 OA
ENDBRANCH   2  10
TORSDOF 1
ENDMDL
MODEL 3
REMARK VINA RESULT:      -4.4      1.739      1.908
REMARK  1 active torsions:
REMARK  status: ('A' for Active; 'I' for Inactive)
REMARK    1  A    between atoms: C2_2  and  C5_5 
ROOT
HETATM    1  C1  UNL     1     -34.844  14.376  -4.584  1.00 20.00     0.065 A 
HETATM    2  C2  UNL     1     -35.807  15.063  -3.875  1.00 20.00     0.015 A 
HETATM    3  C3  UNL     1     -35.239  16.051  -3.016  1.00 20.00    -0.031 A 
HETATM    4  C4  UNL     1     -33.860  16.065  -3.108  1.00 20.00    -0.010 A 
HETATM    5  C6  UNL     1     -35.985  16.964  -2.092  1.00 20.00     0.040 C 
HETATM    6  C7  UNL     1     -32.958  16.997  -2.360  1.00 20.00     0.046 C 
HETATM    7  C8  UNL     1     -35.109  18.133  -1.617  1.00 20.00     0.005 C 
HETATM    8  C9  UNL     1     -33.711  17.659  -1.195  1.00 20.00     0.005 C 
HETATM    9  S11 UNL     1     -33.262  14.919  -4.215  1.00 20.00    -0.105 SA
ENDROOT
BRANCH   2  10
HETATM   10  C5  UNL     1     -37.210  14.775  -4.021  1.00 20.00     0.271 C 
HETATM   11  O10 UNL     1     -37.650  13.691  -4.437  1.00 20.00    -0.301 OA
ENDBRANCH   2  10
TORSDOF 1
ENDMDL
MODEL 4
REMARK VINA RESULT:      -4.4      3.260      4.796
REMARK  1 active torsions:
REMARK  status: ('A' for Active; 'I' for Inactive)
REMARK    1  A    between atoms: C2_2  and  C5_5 
ROOT
HETATM    1  C1  UNL     1     -34.514  18.178  -0.953  1.00 20.00     0.065 A 
HETATM    2  C2  UNL     1     -33.438  17.665  -1.645  1.00 20.00     0.015 A 
HETATM    3  C3  UNL     1     -33.820  16.618  -2.537  1.00 20.00    -0.031 A 
HETATM    4  C4  UNL     1     -35.180  16.378  -2.475  1.00 20.00    -0.010 A 
HETATM    5  C6  UNL     1     -32.911  15.827  -3.426  1.00 20.00     0.040 C 
HETATM    6  C7  UNL     1     -35.912  15.363  -3.298  1.00 20.00     0.046 C 
HETATM    7  C8  UNL     1     -33.693  15.064  -4.506  1.00 20.00     0.005 C 
HETATM    8  C9  UNL     1     -34.927  14.361  -3.922  1.00 20.00     0.005 C 
HETATM    9  S11 UNL     1     -35.981  17.400  -1.375  1.00 20.00    -0.105 SA
ENDROOT
BRANCH   2  10
HETATM   10  C5  UNL     1     -32.101  18.164  -1.452  1.00 20.00     0.271 C 
HETATM   11  O10 UNL     1     -31.648  19.164  -2.033  1.00 20.00    -0.301 OA
ENDBRANCH   2  10
TORSDOF 1
ENDMDL
MODEL 5
REMARK VINA RESULT:      -4.3      1.803      1.995
REMARK  1 active torsions:
REMARK  status: ('A' for Active; 'I' for Inactive)
REMARK    1  A    between atoms: C2_2  and  C5_5 
ROOT
HETATM    1  C1  UNL     1     -37.115  15.141  -4.168  1.00 20.00     0.065 A 
HETATM    2  C2  UNL     1     -35.807  14.883  -3.814  1.00 20.00     0.015 A 
HETATM    3  C3  UNL     1     -35.186  16.008  -3.192  1.00 20.00    -0.031 A 
HETATM    4  C4  UNL     1     -36.056  17.078  -3.106  1.00 20.00    -0.010 A 
HETATM    5  C6  UNL     1     -33.774  16.087  -2.701  1.00 20.00     0.040 C 
HETATM    6  C7  UNL     1     -35.732  18.402  -2.485  1.00 20.00     0.046 C 
HETATM    7  C8  UNL     1     -33.564  17.284  -1.761  1.00 20.00     0.005 C 
HETATM    8  C9  UNL     1     -34.213  18.561  -2.316  1.00 20.00     0.005 C 
HETATM    9  S11 UNL     1     -37.593  16.732  -3.751  1.00 20.00    -0.105 SA
ENDROOT
BRANCH   2  10
HETATM   10  C5  UNL     1     -35.187  13.609  -4.070  1.00 20.00     0.271 C 
HETATM   11  O10 UNL     1     -35.803  12.616  -4.491  1.00 20.00    -0.301 OA
ENDBRANCH   2  10
TORSDOF 1
ENDMDL
MODEL 6
REMARK VINA RESULT:      -4.0      3.905      5.511
REMARK  1 active torsions:
REMARK  status: ('A' for Active; 'I' for Inactive)
REMARK    1  A    between atoms: C2_2  and  C5_5 
ROOT
HETATM    1  C1  UNL     1     -32.730  18.871   0.514  1.00 20.00     0.065 A 
HETATM    2  C2  UNL     1     -33.956  18.244   0.446  1.00 20.00     0.015 A 
HETATM    3  C3  UNL     1     -34.127  17.526  -0.776  1.00 20.00    -0.031 A 
HETATM    4  C4  UNL     1     -33.016  17.648  -1.590  1.00 20.00    -0.010 A 
HETATM    5  C6  UNL     1     -35.338  16.750  -1.192  1.00 20.00     0.040 C 
HETATM    6  C7  UNL     1     -32.858  17.000  -2.930  1.00 20.00     0.046 C 
HETATM    7  C8  UNL     1     -35.036  15.810  -2.370  1.00 20.00     0.005 C 
HETATM    8  C9  UNL     1     -34.217  16.516  -3.460  1.00 20.00     0.005 C 
HETATM    9  S11 UNL     1     -31.788  18.597  -0.891  1.00 20.00    -0.105 SA
ENDROOT
BRANCH   2  10
HETATM   10  C5  UNL     1     -34.917  18.336   1.514  1.00 20.00     0.271 C 
HETATM   11  O10 UNL     1     -34.614  18.304   2.718  1.00 20.00    -0.301 OA
ENDBRANCH   2  10
TORSDOF 1
ENDMDL
MODEL 7
REMARK VINA RESULT:      -4.0      2.399      2.822
REMARK  1 active torsions:
REMARK  status: ('A' for Active; 'I' for Inactive)
REMARK    1  A    between atoms: C2_2  and  C5_5 
ROOT
HETATM    1  C1  UNL     1     -37.697  17.101  -3.096  1.00 20.00     0.065 A 
HETATM    2  C2  UNL     1     -37.357  15.997  -3.848  1.00 20.00     0.015 A 
HETATM    3  C3  UNL     1     -35.962  15.705  -3.775  1.00 20.00    -0.031 A 
HETATM    4  C4  UNL     1     -35.300  16.612  -2.969  1.00 20.00    -0.010 A 
HETATM    5  C6  UNL     1     -35.246  14.593  -4.479  1.00 20.00     0.040 C 
HETATM    6  C7  UNL     1     -33.835  16.578  -2.659  1.00 20.00     0.046 C 
HETATM    7  C8  UNL     1     -33.851  14.347  -3.883  1.00 20.00     0.005 C 
HETATM    8  C9  UNL     1     -33.095  15.663  -3.648  1.00 20.00     0.005 C 
HETATM    9  S11 UNL     1     -36.340  17.784  -2.305  1.00 20.00    -0.105 SA
ENDROOT
BRANCH   2  10
HETATM   10  C5  UNL     1     -38.336  15.260  -4.604  1.00 20.00     0.271 C 
HETATM   11  O10 UNL     1     -38.631  14.074  -4.378  1.00 20.00    -0.301 OA
ENDBRANCH   2  10
TORSDOF 1
ENDMDL
MODEL 8
REMARK VINA RESULT:      -4.0      3.094      4.549
REMARK  1 active torsions:
REMARK  status: ('A' for Active; 'I' for Inactive)
REMARK    1  A    between atoms: C2_2  and  C5_5 
ROOT
HETATM    1  C1  UNL     1     -33.649  18.283  -0.190  1.00 20.00     0.065 A 
HETATM    2  C2  UNL     1     -34.745  17.510  -0.512  1.00 20.00     0.015 A 
HETATM    3  C3  UNL     1     -34.539  16.757  -1.707  1.00 20.00    -0.031 A 
HETATM    4  C4  UNL     1     -33.290  17.000  -2.245  1.00 20.00    -0.010 A 
HETATM    5  C6  UNL     1     -35.521  15.831  -2.357  1.00 20.00     0.040 C 
HETATM    6  C7  UNL     1     -32.747  16.353  -3.483  1.00 20.00     0.046 C 
HETATM    7  C8  UNL     1     -34.844  14.916  -3.389  1.00 20.00     0.005 C 
HETATM    8  C9  UNL     1     -33.878  15.698  -4.291  1.00 20.00     0.005 C 
HETATM    9  S11 UNL     1     -32.379  18.103  -1.325  1.00 20.00    -0.105 SA
ENDROOT
BRANCH   2  10
HETATM   10  C5  UNL     1     -35.935  17.502   0.298  1.00 20.00     0.271 C 
HETATM   11  O10 UNL     1     -37.003  18.036  -0.042  1.00 20.00    -0.301 OA
ENDBRANCH   2  10
TORSDOF 1
ENDMDL
MODEL 9
REMARK VINA RESULT:      -3.9      0.971      1.013
REMARK  1 active torsions:
REMARK  status: ('A' for Active; 'I' for Inactive)
REMARK    1  A    between atoms: C2_2  and  C5_5 
ROOT
HETATM    1  C1  UNL     1     -35.390  16.707  -6.444  1.00 20.00     0.065 A 
HETATM    2  C2  UNL     1     -35.523  15.884  -5.346  1.00 20.00     0.015 A 
HETATM    3  C3  UNL     1     -34.782  16.361  -4.222  1.00 20.00    -0.031 A 
HETATM    4  C4  UNL     1     -34.112  17.531  -4.524  1.00 20.00    -0.010 A 
HETATM    5  C6  UNL     1     -34.684  15.710  -2.878  1.00 20.00     0.040 C 
HETATM    6  C7  UNL     1     -33.264  18.308  -3.564  1.00 20.00     0.046 C 
HETATM    7  C8  UNL     1     -34.130  16.674  -1.817  1.00 20.00     0.005 C 
HETATM    8  C9  UNL     1     -32.912  17.450  -2.338  1.00 20.00     0.005 C 
HETATM    9  S11 UNL     1     -34.377  18.050  -6.123  1.00 20.00    -0.105 SA
ENDROOT
BRANCH   2  10
HETATM   10  C5  UNL     1     -36.326  14.690  -5.382  1.00 20.00     0.271 C 
HETATM   11  O10 UNL     1     -36.001  13.660  -5.996  1.00 20.00    -0.301 OA
ENDBRANCH   2  10
TORSDOF 1
ENDMDL
