MODEL 1
REMARK VINA RESULT:      -4.5      0.000      0.000
REMARK  3 active torsions:
REMARK  status: ('A' for Active; 'I' for Inactive)
REMARK    1  A    between atoms: C1_1  and  C3_3 
REMARK       I    between atoms: C1_1  and  N10_10 
REMARK    2  A    between atoms: C8_8  and  C9_9 
REMARK    3  A    between atoms: C8_8  and  N10_10 
ROOT
HETATM    1  C1  UNL     1     -24.247  18.498   7.797  1.00 20.00     0.222 C 
HETATM    2  N10 UNL     1     -24.626  18.145   9.057  1.00 20.00    -0.360 N 
HETATM    3  O11 UNL     1     -23.181  18.259   7.240  1.00 20.00    -0.273 OA
HETATM    4  H28 UNL     1     -25.534  18.410   9.384  1.00 20.00     0.162 HD
ENDROOT
BRANCH   1   5
HETATM    5  C3  UNL     1     -25.302  19.262   7.068  1.00 20.00     0.082 A 
HETATM    6  C2  UNL     1     -25.551  18.936   5.630  1.00 20.00     0.019 A 
HETATM    7  C4  UNL     1     -26.555  18.544   6.677  1.00 20.00    -0.005 A 
HETATM    8  C5  UNL     1     -27.863  19.251   6.762  1.00 20.00     0.011 C 
ENDBRANCH   1   5
BRANCH   2   9
HETATM    9  C8  UNL     1     -23.734  17.379   9.957  1.00 20.00     0.126 C 
BRANCH   9  10
HETATM   10  C9  UNL     1     -24.023  17.679  11.433  1.00 20.00    -0.005 C 
HETATM   11  C6  UNL     1     -24.937  16.632  12.072  1.00 20.00     0.011 C 
HETATM   12  C7  UNL     1     -22.738  17.841  12.247  1.00 20.00     0.011 C 
ENDBRANCH   9  10
ENDBRANCH   2   9
TORSDOF 3
ENDMDL
MODEL 2
REMARK VINA RESULT:      -4.4     15.421     17.952
REMARK  3 active torsions:
REMARK  status: ('A' for Active; 'I' for Inactive)
REMARK    1  A    between atoms: C1_1  and  C3_3 
REMARK       I    between atoms: C1_1  and  N10_10 
REMARK    2  A    between atoms: C8_8  and  C9_9 
REMARK    3  A    between atoms: C8_8  and  N10_10 
ROOT
HETATM    1  C1  UNL     1     -35.858  13.889  -4.149  1.00 20.00     0.222 C 
HETATM    2  N10 UNL     1     -36.823  14.811  -3.873  1.00 20.00    -0.360 N 
HETATM    3  O11 UNL     1     -35.996  12.802  -4.698  1.00 20.00    -0.273 OA
HETATM    4  H28 UNL     1     -36.565  15.663  -3.417  1.00 20.00     0.162 HD
ENDROOT
BRANCH   1   5
HETATM    5  C3  UNL     1     -34.501  14.322  -3.703  1.00 20.00     0.082 A 
HETATM    6  C2  UNL     1     -33.507  14.728  -4.743  1.00 20.00     0.019 A 
HETATM    7  C4  UNL     1     -34.131  15.763  -3.853  1.00 20.00    -0.005 A 
HETATM    8  C5  UNL     1     -33.321  16.428  -2.794  1.00 20.00     0.011 C 
ENDBRANCH   1   5
BRANCH   2   9
HETATM    9  C8  UNL     1     -38.242  14.590  -4.232  1.00 20.00     0.126 C 
BRANCH   9  10
HETATM   10  C9  UNL     1     -39.051  15.892  -4.180  1.00 20.00    -0.005 C 
HETATM   11  C6  UNL     1     -40.380  15.722  -3.442  1.00 20.00     0.011 C 
HETATM   12  C7  UNL     1     -38.245  17.045  -3.582  1.00 20.00     0.011 C 
ENDBRANCH   9  10
ENDBRANCH   2   9
TORSDOF 3
ENDMDL
MODEL 3
REMARK VINA RESULT:      -4.4     10.217     13.095
REMARK  3 active torsions:
REMARK  status: ('A' for Active; 'I' for Inactive)
REMARK    1  A    between atoms: C1_1  and  C3_3 
REMARK       I    between atoms: C1_1  and  N10_10 
REMARK    2  A    between atoms: C8_8  and  C9_9 
REMARK    3  A    between atoms: C8_8  and  N10_10 
ROOT
HETATM    1  C1  UNL     1     -31.811  18.405  -0.315  1.00 20.00     0.222 C 
HETATM    2  N10 UNL     1     -32.927  18.016  -0.994  1.00 20.00    -0.360 N 
HETATM    3  O11 UNL     1     -30.650  18.380  -0.705  1.00 20.00    -0.273 OA
HETATM    4  H28 UNL     1     -33.819  18.092  -0.548  1.00 20.00     0.162 HD
ENDROOT
BRANCH   1   5
HETATM    5  C3  UNL     1     -32.116  18.910   1.057  1.00 20.00     0.082 A 
HETATM    6  C2  UNL     1     -33.531  19.263   1.386  1.00 20.00     0.019 A 
HETATM    7  C4  UNL     1     -32.904  18.033   1.977  1.00 20.00    -0.005 A 
HETATM    8  C5  UNL     1     -32.558  17.990   3.425  1.00 20.00     0.011 C 
ENDBRANCH   1   5
BRANCH   2   9
HETATM    9  C8  UNL     1     -32.857  17.485  -2.374  1.00 20.00     0.126 C 
BRANCH   9  10
HETATM   10  C9  UNL     1     -33.678  16.198  -2.530  1.00 20.00    -0.005 C 
HETATM   11  C6  UNL     1     -35.031  16.282  -1.823  1.00 20.00     0.011 C 
HETATM   12  C7  UNL     1     -33.859  15.808  -3.998  1.00 20.00     0.011 C 
ENDBRANCH   9  10
ENDBRANCH   2   9
TORSDOF 3
ENDMDL
MODEL 4
REMARK VINA RESULT:      -4.3     14.848     16.356
REMARK  3 active torsions:
REMARK  status: ('A' for Active; 'I' for Inactive)
REMARK    1  A    between atoms: C1_1  and  C3_3 
REMARK       I    between atoms: C1_1  and  N10_10 
REMARK    2  A    between atoms: C8_8  and  C9_9 
REMARK    3  A    between atoms: C8_8  and  N10_10 
ROOT
HETATM    1  C1  UNL     1     -33.379   6.089   2.986  1.00 20.00     0.222 C 
HETATM    2  N10 UNL     1     -32.985   7.325   2.569  1.00 20.00    -0.360 N 
HETATM    3  O11 UNL     1     -33.070   5.003   2.509  1.00 20.00    -0.273 OA
HETATM    4  H28 UNL     1     -33.318   8.132   3.057  1.00 20.00     0.162 HD
ENDROOT
BRANCH   1   5
HETATM    5  C3  UNL     1     -34.291   6.141   4.167  1.00 20.00     0.082 A 
HETATM    6  C2  UNL     1     -35.647   5.522   4.046  1.00 20.00     0.019 A 
HETATM    7  C4  UNL     1     -34.591   4.865   4.888  1.00 20.00    -0.005 A 
HETATM    8  C5  UNL     1     -34.707   4.871   6.373  1.00 20.00     0.011 C 
ENDBRANCH   1   5
BRANCH   2   9
HETATM    9  C8  UNL     1     -32.076   7.509   1.415  1.00 20.00     0.126 C 
BRANCH   9  10
HETATM   10  C9  UNL     1     -32.489   8.706   0.551  1.00 20.00    -0.005 C 
HETATM   11  C6  UNL     1     -33.407   8.301  -0.604  1.00 20.00     0.011 C 
HETATM   12  C7  UNL     1     -33.128   9.820   1.382  1.00 20.00     0.011 C 
ENDBRANCH   9  10
ENDBRANCH   2   9
TORSDOF 3
ENDMDL
MODEL 5
REMARK VINA RESULT:      -4.3     15.379     17.718
REMARK  3 active torsions:
REMARK  status: ('A' for Active; 'I' for Inactive)
REMARK    1  A    between atoms: C1_1  and  C3_3 
REMARK       I    between atoms: C1_1  and  N10_10 
REMARK    2  A    between atoms: C8_8  and  C9_9 
REMARK    3  A    between atoms: C8_8  and  N10_10 
ROOT
HETATM    1  C1  UNL     1     -34.309  14.614  -4.738  1.00 20.00     0.222 C 
HETATM    2  N10 UNL     1     -33.633  15.326  -5.682  1.00 20.00    -0.360 N 
HETATM    3  O11 UNL     1     -35.078  13.675  -4.915  1.00 20.00    -0.273 OA
HETATM    4  H28 UNL     1     -33.034  16.072  -5.391  1.00 20.00     0.162 HD
ENDROOT
BRANCH   1   5
HETATM    5  C3  UNL     1     -34.032  15.085  -3.349  1.00 20.00     0.082 A 
HETATM    6  C2  UNL     1     -33.163  16.288  -3.167  1.00 20.00     0.019 A 
HETATM    7  C4  UNL     1     -34.640  16.378  -2.905  1.00 20.00    -0.005 A 
HETATM    8  C5  UNL     1     -35.146  16.511  -1.510  1.00 20.00     0.011 C 
ENDBRANCH   1   5
BRANCH   2   9
HETATM    9  C8  UNL     1     -33.757  15.026  -7.127  1.00 20.00     0.126 C 
BRANCH   9  10
HETATM   10  C9  UNL     1     -34.630  16.060  -7.849  1.00 20.00    -0.005 C 
HETATM   11  C6  UNL     1     -36.098  15.634  -7.918  1.00 20.00     0.011 C 
HETATM   12  C7  UNL     1     -34.501  17.453  -7.230  1.00 20.00     0.011 C 
ENDBRANCH   9  10
ENDBRANCH   2   9
TORSDOF 3
ENDMDL
MODEL 6
REMARK VINA RESULT:      -4.2     13.985     16.375
REMARK  3 active torsions:
REMARK  status: ('A' for Active; 'I' for Inactive)
REMARK    1  A    between atoms: C1_1  and  C3_3 
REMARK       I    between atoms: C1_1  and  N10_10 
REMARK    2  A    between atoms: C8_8  and  C9_9 
REMARK    3  A    between atoms: C8_8  and  N10_10 
ROOT
HETATM    1  C1  UNL     1     -33.895  15.916  -2.867  1.00 20.00     0.222 C 
HETATM    2  N10 UNL     1     -34.942  15.053  -3.001  1.00 20.00    -0.360 N 
HETATM    3  O11 UNL     1     -32.826  15.896  -3.465  1.00 20.00    -0.273 OA
HETATM    4  H28 UNL     1     -35.760  15.192  -2.443  1.00 20.00     0.162 HD
ENDROOT
BRANCH   1   5
HETATM    5  C3  UNL     1     -34.153  16.986  -1.858  1.00 20.00     0.082 A 
HETATM    6  C2  UNL     1     -35.315  17.902  -2.073  1.00 20.00     0.019 A 
HETATM    7  C4  UNL     1     -35.365  16.863  -0.989  1.00 20.00    -0.005 A 
HETATM    8  C5  UNL     1     -35.286  17.270   0.442  1.00 20.00     0.011 C 
ENDBRANCH   1   5
BRANCH   2   9
HETATM    9  C8  UNL     1     -34.903  13.918  -3.950  1.00 20.00     0.126 C 
BRANCH   9  10
HETATM   10  C9  UNL     1     -36.099  13.939  -4.910  1.00 20.00    -0.005 C 
HETATM   11  C6  UNL     1     -37.334  14.592  -4.288  1.00 20.00     0.011 C 
HETATM   12  C7  UNL     1     -35.752  14.602  -6.244  1.00 20.00     0.011 C 
ENDBRANCH   9  10
ENDBRANCH   2   9
TORSDOF 3
ENDMDL
MODEL 7
REMARK VINA RESULT:      -4.1     15.688     18.118
REMARK  3 active torsions:
REMARK  status: ('A' for Active; 'I' for Inactive)
REMARK    1  A    between atoms: C1_1  and  C3_3 
REMARK       I    between atoms: C1_1  and  N10_10 
REMARK    2  A    between atoms: C8_8  and  C9_9 
REMARK    3  A    between atoms: C8_8  and  N10_10 
ROOT
HETATM    1  C1  UNL     1     -37.812  14.890  -4.065  1.00 20.00     0.222 C 
HETATM    2  N10 UNL     1     -36.720  15.581  -3.633  1.00 20.00    -0.360 N 
HETATM    3  O11 UNL     1     -37.856  13.732  -4.465  1.00 20.00    -0.273 OA
HETATM    4  H28 UNL     1     -36.832  16.528  -3.332  1.00 20.00     0.162 HD
ENDROOT
BRANCH   1   5
HETATM    5  C3  UNL     1     -39.065  15.700  -4.017  1.00 20.00     0.082 A 
HETATM    6  C2  UNL     1     -39.553  16.332  -5.281  1.00 20.00     0.019 A 
HETATM    7  C4  UNL     1     -40.286  15.160  -4.693  1.00 20.00    -0.005 A 
HETATM    8  C5  UNL     1     -41.621  15.351  -4.061  1.00 20.00     0.011 C 
ENDBRANCH   1   5
BRANCH   2   9
HETATM    9  C8  UNL     1     -35.372  14.970  -3.593  1.00 20.00     0.126 C 
BRANCH   9  10
HETATM   10  C9  UNL     1     -34.466  15.657  -2.564  1.00 20.00    -0.005 C 
HETATM   11  C6  UNL     1     -33.291  16.386  -3.217  1.00 20.00     0.011 C 
HETATM   12  C7  UNL     1     -35.249  16.604  -1.652  1.00 20.00     0.011 C 
ENDBRANCH   9  10
ENDBRANCH   2   9
TORSDOF 3
ENDMDL
MODEL 8
REMARK VINA RESULT:      -4.1     11.251     14.169
REMARK  3 active torsions:
REMARK  status: ('A' for Active; 'I' for Inactive)
REMARK    1  A    between atoms: C1_1  and  C3_3 
REMARK       I    between atoms: C1_1  and  N10_10 
REMARK    2  A    between atoms: C8_8  and  C9_9 
REMARK    3  A    between atoms: C8_8  and  N10_10 
ROOT
HETATM    1  C1  UNL     1     -32.474  18.428  -2.521  1.00 20.00     0.222 C 
HETATM    2  N10 UNL     1     -32.718  17.106  -2.296  1.00 20.00    -0.360 N 
HETATM    3  O11 UNL     1     -32.513  19.026  -3.590  1.00 20.00    -0.273 OA
HETATM    4  H28 UNL     1     -32.649  16.751  -1.364  1.00 20.00     0.162 HD
ENDROOT
BRANCH   1   5
HETATM    5  C3  UNL     1     -32.126  19.172  -1.274  1.00 20.00     0.082 A 
HETATM    6  C2  UNL     1     -33.074  19.107  -0.120  1.00 20.00     0.019 A 
HETATM    7  C4  UNL     1     -31.759  18.384  -0.057  1.00 20.00    -0.005 A 
HETATM    8  C5  UNL     1     -30.675  18.877   0.838  1.00 20.00     0.011 C 
ENDBRANCH   1   5
BRANCH   2   9
HETATM    9  C8  UNL     1     -33.084  16.180  -3.392  1.00 20.00     0.126 C 
BRANCH   9  10
HETATM   10  C9  UNL     1     -34.565  15.787  -3.332  1.00 20.00    -0.005 C 
HETATM   11  C6  UNL     1     -34.799  14.337  -3.759  1.00 20.00     0.011 C 
HETATM   12  C7  UNL     1     -35.174  16.049  -1.954  1.00 20.00     0.011 C 
ENDBRANCH   9  10
ENDBRANCH   2   9
TORSDOF 3
ENDMDL
MODEL 9
REMARK VINA RESULT:      -4.1     10.691     13.030
REMARK  3 active torsions:
REMARK  status: ('A' for Active; 'I' for Inactive)
REMARK    1  A    between atoms: C1_1  and  C3_3 
REMARK       I    between atoms: C1_1  and  N10_10 
REMARK    2  A    between atoms: C8_8  and  C9_9 
REMARK    3  A    between atoms: C8_8  and  N10_10 
ROOT
HETATM    1  C1  UNL     1     -32.760  18.131  -1.872  1.00 20.00     0.222 C 
HETATM    2  N10 UNL     1     -33.184  17.930  -0.592  1.00 20.00    -0.360 N 
HETATM    3  O11 UNL     1     -31.843  18.850  -2.253  1.00 20.00    -0.273 OA
HETATM    4  H28 UNL     1     -33.951  17.310  -0.426  1.00 20.00     0.162 HD
ENDROOT
BRANCH   1   5
HETATM    5  C3  UNL     1     -33.548  17.352  -2.871  1.00 20.00     0.082 A 
HETATM    6  C2  UNL     1     -32.990  16.054  -3.362  1.00 20.00     0.019 A 
HETATM    7  C4  UNL     1     -34.172  16.064  -2.435  1.00 20.00    -0.005 A 
HETATM    8  C5  UNL     1     -35.524  15.695  -2.940  1.00 20.00     0.011 C 
ENDBRANCH   1   5
BRANCH   2   9
HETATM    9  C8  UNL     1     -32.541  18.601   0.560  1.00 20.00     0.126 C 
BRANCH   9  10
HETATM   10  C9  UNL     1     -33.399  18.501   1.827  1.00 20.00    -0.005 C 
HETATM   11  C6  UNL     1     -34.767  17.871   1.556  1.00 20.00     0.011 C 
HETATM   12  C7  UNL     1     -32.677  17.758   2.953  1.00 20.00     0.011 C 
ENDBRANCH   9  10
ENDBRANCH   2   9
TORSDOF 3
ENDMDL
