MODEL 1
REMARK VINA RESULT:      -5.1      0.000      0.000
REMARK  3 active torsions:
REMARK  status: ('A' for Active; 'I' for Inactive)
REMARK    1  A    between atoms: C1_1  and  C3_3 
REMARK       I    between atoms: C1_1  and  N10_10 
REMARK    2  A    between atoms: C8_8  and  C9_9 
REMARK    3  A    between atoms: C8_8  and  N10_10 
ROOT
HETATM    1  C1  UNL     1     -33.432   5.331   3.110  1.00 20.00     0.222 C 
HETATM    2  N10 UNL     1     -33.300   6.682   3.234  1.00 20.00    -0.360 N 
HETATM    3  O11 UNL     1     -32.767   4.574   2.412  1.00 20.00    -0.273 OA
HETATM    4  H28 UNL     1     -33.917   7.176   3.846  1.00 20.00     0.162 HD
ENDROOT
BRANCH   1   5
HETATM    5  C3  UNL     1     -34.534   4.777   3.953  1.00 20.00     0.082 A 
HETATM    6  C2  UNL     1     -35.737   5.628   4.203  1.00 20.00     0.019 A 
HETATM    7  C4  UNL     1     -34.781   5.329   5.323  1.00 20.00    -0.005 A 
HETATM    8  C5  UNL     1     -33.962   6.423   5.917  1.00 20.00     0.011 C 
ENDBRANCH   1   5
BRANCH   2   9
HETATM    9  C8  UNL     1     -32.268   7.439   2.489  1.00 20.00     0.126 C 
BRANCH   9  10
HETATM   10  C9  UNL     1     -32.809   7.986   1.164  1.00 20.00    -0.005 C 
HETATM   11  C6  UNL     1     -33.160   9.472   1.248  1.00 20.00     0.011 C 
HETATM   12  C7  UNL     1     -31.850   7.725   0.000  1.00 20.00     0.011 C 
ENDBRANCH   9  10
ENDBRANCH   2   9
TORSDOF 3
ENDMDL
MODEL 2
REMARK VINA RESULT:      -4.9      1.458      1.876
REMARK  3 active torsions:
REMARK  status: ('A' for Active; 'I' for Inactive)
REMARK    1  A    between atoms: C1_1  and  C3_3 
REMARK       I    between atoms: C1_1  and  N10_10 
REMARK    2  A    between atoms: C8_8  and  C9_9 
REMARK    3  A    between atoms: C8_8  and  N10_10 
ROOT
HETATM    1  C1  UNL     1     -33.577   6.877   4.368  1.00 20.00     0.222 C 
HETATM    2  N10 UNL     1     -33.462   6.837   3.011  1.00 20.00    -0.360 N 
HETATM    3  O11 UNL     1     -32.805   7.391   5.170  1.00 20.00    -0.273 OA
HETATM    4  H28 UNL     1     -34.174   6.380   2.476  1.00 20.00     0.162 HD
ENDROOT
BRANCH   1   5
HETATM    5  C3  UNL     1     -34.811   6.200   4.865  1.00 20.00     0.082 A 
HETATM    6  C2  UNL     1     -34.688   5.233   5.999  1.00 20.00     0.019 A 
HETATM    7  C4  UNL     1     -35.017   4.737   4.619  1.00 20.00    -0.005 A 
HETATM    8  C5  UNL     1     -34.038   3.894   3.876  1.00 20.00     0.011 C 
ENDBRANCH   1   5
BRANCH   2   9
HETATM    9  C8  UNL     1     -32.315   7.450   2.303  1.00 20.00     0.126 C 
BRANCH   9  10
HETATM   10  C9  UNL     1     -32.729   8.037   0.949  1.00 20.00    -0.005 C 
HETATM   11  C6  UNL     1     -33.072   9.524   1.040  1.00 20.00     0.011 C 
HETATM   12  C7  UNL     1     -31.671   7.793  -0.130  1.00 20.00     0.011 C 
ENDBRANCH   9  10
ENDBRANCH   2   9
TORSDOF 3
ENDMDL
MODEL 3
REMARK VINA RESULT:      -4.7     10.663     12.251
REMARK  3 active torsions:
REMARK  status: ('A' for Active; 'I' for Inactive)
REMARK    1  A    between atoms: C1_1  and  C3_3 
REMARK       I    between atoms: C1_1  and  N10_10 
REMARK    2  A    between atoms: C8_8  and  C9_9 
REMARK    3  A    between atoms: C8_8  and  N10_10 
ROOT
HETATM    1  C1  UNL     1     -35.870  13.820  -4.179  1.00 20.00     0.222 C 
HETATM    2  N10 UNL     1     -36.754  14.815  -3.884  1.00 20.00    -0.360 N 
HETATM    3  O11 UNL     1     -36.107  12.740  -4.707  1.00 20.00    -0.273 OA
HETATM    4  H28 UNL     1     -36.417  15.651  -3.450  1.00 20.00     0.162 HD
ENDROOT
BRANCH   1   5
HETATM    5  C3  UNL     1     -34.469  14.157  -3.788  1.00 20.00     0.082 A 
HETATM    6  C2  UNL     1     -34.090  15.597  -3.656  1.00 20.00     0.019 A 
HETATM    7  C4  UNL     1     -33.538  14.773  -4.785  1.00 20.00    -0.005 A 
HETATM    8  C5  UNL     1     -33.935  15.071  -6.190  1.00 20.00     0.011 C 
ENDBRANCH   1   5
BRANCH   2   9
HETATM    9  C8  UNL     1     -38.198  14.694  -4.188  1.00 20.00     0.126 C 
BRANCH   9  10
HETATM   10  C9  UNL     1     -38.725  15.919  -4.945  1.00 20.00    -0.005 C 
HETATM   11  C6  UNL     1     -39.616  16.804  -4.073  1.00 20.00     0.011 C 
HETATM   12  C7  UNL     1     -37.593  16.741  -5.565  1.00 20.00     0.011 C 
ENDBRANCH   9  10
ENDBRANCH   2   9
TORSDOF 3
ENDMDL
MODEL 4
REMARK VINA RESULT:      -4.7     11.264     12.163
REMARK  3 active torsions:
REMARK  status: ('A' for Active; 'I' for Inactive)
REMARK    1  A    between atoms: C1_1  and  C3_3 
REMARK       I    between atoms: C1_1  and  N10_10 
REMARK    2  A    between atoms: C8_8  and  C9_9 
REMARK    3  A    between atoms: C8_8  and  N10_10 
ROOT
HETATM    1  C1  UNL     1     -33.644  14.946  -4.921  1.00 20.00     0.222 C 
HETATM    2  N10 UNL     1     -33.666  16.180  -4.342  1.00 20.00    -0.360 N 
HETATM    3  O11 UNL     1     -33.014  13.960  -4.558  1.00 20.00    -0.273 OA
HETATM    4  H28 UNL     1     -34.232  16.898  -4.749  1.00 20.00     0.162 HD
ENDROOT
BRANCH   1   5
HETATM    5  C3  UNL     1     -34.515  14.860  -6.131  1.00 20.00     0.082 A 
HETATM    6  C2  UNL     1     -35.650  15.823  -6.264  1.00 20.00     0.019 A 
HETATM    7  C4  UNL     1     -35.923  14.367  -6.009  1.00 20.00    -0.005 A 
HETATM    8  C5  UNL     1     -36.524  13.936  -4.715  1.00 20.00     0.011 C 
ENDBRANCH   1   5
BRANCH   2   9
HETATM    9  C8  UNL     1     -32.877  16.489  -3.128  1.00 20.00     0.126 C 
BRANCH   9  10
HETATM   10  C9  UNL     1     -33.773  16.924  -1.962  1.00 20.00    -0.005 C 
HETATM   11  C6  UNL     1     -34.002  18.436  -1.936  1.00 20.00     0.011 C 
HETATM   12  C7  UNL     1     -35.109  16.177  -1.955  1.00 20.00     0.011 C 
ENDBRANCH   9  10
ENDBRANCH   2   9
TORSDOF 3
ENDMDL
MODEL 5
REMARK VINA RESULT:      -4.7     10.908     12.156
REMARK  3 active torsions:
REMARK  status: ('A' for Active; 'I' for Inactive)
REMARK    1  A    between atoms: C1_1  and  C3_3 
REMARK       I    between atoms: C1_1  and  N10_10 
REMARK    2  A    between atoms: C8_8  and  C9_9 
REMARK    3  A    between atoms: C8_8  and  N10_10 
ROOT
HETATM    1  C1  UNL     1     -35.026  14.605  -3.980  1.00 20.00     0.222 C 
HETATM    2  N10 UNL     1     -35.780  15.253  -4.912  1.00 20.00    -0.360 N 
HETATM    3  O11 UNL     1     -34.349  13.595  -4.134  1.00 20.00    -0.273 OA
HETATM    4  H28 UNL     1     -36.284  16.074  -4.644  1.00 20.00     0.162 HD
ENDROOT
BRANCH   1   5
HETATM    5  C3  UNL     1     -35.075  15.260  -2.639  1.00 20.00     0.082 A 
HETATM    6  C2  UNL     1     -35.526  16.683  -2.555  1.00 20.00     0.019 A 
HETATM    7  C4  UNL     1     -34.090  16.331  -2.289  1.00 20.00    -0.005 A 
HETATM    8  C5  UNL     1     -33.024  16.790  -3.224  1.00 20.00     0.011 C 
ENDBRANCH   1   5
BRANCH   2   9
HETATM    9  C8  UNL     1     -35.874  14.777  -6.311  1.00 20.00     0.126 C 
BRANCH   9  10
HETATM   10  C9  UNL     1     -35.085  15.675  -7.272  1.00 20.00    -0.005 C 
HETATM   11  C6  UNL     1     -34.965  17.111  -6.760  1.00 20.00     0.011 C 
HETATM   12  C7  UNL     1     -33.704  15.100  -7.592  1.00 20.00     0.011 C 
ENDBRANCH   9  10
ENDBRANCH   2   9
TORSDOF 3
ENDMDL
MODEL 6
REMARK VINA RESULT:      -4.7      1.332      4.970
REMARK  3 active torsions:
REMARK  status: ('A' for Active; 'I' for Inactive)
REMARK    1  A    between atoms: C1_1  and  C3_3 
REMARK       I    between atoms: C1_1  and  N10_10 
REMARK    2  A    between atoms: C8_8  and  C9_9 
REMARK    3  A    between atoms: C8_8  and  N10_10 
ROOT
HETATM    1  C1  UNL     1     -32.528   7.223   2.556  1.00 20.00     0.222 C 
HETATM    2  N10 UNL     1     -33.719   6.781   3.050  1.00 20.00    -0.360 N 
HETATM    3  O11 UNL     1     -31.529   7.547   3.187  1.00 20.00    -0.273 OA
HETATM    4  H28 UNL     1     -34.454   6.549   2.412  1.00 20.00     0.162 HD
ENDROOT
BRANCH   1   5
HETATM    5  C3  UNL     1     -32.511   7.293   1.064  1.00 20.00     0.082 A 
HETATM    6  C2  UNL     1     -31.454   8.115   0.400  1.00 20.00     0.019 A 
HETATM    7  C4  UNL     1     -32.888   8.563   0.367  1.00 20.00    -0.005 A 
HETATM    8  C5  UNL     1     -33.300   9.796   1.095  1.00 20.00     0.011 C 
ENDBRANCH   1   5
BRANCH   2   9
HETATM    9  C8  UNL     1     -33.956   6.632   4.504  1.00 20.00     0.126 C 
BRANCH   9  10
HETATM   10  C9  UNL     1     -34.794   5.388   4.820  1.00 20.00    -0.005 C 
HETATM   11  C6  UNL     1     -34.365   4.173   3.997  1.00 20.00     0.011 C 
HETATM   12  C7  UNL     1     -34.787   5.055   6.314  1.00 20.00     0.011 C 
ENDBRANCH   9  10
ENDBRANCH   2   9
TORSDOF 3
ENDMDL
MODEL 7
REMARK VINA RESULT:      -4.7     11.306     13.337
REMARK  3 active torsions:
REMARK  status: ('A' for Active; 'I' for Inactive)
REMARK    1  A    between atoms: C1_1  and  C3_3 
REMARK       I    between atoms: C1_1  and  N10_10 
REMARK    2  A    between atoms: C8_8  and  C9_9 
REMARK    3  A    between atoms: C8_8  and  N10_10 
ROOT
HETATM    1  C1  UNL     1     -34.701  14.872  -6.291  1.00 20.00     0.222 C 
HETATM    2  N10 UNL     1     -33.589  15.311  -5.637  1.00 20.00    -0.360 N 
HETATM    3  O11 UNL     1     -35.515  14.040  -5.908  1.00 20.00    -0.273 OA
HETATM    4  H28 UNL     1     -33.010  16.001  -6.073  1.00 20.00     0.162 HD
ENDROOT
BRANCH   1   5
HETATM    5  C3  UNL     1     -34.886  15.525  -7.621  1.00 20.00     0.082 A 
HETATM    6  C2  UNL     1     -34.116  16.771  -7.918  1.00 20.00     0.019 A 
HETATM    7  C4  UNL     1     -35.604  16.834  -7.722  1.00 20.00    -0.005 A 
HETATM    8  C5  UNL     1     -36.171  17.542  -6.539  1.00 20.00     0.011 C 
ENDBRANCH   1   5
BRANCH   2   9
HETATM    9  C8  UNL     1     -33.213  14.799  -4.300  1.00 20.00     0.126 C 
BRANCH   9  10
HETATM   10  C9  UNL     1     -33.524  15.814  -3.193  1.00 20.00    -0.005 C 
HETATM   11  C6  UNL     1     -33.278  17.256  -3.640  1.00 20.00     0.011 C 
HETATM   12  C7  UNL     1     -34.946  15.654  -2.651  1.00 20.00     0.011 C 
ENDBRANCH   9  10
ENDBRANCH   2   9
TORSDOF 3
ENDMDL
MODEL 8
REMARK VINA RESULT:      -4.6     11.174     12.517
REMARK  3 active torsions:
REMARK  status: ('A' for Active; 'I' for Inactive)
REMARK    1  A    between atoms: C1_1  and  C3_3 
REMARK       I    between atoms: C1_1  and  N10_10 
REMARK    2  A    between atoms: C8_8  and  C9_9 
REMARK    3  A    between atoms: C8_8  and  N10_10 
ROOT
HETATM    1  C1  UNL     1     -37.866  14.868  -4.046  1.00 20.00     0.222 C 
HETATM    2  N10 UNL     1     -36.794  15.579  -3.594  1.00 20.00    -0.360 N 
HETATM    3  O11 UNL     1     -37.867  13.742  -4.530  1.00 20.00    -0.273 OA
HETATM    4  H28 UNL     1     -36.942  16.495  -3.220  1.00 20.00     0.162 HD
ENDROOT
BRANCH   1   5
HETATM    5  C3  UNL     1     -39.154  15.608  -3.902  1.00 20.00     0.082 A 
HETATM    6  C2  UNL     1     -40.329  15.162  -4.711  1.00 20.00     0.019 A 
HETATM    7  C4  UNL     1     -39.656  16.470  -5.019  1.00 20.00    -0.005 A 
HETATM    8  C5  UNL     1     -38.918  16.645  -6.302  1.00 20.00     0.011 C 
ENDBRANCH   1   5
BRANCH   2   9
HETATM    9  C8  UNL     1     -35.418  15.035  -3.639  1.00 20.00     0.126 C 
BRANCH   9  10
HETATM   10  C9  UNL     1     -34.528  15.645  -2.550  1.00 20.00    -0.005 C 
HETATM   11  C6  UNL     1     -33.266  16.290  -3.123  1.00 20.00     0.011 C 
HETATM   12  C7  UNL     1     -35.292  16.643  -1.676  1.00 20.00     0.011 C 
ENDBRANCH   9  10
ENDBRANCH   2   9
TORSDOF 3
ENDMDL
MODEL 9
REMARK VINA RESULT:      -4.5      1.303      1.303
REMARK  3 active torsions:
REMARK  status: ('A' for Active; 'I' for Inactive)
REMARK    1  A    between atoms: C1_1  and  C3_3 
REMARK       I    between atoms: C1_1  and  N10_10 
REMARK    2  A    between atoms: C8_8  and  C9_9 
REMARK    3  A    between atoms: C8_8  and  N10_10 
ROOT
HETATM    1  C1  UNL     1     -33.358   6.352   3.553  1.00 20.00     0.222 C 
HETATM    2  N10 UNL     1     -33.051   6.433   2.227  1.00 20.00    -0.360 N 
HETATM    3  O11 UNL     1     -33.062   7.145   4.440  1.00 20.00    -0.273 OA
HETATM    4  H28 UNL     1     -33.362   5.708   1.612  1.00 20.00     0.162 HD
ENDROOT
BRANCH   1   5
HETATM    5  C3  UNL     1     -34.151   5.133   3.891  1.00 20.00     0.082 A 
HETATM    6  C2  UNL     1     -35.624   5.275   4.101  1.00 20.00     0.019 A 
HETATM    7  C4  UNL     1     -34.724   4.966   5.263  1.00 20.00    -0.005 A 
HETATM    8  C5  UNL     1     -34.536   5.969   6.349  1.00 20.00     0.011 C 
ENDBRANCH   1   5
BRANCH   2   9
HETATM    9  C8  UNL     1     -32.272   7.562   1.671  1.00 20.00     0.126 C 
BRANCH   9  10
HETATM   10  C9  UNL     1     -33.171   8.578   0.957  1.00 20.00    -0.005 C 
HETATM   11  C6  UNL     1     -32.779  10.023   1.268  1.00 20.00     0.011 C 
HETATM   12  C7  UNL     1     -33.212   8.345  -0.555  1.00 20.00     0.011 C 
ENDBRANCH   9  10
ENDBRANCH   2   9
TORSDOF 3
ENDMDL
