MODEL 1
REMARK VINA RESULT:      -4.2      0.000      0.000
REMARK  0 active torsions:
REMARK  status: ('A' for Active; 'I' for Inactive)
ROOT
HETATM    1  C1  UNL     1     -22.043  17.412   7.833  1.00 20.00     0.137 A 
HETATM    2  C2  UNL     1     -22.168  17.023   9.156  1.00 20.00     0.118 A 
HETATM    3  C3  UNL     1     -23.765  18.391   8.536  1.00 20.00     0.177 A 
HETATM    4  C4  UNL     1     -24.008  17.765  10.753  1.00 20.00     0.112 A 
HETATM    5  C5  UNL     1     -25.072  18.578  10.614  1.00 20.00    -0.002 A 
HETATM    6  C6  UNL     1     -26.067  18.909  11.670  1.00 20.00     0.058 C 
HETATM    7  N7  UNL     1     -23.054  18.275   7.449  1.00 20.00    -0.235 NA
HETATM    8  N8  UNL     1     -23.287  17.669   9.586  1.00 20.00    -0.309 N 
HETATM    9  S9  UNL     1     -25.200  19.263   8.973  1.00 20.00    -0.055 SA
ENDROOT
TORSDOF 0
ENDMDL
MODEL 2
REMARK VINA RESULT:      -4.0     16.623     16.925
REMARK  0 active torsions:
REMARK  status: ('A' for Active; 'I' for Inactive)
ROOT
HETATM    1  C1  UNL     1     -34.904   5.053   5.920  1.00 20.00     0.137 A 
HETATM    2  C2  UNL     1     -34.326   6.311   5.866  1.00 20.00     0.118 A 
HETATM    3  C3  UNL     1     -34.102   5.210   3.984  1.00 20.00     0.177 A 
HETATM    4  C4  UNL     1     -33.124   7.306   3.853  1.00 20.00     0.112 A 
HETATM    5  C5  UNL     1     -32.861   6.841   2.618  1.00 20.00    -0.002 A 
HETATM    6  C6  UNL     1     -32.133   7.567   1.542  1.00 20.00     0.058 C 
HETATM    7  N7  UNL     1     -34.758   4.364   4.730  1.00 20.00    -0.235 NA
HETATM    8  N8  UNL     1     -33.816   6.386   4.606  1.00 20.00    -0.309 N 
HETATM    9  S9  UNL     1     -33.493   5.193   2.358  1.00 20.00    -0.055 SA
ENDROOT
TORSDOF 0
ENDMDL
MODEL 3
REMARK VINA RESULT:      -3.9      1.808      2.213
REMARK  0 active torsions:
REMARK  status: ('A' for Active; 'I' for Inactive)
ROOT
HETATM    1  C1  UNL     1     -21.653  18.144   9.328  1.00 20.00     0.137 A 
HETATM    2  C2  UNL     1     -22.867  18.568   8.813  1.00 20.00     0.118 A 
HETATM    3  C3  UNL     1     -23.011  17.999  10.925  1.00 20.00     0.177 A 
HETATM    4  C4  UNL     1     -25.060  18.701  10.102  1.00 20.00     0.112 A 
HETATM    5  C5  UNL     1     -25.396  18.414  11.373  1.00 20.00    -0.002 A 
HETATM    6  C6  UNL     1     -26.751  18.552  11.975  1.00 20.00     0.058 C 
HETATM    7  N7  UNL     1     -21.752  17.786  10.660  1.00 20.00    -0.235 NA
HETATM    8  N8  UNL     1     -23.725  18.464   9.865  1.00 20.00    -0.309 N 
HETATM    9  S9  UNL     1     -24.013  17.825  12.332  1.00 20.00    -0.055 SA
ENDROOT
TORSDOF 0
ENDMDL
MODEL 4
REMARK VINA RESULT:      -3.9      2.065      3.032
REMARK  0 active torsions:
REMARK  status: ('A' for Active; 'I' for Inactive)
ROOT
HETATM    1  C1  UNL     1     -22.641  17.673  12.332  1.00 20.00     0.137 A 
HETATM    2  C2  UNL     1     -23.973  18.047  12.273  1.00 20.00     0.118 A 
HETATM    3  C3  UNL     1     -23.012  18.076  10.303  1.00 20.00     0.177 A 
HETATM    4  C4  UNL     1     -25.237  18.708  10.163  1.00 20.00     0.112 A 
HETATM    5  C5  UNL     1     -24.878  18.802   8.869  1.00 20.00    -0.002 A 
HETATM    6  C6  UNL     1     -25.759  19.212   7.741  1.00 20.00     0.058 C 
HETATM    7  N7  UNL     1     -22.042  17.694  11.086  1.00 20.00    -0.235 NA
HETATM    8  N8  UNL     1     -24.186  18.302  10.953  1.00 20.00    -0.309 N 
HETATM    9  S9  UNL     1     -23.168  18.373   8.600  1.00 20.00    -0.055 SA
ENDROOT
TORSDOF 0
ENDMDL
MODEL 5
REMARK VINA RESULT:      -3.9      2.078      4.153
REMARK  0 active torsions:
REMARK  status: ('A' for Active; 'I' for Inactive)
ROOT
HETATM    1  C1  UNL     1     -26.562  18.965  11.583  1.00 20.00     0.137 A 
HETATM    2  C2  UNL     1     -26.089  19.263  10.316  1.00 20.00     0.118 A 
HETATM    3  C3  UNL     1     -24.624  18.155  11.512  1.00 20.00     0.177 A 
HETATM    4  C4  UNL     1     -23.796  18.634   9.402  1.00 20.00     0.112 A 
HETATM    5  C5  UNL     1     -22.748  17.973   9.928  1.00 20.00    -0.002 A 
HETATM    6  C6  UNL     1     -21.458  17.687   9.243  1.00 20.00     0.058 C 
HETATM    7  N7  UNL     1     -25.632  18.266  12.332  1.00 20.00    -0.235 NA
HETATM    8  N8  UNL     1     -24.837  18.729  10.297  1.00 20.00    -0.309 N 
HETATM    9  S9  UNL     1     -23.046  17.438  11.603  1.00 20.00    -0.055 SA
ENDROOT
TORSDOF 0
ENDMDL
MODEL 6
REMARK VINA RESULT:      -3.8     18.065     18.860
REMARK  0 active torsions:
REMARK  status: ('A' for Active; 'I' for Inactive)
ROOT
HETATM    1  C1  UNL     1     -38.936  15.062  -4.220  1.00 20.00     0.137 A 
HETATM    2  C2  UNL     1     -38.287  16.220  -3.829  1.00 20.00     0.118 A 
HETATM    3  C3  UNL     1     -36.898  14.553  -4.139  1.00 20.00     0.177 A 
HETATM    4  C4  UNL     1     -35.776  16.471  -3.485  1.00 20.00     0.112 A 
HETATM    5  C5  UNL     1     -34.742  15.618  -3.609  1.00 20.00    -0.002 A 
HETATM    6  C6  UNL     1     -33.308  15.934  -3.365  1.00 20.00     0.058 C 
HETATM    7  N7  UNL     1     -38.054  14.014  -4.414  1.00 20.00    -0.235 NA
HETATM    8  N8  UNL     1     -36.974  15.864  -3.784  1.00 20.00    -0.309 N 
HETATM    9  S9  UNL     1     -35.257  13.987  -4.116  1.00 20.00    -0.055 SA
ENDROOT
TORSDOF 0
ENDMDL
MODEL 7
REMARK VINA RESULT:      -3.5     16.801     17.524
REMARK  0 active torsions:
REMARK  status: ('A' for Active; 'I' for Inactive)
ROOT
HETATM    1  C1  UNL     1     -36.489  13.867  -4.886  1.00 20.00     0.137 A 
HETATM    2  C2  UNL     1     -36.906  14.756  -3.909  1.00 20.00     0.118 A 
HETATM    3  C3  UNL     1     -34.734  14.793  -4.196  1.00 20.00     0.177 A 
HETATM    4  C4  UNL     1     -35.391  16.292  -2.555  1.00 20.00     0.112 A 
HETATM    5  C5  UNL     1     -34.060  16.493  -2.546  1.00 20.00    -0.002 A 
HETATM    6  C6  UNL     1     -33.323  17.448  -1.674  1.00 20.00     0.058 C 
HETATM    7  N7  UNL     1     -35.117  13.896  -5.061  1.00 20.00    -0.235 NA
HETATM    8  N8  UNL     1     -35.753  15.340  -3.480  1.00 20.00    -0.309 N 
HETATM    9  S9  UNL     1     -33.204  15.469  -3.729  1.00 20.00    -0.055 SA
ENDROOT
TORSDOF 0
ENDMDL
MODEL 8
REMARK VINA RESULT:      -3.4     17.938     18.712
REMARK  0 active torsions:
REMARK  status: ('A' for Active; 'I' for Inactive)
ROOT
HETATM    1  C1  UNL     1     -35.850  15.044  -7.519  1.00 20.00     0.137 A 
HETATM    2  C2  UNL     1     -35.266  16.246  -7.155  1.00 20.00     0.118 A 
HETATM    3  C3  UNL     1     -35.264  14.789  -5.517  1.00 20.00     0.177 A 
HETATM    4  C4  UNL     1     -34.281  16.784  -4.869  1.00 20.00     0.112 A 
HETATM    5  C5  UNL     1     -34.163  16.077  -3.730  1.00 20.00    -0.002 A 
HETATM    6  C6  UNL     1     -33.548  16.552  -2.461  1.00 20.00     0.058 C 
HETATM    7  N7  UNL     1     -35.846  14.130  -6.480  1.00 20.00    -0.235 NA
HETATM    8  N8  UNL     1     -34.897  16.054  -5.858  1.00 20.00    -0.309 N 
HETATM    9  S9  UNL     1     -34.840  14.433  -3.872  1.00 20.00    -0.055 SA
ENDROOT
TORSDOF 0
ENDMDL
MODEL 9
REMARK VINA RESULT:      -3.3     15.793     16.538
REMARK  0 active torsions:
REMARK  status: ('A' for Active; 'I' for Inactive)
ROOT
HETATM    1  C1  UNL     1     -35.278  14.282  -4.571  1.00 20.00     0.137 A 
HETATM    2  C2  UNL     1     -33.992  14.787  -4.668  1.00 20.00     0.118 A 
HETATM    3  C3  UNL     1     -35.089  15.624  -2.965  1.00 20.00     0.177 A 
HETATM    4  C4  UNL     1     -32.946  16.493  -3.093  1.00 20.00     0.112 A 
HETATM    5  C5  UNL     1     -33.403  17.139  -2.005  1.00 20.00    -0.002 A 
HETATM    6  C6  UNL     1     -32.645  18.124  -1.185  1.00 20.00     0.058 C 
HETATM    7  N7  UNL     1     -35.964  14.814  -3.495  1.00 20.00    -0.235 NA
HETATM    8  N8  UNL     1     -33.897  15.651  -3.620  1.00 20.00    -0.309 N 
HETATM    9  S9  UNL     1     -35.083  16.697  -1.600  1.00 20.00    -0.055 SA
ENDROOT
TORSDOF 0
ENDMDL
