MODEL 1
REMARK VINA RESULT:      -4.3      0.000      0.000
REMARK  1 active torsions:
REMARK  status: ('A' for Active; 'I' for Inactive)
REMARK    1  A    between atoms: C1_1  and  C4_4 
ROOT
HETATM    1  C2  UNL     1     -24.533  18.440   8.862  1.00 20.00     0.023 C 
HETATM    2  C3  UNL     1     -25.550  19.263   9.632  1.00 20.00     0.075 C 
HETATM    3  C4  UNL     1     -23.384  18.165   9.826  1.00 20.00     0.066 C 
HETATM    4  C5  UNL     1     -23.998  17.606  11.125  1.00 20.00     0.010 C 
HETATM    5  C6  UNL     1     -24.397  16.126  11.056  1.00 20.00     0.027 C 
HETATM    6  C7  UNL     1     -23.086  17.849  12.329  1.00 20.00     0.027 C 
HETATM    7  S9  UNL     1     -25.539  18.594  11.318  1.00 20.00    -0.159 SA
ENDROOT
BRANCH   3   8
HETATM    8  C1  UNL     1     -22.378  17.241   9.207  1.00 20.00     0.237 C 
HETATM    9  O8  UNL     1     -22.368  16.955   8.014  1.00 20.00    -0.306 OA
ENDBRANCH   3   8
TORSDOF 1
ENDMDL
MODEL 2
REMARK VINA RESULT:      -4.0     17.860     18.947
REMARK  1 active torsions:
REMARK  status: ('A' for Active; 'I' for Inactive)
REMARK    1  A    between atoms: C1_1  and  C4_4 
ROOT
HETATM    1  C2  UNL     1     -36.618  15.901  -5.517  1.00 20.00     0.023 C 
HETATM    2  C3  UNL     1     -35.829  17.102  -6.007  1.00 20.00     0.075 C 
HETATM    3  C4  UNL     1     -35.593  14.845  -5.121  1.00 20.00     0.066 C 
HETATM    4  C5  UNL     1     -34.572  15.525  -4.187  1.00 20.00     0.010 C 
HETATM    5  C6  UNL     1     -35.054  15.711  -2.741  1.00 20.00     0.027 C 
HETATM    6  C7  UNL     1     -33.225  14.798  -4.201  1.00 20.00     0.027 C 
HETATM    7  S9  UNL     1     -34.372  17.196  -4.931  1.00 20.00    -0.159 SA
ENDROOT
BRANCH   3   8
HETATM    8  C1  UNL     1     -36.264  13.659  -4.494  1.00 20.00     0.237 C 
HETATM    9  O8  UNL     1     -35.781  12.532  -4.493  1.00 20.00    -0.306 OA
ENDBRANCH   3   8
TORSDOF 1
ENDMDL
MODEL 3
REMARK VINA RESULT:      -3.9     17.555     18.755
REMARK  1 active torsions:
REMARK  status: ('A' for Active; 'I' for Inactive)
REMARK    1  A    between atoms: C1_1  and  C4_4 
ROOT
HETATM    1  C2  UNL     1     -33.933  14.650  -3.996  1.00 20.00     0.023 C 
HETATM    2  C3  UNL     1     -33.259  15.889  -3.436  1.00 20.00     0.075 C 
HETATM    3  C4  UNL     1     -35.433  14.857  -3.814  1.00 20.00     0.066 C 
HETATM    4  C5  UNL     1     -35.778  16.245  -4.390  1.00 20.00     0.010 C 
HETATM    5  C6  UNL     1     -35.878  16.293  -5.921  1.00 20.00     0.027 C 
HETATM    6  C7  UNL     1     -37.052  16.815  -3.762  1.00 20.00     0.027 C 
HETATM    7  S9  UNL     1     -34.337  17.275  -3.890  1.00 20.00    -0.159 SA
ENDROOT
BRANCH   3   8
HETATM    8  C1  UNL     1     -36.207  13.745  -4.457  1.00 20.00     0.237 C 
HETATM    9  O8  UNL     1     -35.797  12.592  -4.532  1.00 20.00    -0.306 OA
ENDBRANCH   3   8
TORSDOF 1
ENDMDL
MODEL 4
REMARK VINA RESULT:      -3.8     17.872     19.092
REMARK  1 active torsions:
REMARK  status: ('A' for Active; 'I' for Inactive)
REMARK    1  A    between atoms: C1_1  and  C4_4 
ROOT
HETATM    1  C2  UNL     1     -34.528  14.787  -3.379  1.00 20.00     0.023 C 
HETATM    2  C3  UNL     1     -33.984  16.156  -3.016  1.00 20.00     0.075 C 
HETATM    3  C4  UNL     1     -35.743  15.029  -4.268  1.00 20.00     0.066 C 
HETATM    4  C5  UNL     1     -35.309  16.002  -5.383  1.00 20.00     0.010 C 
HETATM    5  C6  UNL     1     -34.508  15.353  -6.520  1.00 20.00     0.027 C 
HETATM    6  C7  UNL     1     -36.502  16.772  -5.953  1.00 20.00     0.027 C 
HETATM    7  S9  UNL     1     -34.191  17.171  -4.505  1.00 20.00    -0.159 SA
ENDROOT
BRANCH   3   8
HETATM    8  C1  UNL     1     -36.283  13.734  -4.797  1.00 20.00     0.237 C 
HETATM    9  O8  UNL     1     -35.840  12.636  -4.476  1.00 20.00    -0.306 OA
ENDBRANCH   3   8
TORSDOF 1
ENDMDL
MODEL 5
REMARK VINA RESULT:      -3.6     16.825     18.001
REMARK  1 active torsions:
REMARK  status: ('A' for Active; 'I' for Inactive)
REMARK    1  A    between atoms: C1_1  and  C4_4 
ROOT
HETATM    1  C2  UNL     1     -33.904  16.235  -2.514  1.00 20.00     0.023 C 
HETATM    2  C3  UNL     1     -35.108  16.799  -1.781  1.00 20.00     0.075 C 
HETATM    3  C4  UNL     1     -34.430  15.112  -3.403  1.00 20.00     0.066 C 
HETATM    4  C5  UNL     1     -35.620  15.679  -4.202  1.00 20.00     0.010 C 
HETATM    5  C6  UNL     1     -35.225  16.549  -5.403  1.00 20.00     0.027 C 
HETATM    6  C7  UNL     1     -36.576  14.570  -4.648  1.00 20.00     0.027 C 
HETATM    7  S9  UNL     1     -36.468  16.761  -2.979  1.00 20.00    -0.159 SA
ENDROOT
BRANCH   3   8
HETATM    8  C1  UNL     1     -33.339  14.570  -4.278  1.00 20.00     0.237 C 
HETATM    9  O8  UNL     1     -33.078  13.375  -4.369  1.00 20.00    -0.306 OA
ENDBRANCH   3   8
TORSDOF 1
ENDMDL
MODEL 6
REMARK VINA RESULT:      -3.5     17.811     18.890
REMARK  1 active torsions:
REMARK  status: ('A' for Active; 'I' for Inactive)
REMARK    1  A    between atoms: C1_1  and  C4_4 
ROOT
HETATM    1  C2  UNL     1     -37.453  14.836  -4.193  1.00 20.00     0.023 C 
HETATM    2  C3  UNL     1     -38.027  16.223  -4.422  1.00 20.00     0.075 C 
HETATM    3  C4  UNL     1     -35.970  14.922  -4.540  1.00 20.00     0.066 C 
HETATM    4  C5  UNL     1     -35.390  16.128  -3.775  1.00 20.00     0.010 C 
HETATM    5  C6  UNL     1     -35.107  15.867  -2.290  1.00 20.00     0.027 C 
HETATM    6  C7  UNL     1     -34.136  16.677  -4.460  1.00 20.00     0.027 C 
HETATM    7  S9  UNL     1     -36.738  17.377  -3.879  1.00 20.00    -0.159 SA
ENDROOT
BRANCH   3   8
HETATM    8  C1  UNL     1     -35.273  13.634  -4.220  1.00 20.00     0.237 C 
HETATM    9  O8  UNL     1     -35.771  12.529  -4.414  1.00 20.00    -0.306 OA
ENDBRANCH   3   8
TORSDOF 1
ENDMDL
MODEL 7
REMARK VINA RESULT:      -3.4      1.746      2.410
REMARK  1 active torsions:
REMARK  status: ('A' for Active; 'I' for Inactive)
REMARK    1  A    between atoms: C1_1  and  C4_4 
ROOT
HETATM    1  C2  UNL     1     -25.177  18.481  10.435  1.00 20.00     0.023 C 
HETATM    2  C3  UNL     1     -24.577  18.472  11.830  1.00 20.00     0.075 C 
HETATM    3  C4  UNL     1     -24.034  18.803   9.478  1.00 20.00     0.066 C 
HETATM    4  C5  UNL     1     -22.874  17.842   9.808  1.00 20.00     0.010 C 
HETATM    5  C6  UNL     1     -23.044  16.422   9.251  1.00 20.00     0.027 C 
HETATM    6  C7  UNL     1     -21.525  18.419   9.374  1.00 20.00     0.027 C 
HETATM    7  S9  UNL     1     -22.930  17.736  11.645  1.00 20.00    -0.159 SA
ENDROOT
BRANCH   3   8
HETATM    8  C1  UNL     1     -24.489  18.706   8.053  1.00 20.00     0.237 C 
HETATM    9  O8  UNL     1     -23.761  18.937   7.093  1.00 20.00    -0.306 OA
ENDBRANCH   3   8
TORSDOF 1
ENDMDL
MODEL 8
REMARK VINA RESULT:      -3.4      1.457      2.622
REMARK  1 active torsions:
REMARK  status: ('A' for Active; 'I' for Inactive)
REMARK    1  A    between atoms: C1_1  and  C4_4 
ROOT
HETATM    1  C2  UNL     1     -21.426  18.136  10.203  1.00 20.00     0.023 C 
HETATM    2  C3  UNL     1     -21.293  18.050  11.713  1.00 20.00     0.075 C 
HETATM    3  C4  UNL     1     -22.477  17.105   9.804  1.00 20.00     0.066 C 
HETATM    4  C5  UNL     1     -23.711  17.339  10.698  1.00 20.00     0.010 C 
HETATM    5  C6  UNL     1     -24.595  18.518  10.270  1.00 20.00     0.027 C 
HETATM    6  C7  UNL     1     -24.557  16.070  10.832  1.00 20.00     0.027 C 
HETATM    7  S9  UNL     1     -22.972  17.755  12.331  1.00 20.00    -0.159 SA
ENDROOT
BRANCH   3   8
HETATM    8  C1  UNL     1     -22.786  17.197   8.340  1.00 20.00     0.237 C 
HETATM    9  O8  UNL     1     -22.034  17.719   7.523  1.00 20.00    -0.306 OA
ENDBRANCH   3   8
TORSDOF 1
ENDMDL
MODEL 9
REMARK VINA RESULT:      -3.3     23.249     23.963
REMARK  1 active torsions:
REMARK  status: ('A' for Active; 'I' for Inactive)
REMARK    1  A    between atoms: C1_1  and  C4_4 
ROOT
HETATM    1  C2  UNL     1     -43.109   7.175   1.374  1.00 20.00     0.023 C 
HETATM    2  C3  UNL     1     -43.417   5.763   1.839  1.00 20.00     0.075 C 
HETATM    3  C4  UNL     1     -41.901   7.068   0.449  1.00 20.00     0.066 C 
HETATM    4  C5  UNL     1     -42.213   5.970  -0.588  1.00 20.00     0.010 C 
HETATM    5  C6  UNL     1     -43.144   6.412  -1.725  1.00 20.00     0.027 C 
HETATM    6  C7  UNL     1     -40.933   5.360  -1.163  1.00 20.00     0.027 C 
HETATM    7  S9  UNL     1     -43.102   4.700   0.403  1.00 20.00    -0.159 SA
ENDROOT
BRANCH   3   8
HETATM    8  C1  UNL     1     -41.591   8.395  -0.177  1.00 20.00     0.237 C 
HETATM    9  O8  UNL     1     -41.917   9.469   0.319  1.00 20.00    -0.306 OA
ENDBRANCH   3   8
TORSDOF 1
ENDMDL
