MODEL 1
REMARK VINA RESULT:      -4.3      0.000      0.000
REMARK  2 active torsions:
REMARK  status: ('A' for Active; 'I' for Inactive)
REMARK    1  A    between atoms: C5_5  and  C6_6 
REMARK    2  A    between atoms: C7_7  and  N9_9 
ROOT
HETATM    1  C1  UNL     1     -37.301  14.423  -4.621  1.00 20.00     0.079 C 
HETATM    2  C7  UNL     1     -35.996  14.940  -5.038  1.00 20.00     0.252 C 
HETATM    3  N8  UNL     1     -38.336  14.013  -4.292  1.00 20.00    -0.196 NA
ENDROOT
BRANCH   2   4
HETATM    4  N9  UNL     1     -35.287  15.566  -3.944  1.00 20.00    -0.341 N 
HETATM    5  C4  UNL     1     -35.860  16.406  -3.025  1.00 20.00     0.092 A 
HETATM    6  C2  UNL     1     -34.878  16.800  -2.143  1.00 20.00     0.020 A 
HETATM    7  C3  UNL     1     -33.673  16.175  -2.546  1.00 20.00     0.034 A 
HETATM    8  C5  UNL     1     -33.954  15.419  -3.662  1.00 20.00     0.073 A 
BRANCH   8   9
HETATM    9  C6  UNL     1     -33.048  14.610  -4.420  1.00 20.00     0.288 C 
HETATM   10  O10 UNL     1     -33.021  13.364  -4.375  1.00 20.00    -0.300 OA
ENDBRANCH   8   9
ENDBRANCH   2   4
TORSDOF 2
ENDMDL
MODEL 2
REMARK VINA RESULT:      -4.2     17.065     18.344
REMARK  2 active torsions:
REMARK  status: ('A' for Active; 'I' for Inactive)
REMARK    1  A    between atoms: C5_5  and  C6_6 
REMARK    2  A    between atoms: C7_7  and  N9_9 
ROOT
HETATM    1  C1  UNL     1     -21.790  17.522   8.187  1.00 20.00     0.079 C 
HETATM    2  C7  UNL     1     -21.914  18.521   9.251  1.00 20.00     0.252 C 
HETATM    3  N8  UNL     1     -21.691  16.731   7.343  1.00 20.00    -0.196 NA
ENDROOT
BRANCH   2   4
HETATM    4  N9  UNL     1     -22.973  18.193  10.180  1.00 20.00    -0.341 N 
HETATM    5  C4  UNL     1     -22.794  17.512  11.356  1.00 20.00     0.092 A 
HETATM    6  C2  UNL     1     -24.023  17.390  11.965  1.00 20.00     0.020 A 
HETATM    7  C3  UNL     1     -24.975  18.021  11.126  1.00 20.00     0.034 A 
HETATM    8  C5  UNL     1     -24.298  18.507  10.030  1.00 20.00     0.073 A 
BRANCH   8   9
HETATM    9  C6  UNL     1     -24.843  19.219   8.913  1.00 20.00     0.288 C 
HETATM   10  O10 UNL     1     -25.181  18.679   7.841  1.00 20.00    -0.300 OA
ENDBRANCH   8   9
ENDBRANCH   2   4
TORSDOF 2
ENDMDL
MODEL 3
REMARK VINA RESULT:      -4.2     16.762     18.295
REMARK  2 active torsions:
REMARK  status: ('A' for Active; 'I' for Inactive)
REMARK    1  A    between atoms: C5_5  and  C6_6 
REMARK    2  A    between atoms: C7_7  and  N9_9 
ROOT
HETATM    1  C1  UNL     1     -24.462  18.929   7.919  1.00 20.00     0.079 C 
HETATM    2  C7  UNL     1     -25.181  19.048   9.190  1.00 20.00     0.252 C 
HETATM    3  N8  UNL     1     -23.894  18.835   6.912  1.00 20.00    -0.196 NA
ENDROOT
BRANCH   2   4
HETATM    4  N9  UNL     1     -24.416  18.516  10.296  1.00 20.00    -0.341 N 
HETATM    5  C4  UNL     1     -23.132  18.046  10.199  1.00 20.00     0.092 A 
HETATM    6  C2  UNL     1     -22.741  17.626  11.451  1.00 20.00     0.020 A 
HETATM    7  C3  UNL     1     -23.828  17.852  12.332  1.00 20.00     0.034 A 
HETATM    8  C5  UNL     1     -24.850  18.402  11.591  1.00 20.00     0.073 A 
BRANCH   8   9
HETATM    9  C6  UNL     1     -26.147  18.798  12.051  1.00 20.00     0.288 C 
HETATM   10  O10 UNL     1     -27.140  18.045  12.068  1.00 20.00    -0.300 OA
ENDBRANCH   8   9
ENDBRANCH   2   4
TORSDOF 2
ENDMDL
MODEL 4
REMARK VINA RESULT:      -4.2     11.604     12.102
REMARK  2 active torsions:
REMARK  status: ('A' for Active; 'I' for Inactive)
REMARK    1  A    between atoms: C5_5  and  C6_6 
REMARK    2  A    between atoms: C7_7  and  N9_9 
ROOT
HETATM    1  C1  UNL     1     -32.570   7.917   1.604  1.00 20.00     0.079 C 
HETATM    2  C7  UNL     1     -32.242   7.314   2.898  1.00 20.00     0.252 C 
HETATM    3  N8  UNL     1     -32.829   8.397   0.580  1.00 20.00    -0.196 NA
ENDROOT
BRANCH   2   4
HETATM    4  N9  UNL     1     -33.090   6.182   3.198  1.00 20.00    -0.341 N 
HETATM    5  C4  UNL     1     -33.247   5.090   2.383  1.00 20.00     0.092 A 
HETATM    6  C2  UNL     1     -34.126   4.227   2.999  1.00 20.00     0.020 A 
HETATM    7  C3  UNL     1     -34.512   4.821   4.227  1.00 20.00     0.034 A 
HETATM    8  C5  UNL     1     -33.857   6.028   4.323  1.00 20.00     0.073 A 
BRANCH   8   9
HETATM    9  C6  UNL     1     -33.934   6.981   5.389  1.00 20.00     0.288 C 
HETATM   10  O10 UNL     1     -34.413   6.731   6.513  1.00 20.00    -0.300 OA
ENDBRANCH   8   9
ENDBRANCH   2   4
TORSDOF 2
ENDMDL
MODEL 5
REMARK VINA RESULT:      -4.2      2.035      2.886
REMARK  2 active torsions:
REMARK  status: ('A' for Active; 'I' for Inactive)
REMARK    1  A    between atoms: C5_5  and  C6_6 
REMARK    2  A    between atoms: C7_7  and  N9_9 
ROOT
HETATM    1  C1  UNL     1     -34.417  15.709  -6.923  1.00 20.00     0.079 C 
HETATM    2  C7  UNL     1     -33.714  14.885  -5.936  1.00 20.00     0.252 C 
HETATM    3  N8  UNL     1     -34.972  16.361  -7.706  1.00 20.00    -0.196 NA
ENDROOT
BRANCH   2   4
HETATM    4  N9  UNL     1     -34.064  15.248  -4.581  1.00 20.00    -0.341 N 
HETATM    5  C4  UNL     1     -33.357  16.130  -3.805  1.00 20.00     0.092 A 
HETATM    6  C2  UNL     1     -33.990  16.220  -2.586  1.00 20.00     0.020 A 
HETATM    7  C3  UNL     1     -35.117  15.363  -2.629  1.00 20.00     0.034 A 
HETATM    8  C5  UNL     1     -35.138  14.774  -3.874  1.00 20.00     0.073 A 
BRANCH   8   9
HETATM    9  C6  UNL     1     -36.092  13.833  -4.379  1.00 20.00     0.288 C 
HETATM   10  O10 UNL     1     -35.877  12.609  -4.477  1.00 20.00    -0.300 OA
ENDBRANCH   8   9
ENDBRANCH   2   4
TORSDOF 2
ENDMDL
MODEL 6
REMARK VINA RESULT:      -4.1      3.543      5.490
REMARK  2 active torsions:
REMARK  status: ('A' for Active; 'I' for Inactive)
REMARK    1  A    between atoms: C5_5  and  C6_6 
REMARK    2  A    between atoms: C7_7  and  N9_9 
ROOT
HETATM    1  C1  UNL     1     -31.642  18.457  -0.789  1.00 20.00     0.079 C 
HETATM    2  C7  UNL     1     -33.018  18.675  -1.241  1.00 20.00     0.252 C 
HETATM    3  N8  UNL     1     -30.552  18.285  -0.431  1.00 20.00    -0.196 NA
ENDROOT
BRANCH   2   4
HETATM    4  N9  UNL     1     -33.582  17.492  -1.850  1.00 20.00    -0.341 N 
HETATM    5  C4  UNL     1     -33.012  16.805  -2.891  1.00 20.00     0.092 A 
HETATM    6  C2  UNL     1     -33.833  15.744  -3.197  1.00 20.00     0.020 A 
HETATM    7  C3  UNL     1     -34.936  15.792  -2.309  1.00 20.00     0.034 A 
HETATM    8  C5  UNL     1     -34.756  16.884  -1.489  1.00 20.00     0.073 A 
BRANCH   8   9
HETATM    9  C6  UNL     1     -35.614  17.336  -0.435  1.00 20.00     0.288 C 
HETATM   10  O10 UNL     1     -35.487  17.000   0.759  1.00 20.00    -0.300 OA
ENDBRANCH   8   9
ENDBRANCH   2   4
TORSDOF 2
ENDMDL
MODEL 7
REMARK VINA RESULT:      -4.0      1.927      2.061
REMARK  2 active torsions:
REMARK  status: ('A' for Active; 'I' for Inactive)
REMARK    1  A    between atoms: C5_5  and  C6_6 
REMARK    2  A    between atoms: C7_7  and  N9_9 
ROOT
HETATM    1  C1  UNL     1     -36.142  13.857  -4.383  1.00 20.00     0.079 C 
HETATM    2  C7  UNL     1     -36.419  15.260  -4.062  1.00 20.00     0.252 C 
HETATM    3  N8  UNL     1     -35.924  12.746  -4.636  1.00 20.00    -0.196 NA
ENDROOT
BRANCH   2   4
HETATM    4  N9  UNL     1     -35.236  15.953  -3.602  1.00 20.00    -0.341 N 
HETATM    5  C4  UNL     1     -34.786  15.950  -2.307  1.00 20.00     0.092 A 
HETATM    6  C2  UNL     1     -33.642  16.714  -2.256  1.00 20.00     0.020 A 
HETATM    7  C3  UNL     1     -33.395  17.195  -3.566  1.00 20.00     0.034 A 
HETATM    8  C5  UNL     1     -34.396  16.709  -4.377  1.00 20.00     0.073 A 
BRANCH   8   9
HETATM    9  C6  UNL     1     -34.566  16.930  -5.782  1.00 20.00     0.288 C 
HETATM   10  O10 UNL     1     -34.253  16.102  -6.660  1.00 20.00    -0.300 OA
ENDBRANCH   8   9
ENDBRANCH   2   4
TORSDOF 2
ENDMDL
MODEL 8
REMARK VINA RESULT:      -3.9      3.073      4.885
REMARK  2 active torsions:
REMARK  status: ('A' for Active; 'I' for Inactive)
REMARK    1  A    between atoms: C5_5  and  C6_6 
REMARK    2  A    between atoms: C7_7  and  N9_9 
ROOT
HETATM    1  C1  UNL     1     -31.311  18.431  -0.877  1.00 20.00     0.079 C 
HETATM    2  C7  UNL     1     -32.306  18.518  -1.949  1.00 20.00     0.252 C 
HETATM    3  N8  UNL     1     -30.521  18.362  -0.030  1.00 20.00    -0.196 NA
ENDROOT
BRANCH   2   4
HETATM    4  N9  UNL     1     -33.473  17.711  -1.671  1.00 20.00    -0.341 N 
HETATM    5  C4  UNL     1     -34.271  17.852  -0.565  1.00 20.00     0.092 A 
HETATM    6  C2  UNL     1     -35.275  16.913  -0.647  1.00 20.00     0.020 A 
HETATM    7  C3  UNL     1     -35.074  16.181  -1.844  1.00 20.00     0.034 A 
HETATM    8  C5  UNL     1     -33.952  16.695  -2.456  1.00 20.00     0.073 A 
BRANCH   8   9
HETATM    9  C6  UNL     1     -33.361  16.274  -3.690  1.00 20.00     0.288 C 
HETATM   10  O10 UNL     1     -32.851  15.151  -3.870  1.00 20.00    -0.300 OA
ENDBRANCH   8   9
ENDBRANCH   2   4
TORSDOF 2
ENDMDL
MODEL 9
REMARK VINA RESULT:      -3.9      1.703      2.687
REMARK  2 active torsions:
REMARK  status: ('A' for Active; 'I' for Inactive)
REMARK    1  A    between atoms: C5_5  and  C6_6 
REMARK    2  A    between atoms: C7_7  and  N9_9 
ROOT
HETATM    1  C1  UNL     1     -37.584  14.872  -4.356  1.00 20.00     0.079 C 
HETATM    2  C7  UNL     1     -36.532  15.891  -4.362  1.00 20.00     0.252 C 
HETATM    3  N8  UNL     1     -38.417  14.064  -4.349  1.00 20.00    -0.196 NA
ENDROOT
BRANCH   2   4
HETATM    4  N9  UNL     1     -35.605  15.705  -5.456  1.00 20.00    -0.341 N 
HETATM    5  C4  UNL     1     -35.744  16.266  -6.699  1.00 20.00     0.092 A 
HETATM    6  C2  UNL     1     -34.674  15.863  -7.466  1.00 20.00     0.020 A 
HETATM    7  C3  UNL     1     -33.862  15.031  -6.657  1.00 20.00     0.034 A 
HETATM    8  C5  UNL     1     -34.462  14.949  -5.420  1.00 20.00     0.073 A 
BRANCH   8   9
HETATM    9  C6  UNL     1     -34.006  14.219  -4.275  1.00 20.00     0.288 C 
HETATM   10  O10 UNL     1     -34.377  13.063  -3.994  1.00 20.00    -0.300 OA
ENDBRANCH   8   9
ENDBRANCH   2   4
TORSDOF 2
ENDMDL
