MODEL 1
REMARK VINA RESULT:      -4.1      0.000      0.000
REMARK  3 active torsions:
REMARK  status: ('A' for Active; 'I' for Inactive)
REMARK    1  A    between atoms: C1_1  and  N8_8 
REMARK    2  A    between atoms: C6_6  and  C7_7 
REMARK    3  A    between atoms: C6_6  and  N8_8 
ROOT
HETATM    1  C2  UNL     1     -22.566  17.061   9.279  1.00 20.00     0.033 C 
HETATM    2  C6  UNL     1     -23.616  18.014   9.852  1.00 20.00     0.087 C 
ENDROOT
BRANCH   2   3
HETATM    3  C7  UNL     1     -24.146  17.635  11.274  1.00 20.00    -0.031 C 
HETATM    4  C3  UNL     1     -25.399  18.442  11.662  1.00 20.00     0.016 C 
HETATM    5  C4  UNL     1     -24.495  16.134  11.334  1.00 20.00     0.016 C 
HETATM    6  C5  UNL     1     -23.048  17.901  12.328  1.00 20.00     0.016 C 
ENDBRANCH   2   3
BRANCH   2   7
HETATM    7  N8  UNL     1     -24.693  18.154   8.894  1.00 20.00    -0.363 N 
HETATM    8  H24 UNL     1     -25.519  17.577   9.008  1.00 20.00     0.162 HD
BRANCH   7   9
HETATM    9  C1  UNL     1     -24.649  19.030   7.835  1.00 20.00     0.348 C 
HETATM   10  O9  UNL     1     -24.029  18.914   6.785  1.00 20.00    -0.284 OA
ENDBRANCH   7   9
ENDBRANCH   2   7
TORSDOF 3
ENDMDL
MODEL 2
REMARK VINA RESULT:      -4.0     16.702     17.935
REMARK  3 active torsions:
REMARK  status: ('A' for Active; 'I' for Inactive)
REMARK    1  A    between atoms: C1_1  and  N8_8 
REMARK    2  A    between atoms: C6_6  and  C7_7 
REMARK    3  A    between atoms: C6_6  and  N8_8 
ROOT
HETATM    1  C2  UNL     1     -35.234  16.282  -1.633  1.00 20.00     0.033 C 
HETATM    2  C6  UNL     1     -35.064  15.403  -2.873  1.00 20.00     0.087 C 
ENDROOT
BRANCH   2   3
HETATM    3  C7  UNL     1     -33.885  15.813  -3.815  1.00 20.00    -0.031 C 
HETATM    4  C3  UNL     1     -33.156  14.590  -4.401  1.00 20.00     0.016 C 
HETATM    5  C4  UNL     1     -34.407  16.676  -4.984  1.00 20.00     0.016 C 
HETATM    6  C5  UNL     1     -32.861  16.663  -3.031  1.00 20.00     0.016 C 
ENDBRANCH   2   3
BRANCH   2   7
HETATM    7  N8  UNL     1     -36.326  15.344  -3.580  1.00 20.00    -0.363 N 
HETATM    8  H24 UNL     1     -36.914  16.170  -3.589  1.00 20.00     0.162 HD
BRANCH   7   9
HETATM    9  C1  UNL     1     -36.767  14.221  -4.240  1.00 20.00     0.348 C 
HETATM   10  O9  UNL     1     -37.918  13.817  -4.356  1.00 20.00    -0.284 OA
ENDBRANCH   7   9
ENDBRANCH   2   7
TORSDOF 3
ENDMDL
MODEL 3
REMARK VINA RESULT:      -4.0     16.702     17.941
REMARK  3 active torsions:
REMARK  status: ('A' for Active; 'I' for Inactive)
REMARK    1  A    between atoms: C1_1  and  N8_8 
REMARK    2  A    between atoms: C6_6  and  C7_7 
REMARK    3  A    between atoms: C6_6  and  N8_8 
ROOT
HETATM    1  C2  UNL     1     -35.284  16.267  -1.624  1.00 20.00     0.033 C 
HETATM    2  C6  UNL     1     -35.092  15.422  -2.885  1.00 20.00     0.087 C 
ENDROOT
BRANCH   2   3
HETATM    3  C7  UNL     1     -33.913  15.872  -3.807  1.00 20.00    -0.031 C 
HETATM    4  C3  UNL     1     -34.398  16.709  -5.006  1.00 20.00     0.016 C 
HETATM    5  C4  UNL     1     -32.895  16.710  -3.007  1.00 20.00     0.016 C 
HETATM    6  C5  UNL     1     -33.170  14.631  -4.349  1.00 20.00     0.016 C 
ENDBRANCH   2   3
BRANCH   2   7
HETATM    7  N8  UNL     1     -36.348  15.362  -3.603  1.00 20.00    -0.363 N 
HETATM    8  H24 UNL     1     -36.929  16.193  -3.629  1.00 20.00     0.162 HD
BRANCH   7   9
HETATM    9  C1  UNL     1     -36.793  14.234  -4.250  1.00 20.00     0.348 C 
HETATM   10  O9  UNL     1     -37.941  13.816  -4.336  1.00 20.00    -0.284 OA
ENDBRANCH   7   9
ENDBRANCH   2   7
TORSDOF 3
ENDMDL
MODEL 4
REMARK VINA RESULT:      -4.0     16.246     17.521
REMARK  3 active torsions:
REMARK  status: ('A' for Active; 'I' for Inactive)
REMARK    1  A    between atoms: C1_1  and  N8_8 
REMARK    2  A    between atoms: C6_6  and  C7_7 
REMARK    3  A    between atoms: C6_6  and  N8_8 
ROOT
HETATM    1  C2  UNL     1     -33.253  14.831  -4.207  1.00 20.00     0.033 C 
HETATM    2  C6  UNL     1     -34.530  15.636  -3.959  1.00 20.00     0.087 C 
ENDROOT
BRANCH   2   3
HETATM    3  C7  UNL     1     -34.400  16.764  -2.883  1.00 20.00    -0.031 C 
HETATM    4  C3  UNL     1     -32.931  17.070  -2.536  1.00 20.00     0.016 C 
HETATM    5  C4  UNL     1     -35.063  18.063  -3.384  1.00 20.00     0.016 C 
HETATM    6  C5  UNL     1     -35.128  16.339  -1.589  1.00 20.00     0.016 C 
ENDBRANCH   2   3
BRANCH   2   7
HETATM    7  N8  UNL     1     -35.608  14.719  -3.652  1.00 20.00    -0.363 N 
HETATM    8  H24 UNL     1     -36.065  14.795  -2.750  1.00 20.00     0.162 HD
BRANCH   7   9
HETATM    9  C1  UNL     1     -36.043  13.750  -4.525  1.00 20.00     0.348 C 
HETATM   10  O9  UNL     1     -35.836  12.544  -4.477  1.00 20.00    -0.284 OA
ENDBRANCH   7   9
ENDBRANCH   2   7
TORSDOF 3
ENDMDL
MODEL 5
REMARK VINA RESULT:      -3.9     16.266     17.476
REMARK  3 active torsions:
REMARK  status: ('A' for Active; 'I' for Inactive)
REMARK    1  A    between atoms: C1_1  and  N8_8 
REMARK    2  A    between atoms: C6_6  and  C7_7 
REMARK    3  A    between atoms: C6_6  and  N8_8 
ROOT
HETATM    1  C2  UNL     1     -33.249  14.851  -4.201  1.00 20.00     0.033 C 
HETATM    2  C6  UNL     1     -34.538  15.636  -3.952  1.00 20.00     0.087 C 
ENDROOT
BRANCH   2   3
HETATM    3  C7  UNL     1     -34.417  16.783  -2.895  1.00 20.00    -0.031 C 
HETATM    4  C3  UNL     1     -35.035  18.102  -3.395  1.00 20.00     0.016 C 
HETATM    5  C4  UNL     1     -35.121  16.381  -1.583  1.00 20.00     0.016 C 
HETATM    6  C5  UNL     1     -32.929  17.036  -2.567  1.00 20.00     0.016 C 
ENDBRANCH   2   3
BRANCH   2   7
HETATM    7  N8  UNL     1     -35.596  14.705  -3.620  1.00 20.00    -0.363 N 
HETATM    8  H24 UNL     1     -36.004  14.748  -2.692  1.00 20.00     0.162 HD
BRANCH   7   9
HETATM    9  C1  UNL     1     -36.074  13.764  -4.500  1.00 20.00     0.348 C 
HETATM   10  O9  UNL     1     -35.854  12.559  -4.511  1.00 20.00    -0.284 OA
ENDBRANCH   7   9
ENDBRANCH   2   7
TORSDOF 3
ENDMDL
MODEL 6
REMARK VINA RESULT:      -3.9     16.297     17.532
REMARK  3 active torsions:
REMARK  status: ('A' for Active; 'I' for Inactive)
REMARK    1  A    between atoms: C1_1  and  N8_8 
REMARK    2  A    between atoms: C6_6  and  C7_7 
REMARK    3  A    between atoms: C6_6  and  N8_8 
ROOT
HETATM    1  C2  UNL     1     -33.294  14.788  -4.212  1.00 20.00     0.033 C 
HETATM    2  C6  UNL     1     -34.556  15.618  -3.971  1.00 20.00     0.087 C 
ENDROOT
BRANCH   2   3
HETATM    3  C7  UNL     1     -34.409  16.747  -2.899  1.00 20.00    -0.031 C 
HETATM    4  C3  UNL     1     -35.101  16.383  -1.572  1.00 20.00     0.016 C 
HETATM    5  C4  UNL     1     -32.919  17.024  -2.612  1.00 20.00     0.016 C 
HETATM    6  C5  UNL     1     -35.032  18.057  -3.431  1.00 20.00     0.016 C 
ENDBRANCH   2   3
BRANCH   2   7
HETATM    7  N8  UNL     1     -35.653  14.723  -3.667  1.00 20.00    -0.363 N 
HETATM    8  H24 UNL     1     -36.121  14.819  -2.772  1.00 20.00     0.162 HD
BRANCH   7   9
HETATM    9  C1  UNL     1     -36.091  13.747  -4.531  1.00 20.00     0.348 C 
HETATM   10  O9  UNL     1     -35.842  12.548  -4.504  1.00 20.00    -0.284 OA
ENDBRANCH   7   9
ENDBRANCH   2   7
TORSDOF 3
ENDMDL
MODEL 7
REMARK VINA RESULT:      -3.9     15.704     16.597
REMARK  3 active torsions:
REMARK  status: ('A' for Active; 'I' for Inactive)
REMARK    1  A    between atoms: C1_1  and  N8_8 
REMARK    2  A    between atoms: C6_6  and  C7_7 
REMARK    3  A    between atoms: C6_6  and  N8_8 
ROOT
HETATM    1  C2  UNL     1     -33.163   7.319   5.232  1.00 20.00     0.033 C 
HETATM    2  C6  UNL     1     -33.885   6.631   4.073  1.00 20.00     0.087 C 
ENDROOT
BRANCH   2   3
HETATM    3  C7  UNL     1     -34.673   5.337   4.462  1.00 20.00    -0.031 C 
HETATM    4  C3  UNL     1     -34.032   4.067   3.871  1.00 20.00     0.016 C 
HETATM    5  C4  UNL     1     -34.733   5.185   5.996  1.00 20.00     0.016 C 
HETATM    6  C5  UNL     1     -36.126   5.435   3.947  1.00 20.00     0.016 C 
ENDBRANCH   2   3
BRANCH   2   7
HETATM    7  N8  UNL     1     -32.934   6.386   3.009  1.00 20.00    -0.363 N 
HETATM    8  H24 UNL     1     -32.733   5.426   2.752  1.00 20.00     0.162 HD
BRANCH   7   9
HETATM    9  C1  UNL     1     -32.288   7.392   2.330  1.00 20.00     0.348 C 
HETATM   10  O9  UNL     1     -32.717   8.077   1.409  1.00 20.00    -0.284 OA
ENDBRANCH   7   9
ENDBRANCH   2   7
TORSDOF 3
ENDMDL
MODEL 8
REMARK VINA RESULT:      -3.9     15.697     16.561
REMARK  3 active torsions:
REMARK  status: ('A' for Active; 'I' for Inactive)
REMARK    1  A    between atoms: C1_1  and  N8_8 
REMARK    2  A    between atoms: C6_6  and  C7_7 
REMARK    3  A    between atoms: C6_6  and  N8_8 
ROOT
HETATM    1  C2  UNL     1     -33.166   7.337   5.265  1.00 20.00     0.033 C 
HETATM    2  C6  UNL     1     -33.880   6.646   4.102  1.00 20.00     0.087 C 
ENDROOT
BRANCH   2   3
HETATM    3  C7  UNL     1     -34.688   5.365   4.491  1.00 20.00    -0.031 C 
HETATM    4  C3  UNL     1     -34.762   5.165   6.016  1.00 20.00     0.016 C 
HETATM    5  C4  UNL     1     -36.127   5.450   3.940  1.00 20.00     0.016 C 
HETATM    6  C5  UNL     1     -34.024   4.119   3.866  1.00 20.00     0.016 C 
ENDBRANCH   2   3
BRANCH   2   7
HETATM    7  N8  UNL     1     -32.916   6.380   3.054  1.00 20.00    -0.363 N 
HETATM    8  H24 UNL     1     -32.701   5.415   2.830  1.00 20.00     0.162 HD
BRANCH   7   9
HETATM    9  C1  UNL     1     -32.277   7.373   2.349  1.00 20.00     0.348 C 
HETATM   10  O9  UNL     1     -32.686   7.986   1.371  1.00 20.00    -0.284 OA
ENDBRANCH   7   9
ENDBRANCH   2   7
TORSDOF 3
ENDMDL
MODEL 9
REMARK VINA RESULT:      -3.8     17.085     18.209
REMARK  3 active torsions:
REMARK  status: ('A' for Active; 'I' for Inactive)
REMARK    1  A    between atoms: C1_1  and  N8_8 
REMARK    2  A    between atoms: C6_6  and  C7_7 
REMARK    3  A    between atoms: C6_6  and  N8_8 
ROOT
HETATM    1  C2  UNL     1     -34.673  15.597  -6.211  1.00 20.00     0.033 C 
HETATM    2  C6  UNL     1     -35.187  15.966  -4.819  1.00 20.00     0.087 C 
ENDROOT
BRANCH   2   3
HETATM    3  C7  UNL     1     -34.079  16.118  -3.725  1.00 20.00    -0.031 C 
HETATM    4  C3  UNL     1     -33.441  17.519  -3.735  1.00 20.00     0.016 C 
HETATM    5  C4  UNL     1     -34.669  15.860  -2.324  1.00 20.00     0.016 C 
HETATM    6  C5  UNL     1     -32.966  15.073  -3.961  1.00 20.00     0.016 C 
ENDBRANCH   2   3
BRANCH   2   7
HETATM    7  N8  UNL     1     -36.205  15.013  -4.428  1.00 20.00    -0.363 N 
HETATM    8  H24 UNL     1     -36.892  15.296  -3.738  1.00 20.00     0.162 HD
BRANCH   7   9
HETATM    9  C1  UNL     1     -36.286  13.743  -4.947  1.00 20.00     0.348 C 
HETATM   10  O9  UNL     1     -35.872  12.700  -4.457  1.00 20.00    -0.284 OA
ENDBRANCH   7   9
ENDBRANCH   2   7
TORSDOF 3
ENDMDL
