MODEL 1
REMARK VINA RESULT:      -3.8      0.000      0.000
REMARK  4 active torsions:
REMARK  status: ('A' for Active; 'I' for Inactive)
REMARK    1  A    between atoms: C1_1  and  C6_6 
REMARK    2  A    between atoms: C1_1  and  O8_8 
REMARK    3  A    between atoms: C5_5  and  C6_6 
REMARK    4  A    between atoms: C5_5  and  S9_9 
ROOT
HETATM    1  C2  UNL     1     -34.795  15.161  -3.202  1.00 20.00     0.021 C 
HETATM    2  C6  UNL     1     -35.578  14.927  -4.495  1.00 20.00     0.090 C 
ENDROOT
BRANCH   2   3
HETATM    3  C1  UNL     1     -36.276  13.573  -4.477  1.00 20.00     0.263 C 
HETATM    4  O7  UNL     1     -35.705  12.493  -4.386  1.00 20.00    -0.265 OA
BRANCH   3   5
HETATM    5  O8  UNL     1     -37.625  13.754  -4.585  1.00 20.00    -0.326 OA
HETATM    6  C3  UNL     1     -38.108  15.046  -4.202  1.00 20.00     0.213 C 
ENDBRANCH   3   5
ENDBRANCH   2   3
BRANCH   2   7
HETATM    7  C5  UNL     1     -34.717  15.112  -5.754  1.00 20.00     0.087 C 
BRANCH   7   8
HETATM    8  S9  UNL     1     -35.652  15.156  -7.317  1.00 20.00    -0.173 SA
HETATM    9  C4  UNL     1     -36.447  16.762  -7.095  1.00 20.00     0.089 C 
ENDBRANCH   7   8
ENDBRANCH   2   7
TORSDOF 4
ENDMDL
MODEL 2
REMARK VINA RESULT:      -3.6     11.214     12.454
REMARK  4 active torsions:
REMARK  status: ('A' for Active; 'I' for Inactive)
REMARK    1  A    between atoms: C1_1  and  C6_6 
REMARK    2  A    between atoms: C1_1  and  O8_8 
REMARK    3  A    between atoms: C5_5  and  C6_6 
REMARK    4  A    between atoms: C5_5  and  S9_9 
ROOT
HETATM    1  C2  UNL     1     -33.035   4.867   2.373  1.00 20.00     0.021 C 
HETATM    2  C6  UNL     1     -33.430   6.317   2.654  1.00 20.00     0.090 C 
ENDROOT
BRANCH   2   3
HETATM    3  C1  UNL     1     -32.249   7.257   2.454  1.00 20.00     0.263 C 
HETATM    4  O7  UNL     1     -31.487   7.622   3.341  1.00 20.00    -0.265 OA
BRANCH   3   5
HETATM    5  O8  UNL     1     -32.179   7.631   1.142  1.00 20.00    -0.326 OA
HETATM    6  C3  UNL     1     -32.883   8.829   0.802  1.00 20.00     0.213 C 
ENDBRANCH   3   5
ENDBRANCH   2   3
BRANCH   2   7
HETATM    7  C5  UNL     1     -34.082   6.501   4.032  1.00 20.00     0.087 C 
BRANCH   7   8
HETATM    8  S9  UNL     1     -35.200   5.152   4.534  1.00 20.00    -0.173 SA
HETATM    9  C4  UNL     1     -34.724   5.057   6.273  1.00 20.00     0.089 C 
ENDBRANCH   7   8
ENDBRANCH   2   7
TORSDOF 4
ENDMDL
MODEL 3
REMARK VINA RESULT:      -3.6      2.411      3.186
REMARK  4 active torsions:
REMARK  status: ('A' for Active; 'I' for Inactive)
REMARK    1  A    between atoms: C1_1  and  C6_6 
REMARK    2  A    between atoms: C1_1  and  O8_8 
REMARK    3  A    between atoms: C5_5  and  C6_6 
REMARK    4  A    between atoms: C5_5  and  S9_9 
ROOT
HETATM    1  C2  UNL     1     -33.357  14.610  -4.698  1.00 20.00     0.021 C 
HETATM    2  C6  UNL     1     -34.446  14.406  -3.643  1.00 20.00     0.090 C 
ENDROOT
BRANCH   2   3
HETATM    3  C1  UNL     1     -35.737  13.905  -4.275  1.00 20.00     0.263 C 
HETATM    4  O7  UNL     1     -35.955  12.743  -4.594  1.00 20.00    -0.265 OA
BRANCH   3   5
HETATM    5  O8  UNL     1     -36.603  14.950  -4.434  1.00 20.00    -0.326 OA
HETATM    6  C3  UNL     1     -37.991  14.625  -4.317  1.00 20.00     0.213 C 
ENDBRANCH   3   5
ENDBRANCH   2   3
BRANCH   2   7
HETATM    7  C5  UNL     1     -34.677  15.654  -2.777  1.00 20.00     0.087 C 
BRANCH   7   8
HETATM    8  S9  UNL     1     -33.272  16.812  -2.717  1.00 20.00    -0.173 SA
HETATM    9  C4  UNL     1     -33.759  17.730  -1.240  1.00 20.00     0.089 C 
ENDBRANCH   7   8
ENDBRANCH   2   7
TORSDOF 4
ENDMDL
MODEL 4
REMARK VINA RESULT:      -3.5      2.407      3.394
REMARK  4 active torsions:
REMARK  status: ('A' for Active; 'I' for Inactive)
REMARK    1  A    between atoms: C1_1  and  C6_6 
REMARK    2  A    between atoms: C1_1  and  O8_8 
REMARK    3  A    between atoms: C5_5  and  C6_6 
REMARK    4  A    between atoms: C5_5  and  S9_9 
ROOT
HETATM    1  C2  UNL     1     -33.519  14.373  -4.407  1.00 20.00     0.021 C 
HETATM    2  C6  UNL     1     -34.899  14.258  -3.760  1.00 20.00     0.090 C 
ENDROOT
BRANCH   2   3
HETATM    3  C1  UNL     1     -35.969  13.947  -4.797  1.00 20.00     0.263 C 
HETATM    4  O7  UNL     1     -37.101  13.556  -4.540  1.00 20.00    -0.265 OA
BRANCH   3   5
HETATM    5  O8  UNL     1     -35.468  14.165  -6.049  1.00 20.00    -0.326 OA
HETATM    6  C3  UNL     1     -36.056  15.254  -6.769  1.00 20.00     0.213 C 
ENDBRANCH   3   5
ENDBRANCH   2   3
BRANCH   2   7
HETATM    7  C5  UNL     1     -35.263  15.486  -2.911  1.00 20.00     0.087 C 
BRANCH   7   8
HETATM    8  S9  UNL     1     -33.859  16.569  -2.494  1.00 20.00    -0.173 SA
HETATM    9  C4  UNL     1     -34.584  17.389  -1.058  1.00 20.00     0.089 C 
ENDBRANCH   7   8
ENDBRANCH   2   7
TORSDOF 4
ENDMDL
MODEL 5
REMARK VINA RESULT:      -3.5      1.988      3.173
REMARK  4 active torsions:
REMARK  status: ('A' for Active; 'I' for Inactive)
REMARK    1  A    between atoms: C1_1  and  C6_6 
REMARK    2  A    between atoms: C1_1  and  O8_8 
REMARK    3  A    between atoms: C5_5  and  C6_6 
REMARK    4  A    between atoms: C5_5  and  S9_9 
ROOT
HETATM    1  C2  UNL     1     -37.480  15.519  -4.031  1.00 20.00     0.021 C 
HETATM    2  C6  UNL     1     -36.041  15.129  -4.371  1.00 20.00     0.090 C 
ENDROOT
BRANCH   2   3
HETATM    3  C1  UNL     1     -35.986  13.764  -5.044  1.00 20.00     0.263 C 
HETATM    4  O7  UNL     1     -35.936  12.693  -4.451  1.00 20.00    -0.265 OA
BRANCH   3   5
HETATM    5  O8  UNL     1     -35.993  13.923  -6.401  1.00 20.00    -0.326 OA
HETATM    6  C3  UNL     1     -35.194  15.000  -6.901  1.00 20.00     0.213 C 
ENDBRANCH   3   5
ENDBRANCH   2   3
BRANCH   2   7
HETATM    7  C5  UNL     1     -35.100  15.209  -3.159  1.00 20.00     0.087 C 
BRANCH   7   8
HETATM    8  S9  UNL     1     -33.422  15.813  -3.535  1.00 20.00    -0.173 SA
HETATM    9  C4  UNL     1     -33.309  17.074  -2.248  1.00 20.00     0.089 C 
ENDBRANCH   7   8
ENDBRANCH   2   7
TORSDOF 4
ENDMDL
MODEL 6
REMARK VINA RESULT:      -3.5      1.870      2.673
REMARK  4 active torsions:
REMARK  status: ('A' for Active; 'I' for Inactive)
REMARK    1  A    between atoms: C1_1  and  C6_6 
REMARK    2  A    between atoms: C1_1  and  O8_8 
REMARK    3  A    between atoms: C5_5  and  C6_6 
REMARK    4  A    between atoms: C5_5  and  S9_9 
ROOT
HETATM    1  C2  UNL     1     -35.063  16.067  -5.860  1.00 20.00     0.021 C 
HETATM    2  C6  UNL     1     -34.721  14.660  -5.368  1.00 20.00     0.090 C 
ENDROOT
BRANCH   2   3
HETATM    3  C1  UNL     1     -35.980  13.877  -5.021  1.00 20.00     0.263 C 
HETATM    4  O7  UNL     1     -35.994  12.738  -4.572  1.00 20.00    -0.265 OA
BRANCH   3   5
HETATM    5  O8  UNL     1     -37.081  14.638  -5.294  1.00 20.00    -0.326 OA
HETATM    6  C3  UNL     1     -38.070  14.686  -4.262  1.00 20.00     0.213 C 
ENDBRANCH   3   5
ENDBRANCH   2   3
BRANCH   2   7
HETATM    7  C5  UNL     1     -33.710  14.663  -4.212  1.00 20.00     0.087 C 
BRANCH   7   8
HETATM    8  S9  UNL     1     -33.581  16.244  -3.316  1.00 20.00    -0.173 SA
HETATM    9  C4  UNL     1     -34.936  15.990  -2.149  1.00 20.00     0.089 C 
ENDBRANCH   7   8
ENDBRANCH   2   7
TORSDOF 4
ENDMDL
MODEL 7
REMARK VINA RESULT:      -3.4      2.392      3.438
REMARK  4 active torsions:
REMARK  status: ('A' for Active; 'I' for Inactive)
REMARK    1  A    between atoms: C1_1  and  C6_6 
REMARK    2  A    between atoms: C1_1  and  O8_8 
REMARK    3  A    between atoms: C5_5  and  C6_6 
REMARK    4  A    between atoms: C5_5  and  S9_9 
ROOT
HETATM    1  C2  UNL     1     -33.458  15.411  -3.707  1.00 20.00     0.021 C 
HETATM    2  C6  UNL     1     -34.831  14.788  -3.452  1.00 20.00     0.090 C 
ENDROOT
BRANCH   2   3
HETATM    3  C1  UNL     1     -35.229  13.852  -4.585  1.00 20.00     0.263 C 
HETATM    4  O7  UNL     1     -35.913  12.845  -4.454  1.00 20.00    -0.265 OA
BRANCH   3   5
HETATM    5  O8  UNL     1     -34.701  14.307  -5.760  1.00 20.00    -0.326 OA
HETATM    6  C3  UNL     1     -35.650  14.762  -6.729  1.00 20.00     0.213 C 
ENDBRANCH   3   5
ENDBRANCH   2   3
BRANCH   2   7
HETATM    7  C5  UNL     1     -35.917  15.836  -3.165  1.00 20.00     0.087 C 
BRANCH   7   8
HETATM    8  S9  UNL     1     -35.296  17.419  -2.513  1.00 20.00    -0.173 SA
HETATM    9  C4  UNL     1     -35.332  17.005  -0.756  1.00 20.00     0.089 C 
ENDBRANCH   7   8
ENDBRANCH   2   7
TORSDOF 4
ENDMDL
MODEL 8
REMARK VINA RESULT:      -3.4      1.978      2.608
REMARK  4 active torsions:
REMARK  status: ('A' for Active; 'I' for Inactive)
REMARK    1  A    between atoms: C1_1  and  C6_6 
REMARK    2  A    between atoms: C1_1  and  O8_8 
REMARK    3  A    between atoms: C5_5  and  C6_6 
REMARK    4  A    between atoms: C5_5  and  S9_9 
ROOT
HETATM    1  C2  UNL     1     -33.586  14.579  -4.223  1.00 20.00     0.021 C 
HETATM    2  C6  UNL     1     -34.993  14.427  -3.645  1.00 20.00     0.090 C 
ENDROOT
BRANCH   2   3
HETATM    3  C1  UNL     1     -35.977  13.959  -4.709  1.00 20.00     0.263 C 
HETATM    4  O7  UNL     1     -37.134  13.624  -4.492  1.00 20.00    -0.265 OA
BRANCH   3   5
HETATM    5  O8  UNL     1     -35.365  13.967  -5.931  1.00 20.00    -0.326 OA
HETATM    6  C3  UNL     1     -35.911  14.880  -6.888  1.00 20.00     0.213 C 
ENDBRANCH   3   5
ENDBRANCH   2   3
BRANCH   2   7
HETATM    7  C5  UNL     1     -35.483  15.694  -2.928  1.00 20.00     0.087 C 
BRANCH   7   8
HETATM    8  S9  UNL     1     -35.380  17.220  -3.919  1.00 20.00    -0.173 SA
HETATM    9  C4  UNL     1     -37.149  17.489  -4.162  1.00 20.00     0.089 C 
ENDBRANCH   7   8
ENDBRANCH   2   7
TORSDOF 4
ENDMDL
MODEL 9
REMARK VINA RESULT:      -3.3      1.764      2.168
REMARK  4 active torsions:
REMARK  status: ('A' for Active; 'I' for Inactive)
REMARK    1  A    between atoms: C1_1  and  C6_6 
REMARK    2  A    between atoms: C1_1  and  O8_8 
REMARK    3  A    between atoms: C5_5  and  C6_6 
REMARK    4  A    between atoms: C5_5  and  S9_9 
ROOT
HETATM    1  C2  UNL     1     -34.622  15.908  -2.315  1.00 20.00     0.021 C 
HETATM    2  C6  UNL     1     -34.792  15.615  -3.807  1.00 20.00     0.090 C 
ENDROOT
BRANCH   2   3
HETATM    3  C1  UNL     1     -34.227  14.248  -4.166  1.00 20.00     0.263 C 
HETATM    4  O7  UNL     1     -33.061  14.030  -4.470  1.00 20.00    -0.265 OA
BRANCH   3   5
HETATM    5  O8  UNL     1     -35.221  13.313  -4.104  1.00 20.00    -0.326 OA
HETATM    6  C3  UNL     1     -36.472  13.701  -4.680  1.00 20.00     0.213 C 
ENDBRANCH   3   5
ENDBRANCH   2   3
BRANCH   2   7
HETATM    7  C5  UNL     1     -34.219  16.726  -4.700  1.00 20.00     0.087 C 
BRANCH   7   8
HETATM    8  S9  UNL     1     -35.208  17.097  -6.184  1.00 20.00    -0.173 SA
HETATM    9  C4  UNL     1     -34.322  16.044  -7.354  1.00 20.00     0.089 C 
ENDBRANCH   7   8
ENDBRANCH   2   7
TORSDOF 4
ENDMDL
