MODEL 1
REMARK VINA RESULT:      -4.1      0.000      0.000
REMARK  4 active torsions:
REMARK  status: ('A' for Active; 'I' for Inactive)
REMARK    1  A    between atoms: C3_3  and  C4_4 
REMARK    2  A    between atoms: C4_4  and  N7_7 
REMARK    3  A    between atoms: C5_5  and  C6_6 
REMARK    4  A    between atoms: C5_5  and  N7_7 
ROOT
HETATM    1  C2  UNL     1     -33.120   4.929   2.577  1.00 20.00     0.309 C 
HETATM    2  N7  UNL     1     -33.481   6.330   2.801  1.00 20.00     0.085 N 
ENDROOT
BRANCH   2   3
HETATM    3  C4  UNL     1     -33.929   6.527   4.179  1.00 20.00     0.271 C 
BRANCH   3   4
HETATM    4  C3  UNL     1     -34.904   5.446   4.632  1.00 20.00     0.026 C 
HETATM    5  C1  UNL     1     -34.783   5.130   6.116  1.00 20.00     0.007 C 
ENDBRANCH   3   4
ENDBRANCH   2   3
BRANCH   2   6
HETATM    6  C5  UNL     1     -32.348   7.203   2.502  1.00 20.00     0.286 C 
BRANCH   6   7
HETATM    7  C6  UNL     1     -32.345   7.683   1.060  1.00 20.00     0.144 C 
HETATM    8 CL8  UNL     1     -33.045   9.314   0.918  1.00 20.00    -0.129 Cl
ENDBRANCH   6   7
ENDBRANCH   2   6
TORSDOF 4
ENDMDL
MODEL 2
REMARK VINA RESULT:      -3.8      2.569      4.368
REMARK  4 active torsions:
REMARK  status: ('A' for Active; 'I' for Inactive)
REMARK    1  A    between atoms: C3_3  and  C4_4 
REMARK    2  A    between atoms: C4_4  and  N7_7 
REMARK    3  A    between atoms: C5_5  and  C6_6 
REMARK    4  A    between atoms: C5_5  and  N7_7 
ROOT
HETATM    1  C2  UNL     1     -33.198   5.321   2.283  1.00 20.00     0.309 C 
HETATM    2  N7  UNL     1     -32.838   6.292   3.317  1.00 20.00     0.085 N 
ENDROOT
BRANCH   2   3
HETATM    3  C4  UNL     1     -32.235   7.480   2.714  1.00 20.00     0.271 C 
BRANCH   3   4
HETATM    4  C3  UNL     1     -32.528   7.586   1.222  1.00 20.00     0.026 C 
HETATM    5  C1  UNL     1     -32.927   8.992   0.799  1.00 20.00     0.007 C 
ENDBRANCH   3   4
ENDBRANCH   2   3
BRANCH   2   6
HETATM    6  C5  UNL     1     -34.013   6.659   4.105  1.00 20.00     0.286 C 
BRANCH   6   7
HETATM    7  C6  UNL     1     -34.878   5.461   4.457  1.00 20.00     0.144 C 
HETATM    8 CL8  UNL     1     -34.815   5.106   6.201  1.00 20.00    -0.129 Cl
ENDBRANCH   6   7
ENDBRANCH   2   6
TORSDOF 4
ENDMDL
MODEL 3
REMARK VINA RESULT:      -3.7      2.287      4.203
REMARK  4 active torsions:
REMARK  status: ('A' for Active; 'I' for Inactive)
REMARK    1  A    between atoms: C3_3  and  C4_4 
REMARK    2  A    between atoms: C4_4  and  N7_7 
REMARK    3  A    between atoms: C5_5  and  C6_6 
REMARK    4  A    between atoms: C5_5  and  N7_7 
ROOT
HETATM    1  C2  UNL     1     -33.309   4.686   2.349  1.00 20.00     0.309 C 
HETATM    2  N7  UNL     1     -33.545   5.517   3.530  1.00 20.00     0.085 N 
ENDROOT
BRANCH   2   3
HETATM    3  C4  UNL     1     -33.414   6.934   3.192  1.00 20.00     0.271 C 
BRANCH   3   4
HETATM    4  C3  UNL     1     -32.315   7.187   2.168  1.00 20.00     0.026 C 
HETATM    5  C1  UNL     1     -32.706   8.228   1.129  1.00 20.00     0.007 C 
ENDBRANCH   3   4
ENDBRANCH   2   3
BRANCH   2   6
HETATM    6  C5  UNL     1     -34.868   5.246   4.090  1.00 20.00     0.286 C 
BRANCH   6   7
HETATM    7  C6  UNL     1     -34.852   5.151   5.606  1.00 20.00     0.144 C 
HETATM    8 CL8  UNL     1     -34.232   6.649   6.343  1.00 20.00    -0.129 Cl
ENDBRANCH   6   7
ENDBRANCH   2   6
TORSDOF 4
ENDMDL
MODEL 4
REMARK VINA RESULT:      -3.4      1.334      1.626
REMARK  4 active torsions:
REMARK  status: ('A' for Active; 'I' for Inactive)
REMARK    1  A    between atoms: C3_3  and  C4_4 
REMARK    2  A    between atoms: C4_4  and  N7_7 
REMARK    3  A    between atoms: C5_5  and  C6_6 
REMARK    4  A    between atoms: C5_5  and  N7_7 
ROOT
HETATM    1  C2  UNL     1     -33.960   3.807   3.958  1.00 20.00     0.309 C 
HETATM    2  N7  UNL     1     -34.212   5.015   3.171  1.00 20.00     0.085 N 
ENDROOT
BRANCH   2   3
HETATM    3  C4  UNL     1     -34.748   6.076   4.022  1.00 20.00     0.271 C 
BRANCH   3   4
HETATM    4  C3  UNL     1     -34.679   5.722   5.503  1.00 20.00     0.026 C 
HETATM    5  C1  UNL     1     -33.947   6.773   6.326  1.00 20.00     0.007 C 
ENDBRANCH   3   4
ENDBRANCH   2   3
BRANCH   2   6
HETATM    6  C5  UNL     1     -32.986   5.459   2.511  1.00 20.00     0.286 C 
BRANCH   6   7
HETATM    7  C6  UNL     1     -32.648   6.908   2.821  1.00 20.00     0.144 C 
HETATM    8 CL8  UNL     1     -32.585   7.890   1.337  1.00 20.00    -0.129 Cl
ENDBRANCH   6   7
ENDBRANCH   2   6
TORSDOF 4
ENDMDL
MODEL 5
REMARK VINA RESULT:      -3.3      1.143      1.481
REMARK  4 active torsions:
REMARK  status: ('A' for Active; 'I' for Inactive)
REMARK    1  A    between atoms: C3_3  and  C4_4 
REMARK    2  A    between atoms: C4_4  and  N7_7 
REMARK    3  A    between atoms: C5_5  and  C6_6 
REMARK    4  A    between atoms: C5_5  and  N7_7 
ROOT
HETATM    1  C2  UNL     1     -31.913   7.692   3.835  1.00 20.00     0.309 C 
HETATM    2  N7  UNL     1     -32.693   6.613   3.228  1.00 20.00     0.085 N 
ENDROOT
BRANCH   2   3
HETATM    3  C4  UNL     1     -34.011   6.522   3.853  1.00 20.00     0.271 C 
BRANCH   3   4
HETATM    4  C3  UNL     1     -33.937   6.581   5.374  1.00 20.00     0.026 C 
HETATM    5  C1  UNL     1     -34.683   5.436   6.045  1.00 20.00     0.007 C 
ENDBRANCH   3   4
ENDBRANCH   2   3
BRANCH   2   6
HETATM    6  C5  UNL     1     -32.824   6.825   1.788  1.00 20.00     0.286 C 
BRANCH   6   7
HETATM    7  C6  UNL     1     -32.526   8.258   1.379  1.00 20.00     0.144 C 
HETATM    8 CL8  UNL     1     -33.318   8.670  -0.162  1.00 20.00    -0.129 Cl
ENDBRANCH   6   7
ENDBRANCH   2   6
TORSDOF 4
ENDMDL
MODEL 6
REMARK VINA RESULT:      -3.2      2.641      4.561
REMARK  4 active torsions:
REMARK  status: ('A' for Active; 'I' for Inactive)
REMARK    1  A    between atoms: C3_3  and  C4_4 
REMARK    2  A    between atoms: C4_4  and  N7_7 
REMARK    3  A    between atoms: C5_5  and  C6_6 
REMARK    4  A    between atoms: C5_5  and  N7_7 
ROOT
HETATM    1  C2  UNL     1     -32.838   7.308   4.540  1.00 20.00     0.309 C 
HETATM    2  N7  UNL     1     -33.484   6.783   3.337  1.00 20.00     0.085 N 
ENDROOT
BRANCH   2   3
HETATM    3  C4  UNL     1     -32.595   6.913   2.183  1.00 20.00     0.271 C 
BRANCH   3   4
HETATM    4  C3  UNL     1     -32.521   8.344   1.664  1.00 20.00     0.026 C 
HETATM    5  C1  UNL     1     -33.000   8.474   0.225  1.00 20.00     0.007 C 
ENDBRANCH   3   4
ENDBRANCH   2   3
BRANCH   2   6
HETATM    6  C5  UNL     1     -33.869   5.387   3.531  1.00 20.00     0.286 C 
BRANCH   6   7
HETATM    7  C6  UNL     1     -35.158   5.241   4.321  1.00 20.00     0.144 C 
HETATM    8 CL8  UNL     1     -34.837   5.130   6.070  1.00 20.00    -0.129 Cl
ENDBRANCH   6   7
ENDBRANCH   2   6
TORSDOF 4
ENDMDL
MODEL 7
REMARK VINA RESULT:      -3.2     16.248     17.221
REMARK  4 active torsions:
REMARK  status: ('A' for Active; 'I' for Inactive)
REMARK    1  A    between atoms: C3_3  and  C4_4 
REMARK    2  A    between atoms: C4_4  and  N7_7 
REMARK    3  A    between atoms: C5_5  and  C6_6 
REMARK    4  A    between atoms: C5_5  and  N7_7 
ROOT
HETATM    1  C2  UNL     1     -24.075  16.277  10.591  1.00 20.00     0.309 C 
HETATM    2  N7  UNL     1     -23.143  17.268  11.131  1.00 20.00     0.085 N 
ENDROOT
BRANCH   2   3
HETATM    3  C4  UNL     1     -22.753  18.221  10.092  1.00 20.00     0.271 C 
BRANCH   3   4
HETATM    4  C3  UNL     1     -21.520  17.766   9.321  1.00 20.00     0.026 C 
HETATM    5  C1  UNL     1     -21.824  17.435   7.867  1.00 20.00     0.007 C 
ENDBRANCH   3   4
ENDBRANCH   2   3
BRANCH   2   6
HETATM    6  C5  UNL     1     -23.741  17.966  12.267  1.00 20.00     0.286 C 
BRANCH   6   7
HETATM    7  C6  UNL     1     -25.249  17.790  12.332  1.00 20.00     0.144 C 
HETATM    8 CL8  UNL     1     -26.097  19.253  11.773  1.00 20.00    -0.129 Cl
ENDBRANCH   6   7
ENDBRANCH   2   6
TORSDOF 4
ENDMDL
MODEL 8
REMARK VINA RESULT:      -3.2     16.061     16.798
REMARK  4 active torsions:
REMARK  status: ('A' for Active; 'I' for Inactive)
REMARK    1  A    between atoms: C3_3  and  C4_4 
REMARK    2  A    between atoms: C4_4  and  N7_7 
REMARK    3  A    between atoms: C5_5  and  C6_6 
REMARK    4  A    between atoms: C5_5  and  N7_7 
ROOT
HETATM    1  C2  UNL     1     -22.291  17.069   8.956  1.00 20.00     0.309 C 
HETATM    2  N7  UNL     1     -22.646  18.206   9.806  1.00 20.00     0.085 N 
ENDROOT
BRANCH   2   3
HETATM    3  C4  UNL     1     -23.883  18.828   9.334  1.00 20.00     0.271 C 
BRANCH   3   4
HETATM    4  C3  UNL     1     -24.074  18.673   7.830  1.00 20.00     0.026 C 
HETATM    5  C1  UNL     1     -25.435  19.161   7.356  1.00 20.00     0.007 C 
ENDBRANCH   3   4
ENDBRANCH   2   3
BRANCH   2   6
HETATM    6  C5  UNL     1     -22.786  17.781  11.197  1.00 20.00     0.286 C 
BRANCH   6   7
HETATM    7  C6  UNL     1     -24.231  17.512  11.583  1.00 20.00     0.144 C 
HETATM    8 CL8  UNL     1     -24.604  15.771  11.525  1.00 20.00    -0.129 Cl
ENDBRANCH   6   7
ENDBRANCH   2   6
TORSDOF 4
ENDMDL
MODEL 9
REMARK VINA RESULT:      -3.1     11.259     11.901
REMARK  4 active torsions:
REMARK  status: ('A' for Active; 'I' for Inactive)
REMARK    1  A    between atoms: C3_3  and  C4_4 
REMARK    2  A    between atoms: C4_4  and  N7_7 
REMARK    3  A    between atoms: C5_5  and  C6_6 
REMARK    4  A    between atoms: C5_5  and  N7_7 
ROOT
HETATM    1  C2  UNL     1     -34.460  16.541  -5.517  1.00 20.00     0.309 C 
HETATM    2  N7  UNL     1     -34.393  15.087  -5.359  1.00 20.00     0.085 N 
ENDROOT
BRANCH   2   3
HETATM    3  C4  UNL     1     -34.152  14.737  -3.960  1.00 20.00     0.271 C 
BRANCH   3   4
HETATM    4  C3  UNL     1     -33.947  15.965  -3.081  1.00 20.00     0.026 C 
HETATM    5  C1  UNL     1     -34.992  16.081  -1.980  1.00 20.00     0.007 C 
ENDBRANCH   3   4
ENDBRANCH   2   3
BRANCH   2   6
HETATM    6  C5  UNL     1     -35.627  14.465  -5.836  1.00 20.00     0.286 C 
BRANCH   6   7
HETATM    7  C6  UNL     1     -36.364  13.715  -4.739  1.00 20.00     0.144 C 
HETATM    8 CL8  UNL     1     -37.839  14.579  -4.242  1.00 20.00    -0.129 Cl
ENDBRANCH   6   7
ENDBRANCH   2   6
TORSDOF 4
ENDMDL
