MODEL 1
REMARK VINA RESULT:      -4.9      0.000      0.000
REMARK  1 active torsions:
REMARK  status: ('A' for Active; 'I' for Inactive)
REMARK    1  A    between atoms: C3_3  and  C7_7 
ROOT
HETATM    1  C1  UNL     1     -33.268  16.337  -2.864  1.00 20.00    -0.030 C 
HETATM    2  C2  UNL     1     -32.975  15.649  -3.976  1.00 20.00    -0.025 C 
HETATM    3  C4  UNL     1     -34.608  16.295  -2.198  1.00 20.00     0.028 C 
HETATM    4  C5  UNL     1     -35.503  15.172  -2.728  1.00 20.00     0.021 C 
HETATM    5  C6  UNL     1     -33.970  14.773  -4.704  1.00 20.00     0.018 C 
HETATM    6  C7  UNL     1     -35.445  15.039  -4.265  1.00 20.00     0.016 C 
HETATM    7  C8  UNL     1     -33.760  14.899  -6.219  1.00 20.00     0.015 C 
HETATM    8  C9  UNL     1     -36.069  16.276  -4.934  1.00 20.00     0.023 C 
ENDROOT
BRANCH   6   9
HETATM    9  C3  UNL     1     -36.295  13.845  -4.629  1.00 20.00     0.241 C 
HETATM   10  O10 UNL     1     -35.916  12.685  -4.513  1.00 20.00    -0.306 OA
ENDBRANCH   6   9
TORSDOF 1
ENDMDL
MODEL 2
REMARK VINA RESULT:      -4.6      1.118      1.273
REMARK  1 active torsions:
REMARK  status: ('A' for Active; 'I' for Inactive)
REMARK    1  A    between atoms: C3_3  and  C7_7 
ROOT
HETATM    1  C1  UNL     1     -33.142  15.452  -3.791  1.00 20.00    -0.030 C 
HETATM    2  C2  UNL     1     -33.617  14.820  -4.873  1.00 20.00    -0.025 C 
HETATM    3  C4  UNL     1     -34.015  15.994  -2.703  1.00 20.00     0.028 C 
HETATM    4  C5  UNL     1     -35.460  15.497  -2.794  1.00 20.00     0.021 C 
HETATM    5  C6  UNL     1     -35.091  14.606  -5.136  1.00 20.00     0.018 C 
HETATM    6  C7  UNL     1     -36.002  15.504  -4.240  1.00 20.00     0.016 C 
HETATM    7  C8  UNL     1     -35.378  14.763  -6.635  1.00 20.00     0.015 C 
HETATM    8  C9  UNL     1     -36.137  16.947  -4.755  1.00 20.00     0.023 C 
ENDROOT
BRANCH   6   9
HETATM    9  C3  UNL     1     -37.389  14.907  -4.185  1.00 20.00     0.241 C 
HETATM   10  O10 UNL     1     -37.626  13.727  -4.414  1.00 20.00    -0.306 OA
ENDBRANCH   6   9
TORSDOF 1
ENDMDL
MODEL 3
REMARK VINA RESULT:      -4.5      1.076      1.406
REMARK  1 active torsions:
REMARK  status: ('A' for Active; 'I' for Inactive)
REMARK    1  A    between atoms: C3_3  and  C7_7 
ROOT
HETATM    1  C1  UNL     1     -34.929  16.887  -2.296  1.00 20.00    -0.030 C 
HETATM    2  C2  UNL     1     -34.053  15.919  -2.601  1.00 20.00    -0.025 C 
HETATM    3  C4  UNL     1     -36.300  16.975  -2.890  1.00 20.00     0.028 C 
HETATM    4  C5  UNL     1     -36.710  15.703  -3.635  1.00 20.00     0.021 C 
HETATM    5  C6  UNL     1     -34.336  14.820  -3.601  1.00 20.00     0.018 C 
HETATM    6  C7  UNL     1     -35.570  15.129  -4.506  1.00 20.00     0.016 C 
HETATM    7  C8  UNL     1     -33.065  14.508  -4.401  1.00 20.00     0.015 C 
HETATM    8  C9  UNL     1     -35.253  16.084  -5.670  1.00 20.00     0.023 C 
ENDROOT
BRANCH   6   9
HETATM    9  C3  UNL     1     -36.087  13.840  -5.100  1.00 20.00     0.241 C 
HETATM   10  O10 UNL     1     -35.977  12.751  -4.549  1.00 20.00    -0.306 OA
ENDBRANCH   6   9
TORSDOF 1
ENDMDL
MODEL 4
REMARK VINA RESULT:      -4.3      1.246      2.905
REMARK  1 active torsions:
REMARK  status: ('A' for Active; 'I' for Inactive)
REMARK    1  A    between atoms: C3_3  and  C7_7 
ROOT
HETATM    1  C1  UNL     1     -34.508  17.278  -5.849  1.00 20.00    -0.030 C 
HETATM    2  C2  UNL     1     -34.753  17.260  -4.532  1.00 20.00    -0.025 C 
HETATM    3  C4  UNL     1     -34.461  16.045  -6.696  1.00 20.00     0.028 C 
HETATM    4  C5  UNL     1     -35.013  14.809  -5.981  1.00 20.00     0.021 C 
HETATM    5  C6  UNL     1     -34.982  15.991  -3.741  1.00 20.00     0.018 C 
HETATM    6  C7  UNL     1     -34.539  14.708  -4.514  1.00 20.00     0.016 C 
HETATM    7  C8  UNL     1     -34.329  16.117  -2.359  1.00 20.00     0.015 C 
HETATM    8  C9  UNL     1     -33.023  14.451  -4.457  1.00 20.00     0.023 C 
ENDROOT
BRANCH   6   9
HETATM    9  C3  UNL     1     -35.230  13.505  -3.918  1.00 20.00     0.241 C 
HETATM   10  O10 UNL     1     -35.841  12.677  -4.585  1.00 20.00    -0.306 OA
ENDBRANCH   6   9
TORSDOF 1
ENDMDL
MODEL 5
REMARK VINA RESULT:      -4.2      1.454      2.741
REMARK  1 active torsions:
REMARK  status: ('A' for Active; 'I' for Inactive)
REMARK    1  A    between atoms: C3_3  and  C7_7 
ROOT
HETATM    1  C1  UNL     1     -34.673  16.274  -1.979  1.00 20.00    -0.030 C 
HETATM    2  C2  UNL     1     -35.569  15.523  -2.634  1.00 20.00    -0.025 C 
HETATM    3  C4  UNL     1     -33.478  16.891  -2.635  1.00 20.00     0.028 C 
HETATM    4  C5  UNL     1     -33.540  16.835  -4.163  1.00 20.00     0.021 C 
HETATM    5  C6  UNL     1     -35.462  15.187  -4.105  1.00 20.00     0.018 C 
HETATM    6  C7  UNL     1     -34.042  15.473  -4.689  1.00 20.00     0.016 C 
HETATM    7  C8  UNL     1     -35.932  13.746  -4.343  1.00 20.00     0.015 C 
HETATM    8  C9  UNL     1     -33.018  14.368  -4.379  1.00 20.00     0.023 C 
ENDROOT
BRANCH   6   9
HETATM    9  C3  UNL     1     -34.138  15.598  -6.191  1.00 20.00     0.241 C 
HETATM   10  O10 UNL     1     -33.702  14.757  -6.969  1.00 20.00    -0.306 OA
ENDBRANCH   6   9
TORSDOF 1
ENDMDL
MODEL 6
REMARK VINA RESULT:      -4.1      1.321      2.609
REMARK  1 active torsions:
REMARK  status: ('A' for Active; 'I' for Inactive)
REMARK    1  A    between atoms: C3_3  and  C7_7 
ROOT
HETATM    1  C1  UNL     1     -37.080  17.203  -3.096  1.00 20.00    -0.030 C 
HETATM    2  C2  UNL     1     -35.900  16.943  -2.516  1.00 20.00    -0.025 C 
HETATM    3  C4  UNL     1     -37.738  16.281  -4.074  1.00 20.00     0.028 C 
HETATM    4  C5  UNL     1     -37.092  14.894  -4.115  1.00 20.00     0.021 C 
HETATM    5  C6  UNL     1     -35.083  15.702  -2.802  1.00 20.00     0.018 C 
HETATM    6  C7  UNL     1     -35.549  14.955  -4.092  1.00 20.00     0.016 C 
HETATM    7  C8  UNL     1     -33.590  16.057  -2.817  1.00 20.00     0.015 C 
HETATM    8  C9  UNL     1     -35.017  15.585  -5.391  1.00 20.00     0.023 C 
ENDROOT
BRANCH   6   9
HETATM    9  C3  UNL     1     -35.060  13.527  -4.043  1.00 20.00     0.241 C 
HETATM   10  O10 UNL     1     -35.726  12.571  -4.424  1.00 20.00    -0.306 OA
ENDBRANCH   6   9
TORSDOF 1
ENDMDL
MODEL 7
REMARK VINA RESULT:      -4.1      1.168      1.380
REMARK  1 active torsions:
REMARK  status: ('A' for Active; 'I' for Inactive)
REMARK    1  A    between atoms: C3_3  and  C7_7 
ROOT
HETATM    1  C1  UNL     1     -33.769  17.000  -3.847  1.00 20.00    -0.030 C 
HETATM    2  C2  UNL     1     -34.151  16.784  -5.114  1.00 20.00    -0.025 C 
HETATM    3  C4  UNL     1     -34.239  16.171  -2.693  1.00 20.00     0.028 C 
HETATM    4  C5  UNL     1     -34.946  14.886  -3.129  1.00 20.00     0.021 C 
HETATM    5  C6  UNL     1     -35.122  15.698  -5.521  1.00 20.00     0.018 C 
HETATM    6  C7  UNL     1     -35.914  15.110  -4.311  1.00 20.00     0.016 C 
HETATM    7  C8  UNL     1     -36.031  16.211  -6.645  1.00 20.00     0.015 C 
HETATM    8  C9  UNL     1     -37.102  15.984  -3.872  1.00 20.00     0.023 C 
ENDROOT
BRANCH   6   9
HETATM    9  C3  UNL     1     -36.460  13.753  -4.686  1.00 20.00     0.241 C 
HETATM   10  O10 UNL     1     -35.843  12.706  -4.519  1.00 20.00    -0.306 OA
ENDBRANCH   6   9
TORSDOF 1
ENDMDL
MODEL 8
REMARK VINA RESULT:      -4.0      3.069      4.833
REMARK  1 active torsions:
REMARK  status: ('A' for Active; 'I' for Inactive)
REMARK    1  A    between atoms: C3_3  and  C7_7 
ROOT
HETATM    1  C1  UNL     1     -35.186  15.516  -2.976  1.00 20.00    -0.030 C 
HETATM    2  C2  UNL     1     -35.345  16.169  -1.817  1.00 20.00    -0.025 C 
HETATM    3  C4  UNL     1     -33.968  15.649  -3.835  1.00 20.00     0.028 C 
HETATM    4  C5  UNL     1     -32.810  16.355  -3.126  1.00 20.00     0.021 C 
HETATM    5  C6  UNL     1     -34.328  17.138  -1.255  1.00 20.00     0.018 C 
HETATM    6  C7  UNL     1     -33.271  17.586  -2.314  1.00 20.00     0.016 C 
HETATM    7  C8  UNL     1     -35.048  18.316  -0.587  1.00 20.00     0.015 C 
HETATM    8  C9  UNL     1     -33.778  18.691  -3.257  1.00 20.00     0.023 C 
ENDROOT
BRANCH   6   9
HETATM    9  C3  UNL     1     -32.049  18.117  -1.603  1.00 20.00     0.241 C 
HETATM   10  O10 UNL     1     -31.634  19.263  -1.737  1.00 20.00    -0.306 OA
ENDBRANCH   6   9
TORSDOF 1
ENDMDL
MODEL 9
REMARK VINA RESULT:      -3.9     10.635     12.421
REMARK  1 active torsions:
REMARK  status: ('A' for Active; 'I' for Inactive)
REMARK    1  A    between atoms: C3_3  and  C7_7 
ROOT
HETATM    1  C1  UNL     1     -41.928   8.372   0.556  1.00 20.00    -0.030 C 
HETATM    2  C2  UNL     1     -42.622   7.374   1.119  1.00 20.00    -0.025 C 
HETATM    3  C4  UNL     1     -41.561   8.403  -0.895  1.00 20.00     0.028 C 
HETATM    4  C5  UNL     1     -42.305   7.353  -1.722  1.00 20.00     0.021 C 
HETATM    5  C6  UNL     1     -43.091   6.150   0.364  1.00 20.00     0.018 C 
HETATM    6  C7  UNL     1     -42.379   5.981  -1.015  1.00 20.00     0.016 C 
HETATM    7  C8  UNL     1     -42.971   4.910   1.260  1.00 20.00     0.015 C 
HETATM    8  C9  UNL     1     -40.976   5.357  -0.909  1.00 20.00     0.023 C 
ENDROOT
BRANCH   6   9
HETATM    9  C3  UNL     1     -43.212   5.083  -1.899  1.00 20.00     0.241 C 
HETATM   10  O10 UNL     1     -42.834   3.988  -2.297  1.00 20.00    -0.306 OA
ENDBRANCH   6   9
TORSDOF 1
ENDMDL
