MODEL 1
REMARK VINA RESULT:      -4.6      0.000      0.000
REMARK  1 active torsions:
REMARK  status: ('A' for Active; 'I' for Inactive)
REMARK    1  A    between atoms: C3_3  and  C7_7 
ROOT
HETATM    1  C1  UNL     1     -34.026  16.171  -2.346  1.00 20.00    -0.030 C 
HETATM    2  C2  UNL     1     -35.365  16.161  -2.390  1.00 20.00    -0.025 C 
HETATM    3  C4  UNL     1     -33.157  15.765  -3.494  1.00 20.00     0.028 C 
HETATM    4  C5  UNL     1     -33.921  15.574  -4.810  1.00 20.00     0.021 C 
HETATM    5  C6  UNL     1     -36.165  15.724  -3.596  1.00 20.00     0.018 C 
HETATM    6  C7  UNL     1     -35.302  14.916  -4.614  1.00 20.00     0.016 C 
HETATM    7  C8  UNL     1     -36.841  16.965  -4.194  1.00 20.00     0.015 C 
HETATM    8  C9  UNL     1     -35.993  14.745  -5.977  1.00 20.00     0.023 C 
ENDROOT
BRANCH   6   9
HETATM    9  C3  UNL     1     -35.105  13.509  -4.091  1.00 20.00     0.241 C 
HETATM   10  O10 UNL     1     -35.789  12.554  -4.446  1.00 20.00    -0.306 OA
ENDBRANCH   6   9
TORSDOF 1
ENDMDL
MODEL 2
REMARK VINA RESULT:      -4.5      1.401      2.438
REMARK  1 active torsions:
REMARK  status: ('A' for Active; 'I' for Inactive)
REMARK    1  A    between atoms: C3_3  and  C7_7 
ROOT
HETATM    1  C1  UNL     1     -33.510  14.709  -5.094  1.00 20.00    -0.030 C 
HETATM    2  C2  UNL     1     -33.776  14.663  -3.782  1.00 20.00    -0.025 C 
HETATM    3  C4  UNL     1     -34.429  15.321  -6.104  1.00 20.00     0.028 C 
HETATM    4  C5  UNL     1     -35.586  16.115  -5.486  1.00 20.00     0.021 C 
HETATM    5  C6  UNL     1     -35.041  15.208  -3.159  1.00 20.00     0.018 C 
HETATM    6  C7  UNL     1     -36.161  15.452  -4.218  1.00 20.00     0.016 C 
HETATM    7  C8  UNL     1     -34.671  16.452  -2.341  1.00 20.00     0.015 C 
HETATM    8  C9  UNL     1     -37.323  16.297  -3.671  1.00 20.00     0.023 C 
ENDROOT
BRANCH   6   9
HETATM    9  C3  UNL     1     -36.782  14.124  -4.597  1.00 20.00     0.241 C 
HETATM   10  O10 UNL     1     -37.956  13.841  -4.382  1.00 20.00    -0.306 OA
ENDBRANCH   6   9
TORSDOF 1
ENDMDL
MODEL 3
REMARK VINA RESULT:      -4.3      0.957      1.111
REMARK  1 active torsions:
REMARK  status: ('A' for Active; 'I' for Inactive)
REMARK    1  A    between atoms: C3_3  and  C7_7 
ROOT
HETATM    1  C1  UNL     1     -35.215  16.261  -2.598  1.00 20.00    -0.030 C 
HETATM    2  C2  UNL     1     -36.256  16.664  -3.338  1.00 20.00    -0.025 C 
HETATM    3  C4  UNL     1     -34.155  15.332  -3.100  1.00 20.00     0.028 C 
HETATM    4  C5  UNL     1     -34.220  15.076  -4.611  1.00 20.00     0.021 C 
HETATM    5  C6  UNL     1     -36.500  16.221  -4.762  1.00 20.00     0.018 C 
HETATM    6  C7  UNL     1     -35.665  14.958  -5.138  1.00 20.00     0.016 C 
HETATM    7  C8  UNL     1     -36.263  17.426  -5.683  1.00 20.00     0.015 C 
HETATM    8  C9  UNL     1     -35.645  14.686  -6.651  1.00 20.00     0.023 C 
ENDROOT
BRANCH   6   9
HETATM    9  C3  UNL     1     -36.313  13.735  -4.524  1.00 20.00     0.241 C 
HETATM   10  O10 UNL     1     -35.826  12.611  -4.584  1.00 20.00    -0.306 OA
ENDBRANCH   6   9
TORSDOF 1
ENDMDL
MODEL 4
REMARK VINA RESULT:      -4.2      1.074      1.074
REMARK  1 active torsions:
REMARK  status: ('A' for Active; 'I' for Inactive)
REMARK    1  A    between atoms: C3_3  and  C7_7 
ROOT
HETATM    1  C1  UNL     1     -34.108  15.544  -2.829  1.00 20.00    -0.030 C 
HETATM    2  C2  UNL     1     -35.304  16.146  -2.824  1.00 20.00    -0.025 C 
HETATM    3  C4  UNL     1     -33.501  14.920  -4.047  1.00 20.00     0.028 C 
HETATM    4  C5  UNL     1     -34.247  15.245  -5.346  1.00 20.00     0.021 C 
HETATM    5  C6  UNL     1     -36.197  16.258  -4.039  1.00 20.00     0.018 C 
HETATM    6  C7  UNL     1     -35.779  15.267  -5.170  1.00 20.00     0.016 C 
HETATM    7  C8  UNL     1     -36.226  17.729  -4.475  1.00 20.00     0.015 C 
HETATM    8  C9  UNL     1     -36.452  15.582  -6.516  1.00 20.00     0.023 C 
ENDROOT
BRANCH   6   9
HETATM    9  C3  UNL     1     -36.252  13.874  -4.808  1.00 20.00     0.241 C 
HETATM   10  O10 UNL     1     -37.398  13.621  -4.454  1.00 20.00    -0.306 OA
ENDBRANCH   6   9
TORSDOF 1
ENDMDL
MODEL 5
REMARK VINA RESULT:      -4.2      1.396      1.545
REMARK  1 active torsions:
REMARK  status: ('A' for Active; 'I' for Inactive)
REMARK    1  A    between atoms: C3_3  and  C7_7 
ROOT
HETATM    1  C1  UNL     1     -34.057  16.801  -2.236  1.00 20.00    -0.030 C 
HETATM    2  C2  UNL     1     -34.923  15.780  -2.259  1.00 20.00    -0.025 C 
HETATM    3  C4  UNL     1     -33.412  17.366  -3.463  1.00 20.00     0.028 C 
HETATM    4  C5  UNL     1     -34.013  16.845  -4.774  1.00 20.00     0.021 C 
HETATM    5  C6  UNL     1     -35.345  15.060  -3.520  1.00 20.00     0.018 C 
HETATM    6  C7  UNL     1     -34.382  15.349  -4.713  1.00 20.00     0.016 C 
HETATM    7  C8  UNL     1     -36.812  15.411  -3.800  1.00 20.00     0.015 C 
HETATM    8  C9  UNL     1     -34.959  14.901  -6.066  1.00 20.00     0.023 C 
ENDROOT
BRANCH   6   9
HETATM    9  C3  UNL     1     -33.115  14.538  -4.536  1.00 20.00     0.241 C 
HETATM   10  O10 UNL     1     -33.111  13.333  -4.308  1.00 20.00    -0.306 OA
ENDBRANCH   6   9
TORSDOF 1
ENDMDL
MODEL 6
REMARK VINA RESULT:      -4.2      1.496      2.935
REMARK  1 active torsions:
REMARK  status: ('A' for Active; 'I' for Inactive)
REMARK    1  A    between atoms: C3_3  and  C7_7 
ROOT
HETATM    1  C1  UNL     1     -37.162  14.749  -4.180  1.00 20.00    -0.030 C 
HETATM    2  C2  UNL     1     -36.672  15.918  -3.748  1.00 20.00    -0.025 C 
HETATM    3  C4  UNL     1     -36.309  13.563  -4.504  1.00 20.00     0.028 C 
HETATM    4  C5  UNL     1     -34.848  13.713  -4.063  1.00 20.00     0.021 C 
HETATM    5  C6  UNL     1     -35.198  16.192  -3.549  1.00 20.00     0.018 C 
HETATM    6  C7  UNL     1     -34.301  15.140  -4.271  1.00 20.00     0.016 C 
HETATM    7  C8  UNL     1     -34.935  16.311  -2.042  1.00 20.00     0.015 C 
HETATM    8  C9  UNL     1     -32.832  15.202  -3.823  1.00 20.00     0.023 C 
ENDROOT
BRANCH   6   9
HETATM    9  C3  UNL     1     -34.275  15.444  -5.755  1.00 20.00     0.241 C 
HETATM   10  O10 UNL     1     -33.721  14.728  -6.581  1.00 20.00    -0.306 OA
ENDBRANCH   6   9
TORSDOF 1
ENDMDL
MODEL 7
REMARK VINA RESULT:      -4.2      1.657      2.401
REMARK  1 active torsions:
REMARK  status: ('A' for Active; 'I' for Inactive)
REMARK    1  A    between atoms: C3_3  and  C7_7 
ROOT
HETATM    1  C1  UNL     1     -33.189  18.050  -3.841  1.00 20.00    -0.030 C 
HETATM    2  C2  UNL     1     -33.182  17.257  -2.761  1.00 20.00    -0.025 C 
HETATM    3  C4  UNL     1     -34.076  17.827  -5.025  1.00 20.00     0.028 C 
HETATM    4  C5  UNL     1     -35.157  16.763  -4.797  1.00 20.00     0.021 C 
HETATM    5  C6  UNL     1     -34.056  16.033  -2.608  1.00 20.00     0.018 C 
HETATM    6  C7  UNL     1     -34.652  15.562  -3.971  1.00 20.00     0.016 C 
HETATM    7  C8  UNL     1     -35.109  16.331  -1.532  1.00 20.00     0.015 C 
HETATM    8  C9  UNL     1     -35.785  14.536  -3.802  1.00 20.00     0.023 C 
ENDROOT
BRANCH   6   9
HETATM    9  C3  UNL     1     -33.579  14.840  -4.759  1.00 20.00     0.241 C 
HETATM   10  O10 UNL     1     -33.189  13.709  -4.489  1.00 20.00    -0.306 OA
ENDBRANCH   6   9
TORSDOF 1
ENDMDL
MODEL 8
REMARK VINA RESULT:      -4.1      1.167      2.991
REMARK  1 active torsions:
REMARK  status: ('A' for Active; 'I' for Inactive)
REMARK    1  A    between atoms: C3_3  and  C7_7 
ROOT
HETATM    1  C1  UNL     1     -34.019  15.035  -6.762  1.00 20.00    -0.030 C 
HETATM    2  C2  UNL     1     -33.447  14.652  -5.613  1.00 20.00    -0.025 C 
HETATM    3  C4  UNL     1     -35.353  15.709  -6.838  1.00 20.00     0.028 C 
HETATM    4  C5  UNL     1     -35.900  16.152  -5.476  1.00 20.00     0.021 C 
HETATM    5  C6  UNL     1     -34.080  14.838  -4.253  1.00 20.00     0.018 C 
HETATM    6  C7  UNL     1     -35.608  15.138  -4.352  1.00 20.00     0.016 C 
HETATM    7  C8  UNL     1     -33.280  15.906  -3.496  1.00 20.00     0.015 C 
HETATM    8  C9  UNL     1     -36.202  15.646  -3.028  1.00 20.00     0.023 C 
ENDROOT
BRANCH   6   9
HETATM    9  C3  UNL     1     -36.348  13.850  -4.649  1.00 20.00     0.241 C 
HETATM   10  O10 UNL     1     -35.864  12.737  -4.473  1.00 20.00    -0.306 OA
ENDBRANCH   6   9
TORSDOF 1
ENDMDL
MODEL 9
REMARK VINA RESULT:      -4.1     16.928     18.651
REMARK  1 active torsions:
REMARK  status: ('A' for Active; 'I' for Inactive)
REMARK    1  A    between atoms: C3_3  and  C7_7 
ROOT
HETATM    1  C1  UNL     1     -24.427  18.546   8.240  1.00 20.00    -0.030 C 
HETATM    2  C2  UNL     1     -23.232  17.940   8.249  1.00 20.00    -0.025 C 
HETATM    3  C4  UNL     1     -25.196  18.877   9.480  1.00 20.00     0.028 C 
HETATM    4  C5  UNL     1     -24.393  18.694  10.773  1.00 20.00     0.021 C 
HETATM    5  C6  UNL     1     -22.519  17.502   9.508  1.00 20.00     0.018 C 
HETATM    6  C7  UNL     1     -23.475  17.455  10.740  1.00 20.00     0.016 C 
HETATM    7  C8  UNL     1     -21.293  18.405   9.700  1.00 20.00     0.015 C 
HETATM    8  C9  UNL     1     -22.721  17.333  12.075  1.00 20.00     0.023 C 
ENDROOT
BRANCH   6   9
HETATM    9  C3  UNL     1     -24.333  16.210  10.655  1.00 20.00     0.241 C 
HETATM   10  O10 UNL     1     -24.690  15.568  11.637  1.00 20.00    -0.306 OA
ENDBRANCH   6   9
TORSDOF 1
ENDMDL
