MODEL 1
REMARK VINA RESULT:      -4.0      0.000      0.000
REMARK  2 active torsions:
REMARK  status: ('A' for Active; 'I' for Inactive)
REMARK    1  A    between atoms: C2_2  and  C6_6 
REMARK    2  A    between atoms: C3_3  and  C7_7 
ROOT
HETATM    1  C1  UNL     1     -24.165  18.726   9.601  1.00 20.00     0.100 C 
HETATM    2  C2  UNL     1     -22.792  18.199   9.938  1.00 20.00     0.089 C 
HETATM    3  C3  UNL     1     -24.679  18.107  11.712  1.00 20.00     0.168 C 
HETATM    4  N8  UNL     1     -25.148  18.695  10.445  1.00 20.00    -0.289 NA
HETATM    5  S9  UNL     1     -22.900  17.764  11.683  1.00 20.00    -0.132 SA
ENDROOT
BRANCH   2   6
HETATM    6  C6  UNL     1     -22.470  16.985   9.084  1.00 20.00     0.016 C 
HETATM    7  C4  UNL     1     -21.719  17.354   7.843  1.00 20.00     0.006 C 
ENDBRANCH   2   6
BRANCH   3   8
HETATM    8  C7  UNL     1     -25.456  16.823  11.969  1.00 20.00     0.033 C 
HETATM    9  C5  UNL     1     -24.605  15.609  11.769  1.00 20.00     0.008 C 
ENDBRANCH   3   8
TORSDOF 2
ENDMDL
MODEL 2
REMARK VINA RESULT:      -3.8     18.019     18.598
REMARK  2 active torsions:
REMARK  status: ('A' for Active; 'I' for Inactive)
REMARK    1  A    between atoms: C2_2  and  C6_6 
REMARK    2  A    between atoms: C3_3  and  C7_7 
ROOT
HETATM    1  C1  UNL     1     -33.076  14.922  -4.248  1.00 20.00     0.100 C 
HETATM    2  C2  UNL     1     -33.629  16.278  -3.884  1.00 20.00     0.089 C 
HETATM    3  C3  UNL     1     -35.102  14.592  -5.192  1.00 20.00     0.168 C 
HETATM    4  N8  UNL     1     -33.771  14.037  -4.890  1.00 20.00    -0.289 NA
HETATM    5  S9  UNL     1     -35.245  16.325  -4.682  1.00 20.00    -0.132 SA
ENDROOT
BRANCH   2   6
HETATM    6  C6  UNL     1     -33.752  16.409  -2.377  1.00 20.00     0.016 C 
HETATM    7  C4  UNL     1     -35.170  16.283  -1.916  1.00 20.00     0.006 C 
ENDBRANCH   2   6
BRANCH   3   8
HETATM    8  C7  UNL     1     -36.152  13.749  -4.482  1.00 20.00     0.033 C 
HETATM    9  C5  UNL     1     -37.437  14.495  -4.303  1.00 20.00     0.008 C 
ENDBRANCH   3   8
TORSDOF 2
ENDMDL
MODEL 3
REMARK VINA RESULT:      -3.7     18.668     19.217
REMARK  2 active torsions:
REMARK  status: ('A' for Active; 'I' for Inactive)
REMARK    1  A    between atoms: C2_2  and  C6_6 
REMARK    2  A    between atoms: C3_3  and  C7_7 
ROOT
HETATM    1  C1  UNL     1     -34.552  13.688  -3.942  1.00 20.00     0.100 C 
HETATM    2  C2  UNL     1     -33.587  14.723  -4.468  1.00 20.00     0.089 C 
HETATM    3  C3  UNL     1     -35.901  14.423  -5.599  1.00 20.00     0.168 C 
HETATM    4  N8  UNL     1     -35.725  13.503  -4.461  1.00 20.00    -0.289 NA
HETATM    5  S9  UNL     1     -34.396  15.374  -5.940  1.00 20.00    -0.132 SA
ENDROOT
BRANCH   2   6
HETATM    6  C6  UNL     1     -33.365  15.810  -3.431  1.00 20.00     0.016 C 
HETATM    7  C4  UNL     1     -34.505  15.908  -2.467  1.00 20.00     0.006 C 
ENDBRANCH   2   6
BRANCH   3   8
HETATM    8  C7  UNL     1     -37.056  15.365  -5.288  1.00 20.00     0.033 C 
HETATM    9  C5  UNL     1     -38.016  14.764  -4.311  1.00 20.00     0.008 C 
ENDBRANCH   3   8
TORSDOF 2
ENDMDL
MODEL 4
REMARK VINA RESULT:      -3.7     18.761     19.392
REMARK  2 active torsions:
REMARK  status: ('A' for Active; 'I' for Inactive)
REMARK    1  A    between atoms: C2_2  and  C6_6 
REMARK    2  A    between atoms: C3_3  and  C7_7 
ROOT
HETATM    1  C1  UNL     1     -34.917  13.738  -4.006  1.00 20.00     0.100 C 
HETATM    2  C2  UNL     1     -33.715  14.576  -4.362  1.00 20.00     0.089 C 
HETATM    3  C3  UNL     1     -35.748  14.489  -5.968  1.00 20.00     0.168 C 
HETATM    4  N8  UNL     1     -35.965  13.667  -4.765  1.00 20.00    -0.289 NA
HETATM    5  S9  UNL     1     -34.077  15.189  -6.018  1.00 20.00    -0.132 SA
ENDROOT
BRANCH   2   6
HETATM    6  C6  UNL     1     -33.555  15.716  -3.373  1.00 20.00     0.016 C 
HETATM    7  C4  UNL     1     -34.724  15.822  -2.444  1.00 20.00     0.006 C 
ENDBRANCH   2   6
BRANCH   3   8
HETATM    8  C7  UNL     1     -36.783  15.606  -5.987  1.00 20.00     0.033 C 
HETATM    9  C5  UNL     1     -36.148  16.955  -5.870  1.00 20.00     0.008 C 
ENDBRANCH   3   8
TORSDOF 2
ENDMDL
MODEL 5
REMARK VINA RESULT:      -3.6     18.874     19.548
REMARK  2 active torsions:
REMARK  status: ('A' for Active; 'I' for Inactive)
REMARK    1  A    between atoms: C2_2  and  C6_6 
REMARK    2  A    between atoms: C3_3  and  C7_7 
ROOT
HETATM    1  C1  UNL     1     -36.182  14.001  -4.448  1.00 20.00     0.100 C 
HETATM    2  C2  UNL     1     -34.818  14.322  -3.890  1.00 20.00     0.089 C 
HETATM    3  C3  UNL     1     -35.346  14.826  -6.377  1.00 20.00     0.168 C 
HETATM    4  N8  UNL     1     -36.505  14.242  -5.679  1.00 20.00    -0.289 NA
HETATM    5  S9  UNL     1     -33.874  14.878  -5.321  1.00 20.00    -0.132 SA
ENDROOT
BRANCH   2   6
HETATM    6  C6  UNL     1     -34.921  15.411  -2.838  1.00 20.00     0.016 C 
HETATM    7  C4  UNL     1     -33.669  16.225  -2.747  1.00 20.00     0.006 C 
ENDBRANCH   2   6
BRANCH   3   8
HETATM    8  C7  UNL     1     -35.711  16.232  -6.834  1.00 20.00     0.033 C 
HETATM    9  C5  UNL     1     -34.810  17.264  -6.233  1.00 20.00     0.008 C 
ENDBRANCH   3   8
TORSDOF 2
ENDMDL
MODEL 6
REMARK VINA RESULT:      -3.6     18.961     19.556
REMARK  2 active torsions:
REMARK  status: ('A' for Active; 'I' for Inactive)
REMARK    1  A    between atoms: C2_2  and  C6_6 
REMARK    2  A    between atoms: C3_3  and  C7_7 
ROOT
HETATM    1  C1  UNL     1     -34.268  14.825  -6.252  1.00 20.00     0.100 C 
HETATM    2  C2  UNL     1     -35.758  14.609  -6.361  1.00 20.00     0.089 C 
HETATM    3  C3  UNL     1     -34.568  14.255  -4.086  1.00 20.00     0.168 C 
HETATM    4  N8  UNL     1     -33.624  14.674  -5.138  1.00 20.00    -0.289 NA
HETATM    5  S9  UNL     1     -36.235  13.981  -4.741  1.00 20.00    -0.132 SA
ENDROOT
BRANCH   2   6
HETATM    6  C6  UNL     1     -36.458  15.920  -6.675  1.00 20.00     0.016 C 
HETATM    7  C4  UNL     1     -37.255  16.423  -5.513  1.00 20.00     0.006 C 
ENDBRANCH   2   6
BRANCH   3   8
HETATM    8  C7  UNL     1     -34.599  15.328  -3.006  1.00 20.00     0.033 C 
HETATM    9  C5  UNL     1     -33.365  16.173  -3.025  1.00 20.00     0.008 C 
ENDBRANCH   3   8
TORSDOF 2
ENDMDL
MODEL 7
REMARK VINA RESULT:      -3.6     16.347     17.129
REMARK  2 active torsions:
REMARK  status: ('A' for Active; 'I' for Inactive)
REMARK    1  A    between atoms: C2_2  and  C6_6 
REMARK    2  A    between atoms: C3_3  and  C7_7 
ROOT
HETATM    1  C1  UNL     1     -33.545   4.258   3.110  1.00 20.00     0.100 C 
HETATM    2  C2  UNL     1     -33.745   5.652   2.568  1.00 20.00     0.089 C 
HETATM    3  C3  UNL     1     -35.060   4.882   4.665  1.00 20.00     0.168 C 
HETATM    4  N8  UNL     1     -34.166   3.824   4.161  1.00 20.00    -0.289 NA
HETATM    5  S9  UNL     1     -35.068   6.336   3.582  1.00 20.00    -0.132 SA
ENDROOT
BRANCH   2   6
HETATM    6  C6  UNL     1     -32.466   6.459   2.707  1.00 20.00     0.016 C 
HETATM    7  C4  UNL     1     -32.445   7.640   1.788  1.00 20.00     0.006 C 
ENDBRANCH   2   6
BRANCH   3   8
HETATM    8  C7  UNL     1     -34.608   5.274   6.065  1.00 20.00     0.033 C 
HETATM    9  C5  UNL     1     -34.048   6.661   6.100  1.00 20.00     0.008 C 
ENDBRANCH   3   8
TORSDOF 2
ENDMDL
MODEL 8
REMARK VINA RESULT:      -3.5     23.645     24.395
REMARK  2 active torsions:
REMARK  status: ('A' for Active; 'I' for Inactive)
REMARK    1  A    between atoms: C2_2  and  C6_6 
REMARK    2  A    between atoms: C3_3  and  C7_7 
ROOT
HETATM    1  C1  UNL     1     -43.401   6.063  -1.682  1.00 20.00     0.100 C 
HETATM    2  C2  UNL     1     -42.588   5.139  -0.809  1.00 20.00     0.089 C 
HETATM    3  C3  UNL     1     -41.911   7.632  -1.031  1.00 20.00     0.168 C 
HETATM    4  N8  UNL     1     -43.116   7.320  -1.820  1.00 20.00    -0.289 NA
HETATM    5  S9  UNL     1     -41.198   6.150  -0.268  1.00 20.00    -0.132 SA
ENDROOT
BRANCH   2   6
HETATM    6  C6  UNL     1     -43.417   4.662   0.370  1.00 20.00     0.016 C 
HETATM    7  C4  UNL     1     -43.058   5.377   1.634  1.00 20.00     0.006 C 
ENDBRANCH   2   6
BRANCH   3   8
HETATM    8  C7  UNL     1     -42.282   8.646   0.042  1.00 20.00     0.033 C 
HETATM    9  C5  UNL     1     -41.140   9.555   0.367  1.00 20.00     0.008 C 
ENDBRANCH   3   8
TORSDOF 2
ENDMDL
MODEL 9
REMARK VINA RESULT:      -3.5     23.704     24.359
REMARK  2 active torsions:
REMARK  status: ('A' for Active; 'I' for Inactive)
REMARK    1  A    between atoms: C2_2  and  C6_6 
REMARK    2  A    between atoms: C3_3  and  C7_7 
ROOT
HETATM    1  C1  UNL     1     -43.244   7.794  -1.066  1.00 20.00     0.100 C 
HETATM    2  C2  UNL     1     -42.945   7.585   0.398  1.00 20.00     0.089 C 
HETATM    3  C3  UNL     1     -43.297   5.537  -1.150  1.00 20.00     0.168 C 
HETATM    4  N8  UNL     1     -43.417   6.807  -1.888  1.00 20.00    -0.289 NA
HETATM    5  S9  UNL     1     -43.082   5.804   0.630  1.00 20.00    -0.132 SA
ENDROOT
BRANCH   2   6
HETATM    6  C6  UNL     1     -41.547   8.080   0.726  1.00 20.00     0.016 C 
HETATM    7  C4  UNL     1     -41.340   9.500   0.303  1.00 20.00     0.006 C 
ENDBRANCH   2   6
BRANCH   3   8
HETATM    8  C7  UNL     1     -42.112   4.761  -1.710  1.00 20.00     0.033 C 
HETATM    9  C5  UNL     1     -40.825   5.169  -1.064  1.00 20.00     0.008 C 
ENDBRANCH   3   8
TORSDOF 2
ENDMDL
