MODEL 1
REMARK VINA RESULT:      -3.8      0.000      0.000
REMARK  5 active torsions:
REMARK  status: ('A' for Active; 'I' for Inactive)
REMARK    1  A    between atoms: C2_2  and  C4_4 
REMARK    2  A    between atoms: C4_4  and  N7_7 
REMARK    3  A    between atoms: C5_5  and  C6_6 
REMARK    4  A    between atoms: C5_5  and  N7_7 
REMARK    5  A    between atoms: C6_6  and  S8_8 
ROOT
HETATM    1  C1  UNL     1     -32.764   8.216   1.141  1.00 20.00    -0.109 C 
HETATM    2  C2  UNL     1     -32.743   7.356   1.979  1.00 20.00    -0.077 C 
HETATM    3  C3  UNL     1     -32.790   9.263   0.121  1.00 20.00     0.112 C 
ENDROOT
BRANCH   2   4
HETATM    4  C4  UNL     1     -32.724   6.309   3.006  1.00 20.00     0.362 C 
BRANCH   4   5
HETATM    5  N7  UNL     1     -33.305   5.074   2.498  1.00 20.00     0.095 N 
HETATM    6  H18 UNL     1     -33.910   5.288   1.706  1.00 20.00     0.317 HD
BRANCH   5   7
HETATM    7  C5  UNL     1     -34.084   4.403   3.529  1.00 20.00     0.280 C 
BRANCH   7   8
HETATM    8  C6  UNL     1     -35.063   5.331   4.236  1.00 20.00     0.100 C 
BRANCH   8   9
HETATM    9  S8  UNL     1     -34.708   5.481   6.012  1.00 20.00    -0.180 SA
HETATM   10  H19 UNL     1     -33.389   5.275   5.908  1.00 20.00     0.101 HD
ENDBRANCH   8   9
ENDBRANCH   7   8
ENDBRANCH   5   7
ENDBRANCH   4   5
ENDBRANCH   2   4
TORSDOF 5
ENDMDL
MODEL 2
REMARK VINA RESULT:      -3.3     11.720     12.420
REMARK  5 active torsions:
REMARK  status: ('A' for Active; 'I' for Inactive)
REMARK    1  A    between atoms: C2_2  and  C4_4 
REMARK    2  A    between atoms: C4_4  and  N7_7 
REMARK    3  A    between atoms: C5_5  and  C6_6 
REMARK    4  A    between atoms: C5_5  and  N7_7 
REMARK    5  A    between atoms: C6_6  and  S8_8 
ROOT
HETATM    1  C1  UNL     1     -33.207  16.552  -2.721  1.00 20.00    -0.109 C 
HETATM    2  C2  UNL     1     -33.469  15.657  -3.479  1.00 20.00    -0.077 C 
HETATM    3  C3  UNL     1     -32.888  17.640  -1.798  1.00 20.00     0.112 C 
ENDROOT
BRANCH   2   4
HETATM    4  C4  UNL     1     -33.789  14.560  -4.398  1.00 20.00     0.362 C 
BRANCH   4   5
HETATM    5  N7  UNL     1     -33.110  14.738  -5.675  1.00 20.00     0.095 N 
HETATM    6  H18 UNL     1     -32.415  15.478  -5.584  1.00 20.00     0.317 HD
BRANCH   5   7
HETATM    7  C5  UNL     1     -34.056  15.093  -6.723  1.00 20.00     0.280 C 
BRANCH   7   8
HETATM    8  C6  UNL     1     -35.488  14.693  -6.395  1.00 20.00     0.100 C 
BRANCH   8   9
HETATM    9  S8  UNL     1     -36.627  16.108  -6.452  1.00 20.00    -0.180 SA
HETATM   10  H19 UNL     1     -37.631  15.505  -5.803  1.00 20.00     0.101 HD
ENDBRANCH   8   9
ENDBRANCH   7   8
ENDBRANCH   5   7
ENDBRANCH   4   5
ENDBRANCH   2   4
TORSDOF 5
ENDMDL
MODEL 3
REMARK VINA RESULT:      -3.3      1.321      1.479
REMARK  5 active torsions:
REMARK  status: ('A' for Active; 'I' for Inactive)
REMARK    1  A    between atoms: C2_2  and  C4_4 
REMARK    2  A    between atoms: C4_4  and  N7_7 
REMARK    3  A    between atoms: C5_5  and  C6_6 
REMARK    4  A    between atoms: C5_5  and  N7_7 
REMARK    5  A    between atoms: C6_6  and  S8_8 
ROOT
HETATM    1  C1  UNL     1     -32.767   8.254   1.152  1.00 20.00    -0.109 C 
HETATM    2  C2  UNL     1     -32.735   7.246   1.805  1.00 20.00    -0.077 C 
HETATM    3  C3  UNL     1     -32.807   9.480   0.357  1.00 20.00     0.112 C 
ENDROOT
BRANCH   2   4
HETATM    4  C4  UNL     1     -32.701   6.013   2.597  1.00 20.00     0.362 C 
BRANCH   4   5
HETATM    5  N7  UNL     1     -33.738   6.025   3.621  1.00 20.00     0.095 N 
HETATM    6  H18 UNL     1     -34.638   6.223   3.184  1.00 20.00     0.317 HD
BRANCH   5   7
HETATM    7  C5  UNL     1     -33.461   7.037   4.630  1.00 20.00     0.280 C 
BRANCH   7   8
HETATM    8  C6  UNL     1     -34.026   6.682   6.000  1.00 20.00     0.100 C 
BRANCH   8   9
HETATM    9  S8  UNL     1     -34.841   5.058   6.009  1.00 20.00    -0.180 SA
HETATM   10  H19 UNL     1     -35.874   5.425   6.778  1.00 20.00     0.101 HD
ENDBRANCH   8   9
ENDBRANCH   7   8
ENDBRANCH   5   7
ENDBRANCH   4   5
ENDBRANCH   2   4
TORSDOF 5
ENDMDL
MODEL 4
REMARK VINA RESULT:      -3.3     16.718     17.239
REMARK  5 active torsions:
REMARK  status: ('A' for Active; 'I' for Inactive)
REMARK    1  A    between atoms: C2_2  and  C4_4 
REMARK    2  A    between atoms: C4_4  and  N7_7 
REMARK    3  A    between atoms: C5_5  and  C6_6 
REMARK    4  A    between atoms: C5_5  and  N7_7 
REMARK    5  A    between atoms: C6_6  and  S8_8 
ROOT
HETATM    1  C1  UNL     1     -26.050  18.083  11.742  1.00 20.00    -0.109 C 
HETATM    2  C2  UNL     1     -25.341  17.113  11.742  1.00 20.00    -0.077 C 
HETATM    3  C3  UNL     1     -26.912  19.263  11.741  1.00 20.00     0.112 C 
ENDROOT
BRANCH   2   4
HETATM    4  C4  UNL     1     -24.472  15.932  11.737  1.00 20.00     0.362 C 
BRANCH   4   5
HETATM    5  N7  UNL     1     -23.105  16.291  12.092  1.00 20.00     0.095 N 
HETATM    6  H18 UNL     1     -22.982  16.186  13.099  1.00 20.00     0.317 HD
BRANCH   5   7
HETATM    7  C5  UNL     1     -22.814  17.667  11.714  1.00 20.00     0.280 C 
BRANCH   7   8
HETATM    8  C6  UNL     1     -22.082  17.777  10.383  1.00 20.00     0.100 C 
BRANCH   8   9
HETATM    9  S8  UNL     1     -23.074  18.628   9.121  1.00 20.00    -0.180 SA
HETATM   10  H19 UNL     1     -23.840  17.574   8.811  1.00 20.00     0.101 HD
ENDBRANCH   8   9
ENDBRANCH   7   8
ENDBRANCH   5   7
ENDBRANCH   4   5
ENDBRANCH   2   4
TORSDOF 5
ENDMDL
MODEL 5
REMARK VINA RESULT:      -3.2     15.503     16.162
REMARK  5 active torsions:
REMARK  status: ('A' for Active; 'I' for Inactive)
REMARK    1  A    between atoms: C2_2  and  C4_4 
REMARK    2  A    between atoms: C4_4  and  N7_7 
REMARK    3  A    between atoms: C5_5  and  C6_6 
REMARK    4  A    between atoms: C5_5  and  N7_7 
REMARK    5  A    between atoms: C6_6  and  S8_8 
ROOT
HETATM    1  C1  UNL     1     -25.863  19.086   6.627  1.00 20.00    -0.109 C 
HETATM    2  C2  UNL     1     -25.280  19.015   7.675  1.00 20.00    -0.077 C 
HETATM    3  C3  UNL     1     -26.574  19.172   5.353  1.00 20.00     0.112 C 
ENDROOT
BRANCH   2   4
HETATM    4  C4  UNL     1     -24.573  18.930   8.957  1.00 20.00     0.362 C 
BRANCH   4   5
HETATM    5  N7  UNL     1     -24.989  17.750   9.702  1.00 20.00     0.095 N 
HETATM    6  H18 UNL     1     -25.508  18.041  10.530  1.00 20.00     0.317 HD
BRANCH   5   7
HETATM    7  C5  UNL     1     -23.836  16.960  10.113  1.00 20.00     0.280 C 
BRANCH   7   8
HETATM    8  C6  UNL     1     -23.738  16.789  11.623  1.00 20.00     0.100 C 
BRANCH   8   9
HETATM    9  S8  UNL     1     -22.349  17.724  12.332  1.00 20.00    -0.180 SA
HETATM   10  H19 UNL     1     -23.010  18.152  13.415  1.00 20.00     0.101 HD
ENDBRANCH   8   9
ENDBRANCH   7   8
ENDBRANCH   5   7
ENDBRANCH   4   5
ENDBRANCH   2   4
TORSDOF 5
ENDMDL
MODEL 6
REMARK VINA RESULT:      -3.2     11.730     12.356
REMARK  5 active torsions:
REMARK  status: ('A' for Active; 'I' for Inactive)
REMARK    1  A    between atoms: C2_2  and  C4_4 
REMARK    2  A    between atoms: C4_4  and  N7_7 
REMARK    3  A    between atoms: C5_5  and  C6_6 
REMARK    4  A    between atoms: C5_5  and  N7_7 
REMARK    5  A    between atoms: C6_6  and  S8_8 
ROOT
HETATM    1  C1  UNL     1     -34.811  16.087  -2.053  1.00 20.00    -0.109 C 
HETATM    2  C2  UNL     1     -34.455  15.440  -3.000  1.00 20.00    -0.077 C 
HETATM    3  C3  UNL     1     -35.245  16.874  -0.900  1.00 20.00     0.112 C 
ENDROOT
BRANCH   2   4
HETATM    4  C4  UNL     1     -34.024  14.655  -4.161  1.00 20.00     0.362 C 
BRANCH   4   5
HETATM    5  N7  UNL     1     -33.612  15.526  -5.253  1.00 20.00     0.095 N 
HETATM    6  H18 UNL     1     -33.981  16.463  -5.092  1.00 20.00     0.317 HD
BRANCH   5   7
HETATM    7  C5  UNL     1     -34.105  15.030  -6.530  1.00 20.00     0.280 C 
BRANCH   7   8
HETATM    8  C6  UNL     1     -35.594  14.708  -6.510  1.00 20.00     0.100 C 
BRANCH   8   9
HETATM    9  S8  UNL     1     -36.621  16.207  -6.570  1.00 20.00    -0.180 SA
HETATM   10  H19 UNL     1     -37.250  15.898  -7.712  1.00 20.00     0.101 HD
ENDBRANCH   8   9
ENDBRANCH   7   8
ENDBRANCH   5   7
ENDBRANCH   4   5
ENDBRANCH   2   4
TORSDOF 5
ENDMDL
MODEL 7
REMARK VINA RESULT:      -3.2     11.703     12.490
REMARK  5 active torsions:
REMARK  status: ('A' for Active; 'I' for Inactive)
REMARK    1  A    between atoms: C2_2  and  C4_4 
REMARK    2  A    between atoms: C4_4  and  N7_7 
REMARK    3  A    between atoms: C5_5  and  C6_6 
REMARK    4  A    between atoms: C5_5  and  N7_7 
REMARK    5  A    between atoms: C6_6  and  S8_8 
ROOT
HETATM    1  C1  UNL     1     -34.419  15.798  -2.646  1.00 20.00    -0.109 C 
HETATM    2  C2  UNL     1     -33.841  15.155  -3.481  1.00 20.00    -0.077 C 
HETATM    3  C3  UNL     1     -35.123  16.579  -1.631  1.00 20.00     0.112 C 
ENDROOT
BRANCH   2   4
HETATM    4  C4  UNL     1     -33.141  14.366  -4.499  1.00 20.00     0.362 C 
BRANCH   4   5
HETATM    5  N7  UNL     1     -33.190  15.030  -5.795  1.00 20.00     0.095 N 
HETATM    6  H18 UNL     1     -32.890  15.999  -5.687  1.00 20.00     0.317 HD
BRANCH   5   7
HETATM    7  C5  UNL     1     -34.539  15.004  -6.343  1.00 20.00     0.280 C 
BRANCH   7   8
HETATM    8  C6  UNL     1     -35.008  16.366  -6.837  1.00 20.00     0.100 C 
BRANCH   8   9
HETATM    9  S8  UNL     1     -36.300  17.076  -5.774  1.00 20.00    -0.180 SA
HETATM   10  H19 UNL     1     -36.131  18.342  -6.177  1.00 20.00     0.101 HD
ENDBRANCH   8   9
ENDBRANCH   7   8
ENDBRANCH   5   7
ENDBRANCH   4   5
ENDBRANCH   2   4
TORSDOF 5
ENDMDL
MODEL 8
REMARK VINA RESULT:      -3.1      9.669     10.382
REMARK  5 active torsions:
REMARK  status: ('A' for Active; 'I' for Inactive)
REMARK    1  A    between atoms: C2_2  and  C4_4 
REMARK    2  A    between atoms: C4_4  and  N7_7 
REMARK    3  A    between atoms: C5_5  and  C6_6 
REMARK    4  A    between atoms: C5_5  and  N7_7 
REMARK    5  A    between atoms: C6_6  and  S8_8 
ROOT
HETATM    1  C1  UNL     1     -42.163   3.041  -3.258  1.00 20.00    -0.109 C 
HETATM    2  C2  UNL     1     -42.564   3.815  -2.432  1.00 20.00    -0.077 C 
HETATM    3  C3  UNL     1     -41.675   2.097  -4.262  1.00 20.00     0.112 C 
ENDROOT
BRANCH   2   4
HETATM    4  C4  UNL     1     -43.046   4.761  -1.420  1.00 20.00     0.362 C 
BRANCH   4   5
HETATM    5  N7  UNL     1     -42.026   5.006  -0.410  1.00 20.00     0.095 N 
HETATM    6  H18 UNL     1     -42.469   5.376   0.432  1.00 20.00     0.317 HD
BRANCH   5   7
HETATM    7  C5  UNL     1     -41.037   5.961  -0.889  1.00 20.00     0.280 C 
BRANCH   7   8
HETATM    8  C6  UNL     1     -41.631   7.328  -1.205  1.00 20.00     0.100 C 
BRANCH   8   9
HETATM    9  S8  UNL     1     -41.630   8.428   0.242  1.00 20.00    -0.180 SA
HETATM   10  H19 UNL     1     -42.211   7.559   1.078  1.00 20.00     0.101 HD
ENDBRANCH   8   9
ENDBRANCH   7   8
ENDBRANCH   5   7
ENDBRANCH   4   5
ENDBRANCH   2   4
TORSDOF 5
ENDMDL
MODEL 9
REMARK VINA RESULT:      -3.0     11.230     11.953
REMARK  5 active torsions:
REMARK  status: ('A' for Active; 'I' for Inactive)
REMARK    1  A    between atoms: C2_2  and  C4_4 
REMARK    2  A    between atoms: C4_4  and  N7_7 
REMARK    3  A    between atoms: C5_5  and  C6_6 
REMARK    4  A    between atoms: C5_5  and  N7_7 
REMARK    5  A    between atoms: C6_6  and  S8_8 
ROOT
HETATM    1  C1  UNL     1     -32.183  17.976  -1.345  1.00 20.00    -0.109 C 
HETATM    2  C2  UNL     1     -32.870  17.358  -2.113  1.00 20.00    -0.077 C 
HETATM    3  C3  UNL     1     -31.347  18.728  -0.412  1.00 20.00     0.112 C 
ENDROOT
BRANCH   2   4
HETATM    4  C4  UNL     1     -33.707  16.597  -3.046  1.00 20.00     0.362 C 
BRANCH   4   5
HETATM    5  N7  UNL     1     -32.886  15.824  -3.968  1.00 20.00     0.095 N 
HETATM    6  H18 UNL     1     -32.699  16.384  -4.800  1.00 20.00     0.317 HD
BRANCH   5   7
HETATM    7  C5  UNL     1     -33.559  14.594  -4.359  1.00 20.00     0.280 C 
BRANCH   7   8
HETATM    8  C6  UNL     1     -34.805  14.837  -5.200  1.00 20.00     0.100 C 
BRANCH   8   9
HETATM    9  S8  UNL     1     -36.229  13.870  -4.616  1.00 20.00    -0.180 SA
HETATM   10  H19 UNL     1     -36.789  14.860  -3.909  1.00 20.00     0.101 HD
ENDBRANCH   8   9
ENDBRANCH   7   8
ENDBRANCH   5   7
ENDBRANCH   4   5
ENDBRANCH   2   4
TORSDOF 5
ENDMDL
