MODEL 1
REMARK VINA RESULT:      -3.6      0.000      0.000
REMARK  3 active torsions:
REMARK  status: ('A' for Active; 'I' for Inactive)
REMARK    1  A    between atoms: C1_1  and  C7_7 
REMARK    2  A    between atoms: C7_7  and  C8_8 
REMARK    3  A    between atoms: N9_9  and  N10_10 
ROOT
HETATM    1  C1  UNL     1     -33.790  14.867  -4.554  1.00 20.00     0.023 C 
HETATM    2  C2  UNL     1     -32.414  14.247  -4.429  1.00 20.00     0.067 C 
HETATM    3  N9  UNL     1     -34.808  14.316  -5.144  1.00 20.00    -0.209 NA
ENDROOT
BRANCH   1   4
HETATM    4  C7  UNL     1     -33.982  16.263  -3.983  1.00 20.00     0.059 C 
BRANCH   4   5
HETATM    5  C8  UNL     1     -33.752  16.302  -2.466  1.00 20.00    -0.017 C 
HETATM    6  C3  UNL     1     -32.906  17.508  -2.052  1.00 20.00     0.010 C 
HETATM    7  C4  UNL     1     -35.095  16.335  -1.734  1.00 20.00     0.010 C 
ENDBRANCH   4   5
ENDBRANCH   1   4
BRANCH   3   8
HETATM    8  N10 UNL     1     -35.948  15.050  -5.138  1.00 20.00    -0.217 NA
HETATM    9  C5  UNL     1     -37.081  14.394  -4.476  1.00 20.00     0.138 C 
HETATM   10  C6  UNL     1     -36.370  15.486  -6.472  1.00 20.00     0.138 C 
ENDBRANCH   3   8
TORSDOF 3
ENDMDL
MODEL 2
REMARK VINA RESULT:      -3.5      1.937      2.517
REMARK  3 active torsions:
REMARK  status: ('A' for Active; 'I' for Inactive)
REMARK    1  A    between atoms: C1_1  and  C7_7 
REMARK    2  A    between atoms: C7_7  and  C8_8 
REMARK    3  A    between atoms: N9_9  and  N10_10 
ROOT
HETATM    1  C1  UNL     1     -36.572  14.342  -4.209  1.00 20.00     0.023 C 
HETATM    2  C2  UNL     1     -35.628  13.161  -4.294  1.00 20.00     0.067 C 
HETATM    3  N9  UNL     1     -37.840  14.309  -4.493  1.00 20.00    -0.209 NA
ENDROOT
BRANCH   1   4
HETATM    4  C7  UNL     1     -35.980  15.682  -3.799  1.00 20.00     0.059 C 
BRANCH   4   5
HETATM    5  C8  UNL     1     -34.841  15.523  -2.783  1.00 20.00    -0.017 C 
HETATM    6  C3  UNL     1     -33.486  15.892  -3.392  1.00 20.00     0.010 C 
HETATM    7  C4  UNL     1     -35.111  16.392  -1.554  1.00 20.00     0.010 C 
ENDBRANCH   4   5
ENDBRANCH   1   4
BRANCH   3   8
HETATM    8  N10 UNL     1     -38.497  15.485  -4.346  1.00 20.00    -0.217 NA
HETATM    9  C5  UNL     1     -39.771  15.374  -3.626  1.00 20.00     0.138 C 
HETATM   10  C6  UNL     1     -38.730  16.188  -5.610  1.00 20.00     0.138 C 
ENDBRANCH   3   8
TORSDOF 3
ENDMDL
MODEL 3
REMARK VINA RESULT:      -3.5      3.233      5.127
REMARK  3 active torsions:
REMARK  status: ('A' for Active; 'I' for Inactive)
REMARK    1  A    between atoms: C1_1  and  C7_7 
REMARK    2  A    between atoms: C7_7  and  C8_8 
REMARK    3  A    between atoms: N9_9  and  N10_10 
ROOT
HETATM    1  C1  UNL     1     -32.829  18.233  -2.915  1.00 20.00     0.023 C 
HETATM    2  C2  UNL     1     -33.094  18.815  -4.288  1.00 20.00     0.067 C 
HETATM    3  N9  UNL     1     -32.495  18.919  -1.863  1.00 20.00    -0.209 NA
ENDROOT
BRANCH   1   4
HETATM    4  C7  UNL     1     -32.922  16.722  -2.767  1.00 20.00     0.059 C 
BRANCH   4   5
HETATM    5  C8  UNL     1     -34.327  16.196  -3.090  1.00 20.00    -0.017 C 
HETATM    6  C3  UNL     1     -34.281  14.778  -3.664  1.00 20.00     0.010 C 
HETATM    7  C4  UNL     1     -35.196  16.217  -1.832  1.00 20.00     0.010 C 
ENDBRANCH   4   5
ENDBRANCH   1   4
BRANCH   3   8
HETATM    8  N10 UNL     1     -32.307  18.193  -0.734  1.00 20.00    -0.217 NA
HETATM    9  C5  UNL     1     -33.266  18.490   0.336  1.00 20.00     0.138 C 
HETATM   10  C6  UNL     1     -30.949  18.294  -0.191  1.00 20.00     0.138 C 
ENDBRANCH   3   8
TORSDOF 3
ENDMDL
MODEL 4
REMARK VINA RESULT:      -3.4      1.516      2.773
REMARK  3 active torsions:
REMARK  status: ('A' for Active; 'I' for Inactive)
REMARK    1  A    between atoms: C1_1  and  C7_7 
REMARK    2  A    between atoms: C7_7  and  C8_8 
REMARK    3  A    between atoms: N9_9  and  N10_10 
ROOT
HETATM    1  C1  UNL     1     -36.438  15.174  -5.068  1.00 20.00     0.023 C 
HETATM    2  C2  UNL     1     -37.462  14.374  -4.289  1.00 20.00     0.067 C 
HETATM    3  N9  UNL     1     -36.179  15.027  -6.333  1.00 20.00    -0.209 NA
ENDROOT
BRANCH   1   4
HETATM    4  C7  UNL     1     -35.619  16.200  -4.299  1.00 20.00     0.059 C 
BRANCH   4   5
HETATM    5  C8  UNL     1     -34.735  15.547  -3.228  1.00 20.00    -0.017 C 
HETATM    6  C3  UNL     1     -33.248  15.680  -3.563  1.00 20.00     0.010 C 
HETATM    7  C4  UNL     1     -35.017  16.176  -1.863  1.00 20.00     0.010 C 
ENDBRANCH   4   5
ENDBRANCH   1   4
BRANCH   3   8
HETATM    8  N10 UNL     1     -35.223  15.851  -6.828  1.00 20.00    -0.217 NA
HETATM    9  C5  UNL     1     -35.684  16.719  -7.918  1.00 20.00     0.138 C 
HETATM   10  C6  UNL     1     -34.013  15.149  -7.265  1.00 20.00     0.138 C 
ENDBRANCH   3   8
TORSDOF 3
ENDMDL
MODEL 5
REMARK VINA RESULT:      -3.3     15.981     17.895
REMARK  3 active torsions:
REMARK  status: ('A' for Active; 'I' for Inactive)
REMARK    1  A    between atoms: C1_1  and  C7_7 
REMARK    2  A    between atoms: C7_7  and  C8_8 
REMARK    3  A    between atoms: N9_9  and  N10_10 
ROOT
HETATM    1  C1  UNL     1     -22.843  18.043   9.467  1.00 20.00     0.023 C 
HETATM    2  C2  UNL     1     -21.363  18.214   9.738  1.00 20.00     0.067 C 
HETATM    3  N9  UNL     1     -23.598  18.908   8.858  1.00 20.00    -0.209 NA
ENDROOT
BRANCH   1   4
HETATM    4  C7  UNL     1     -23.507  16.776   9.986  1.00 20.00     0.059 C 
BRANCH   4   5
HETATM    5  C8  UNL     1     -23.528  16.723  11.520  1.00 20.00    -0.017 C 
HETATM    6  C3  UNL     1     -23.960  18.060  12.126  1.00 20.00     0.010 C 
HETATM    7  C4  UNL     1     -24.468  15.612  11.991  1.00 20.00     0.010 C 
ENDBRANCH   4   5
ENDBRANCH   1   4
BRANCH   3   8
HETATM    8  N10 UNL     1     -24.898  18.549   8.721  1.00 20.00    -0.217 NA
HETATM    9  C5  UNL     1     -25.413  18.667   7.352  1.00 20.00     0.138 C 
HETATM   10  C6  UNL     1     -25.801  19.263   9.628  1.00 20.00     0.138 C 
ENDBRANCH   3   8
TORSDOF 3
ENDMDL
MODEL 6
REMARK VINA RESULT:      -3.3     11.652     12.452
REMARK  3 active torsions:
REMARK  status: ('A' for Active; 'I' for Inactive)
REMARK    1  A    between atoms: C1_1  and  C7_7 
REMARK    2  A    between atoms: C7_7  and  C8_8 
REMARK    3  A    between atoms: N9_9  and  N10_10 
ROOT
HETATM    1  C1  UNL     1     -33.633   5.321   3.073  1.00 20.00     0.023 C 
HETATM    2  C2  UNL     1     -33.904   3.830   3.078  1.00 20.00     0.067 C 
HETATM    3  N9  UNL     1     -32.750   5.918   2.329  1.00 20.00    -0.209 NA
ENDROOT
BRANCH   1   4
HETATM    4  C7  UNL     1     -34.428   6.180   4.044  1.00 20.00     0.059 C 
BRANCH   4   5
HETATM    5  C8  UNL     1     -34.000   5.951   5.500  1.00 20.00    -0.017 C 
HETATM    6  C3  UNL     1     -33.795   7.272   6.244  1.00 20.00     0.010 C 
HETATM    7  C4  UNL     1     -35.046   5.104   6.226  1.00 20.00     0.010 C 
ENDBRANCH   4   5
ENDBRANCH   1   4
BRANCH   3   8
HETATM    8  N10 UNL     1     -32.675   7.262   2.485  1.00 20.00    -0.217 NA
HETATM    9  C5  UNL     1     -32.623   8.011   1.224  1.00 20.00     0.138 C 
HETATM   10  C6  UNL     1     -31.561   7.693   3.335  1.00 20.00     0.138 C 
ENDBRANCH   3   8
TORSDOF 3
ENDMDL
MODEL 7
REMARK VINA RESULT:      -3.3      1.484      1.845
REMARK  3 active torsions:
REMARK  status: ('A' for Active; 'I' for Inactive)
REMARK    1  A    between atoms: C1_1  and  C7_7 
REMARK    2  A    between atoms: C7_7  and  C8_8 
REMARK    3  A    between atoms: N9_9  and  N10_10 
ROOT
HETATM    1  C1  UNL     1     -35.377  15.429  -5.764  1.00 20.00     0.023 C 
HETATM    2  C2  UNL     1     -34.166  14.986  -6.559  1.00 20.00     0.067 C 
HETATM    3  N9  UNL     1     -36.603  15.076  -6.011  1.00 20.00    -0.209 NA
ENDROOT
BRANCH   1   4
HETATM    4  C7  UNL     1     -35.143  16.396  -4.614  1.00 20.00     0.059 C 
BRANCH   4   5
HETATM    5  C8  UNL     1     -34.415  15.729  -3.439  1.00 20.00    -0.017 C 
HETATM    6  C3  UNL     1     -32.985  16.253  -3.289  1.00 20.00     0.010 C 
HETATM    7  C4  UNL     1     -35.191  15.963  -2.142  1.00 20.00     0.010 C 
ENDBRANCH   4   5
ENDBRANCH   1   4
BRANCH   3   8
HETATM    8  N10 UNL     1     -37.534  15.591  -5.170  1.00 20.00    -0.217 NA
HETATM    9  C5  UNL     1     -38.197  14.592  -4.324  1.00 20.00     0.138 C 
HETATM   10  C6  UNL     1     -38.559  16.388  -5.849  1.00 20.00     0.138 C 
ENDBRANCH   3   8
TORSDOF 3
ENDMDL
MODEL 8
REMARK VINA RESULT:      -3.3      1.646      3.124
REMARK  3 active torsions:
REMARK  status: ('A' for Active; 'I' for Inactive)
REMARK    1  A    between atoms: C1_1  and  C7_7 
REMARK    2  A    between atoms: C7_7  and  C8_8 
REMARK    3  A    between atoms: N9_9  and  N10_10 
ROOT
HETATM    1  C1  UNL     1     -34.755  16.501  -1.881  1.00 20.00     0.023 C 
HETATM    2  C2  UNL     1     -35.254  17.033  -0.554  1.00 20.00     0.067 C 
HETATM    3  N9  UNL     1     -35.446  15.766  -2.700  1.00 20.00    -0.209 NA
ENDROOT
BRANCH   1   4
HETATM    4  C7  UNL     1     -33.318  16.817  -2.266  1.00 20.00     0.059 C 
BRANCH   4   5
HETATM    5  C8  UNL     1     -32.920  18.248  -1.879  1.00 20.00    -0.017 C 
HETATM    6  C3  UNL     1     -31.715  18.264  -0.936  1.00 20.00     0.010 C 
HETATM    7  C4  UNL     1     -32.605  19.061  -3.136  1.00 20.00     0.010 C 
ENDBRANCH   4   5
ENDBRANCH   1   4
BRANCH   3   8
HETATM    8  N10 UNL     1     -34.802  15.401  -3.836  1.00 20.00    -0.217 NA
HETATM    9  C5  UNL     1     -35.354  15.997  -5.058  1.00 20.00     0.138 C 
HETATM   10  C6  UNL     1     -34.713  13.950  -4.019  1.00 20.00     0.138 C 
ENDBRANCH   3   8
TORSDOF 3
ENDMDL
MODEL 9
REMARK VINA RESULT:      -3.2      1.497      2.165
REMARK  3 active torsions:
REMARK  status: ('A' for Active; 'I' for Inactive)
REMARK    1  A    between atoms: C1_1  and  C7_7 
REMARK    2  A    between atoms: C7_7  and  C8_8 
REMARK    3  A    between atoms: N9_9  and  N10_10 
ROOT
HETATM    1  C1  UNL     1     -34.295  16.018  -3.194  1.00 20.00     0.023 C 
HETATM    2  C2  UNL     1     -32.901  16.597  -3.071  1.00 20.00     0.067 C 
HETATM    3  N9  UNL     1     -34.834  15.594  -4.298  1.00 20.00    -0.209 NA
ENDROOT
BRANCH   1   4
HETATM    4  C7  UNL     1     -35.144  15.966  -1.934  1.00 20.00     0.059 C 
BRANCH   4   5
HETATM    5  C8  UNL     1     -35.269  17.343  -1.266  1.00 20.00    -0.017 C 
HETATM    6  C3  UNL     1     -36.447  18.140  -1.830  1.00 20.00     0.010 C 
HETATM    7  C4  UNL     1     -35.431  17.178   0.246  1.00 20.00     0.010 C 
ENDBRANCH   4   5
ENDBRANCH   1   4
BRANCH   3   8
HETATM    8  N10 UNL     1     -36.095  15.112  -4.178  1.00 20.00    -0.217 NA
HETATM    9  C5  UNL     1     -36.238  13.703  -4.561  1.00 20.00     0.138 C 
HETATM   10  C6  UNL     1     -37.095  15.900  -4.904  1.00 20.00     0.138 C 
ENDBRANCH   3   8
TORSDOF 3
ENDMDL
