MODEL 1
REMARK VINA RESULT:      -4.8      0.000      0.000
REMARK  3 active torsions:
REMARK  status: ('A' for Active; 'I' for Inactive)
REMARK    1  A    between atoms: C1_1  and  C3_3 
REMARK    2  A    between atoms: C2_2  and  C8_8 
REMARK    3  A    between atoms: C3_3  and  O10_10 
ROOT
HETATM    1  C1  UNL     1     -36.142  15.091  -4.028  1.00 20.00     0.079 C 
HETATM    2  C2  UNL     1     -35.124  15.260  -3.171  1.00 20.00    -0.012 C 
ENDROOT
BRANCH   1   3
HETATM    3  C3  UNL     1     -36.562  13.724  -4.411  1.00 20.00     0.282 C 
HETATM    4  O9  UNL     1     -35.814  12.774  -4.577  1.00 20.00    -0.260 OA
BRANCH   3   5
HETATM    5  O10 UNL     1     -37.916  13.730  -4.538  1.00 20.00    -0.323 OA
HETATM    6  C7  UNL     1     -38.562  14.961  -4.199  1.00 20.00     0.213 C 
ENDBRANCH   3   5
ENDBRANCH   1   3
BRANCH   2   7
HETATM    7  C8  UNL     1     -34.561  16.582  -2.666  1.00 20.00    -0.034 C 
HETATM    8  C4  UNL     1     -33.023  16.672  -2.708  1.00 20.00     0.018 C 
HETATM    9  C5  UNL     1     -35.138  17.714  -3.534  1.00 20.00     0.018 C 
HETATM   10  C6  UNL     1     -35.022  16.778  -1.211  1.00 20.00     0.018 C 
ENDBRANCH   2   7
TORSDOF 3
ENDMDL
MODEL 2
REMARK VINA RESULT:      -4.8      0.097      1.384
REMARK  3 active torsions:
REMARK  status: ('A' for Active; 'I' for Inactive)
REMARK    1  A    between atoms: C1_1  and  C3_3 
REMARK    2  A    between atoms: C2_2  and  C8_8 
REMARK    3  A    between atoms: C3_3  and  O10_10 
ROOT
HETATM    1  C1  UNL     1     -36.126  15.098  -4.074  1.00 20.00     0.079 C 
HETATM    2  C2  UNL     1     -35.217  15.289  -3.106  1.00 20.00    -0.012 C 
ENDROOT
BRANCH   1   3
HETATM    3  C3  UNL     1     -36.573  13.726  -4.404  1.00 20.00     0.282 C 
HETATM    4  O9  UNL     1     -35.841  12.762  -4.565  1.00 20.00    -0.260 OA
BRANCH   3   5
HETATM    5  O10 UNL     1     -37.930  13.743  -4.488  1.00 20.00    -0.323 OA
HETATM    6  C7  UNL     1     -38.548  15.008  -4.227  1.00 20.00     0.213 C 
ENDBRANCH   3   5
ENDBRANCH   1   3
BRANCH   2   7
HETATM    7  C8  UNL     1     -34.647  16.619  -2.634  1.00 20.00    -0.034 C 
HETATM    8  C4  UNL     1     -35.166  17.843  -3.412  1.00 20.00     0.018 C 
HETATM    9  C5  UNL     1     -35.009  16.798  -1.148  1.00 20.00     0.018 C 
HETATM   10  C6  UNL     1     -33.115  16.565  -2.775  1.00 20.00     0.018 C 
ENDBRANCH   2   7
TORSDOF 3
ENDMDL
MODEL 3
REMARK VINA RESULT:      -4.5      1.199      2.069
REMARK  3 active torsions:
REMARK  status: ('A' for Active; 'I' for Inactive)
REMARK    1  A    between atoms: C1_1  and  C3_3 
REMARK    2  A    between atoms: C2_2  and  C8_8 
REMARK    3  A    between atoms: C3_3  and  O10_10 
ROOT
HETATM    1  C1  UNL     1     -35.829  14.961  -4.173  1.00 20.00     0.079 C 
HETATM    2  C2  UNL     1     -34.805  15.248  -3.354  1.00 20.00    -0.012 C 
ENDROOT
BRANCH   1   3
HETATM    3  C3  UNL     1     -35.888  13.643  -4.843  1.00 20.00     0.282 C 
HETATM    4  O9  UNL     1     -35.712  12.564  -4.300  1.00 20.00    -0.260 OA
BRANCH   3   5
HETATM    5  O10 UNL     1     -36.173  13.860  -6.155  1.00 20.00    -0.323 OA
HETATM    6  C7  UNL     1     -35.346  14.824  -6.814  1.00 20.00     0.213 C 
ENDBRANCH   3   5
ENDBRANCH   1   3
BRANCH   2   7
HETATM    7  C8  UNL     1     -34.583  16.542  -2.583  1.00 20.00    -0.034 C 
HETATM    8  C4  UNL     1     -35.177  16.542  -1.162  1.00 20.00     0.018 C 
HETATM    9  C5  UNL     1     -33.067  16.784  -2.477  1.00 20.00     0.018 C 
HETATM   10  C6  UNL     1     -35.222  17.693  -3.379  1.00 20.00     0.018 C 
ENDBRANCH   2   7
TORSDOF 3
ENDMDL
MODEL 4
REMARK VINA RESULT:      -4.4      1.265      1.729
REMARK  3 active torsions:
REMARK  status: ('A' for Active; 'I' for Inactive)
REMARK    1  A    between atoms: C1_1  and  C3_3 
REMARK    2  A    between atoms: C2_2  and  C8_8 
REMARK    3  A    between atoms: C3_3  and  O10_10 
ROOT
HETATM    1  C1  UNL     1     -34.794  15.053  -3.324  1.00 20.00     0.079 C 
HETATM    2  C2  UNL     1     -33.818  15.897  -2.955  1.00 20.00    -0.012 C 
ENDROOT
BRANCH   1   3
HETATM    3  C3  UNL     1     -34.455  13.817  -4.066  1.00 20.00     0.282 C 
HETATM    4  O9  UNL     1     -33.327  13.451  -4.356  1.00 20.00    -0.260 OA
BRANCH   3   5
HETATM    5  O10 UNL     1     -35.620  13.178  -4.356  1.00 20.00    -0.323 OA
HETATM    6  C7  UNL     1     -36.759  14.026  -4.540  1.00 20.00     0.213 C 
ENDBRANCH   3   5
ENDBRANCH   1   3
BRANCH   2   7
HETATM    7  C8  UNL     1     -33.979  17.203  -2.190  1.00 20.00    -0.034 C 
HETATM    8  C4  UNL     1     -32.666  17.763  -1.610  1.00 20.00     0.018 C 
HETATM    9  C5  UNL     1     -34.572  18.252  -3.148  1.00 20.00     0.018 C 
HETATM   10  C6  UNL     1     -34.963  16.966  -1.031  1.00 20.00     0.018 C 
ENDBRANCH   2   7
TORSDOF 3
ENDMDL
MODEL 5
REMARK VINA RESULT:      -4.2     11.079     12.016
REMARK  3 active torsions:
REMARK  status: ('A' for Active; 'I' for Inactive)
REMARK    1  A    between atoms: C1_1  and  C3_3 
REMARK    2  A    between atoms: C2_2  and  C8_8 
REMARK    3  A    between atoms: C3_3  and  O10_10 
ROOT
HETATM    1  C1  UNL     1     -33.158   6.335   2.726  1.00 20.00     0.079 C 
HETATM    2  C2  UNL     1     -33.690   6.332   3.958  1.00 20.00    -0.012 C 
ENDROOT
BRANCH   1   3
HETATM    3  C3  UNL     1     -32.237   7.422   2.326  1.00 20.00     0.282 C 
HETATM    4  O9  UNL     1     -31.406   7.948   3.049  1.00 20.00    -0.260 OA
BRANCH   3   5
HETATM    5  O10 UNL     1     -32.488   7.716   1.021  1.00 20.00    -0.323 OA
HETATM    6  C7  UNL     1     -32.917   9.056   0.763  1.00 20.00     0.213 C 
ENDBRANCH   3   5
ENDBRANCH   1   3
BRANCH   2   7
HETATM    7  C8  UNL     1     -34.648   5.301   4.540  1.00 20.00    -0.034 C 
HETATM    8  C4  UNL     1     -34.758   5.335   6.076  1.00 20.00     0.018 C 
HETATM    9  C5  UNL     1     -36.045   5.553   3.946  1.00 20.00     0.018 C 
HETATM   10  C6  UNL     1     -34.166   3.902   4.116  1.00 20.00     0.018 C 
ENDBRANCH   2   7
TORSDOF 3
ENDMDL
MODEL 6
REMARK VINA RESULT:      -4.0      4.252      5.913
REMARK  3 active torsions:
REMARK  status: ('A' for Active; 'I' for Inactive)
REMARK    1  A    between atoms: C1_1  and  C3_3 
REMARK    2  A    between atoms: C2_2  and  C8_8 
REMARK    3  A    between atoms: C3_3  and  O10_10 
ROOT
HETATM    1  C1  UNL     1     -33.164  17.554  -1.668  1.00 20.00     0.079 C 
HETATM    2  C2  UNL     1     -32.984  17.008  -2.881  1.00 20.00    -0.012 C 
ENDROOT
BRANCH   1   3
HETATM    3  C3  UNL     1     -32.146  18.476  -1.118  1.00 20.00     0.282 C 
HETATM    4  O9  UNL     1     -31.476  19.262  -1.770  1.00 20.00    -0.260 OA
BRANCH   3   5
HETATM    5  O10 UNL     1     -32.102  18.286   0.228  1.00 20.00    -0.323 OA
HETATM    6  C7  UNL     1     -30.800  18.360   0.819  1.00 20.00     0.213 C 
ENDBRANCH   3   5
ENDBRANCH   1   3
BRANCH   2   7
HETATM    7  C8  UNL     1     -33.920  16.048  -3.602  1.00 20.00    -0.034 C 
HETATM    8  C4  UNL     1     -33.222  14.808  -4.193  1.00 20.00     0.018 C 
HETATM    9  C5  UNL     1     -34.987  15.573  -2.599  1.00 20.00     0.018 C 
HETATM   10  C6  UNL     1     -34.609  16.812  -4.746  1.00 20.00     0.018 C 
ENDBRANCH   2   7
TORSDOF 3
ENDMDL
MODEL 7
REMARK VINA RESULT:      -4.0      4.546      6.077
REMARK  3 active torsions:
REMARK  status: ('A' for Active; 'I' for Inactive)
REMARK    1  A    between atoms: C1_1  and  C3_3 
REMARK    2  A    between atoms: C2_2  and  C8_8 
REMARK    3  A    between atoms: C3_3  and  O10_10 
ROOT
HETATM    1  C1  UNL     1     -32.969  17.852  -0.966  1.00 20.00     0.079 C 
HETATM    2  C2  UNL     1     -32.839  17.317  -2.190  1.00 20.00    -0.012 C 
ENDROOT
BRANCH   1   3
HETATM    3  C3  UNL     1     -31.802  18.488  -0.313  1.00 20.00     0.282 C 
HETATM    4  O9  UNL     1     -30.647  18.418  -0.703  1.00 20.00    -0.260 OA
BRANCH   3   5
HETATM    5  O10 UNL     1     -32.255  19.154   0.782  1.00 20.00    -0.323 OA
HETATM    6  C7  UNL     1     -32.206  18.424   2.012  1.00 20.00     0.213 C 
ENDBRANCH   3   5
ENDBRANCH   1   3
BRANCH   2   7
HETATM    7  C8  UNL     1     -33.922  16.630  -3.009  1.00 20.00    -0.034 C 
HETATM    8  C4  UNL     1     -34.621  17.547  -4.030  1.00 20.00     0.018 C 
HETATM    9  C5  UNL     1     -33.279  15.457  -3.770  1.00 20.00     0.018 C 
HETATM   10  C6  UNL     1     -34.984  16.080  -2.040  1.00 20.00     0.018 C 
ENDBRANCH   2   7
TORSDOF 3
ENDMDL
MODEL 8
REMARK VINA RESULT:      -3.9      3.746      5.512
REMARK  3 active torsions:
REMARK  status: ('A' for Active; 'I' for Inactive)
REMARK    1  A    between atoms: C1_1  and  C3_3 
REMARK    2  A    between atoms: C2_2  and  C8_8 
REMARK    3  A    between atoms: C3_3  and  O10_10 
ROOT
HETATM    1  C1  UNL     1     -32.918  17.061  -2.672  1.00 20.00     0.079 C 
HETATM    2  C2  UNL     1     -33.903  16.165  -2.838  1.00 20.00    -0.012 C 
ENDROOT
BRANCH   1   3
HETATM    3  C3  UNL     1     -32.840  17.846  -1.419  1.00 20.00     0.282 C 
HETATM    4  O9  UNL     1     -33.732  17.948  -0.592  1.00 20.00    -0.260 OA
BRANCH   3   5
HETATM    5  O10 UNL     1     -31.608  18.418  -1.367  1.00 20.00    -0.323 OA
HETATM    6  C7  UNL     1     -30.990  18.434  -0.076  1.00 20.00     0.213 C 
ENDBRANCH   3   5
ENDBRANCH   1   3
BRANCH   2   7
HETATM    7  C8  UNL     1     -34.136  15.274  -4.050  1.00 20.00    -0.034 C 
HETATM    8  C4  UNL     1     -32.928  14.400  -4.436  1.00 20.00     0.018 C 
HETATM    9  C5  UNL     1     -35.328  14.348  -3.744  1.00 20.00     0.018 C 
HETATM   10  C6  UNL     1     -34.491  16.172  -5.248  1.00 20.00     0.018 C 
ENDBRANCH   2   7
TORSDOF 3
ENDMDL
MODEL 9
REMARK VINA RESULT:      -3.7      0.877      1.630
REMARK  3 active torsions:
REMARK  status: ('A' for Active; 'I' for Inactive)
REMARK    1  A    between atoms: C1_1  and  C3_3 
REMARK    2  A    between atoms: C2_2  and  C8_8 
REMARK    3  A    between atoms: C3_3  and  O10_10 
ROOT
HETATM    1  C1  UNL     1     -36.437  15.692  -4.280  1.00 20.00     0.079 C 
HETATM    2  C2  UNL     1     -35.692  15.635  -3.166  1.00 20.00    -0.012 C 
ENDROOT
BRANCH   1   3
HETATM    3  C3  UNL     1     -37.384  14.597  -4.589  1.00 20.00     0.282 C 
HETATM    4  O9  UNL     1     -37.152  13.405  -4.466  1.00 20.00    -0.260 OA
BRANCH   3   5
HETATM    5  O10 UNL     1     -38.541  15.163  -5.025  1.00 20.00    -0.323 OA
HETATM    6  C7  UNL     1     -39.593  15.239  -4.057  1.00 20.00     0.213 C 
ENDBRANCH   3   5
ENDBRANCH   1   3
BRANCH   2   7
HETATM    7  C8  UNL     1     -34.676  16.664  -2.690  1.00 20.00    -0.034 C 
HETATM    8  C4  UNL     1     -34.736  16.962  -1.180  1.00 20.00     0.018 C 
HETATM    9  C5  UNL     1     -33.268  16.140  -3.026  1.00 20.00     0.018 C 
HETATM   10  C6  UNL     1     -34.921  17.976  -3.456  1.00 20.00     0.018 C 
ENDBRANCH   2   7
TORSDOF 3
ENDMDL
