MODEL 1
REMARK VINA RESULT:      -4.8      0.000      0.000
REMARK  2 active torsions:
REMARK  status: ('A' for Active; 'I' for Inactive)
REMARK    1  A    between atoms: C2_2  and  C7_7 
REMARK    2  A    between atoms: C3_3  and  C7_7 
ROOT
HETATM    1  C6  UNL     1     -33.075   4.801   2.325  1.00 20.00     0.022 C 
HETATM    2  C7  UNL     1     -33.578   6.188   2.716  1.00 20.00     0.073 C 
ENDROOT
BRANCH   2   3
HETATM    3  C2  UNL     1     -33.964   6.241   4.168  1.00 20.00    -0.019 C 
HETATM    4  C1  UNL     1     -34.647   5.268   4.789  1.00 20.00    -0.034 C 
HETATM    5  C4  UNL     1     -35.032   5.314   6.230  1.00 20.00     0.036 C 
ENDBRANCH   2   3
BRANCH   2   6
HETATM    6  C3  UNL     1     -32.494   7.239   2.498  1.00 20.00     0.130 C 
HETATM    7  C5  UNL     1     -32.510   7.964   1.177  1.00 20.00     0.091 C 
HETATM    8  O8  UNL     1     -31.618   7.466   3.333  1.00 20.00    -0.298 OA
ENDBRANCH   2   6
TORSDOF 2
ENDMDL
MODEL 2
REMARK VINA RESULT:      -4.6      1.761      3.952
REMARK  2 active torsions:
REMARK  status: ('A' for Active; 'I' for Inactive)
REMARK    1  A    between atoms: C2_2  and  C7_7 
REMARK    2  A    between atoms: C3_3  and  C7_7 
ROOT
HETATM    1  C6  UNL     1     -33.286   4.864   2.459  1.00 20.00     0.022 C 
HETATM    2  C7  UNL     1     -33.157   6.081   3.370  1.00 20.00     0.073 C 
ENDROOT
BRANCH   2   3
HETATM    3  C2  UNL     1     -33.300   7.362   2.598  1.00 20.00    -0.019 C 
HETATM    4  C1  UNL     1     -32.594   7.643   1.493  1.00 20.00    -0.034 C 
HETATM    5  C4  UNL     1     -32.733   8.912   0.719  1.00 20.00     0.036 C 
ENDBRANCH   2   3
BRANCH   2   6
HETATM    6  C3  UNL     1     -34.244   6.075   4.440  1.00 20.00     0.130 C 
HETATM    7  C5  UNL     1     -33.929   6.789   5.730  1.00 20.00     0.091 C 
HETATM    8  O8  UNL     1     -35.314   5.485   4.290  1.00 20.00    -0.298 OA
ENDBRANCH   2   6
TORSDOF 2
ENDMDL
MODEL 3
REMARK VINA RESULT:      -4.6      1.346      3.852
REMARK  2 active torsions:
REMARK  status: ('A' for Active; 'I' for Inactive)
REMARK    1  A    between atoms: C2_2  and  C7_7 
REMARK    2  A    between atoms: C3_3  and  C7_7 
ROOT
HETATM    1  C6  UNL     1     -33.270   5.008   2.399  1.00 20.00     0.022 C 
HETATM    2  C7  UNL     1     -32.978   6.204   3.300  1.00 20.00     0.073 C 
ENDROOT
BRANCH   2   3
HETATM    3  C2  UNL     1     -33.142   7.501   2.560  1.00 20.00    -0.019 C 
HETATM    4  C1  UNL     1     -32.633   7.727   1.340  1.00 20.00    -0.034 C 
HETATM    5  C4  UNL     1     -32.794   9.013   0.598  1.00 20.00     0.036 C 
ENDBRANCH   2   3
BRANCH   2   6
HETATM    6  C3  UNL     1     -33.936   6.236   4.487  1.00 20.00     0.130 C 
HETATM    7  C5  UNL     1     -35.134   5.324   4.415  1.00 20.00     0.091 C 
HETATM    8  O8  UNL     1     -33.774   6.994   5.443  1.00 20.00    -0.298 OA
ENDBRANCH   2   6
TORSDOF 2
ENDMDL
MODEL 4
REMARK VINA RESULT:      -4.4     11.079     11.631
REMARK  2 active torsions:
REMARK  status: ('A' for Active; 'I' for Inactive)
REMARK    1  A    between atoms: C2_2  and  C7_7 
REMARK    2  A    between atoms: C3_3  and  C7_7 
ROOT
HETATM    1  C6  UNL     1     -33.707  14.902  -5.014  1.00 20.00     0.022 C 
HETATM    2  C7  UNL     1     -34.498  14.382  -3.817  1.00 20.00     0.073 C 
ENDROOT
BRANCH   2   3
HETATM    3  C2  UNL     1     -34.839  15.492  -2.863  1.00 20.00    -0.019 C 
HETATM    4  C1  UNL     1     -33.927  16.320  -2.333  1.00 20.00    -0.034 C 
HETATM    5  C4  UNL     1     -34.260  17.426  -1.387  1.00 20.00     0.036 C 
ENDBRANCH   2   3
BRANCH   2   6
HETATM    6  C3  UNL     1     -35.812  13.753  -4.267  1.00 20.00     0.130 C 
HETATM    7  C5  UNL     1     -37.036  14.632  -4.220  1.00 20.00     0.091 C 
HETATM    8  O8  UNL     1     -35.893  12.574  -4.614  1.00 20.00    -0.298 OA
ENDBRANCH   2   6
TORSDOF 2
ENDMDL
MODEL 5
REMARK VINA RESULT:      -4.2      1.971      3.995
REMARK  2 active torsions:
REMARK  status: ('A' for Active; 'I' for Inactive)
REMARK    1  A    between atoms: C2_2  and  C7_7 
REMARK    2  A    between atoms: C3_3  and  C7_7 
ROOT
HETATM    1  C6  UNL     1     -33.610   6.860   5.383  1.00 20.00     0.022 C 
HETATM    2  C7  UNL     1     -33.968   6.532   3.937  1.00 20.00     0.073 C 
ENDROOT
BRANCH   2   3
HETATM    3  C2  UNL     1     -32.858   6.913   2.998  1.00 20.00    -0.019 C 
HETATM    4  C1  UNL     1     -33.037   7.677   1.911  1.00 20.00    -0.034 C 
HETATM    5  C4  UNL     1     -31.939   8.062   0.976  1.00 20.00     0.036 C 
ENDBRANCH   2   3
BRANCH   2   6
HETATM    6  C3  UNL     1     -34.212   5.036   3.763  1.00 20.00     0.130 C 
HETATM    7  C5  UNL     1     -33.464   4.352   2.647  1.00 20.00     0.091 C 
HETATM    8  O8  UNL     1     -35.008   4.413   4.466  1.00 20.00    -0.298 OA
ENDBRANCH   2   6
TORSDOF 2
ENDMDL
MODEL 6
REMARK VINA RESULT:      -4.0     15.595     16.400
REMARK  2 active torsions:
REMARK  status: ('A' for Active; 'I' for Inactive)
REMARK    1  A    between atoms: C2_2  and  C7_7 
REMARK    2  A    between atoms: C3_3  and  C7_7 
ROOT
HETATM    1  C6  UNL     1     -24.593  19.123   8.909  1.00 20.00     0.022 C 
HETATM    2  C7  UNL     1     -23.234  18.637   9.404  1.00 20.00     0.073 C 
ENDROOT
BRANCH   2   3
HETATM    3  C2  UNL     1     -23.380  17.636  10.515  1.00 20.00    -0.019 C 
HETATM    4  C1  UNL     1     -24.431  16.812  10.635  1.00 20.00    -0.034 C 
HETATM    5  C4  UNL     1     -24.582  15.814  11.736  1.00 20.00     0.036 C 
ENDBRANCH   2   3
BRANCH   2   6
HETATM    6  C3  UNL     1     -22.461  17.954   8.280  1.00 20.00     0.130 C 
HETATM    7  C5  UNL     1     -21.301  17.082   8.689  1.00 20.00     0.091 C 
HETATM    8  O8  UNL     1     -22.732  18.130   7.092  1.00 20.00    -0.298 OA
ENDBRANCH   2   6
TORSDOF 2
ENDMDL
MODEL 7
REMARK VINA RESULT:      -3.9     16.150     16.735
REMARK  2 active torsions:
REMARK  status: ('A' for Active; 'I' for Inactive)
REMARK    1  A    between atoms: C2_2  and  C7_7 
REMARK    2  A    between atoms: C3_3  and  C7_7 
ROOT
HETATM    1  C6  UNL     1     -22.484  17.668  12.048  1.00 20.00     0.022 C 
HETATM    2  C7  UNL     1     -23.317  17.020  10.947  1.00 20.00     0.073 C 
ENDROOT
BRANCH   2   3
HETATM    3  C2  UNL     1     -24.728  17.537  10.950  1.00 20.00    -0.019 C 
HETATM    4  C1  UNL     1     -25.211  18.366  11.887  1.00 20.00    -0.034 C 
HETATM    5  C4  UNL     1     -26.610  18.886  11.895  1.00 20.00     0.036 C 
ENDBRANCH   2   3
BRANCH   2   6
HETATM    6  C3  UNL     1     -22.729  17.322   9.572  1.00 20.00     0.130 C 
HETATM    7  C5  UNL     1     -22.668  18.772   9.165  1.00 20.00     0.091 C 
HETATM    8  O8  UNL     1     -22.356  16.434   8.805  1.00 20.00    -0.298 OA
ENDBRANCH   2   6
TORSDOF 2
ENDMDL
MODEL 8
REMARK VINA RESULT:      -3.9      9.202      9.840
REMARK  2 active torsions:
REMARK  status: ('A' for Active; 'I' for Inactive)
REMARK    1  A    between atoms: C2_2  and  C7_7 
REMARK    2  A    between atoms: C3_3  and  C7_7 
ROOT
HETATM    1  C6  UNL     1     -40.940   5.685  -1.171  1.00 20.00     0.022 C 
HETATM    2  C7  UNL     1     -41.352   5.830   0.291  1.00 20.00     0.073 C 
ENDROOT
BRANCH   2   3
HETATM    3  C2  UNL     1     -41.283   7.262   0.741  1.00 20.00    -0.019 C 
HETATM    4  C1  UNL     1     -41.254   8.303  -0.104  1.00 20.00    -0.034 C 
HETATM    5  C4  UNL     1     -41.188   9.728   0.336  1.00 20.00     0.036 C 
ENDBRANCH   2   3
BRANCH   2   6
HETATM    6  C3  UNL     1     -42.788   5.360   0.499  1.00 20.00     0.130 C 
HETATM    7  C5  UNL     1     -43.417   5.673   1.833  1.00 20.00     0.091 C 
HETATM    8  O8  UNL     1     -43.401   4.718  -0.354  1.00 20.00    -0.298 OA
ENDBRANCH   2   6
TORSDOF 2
ENDMDL
MODEL 9
REMARK VINA RESULT:      -3.7     11.380     11.752
REMARK  2 active torsions:
REMARK  status: ('A' for Active; 'I' for Inactive)
REMARK    1  A    between atoms: C2_2  and  C7_7 
REMARK    2  A    between atoms: C3_3  and  C7_7 
ROOT
HETATM    1  C6  UNL     1     -33.112  15.682  -3.747  1.00 20.00     0.022 C 
HETATM    2  C7  UNL     1     -34.385  14.940  -3.354  1.00 20.00     0.073 C 
ENDROOT
BRANCH   2   3
HETATM    3  C2  UNL     1     -35.311  15.822  -2.564  1.00 20.00    -0.019 C 
HETATM    4  C1  UNL     1     -34.917  16.558  -1.515  1.00 20.00    -0.034 C 
HETATM    5  C4  UNL     1     -35.831  17.438  -0.728  1.00 20.00     0.036 C 
ENDBRANCH   2   3
BRANCH   2   6
HETATM    6  C3  UNL     1     -35.148  14.478  -4.591  1.00 20.00     0.130 C 
HETATM    7  C5  UNL     1     -36.594  14.100  -4.394  1.00 20.00     0.091 C 
HETATM    8  O8  UNL     1     -34.612  14.372  -5.694  1.00 20.00    -0.298 OA
ENDBRANCH   2   6
TORSDOF 2
ENDMDL
