MODEL 1
REMARK VINA RESULT:      -5.3      0.000      0.000
REMARK  2 active torsions:
REMARK  status: ('A' for Active; 'I' for Inactive)
REMARK    1  A    between atoms: C2_2  and  C3_3 
REMARK    2  A    between atoms: C4_4  and  C5_5 
ROOT
HETATM    1  C1  UNL     1     -33.671   6.879   4.919  1.00 20.00    -0.020 C 
HETATM    2  C2  UNL     1     -33.763   6.150   3.800  1.00 20.00    -0.062 C 
HETATM    3  C6  UNL     1     -34.241   6.157   6.094  1.00 20.00     0.028 C 
HETATM    4  C7  UNL     1     -34.409   4.825   4.052  1.00 20.00     0.038 C 
HETATM    5  C8  UNL     1     -35.008   5.006   5.447  1.00 20.00     0.008 C 
ENDROOT
BRANCH   2   6
HETATM    6  C3  UNL     1     -33.299   6.531   2.503  1.00 20.00     0.010 C 
HETATM    7  C4  UNL     1     -32.926   7.782   2.194  1.00 20.00     0.050 C 
BRANCH   7   8
HETATM    8  C5  UNL     1     -32.452   8.118   0.821  1.00 20.00     0.145 C 
HETATM    9  C9  UNL     1     -33.313   9.058   0.021  1.00 20.00     0.096 C 
HETATM   10  O10 UNL     1     -31.401   7.675   0.365  1.00 20.00    -0.294 OA
ENDBRANCH   7   8
ENDBRANCH   2   6
TORSDOF 2
ENDMDL
MODEL 2
REMARK VINA RESULT:      -5.0     10.803     11.317
REMARK  2 active torsions:
REMARK  status: ('A' for Active; 'I' for Inactive)
REMARK    1  A    between atoms: C2_2  and  C3_3 
REMARK    2  A    between atoms: C4_4  and  C5_5 
ROOT
HETATM    1  C1  UNL     1     -35.109  16.614  -1.247  1.00 20.00    -0.020 C 
HETATM    2  C2  UNL     1     -34.288  16.336  -2.267  1.00 20.00    -0.062 C 
HETATM    3  C6  UNL     1     -34.602  17.752  -0.426  1.00 20.00     0.028 C 
HETATM    4  C7  UNL     1     -33.101  17.246  -2.288  1.00 20.00     0.038 C 
HETATM    5  C8  UNL     1     -33.160  17.903  -0.908  1.00 20.00     0.008 C 
ENDROOT
BRANCH   2   6
HETATM    6  C3  UNL     1     -34.481  15.323  -3.256  1.00 20.00     0.010 C 
HETATM    7  C4  UNL     1     -35.692  14.943  -3.693  1.00 20.00     0.050 C 
BRANCH   7   8
HETATM    8  C5  UNL     1     -35.829  13.878  -4.726  1.00 20.00     0.145 C 
HETATM    9  C9  UNL     1     -35.846  14.328  -6.163  1.00 20.00     0.096 C 
HETATM   10  O10 UNL     1     -35.900  12.687  -4.433  1.00 20.00    -0.294 OA
ENDBRANCH   7   8
ENDBRANCH   2   6
TORSDOF 2
ENDMDL
MODEL 3
REMARK VINA RESULT:      -5.0     10.822     11.335
REMARK  2 active torsions:
REMARK  status: ('A' for Active; 'I' for Inactive)
REMARK    1  A    between atoms: C2_2  and  C3_3 
REMARK    2  A    between atoms: C4_4  and  C5_5 
ROOT
HETATM    1  C1  UNL     1     -32.973  17.062  -2.270  1.00 20.00    -0.020 C 
HETATM    2  C2  UNL     1     -34.100  16.347  -2.371  1.00 20.00    -0.062 C 
HETATM    3  C6  UNL     1     -32.998  17.966  -1.083  1.00 20.00     0.028 C 
HETATM    4  C7  UNL     1     -35.058  16.661  -1.265  1.00 20.00     0.038 C 
HETATM    5  C8  UNL     1     -34.468  17.939  -0.667  1.00 20.00     0.008 C 
ENDROOT
BRANCH   2   6
HETATM    6  C3  UNL     1     -34.398  15.376  -3.375  1.00 20.00     0.010 C 
HETATM    7  C4  UNL     1     -35.629  14.880  -3.577  1.00 20.00     0.050 C 
BRANCH   7   8
HETATM    8  C5  UNL     1     -35.876  13.866  -4.642  1.00 20.00     0.145 C 
HETATM    9  C9  UNL     1     -35.844  14.359  -6.064  1.00 20.00     0.096 C 
HETATM   10  O10 UNL     1     -36.074  12.682  -4.384  1.00 20.00    -0.294 OA
ENDBRANCH   7   8
ENDBRANCH   2   6
TORSDOF 2
ENDMDL
MODEL 4
REMARK VINA RESULT:      -4.5     10.678     11.426
REMARK  2 active torsions:
REMARK  status: ('A' for Active; 'I' for Inactive)
REMARK    1  A    between atoms: C2_2  and  C3_3 
REMARK    2  A    between atoms: C4_4  and  C5_5 
ROOT
HETATM    1  C1  UNL     1     -34.712  17.283  -0.872  1.00 20.00    -0.020 C 
HETATM    2  C2  UNL     1     -33.713  17.094  -1.742  1.00 20.00    -0.062 C 
HETATM    3  C6  UNL     1     -34.371  18.327   0.139  1.00 20.00     0.028 C 
HETATM    4  C7  UNL     1     -32.546  17.983  -1.450  1.00 20.00     0.038 C 
HETATM    5  C8  UNL     1     -32.865  18.502  -0.047  1.00 20.00     0.008 C 
ENDROOT
BRANCH   2   6
HETATM    6  C3  UNL     1     -33.714  16.186  -2.845  1.00 20.00     0.010 C 
HETATM    7  C4  UNL     1     -34.661  15.254  -3.030  1.00 20.00     0.050 C 
BRANCH   7   8
HETATM    8  C5  UNL     1     -34.607  14.334  -4.201  1.00 20.00     0.145 C 
HETATM    9  C9  UNL     1     -33.935  14.859  -5.442  1.00 20.00     0.096 C 
HETATM   10  O10 UNL     1     -35.061  13.193  -4.159  1.00 20.00    -0.294 OA
ENDBRANCH   7   8
ENDBRANCH   2   6
TORSDOF 2
ENDMDL
MODEL 5
REMARK VINA RESULT:      -4.4     11.013     11.905
REMARK  2 active torsions:
REMARK  status: ('A' for Active; 'I' for Inactive)
REMARK    1  A    between atoms: C2_2  and  C3_3 
REMARK    2  A    between atoms: C4_4  and  C5_5 
ROOT
HETATM    1  C1  UNL     1     -33.133  15.710  -3.790  1.00 20.00    -0.020 C 
HETATM    2  C2  UNL     1     -33.855  16.150  -2.752  1.00 20.00    -0.062 C 
HETATM    3  C6  UNL     1     -33.940  14.837  -4.691  1.00 20.00     0.028 C 
HETATM    4  C7  UNL     1     -35.260  15.639  -2.796  1.00 20.00     0.038 C 
HETATM    5  C8  UNL     1     -35.179  14.535  -3.850  1.00 20.00     0.008 C 
ENDROOT
BRANCH   2   6
HETATM    6  C3  UNL     1     -33.398  17.018  -1.713  1.00 20.00     0.010 C 
HETATM    7  C4  UNL     1     -32.276  17.748  -1.804  1.00 20.00     0.050 C 
BRANCH   7   8
HETATM    8  C5  UNL     1     -31.851  18.635  -0.684  1.00 20.00     0.145 C 
HETATM    9  C9  UNL     1     -32.948  19.263   0.134  1.00 20.00     0.096 C 
HETATM   10  O10 UNL     1     -30.668  18.831  -0.417  1.00 20.00    -0.294 OA
ENDBRANCH   7   8
ENDBRANCH   2   6
TORSDOF 2
ENDMDL
MODEL 6
REMARK VINA RESULT:      -4.4     10.619     11.489
REMARK  2 active torsions:
REMARK  status: ('A' for Active; 'I' for Inactive)
REMARK    1  A    between atoms: C2_2  and  C3_3 
REMARK    2  A    between atoms: C4_4  and  C5_5 
ROOT
HETATM    1  C1  UNL     1     -34.597  17.485  -0.543  1.00 20.00    -0.020 C 
HETATM    2  C2  UNL     1     -33.945  17.081  -1.640  1.00 20.00    -0.062 C 
HETATM    3  C6  UNL     1     -33.809  18.490   0.228  1.00 20.00     0.028 C 
HETATM    4  C7  UNL     1     -32.616  17.754  -1.775  1.00 20.00     0.038 C 
HETATM    5  C8  UNL     1     -32.418  18.380  -0.393  1.00 20.00     0.008 C 
ENDROOT
BRANCH   2   6
HETATM    6  C3  UNL     1     -34.419  16.143  -2.608  1.00 20.00     0.010 C 
HETATM    7  C4  UNL     1     -33.623  15.558  -3.516  1.00 20.00     0.050 C 
BRANCH   7   8
HETATM    8  C5  UNL     1     -34.177  14.587  -4.502  1.00 20.00     0.145 C 
HETATM    9  C9  UNL     1     -35.451  13.883  -4.114  1.00 20.00     0.096 C 
HETATM   10  O10 UNL     1     -33.644  14.381  -5.589  1.00 20.00    -0.294 OA
ENDBRANCH   7   8
ENDBRANCH   2   6
TORSDOF 2
ENDMDL
MODEL 7
REMARK VINA RESULT:      -4.3     10.861     11.707
REMARK  2 active torsions:
REMARK  status: ('A' for Active; 'I' for Inactive)
REMARK    1  A    between atoms: C2_2  and  C3_3 
REMARK    2  A    between atoms: C4_4  and  C5_5 
ROOT
HETATM    1  C1  UNL     1     -33.110  15.862  -3.356  1.00 20.00    -0.020 C 
HETATM    2  C2  UNL     1     -34.215  16.088  -2.636  1.00 20.00    -0.062 C 
HETATM    3  C6  UNL     1     -33.325  14.794  -4.376  1.00 20.00     0.028 C 
HETATM    4  C7  UNL     1     -35.345  15.206  -3.061  1.00 20.00     0.038 C 
HETATM    5  C8  UNL     1     -34.644  14.162  -3.932  1.00 20.00     0.008 C 
ENDROOT
BRANCH   2   6
HETATM    6  C3  UNL     1     -34.360  17.053  -1.592  1.00 20.00     0.010 C 
HETATM    7  C4  UNL     1     -35.290  16.960  -0.629  1.00 20.00     0.050 C 
BRANCH   7   8
HETATM    8  C5  UNL     1     -35.394  18.000   0.433  1.00 20.00     0.145 C 
HETATM    9  C9  UNL     1     -34.336  17.979   1.504  1.00 20.00     0.096 C 
HETATM   10  O10 UNL     1     -36.279  18.852   0.431  1.00 20.00    -0.294 OA
ENDBRANCH   7   8
ENDBRANCH   2   6
TORSDOF 2
ENDMDL
MODEL 8
REMARK VINA RESULT:      -4.3     10.948     11.888
REMARK  2 active torsions:
REMARK  status: ('A' for Active; 'I' for Inactive)
REMARK    1  A    between atoms: C2_2  and  C3_3 
REMARK    2  A    between atoms: C4_4  and  C5_5 
ROOT
HETATM    1  C1  UNL     1     -35.236  15.210  -2.936  1.00 20.00    -0.020 C 
HETATM    2  C2  UNL     1     -34.143  15.958  -2.744  1.00 20.00    -0.062 C 
HETATM    3  C6  UNL     1     -35.044  14.225  -4.040  1.00 20.00     0.028 C 
HETATM    4  C7  UNL     1     -33.045  15.589  -3.692  1.00 20.00     0.038 C 
HETATM    5  C8  UNL     1     -33.772  14.724  -4.723  1.00 20.00     0.008 C 
ENDROOT
BRANCH   2   6
HETATM    6  C3  UNL     1     -33.979  16.980  -1.760  1.00 20.00     0.010 C 
HETATM    7  C4  UNL     1     -32.819  17.621  -1.551  1.00 20.00     0.050 C 
BRANCH   7   8
HETATM    8  C5  UNL     1     -32.711  18.679  -0.507  1.00 20.00     0.145 C 
HETATM    9  C9  UNL     1     -31.323  19.028  -0.039  1.00 20.00     0.096 C 
HETATM   10  O10 UNL     1     -33.696  19.262  -0.061  1.00 20.00    -0.294 OA
ENDBRANCH   7   8
ENDBRANCH   2   6
TORSDOF 2
ENDMDL
MODEL 9
REMARK VINA RESULT:      -4.2     10.941     11.751
REMARK  2 active torsions:
REMARK  status: ('A' for Active; 'I' for Inactive)
REMARK    1  A    between atoms: C2_2  and  C3_3 
REMARK    2  A    between atoms: C4_4  and  C5_5 
ROOT
HETATM    1  C1  UNL     1     -35.248  15.131  -2.939  1.00 20.00    -0.020 C 
HETATM    2  C2  UNL     1     -34.290  16.001  -2.598  1.00 20.00    -0.062 C 
HETATM    3  C6  UNL     1     -34.803  14.224  -4.038  1.00 20.00     0.028 C 
HETATM    4  C7  UNL     1     -33.052  15.813  -3.416  1.00 20.00     0.038 C 
HETATM    5  C8  UNL     1     -33.536  14.908  -4.550  1.00 20.00     0.008 C 
ENDROOT
BRANCH   2   6
HETATM    6  C3  UNL     1     -34.376  16.994  -1.575  1.00 20.00     0.010 C 
HETATM    7  C4  UNL     1     -35.288  16.959  -0.590  1.00 20.00     0.050 C 
BRANCH   7   8
HETATM    8  C5  UNL     1     -35.328  18.026   0.449  1.00 20.00     0.145 C 
HETATM    9  C9  UNL     1     -34.144  18.111   1.376  1.00 20.00     0.096 C 
HETATM   10  O10 UNL     1     -36.262  18.818   0.539  1.00 20.00    -0.294 OA
ENDBRANCH   7   8
ENDBRANCH   2   6
TORSDOF 2
ENDMDL
