MODEL 1
REMARK VINA RESULT:      -4.9      0.000      0.000
REMARK  1 active torsions:
REMARK  status: ('A' for Active; 'I' for Inactive)
REMARK    1  A    between atoms: C1_1  and  C2_2 
ROOT
HETATM    1  C2  UNL     1     -34.894   5.247   4.746  1.00 20.00     0.462 C 
HETATM    2  F4  UNL     1     -34.433   4.077   4.236  1.00 20.00    -0.163 F 
HETATM    3  F5  UNL     1     -35.231   5.006   6.038  1.00 20.00    -0.163 F 
HETATM    4  F6  UNL     1     -36.043   5.537   4.086  1.00 20.00    -0.163 F 
ENDROOT
BRANCH   1   5
HETATM    5  C1  UNL     1     -33.889   6.344   4.625  1.00 20.00     0.300 C 
HETATM    6  O3  UNL     1     -33.583   7.109   5.527  1.00 20.00    -0.275 OA
HETATM    7 BR7  UNL     1     -33.003   6.583   2.956  1.00 20.00     0.001 Br
ENDBRANCH   1   5
TORSDOF 1
ENDMDL
MODEL 2
REMARK VINA RESULT:      -4.9      0.021      1.426
REMARK  1 active torsions:
REMARK  status: ('A' for Active; 'I' for Inactive)
REMARK    1  A    between atoms: C1_1  and  C2_2 
ROOT
HETATM    1  C2  UNL     1     -34.884   5.241   4.750  1.00 20.00     0.462 C 
HETATM    2  F4  UNL     1     -36.031   5.525   4.084  1.00 20.00    -0.163 F 
HETATM    3  F5  UNL     1     -34.411   4.077   4.238  1.00 20.00    -0.163 F 
HETATM    4  F6  UNL     1     -35.228   4.995   6.039  1.00 20.00    -0.163 F 
ENDROOT
BRANCH   1   5
HETATM    5  C1  UNL     1     -33.886   6.346   4.641  1.00 20.00     0.300 C 
HETATM    6  O3  UNL     1     -33.593   7.110   5.549  1.00 20.00    -0.275 OA
HETATM    7 BR7  UNL     1     -32.988   6.599   2.981  1.00 20.00     0.001 Br
ENDBRANCH   1   5
TORSDOF 1
ENDMDL
MODEL 3
REMARK VINA RESULT:      -4.4      1.846      2.077
REMARK  1 active torsions:
REMARK  status: ('A' for Active; 'I' for Inactive)
REMARK    1  A    between atoms: C1_1  and  C2_2 
ROOT
HETATM    1  C2  UNL     1     -34.614   5.479   4.445  1.00 20.00     0.462 C 
HETATM    2  F4  UNL     1     -35.911   5.562   4.057  1.00 20.00    -0.163 F 
HETATM    3  F5  UNL     1     -34.507   4.373   5.222  1.00 20.00    -0.163 F 
HETATM    4  F6  UNL     1     -34.374   6.549   5.245  1.00 20.00    -0.163 F 
ENDROOT
BRANCH   1   5
HETATM    5  C1  UNL     1     -33.683   5.436   3.279  1.00 20.00     0.300 C 
HETATM    6  O3  UNL     1     -33.526   4.468   2.550  1.00 20.00    -0.275 OA
HETATM    7 BR7  UNL     1     -32.661   6.991   2.876  1.00 20.00     0.001 Br
ENDBRANCH   1   5
TORSDOF 1
ENDMDL
MODEL 4
REMARK VINA RESULT:      -4.4      1.841      1.841
REMARK  1 active torsions:
REMARK  status: ('A' for Active; 'I' for Inactive)
REMARK    1  A    between atoms: C1_1  and  C2_2 
ROOT
HETATM    1  C2  UNL     1     -34.614   5.482   4.452  1.00 20.00     0.462 C 
HETATM    2  F4  UNL     1     -34.513   4.370   5.223  1.00 20.00    -0.163 F 
HETATM    3  F5  UNL     1     -34.371   6.544   5.262  1.00 20.00    -0.163 F 
HETATM    4  F6  UNL     1     -35.911   5.573   4.062  1.00 20.00    -0.163 F 
ENDROOT
BRANCH   1   5
HETATM    5  C1  UNL     1     -33.683   5.442   3.287  1.00 20.00     0.300 C 
HETATM    6  O3  UNL     1     -33.525   4.475   2.556  1.00 20.00    -0.275 OA
HETATM    7 BR7  UNL     1     -32.660   6.998   2.887  1.00 20.00     0.001 Br
ENDBRANCH   1   5
TORSDOF 1
ENDMDL
MODEL 5
REMARK VINA RESULT:      -4.4      1.844      2.262
REMARK  1 active torsions:
REMARK  status: ('A' for Active; 'I' for Inactive)
REMARK    1  A    between atoms: C1_1  and  C2_2 
ROOT
HETATM    1  C2  UNL     1     -34.615   5.480   4.446  1.00 20.00     0.462 C 
HETATM    2  F4  UNL     1     -34.376   6.545   5.251  1.00 20.00    -0.163 F 
HETATM    3  F5  UNL     1     -35.912   5.566   4.057  1.00 20.00    -0.163 F 
HETATM    4  F6  UNL     1     -34.509   4.370   5.221  1.00 20.00    -0.163 F 
ENDROOT
BRANCH   1   5
HETATM    5  C1  UNL     1     -33.683   5.438   3.282  1.00 20.00     0.300 C 
HETATM    6  O3  UNL     1     -33.523   4.469   2.554  1.00 20.00    -0.275 OA
HETATM    7 BR7  UNL     1     -32.662   6.994   2.879  1.00 20.00     0.001 Br
ENDBRANCH   1   5
TORSDOF 1
ENDMDL
MODEL 6
REMARK VINA RESULT:      -4.4      1.484      2.024
REMARK  1 active torsions:
REMARK  status: ('A' for Active; 'I' for Inactive)
REMARK    1  A    between atoms: C1_1  and  C2_2 
ROOT
HETATM    1  C2  UNL     1     -34.938   5.063   4.517  1.00 20.00     0.462 C 
HETATM    2  F4  UNL     1     -35.174   4.693   5.801  1.00 20.00    -0.163 F 
HETATM    3  F5  UNL     1     -36.142   5.364   3.968  1.00 20.00    -0.163 F 
HETATM    4  F6  UNL     1     -34.474   3.964   3.870  1.00 20.00    -0.163 F 
ENDROOT
BRANCH   1   5
HETATM    5  C1  UNL     1     -33.982   6.206   4.431  1.00 20.00     0.300 C 
HETATM    6  O3  UNL     1     -33.406   6.554   3.411  1.00 20.00    -0.275 OA
HETATM    7 BR7  UNL     1     -33.624   7.211   6.008  1.00 20.00     0.001 Br
ENDBRANCH   1   5
TORSDOF 1
ENDMDL
MODEL 7
REMARK VINA RESULT:      -4.2      2.793      3.176
REMARK  1 active torsions:
REMARK  status: ('A' for Active; 'I' for Inactive)
REMARK    1  A    between atoms: C1_1  and  C2_2 
ROOT
HETATM    1  C2  UNL     1     -32.836   6.748   3.105  1.00 20.00     0.462 C 
HETATM    2  F4  UNL     1     -31.596   7.228   3.376  1.00 20.00    -0.163 F 
HETATM    3  F5  UNL     1     -32.668   5.603   2.398  1.00 20.00    -0.163 F 
HETATM    4  F6  UNL     1     -33.430   7.642   2.274  1.00 20.00    -0.163 F 
ENDROOT
BRANCH   1   5
HETATM    5  C1  UNL     1     -33.634   6.527   4.347  1.00 20.00     0.300 C 
HETATM    6  O3  UNL     1     -33.497   7.160   5.383  1.00 20.00    -0.275 OA
HETATM    7 BR7  UNL     1     -34.970   5.170   4.338  1.00 20.00     0.001 Br
ENDBRANCH   1   5
TORSDOF 1
ENDMDL
MODEL 8
REMARK VINA RESULT:      -4.0      2.810      3.146
REMARK  1 active torsions:
REMARK  status: ('A' for Active; 'I' for Inactive)
REMARK    1  A    between atoms: C1_1  and  C2_2 
ROOT
HETATM    1  C2  UNL     1     -33.391   5.414   2.835  1.00 20.00     0.462 C 
HETATM    2  F4  UNL     1     -34.165   5.626   1.741  1.00 20.00    -0.163 F 
HETATM    3  F5  UNL     1     -32.540   6.467   2.924  1.00 20.00    -0.163 F 
HETATM    4  F6  UNL     1     -32.635   4.317   2.575  1.00 20.00    -0.163 F 
ENDROOT
BRANCH   1   5
HETATM    5  C1  UNL     1     -34.208   5.247   4.073  1.00 20.00     0.300 C 
HETATM    6  O3  UNL     1     -34.977   4.321   4.279  1.00 20.00    -0.275 OA
HETATM    7 BR7  UNL     1     -34.051   6.557   5.446  1.00 20.00     0.001 Br
ENDBRANCH   1   5
TORSDOF 1
ENDMDL
MODEL 9
REMARK VINA RESULT:      -4.0      2.807      3.080
REMARK  1 active torsions:
REMARK  status: ('A' for Active; 'I' for Inactive)
REMARK    1  A    between atoms: C1_1  and  C2_2 
ROOT
HETATM    1  C2  UNL     1     -33.401   5.402   2.837  1.00 20.00     0.462 C 
HETATM    2  F4  UNL     1     -32.628   4.315   2.591  1.00 20.00    -0.163 F 
HETATM    3  F5  UNL     1     -34.178   5.588   1.740  1.00 20.00    -0.163 F 
HETATM    4  F6  UNL     1     -32.566   6.469   2.914  1.00 20.00    -0.163 F 
ENDROOT
BRANCH   1   5
HETATM    5  C1  UNL     1     -34.215   5.241   4.078  1.00 20.00     0.300 C 
HETATM    6  O3  UNL     1     -34.983   4.314   4.289  1.00 20.00    -0.275 OA
HETATM    7 BR7  UNL     1     -34.056   6.557   5.445  1.00 20.00     0.001 Br
ENDBRANCH   1   5
TORSDOF 1
ENDMDL
