MODEL 1
REMARK VINA RESULT:      -4.2      0.000      0.000
REMARK  2 active torsions:
REMARK  status: ('A' for Active; 'I' for Inactive)
REMARK    1  A    between atoms: C1_1  and  C8_8 
REMARK    2  A    between atoms: C2_2  and  C3_3 
ROOT
HETATM    1  C1  UNL     1     -35.424  15.469  -3.106  1.00 20.00    -0.009 C 
HETATM    2  C3  UNL     1     -35.281  14.847  -4.292  1.00 20.00    -0.027 C 
HETATM    3  C4  UNL     1     -34.349  15.170  -5.415  1.00 20.00     0.051 C 
ENDROOT
BRANCH   1   4
HETATM    4  C8  UNL     1     -34.715  16.702  -2.554  1.00 20.00    -0.033 C 
HETATM    5  C5  UNL     1     -35.095  16.849  -1.062  1.00 20.00     0.018 C 
HETATM    6  C6  UNL     1     -33.187  16.541  -2.630  1.00 20.00     0.018 C 
HETATM    7  C7  UNL     1     -35.159  17.993  -3.264  1.00 20.00     0.018 C 
ENDBRANCH   1   4
BRANCH   2   8
HETATM    8  C2  UNL     1     -36.169  13.666  -4.505  1.00 20.00     0.265 C 
HETATM    9  O9  UNL     1     -35.767  12.509  -4.453  1.00 20.00    -0.302 OA
ENDBRANCH   2   8
TORSDOF 2
ENDMDL
MODEL 2
REMARK VINA RESULT:      -4.2      0.064      1.444
REMARK  2 active torsions:
REMARK  status: ('A' for Active; 'I' for Inactive)
REMARK    1  A    between atoms: C1_1  and  C8_8 
REMARK    2  A    between atoms: C2_2  and  C3_3 
ROOT
HETATM    1  C1  UNL     1     -35.412  15.448  -3.072  1.00 20.00    -0.009 C 
HETATM    2  C3  UNL     1     -35.238  14.829  -4.255  1.00 20.00    -0.027 C 
HETATM    3  C4  UNL     1     -34.261  15.140  -5.343  1.00 20.00     0.051 C 
ENDROOT
BRANCH   1   4
HETATM    4  C8  UNL     1     -34.700  16.666  -2.489  1.00 20.00    -0.033 C 
HETATM    5  C5  UNL     1     -35.158  17.915  -3.277  1.00 20.00     0.018 C 
HETATM    6  C6  UNL     1     -35.088  16.879  -1.015  1.00 20.00     0.018 C 
HETATM    7  C7  UNL     1     -33.171  16.571  -2.637  1.00 20.00     0.018 C 
ENDBRANCH   1   4
BRANCH   2   8
HETATM    8  C2  UNL     1     -36.140  13.666  -4.506  1.00 20.00     0.265 C 
HETATM    9  O9  UNL     1     -35.762  12.502  -4.445  1.00 20.00    -0.302 OA
ENDBRANCH   2   8
TORSDOF 2
ENDMDL
MODEL 3
REMARK VINA RESULT:      -4.1      0.971      1.804
REMARK  2 active torsions:
REMARK  status: ('A' for Active; 'I' for Inactive)
REMARK    1  A    between atoms: C1_1  and  C8_8 
REMARK    2  A    between atoms: C2_2  and  C3_3 
ROOT
HETATM    1  C1  UNL     1     -34.370  15.505  -3.005  1.00 20.00    -0.009 C 
HETATM    2  C3  UNL     1     -35.355  14.808  -3.603  1.00 20.00    -0.027 C 
HETATM    3  C4  UNL     1     -36.774  15.208  -3.845  1.00 20.00     0.051 C 
ENDROOT
BRANCH   1   4
HETATM    4  C8  UNL     1     -34.398  16.890  -2.364  1.00 20.00    -0.033 C 
HETATM    5  C5  UNL     1     -32.944  17.297  -2.031  1.00 20.00     0.018 C 
HETATM    6  C6  UNL     1     -34.961  17.938  -3.339  1.00 20.00     0.018 C 
HETATM    7  C7  UNL     1     -35.187  16.902  -1.043  1.00 20.00     0.018 C 
ENDBRANCH   1   4
BRANCH   2   8
HETATM    8  C2  UNL     1     -34.968  13.456  -4.101  1.00 20.00     0.265 C 
HETATM    9  O9  UNL     1     -35.785  12.619  -4.469  1.00 20.00    -0.302 OA
ENDBRANCH   2   8
TORSDOF 2
ENDMDL
MODEL 4
REMARK VINA RESULT:      -4.1      0.234      1.467
REMARK  2 active torsions:
REMARK  status: ('A' for Active; 'I' for Inactive)
REMARK    1  A    between atoms: C1_1  and  C8_8 
REMARK    2  A    between atoms: C2_2  and  C3_3 
ROOT
HETATM    1  C1  UNL     1     -35.408  15.359  -3.278  1.00 20.00    -0.009 C 
HETATM    2  C3  UNL     1     -35.338  14.873  -4.532  1.00 20.00    -0.027 C 
HETATM    3  C4  UNL     1     -34.555  15.387  -5.697  1.00 20.00     0.051 C 
ENDROOT
BRANCH   1   4
HETATM    4  C8  UNL     1     -34.746  16.591  -2.666  1.00 20.00    -0.033 C 
HETATM    5  C5  UNL     1     -33.213  16.433  -2.803  1.00 20.00     0.018 C 
HETATM    6  C6  UNL     1     -35.150  17.868  -3.423  1.00 20.00     0.018 C 
HETATM    7  C7  UNL     1     -35.056  16.731  -1.166  1.00 20.00     0.018 C 
ENDBRANCH   1   4
BRANCH   2   8
HETATM    8  C2  UNL     1     -36.147  13.645  -4.786  1.00 20.00     0.265 C 
HETATM    9  O9  UNL     1     -35.803  12.528  -4.415  1.00 20.00    -0.302 OA
ENDBRANCH   2   8
TORSDOF 2
ENDMDL
MODEL 5
REMARK VINA RESULT:      -3.9     11.454     12.292
REMARK  2 active torsions:
REMARK  status: ('A' for Active; 'I' for Inactive)
REMARK    1  A    between atoms: C1_1  and  C8_8 
REMARK    2  A    between atoms: C2_2  and  C3_3 
ROOT
HETATM    1  C1  UNL     1     -33.649   6.426   3.868  1.00 20.00    -0.009 C 
HETATM    2  C3  UNL     1     -33.051   6.212   2.681  1.00 20.00    -0.027 C 
HETATM    3  C4  UNL     1     -33.073   4.987   1.825  1.00 20.00     0.051 C 
ENDROOT
BRANCH   1   4
HETATM    4  C8  UNL     1     -34.499   5.489   4.721  1.00 20.00    -0.033 C 
HETATM    5  C5  UNL     1     -35.931   5.471   4.137  1.00 20.00     0.018 C 
HETATM    6  C6  UNL     1     -33.958   4.049   4.665  1.00 20.00     0.018 C 
HETATM    7  C7  UNL     1     -34.609   5.969   6.178  1.00 20.00     0.018 C 
ENDBRANCH   1   4
BRANCH   2   8
HETATM    8  C2  UNL     1     -32.268   7.364   2.144  1.00 20.00     0.265 C 
HETATM    9  O9  UNL     1     -32.655   8.059   1.211  1.00 20.00    -0.302 OA
ENDBRANCH   2   8
TORSDOF 2
ENDMDL
MODEL 6
REMARK VINA RESULT:      -3.9      3.440      5.161
REMARK  2 active torsions:
REMARK  status: ('A' for Active; 'I' for Inactive)
REMARK    1  A    between atoms: C1_1  and  C8_8 
REMARK    2  A    between atoms: C2_2  and  C3_3 
ROOT
HETATM    1  C1  UNL     1     -32.762  17.432  -1.889  1.00 20.00    -0.009 C 
HETATM    2  C3  UNL     1     -32.867  18.340  -0.901  1.00 20.00    -0.027 C 
HETATM    3  C4  UNL     1     -34.094  18.984  -0.342  1.00 20.00     0.051 C 
ENDROOT
BRANCH   1   4
HETATM    4  C8  UNL     1     -33.845  16.806  -2.764  1.00 20.00    -0.033 C 
HETATM    5  C5  UNL     1     -33.190  15.703  -3.628  1.00 20.00     0.018 C 
HETATM    6  C6  UNL     1     -34.931  16.137  -1.904  1.00 20.00     0.018 C 
HETATM    7  C7  UNL     1     -34.473  17.826  -3.729  1.00 20.00     0.018 C 
ENDBRANCH   1   4
BRANCH   2   8
HETATM    8  C2  UNL     1     -31.577  18.749  -0.270  1.00 20.00     0.265 C 
HETATM    9  O9  UNL     1     -30.497  18.254  -0.574  1.00 20.00    -0.302 OA
ENDBRANCH   2   8
TORSDOF 2
ENDMDL
MODEL 7
REMARK VINA RESULT:      -3.9     11.477     12.314
REMARK  2 active torsions:
REMARK  status: ('A' for Active; 'I' for Inactive)
REMARK    1  A    between atoms: C1_1  and  C8_8 
REMARK    2  A    between atoms: C2_2  and  C3_3 
ROOT
HETATM    1  C1  UNL     1     -33.666   6.439   3.888  1.00 20.00    -0.009 C 
HETATM    2  C3  UNL     1     -33.054   6.193   2.714  1.00 20.00    -0.027 C 
HETATM    3  C4  UNL     1     -33.087   4.954   1.879  1.00 20.00     0.051 C 
ENDROOT
BRANCH   1   4
HETATM    4  C8  UNL     1     -34.547   5.532   4.743  1.00 20.00    -0.033 C 
HETATM    5  C5  UNL     1     -33.913   4.121   4.761  1.00 20.00     0.018 C 
HETATM    6  C6  UNL     1     -34.607   6.032   6.197  1.00 20.00     0.018 C 
HETATM    7  C7  UNL     1     -35.965   5.386   4.162  1.00 20.00     0.018 C 
ENDBRANCH   1   4
BRANCH   2   8
HETATM    8  C2  UNL     1     -32.241   7.320   2.169  1.00 20.00     0.265 C 
HETATM    9  O9  UNL     1     -32.652   8.086   1.306  1.00 20.00    -0.302 OA
ENDBRANCH   2   8
TORSDOF 2
ENDMDL
MODEL 8
REMARK VINA RESULT:      -3.9      1.540      2.465
REMARK  2 active torsions:
REMARK  status: ('A' for Active; 'I' for Inactive)
REMARK    1  A    between atoms: C1_1  and  C8_8 
REMARK    2  A    between atoms: C2_2  and  C3_3 
ROOT
HETATM    1  C1  UNL     1     -33.309  16.363  -2.904  1.00 20.00    -0.009 C 
HETATM    2  C3  UNL     1     -33.961  15.394  -3.576  1.00 20.00    -0.027 C 
HETATM    3  C4  UNL     1     -35.424  15.092  -3.603  1.00 20.00     0.051 C 
ENDROOT
BRANCH   1   4
HETATM    4  C8  UNL     1     -33.845  17.421  -1.944  1.00 20.00    -0.033 C 
HETATM    5  C5  UNL     1     -34.471  18.560  -2.783  1.00 20.00     0.018 C 
HETATM    6  C6  UNL     1     -34.954  16.842  -1.048  1.00 20.00     0.018 C 
HETATM    7  C7  UNL     1     -32.730  18.047  -1.089  1.00 20.00     0.018 C 
ENDBRANCH   1   4
BRANCH   2   8
HETATM    8  C2  UNL     1     -33.100  14.512  -4.418  1.00 20.00     0.265 C 
HETATM    9  O9  UNL     1     -33.065  13.293  -4.291  1.00 20.00    -0.302 OA
ENDBRANCH   2   8
TORSDOF 2
ENDMDL
MODEL 9
REMARK VINA RESULT:      -3.9      9.941     12.080
REMARK  2 active torsions:
REMARK  status: ('A' for Active; 'I' for Inactive)
REMARK    1  A    between atoms: C1_1  and  C8_8 
REMARK    2  A    between atoms: C2_2  and  C3_3 
ROOT
HETATM    1  C1  UNL     1     -41.429   7.087  -0.301  1.00 20.00    -0.009 C 
HETATM    2  C3  UNL     1     -41.993   8.220   0.160  1.00 20.00    -0.027 C 
HETATM    3  C4  UNL     1     -43.416   8.474   0.539  1.00 20.00     0.051 C 
ENDROOT
BRANCH   1   4
HETATM    4  C8  UNL     1     -42.061   5.733  -0.610  1.00 20.00    -0.033 C 
HETATM    5  C5  UNL     1     -40.984   4.837  -1.266  1.00 20.00     0.018 C 
HETATM    6  C6  UNL     1     -42.524   5.033   0.679  1.00 20.00     0.018 C 
HETATM    7  C7  UNL     1     -43.225   5.851  -1.609  1.00 20.00     0.018 C 
ENDBRANCH   1   4
BRANCH   2   8
HETATM    8  C2  UNL     1     -41.062   9.376   0.324  1.00 20.00     0.265 C 
HETATM    9  O9  UNL     1     -41.442  10.540   0.373  1.00 20.00    -0.302 OA
ENDBRANCH   2   8
TORSDOF 2
ENDMDL
