MODEL 1
REMARK VINA RESULT:      -4.6      0.000      0.000
REMARK  0 active torsions:
REMARK  status: ('A' for Active; 'I' for Inactive)
ROOT
HETATM    1  C1  UNL     1     -33.491   7.089   5.024  1.00 20.00     0.149 C 
HETATM    2  C2  UNL     1     -33.445   6.488   3.828  1.00 20.00     0.010 C 
HETATM    3  C3  UNL     1     -34.222   5.238   3.548  1.00 20.00     0.050 C 
HETATM    4  C4  UNL     1     -35.265   5.003   4.639  1.00 20.00     0.032 C 
HETATM    5  C5  UNL     1     -34.664   5.295   6.010  1.00 20.00     0.174 C 
HETATM    6  O6  UNL     1     -34.180   6.641   6.122  1.00 20.00    -0.362 OA
HETATM    7 BR7  UNL     1     -32.462   7.175   2.402  1.00 20.00    -0.054 Br
ENDROOT
TORSDOF 0
ENDMDL
MODEL 2
REMARK VINA RESULT:      -4.6      1.256      1.943
REMARK  0 active torsions:
REMARK  status: ('A' for Active; 'I' for Inactive)
ROOT
HETATM    1  C1  UNL     1     -33.910   5.024   3.344  1.00 20.00     0.149 C 
HETATM    2  C2  UNL     1     -33.480   6.275   3.558  1.00 20.00     0.010 C 
HETATM    3  C3  UNL     1     -33.746   6.986   4.849  1.00 20.00     0.050 C 
HETATM    4  C4  UNL     1     -34.219   5.997   5.914  1.00 20.00     0.032 C 
HETATM    5  C5  UNL     1     -35.214   5.013   5.309  1.00 20.00     0.174 C 
HETATM    6  O6  UNL     1     -34.659   4.273   4.214  1.00 20.00    -0.362 OA
HETATM    7 BR7  UNL     1     -32.477   7.215   2.299  1.00 20.00    -0.054 Br
ENDROOT
TORSDOF 0
ENDMDL
MODEL 3
REMARK VINA RESULT:      -3.5      2.418      3.070
REMARK  0 active torsions:
REMARK  status: ('A' for Active; 'I' for Inactive)
ROOT
HETATM    1  C1  UNL     1     -33.061   6.997   4.568  1.00 20.00     0.149 C 
HETATM    2  C2  UNL     1     -33.929   5.976   4.541  1.00 20.00     0.010 C 
HETATM    3  C3  UNL     1     -34.123   5.143   3.311  1.00 20.00     0.050 C 
HETATM    4  C4  UNL     1     -32.996   5.400   2.311  1.00 20.00     0.032 C 
HETATM    5  C5  UNL     1     -32.688   6.892   2.241  1.00 20.00     0.174 C 
HETATM    6  O6  UNL     1     -32.303   7.433   3.511  1.00 20.00    -0.362 OA
HETATM    7 BR7  UNL     1     -34.923   5.472   6.034  1.00 20.00    -0.054 Br
ENDROOT
TORSDOF 0
ENDMDL
MODEL 4
REMARK VINA RESULT:      -3.5     16.543     17.104
REMARK  0 active torsions:
REMARK  status: ('A' for Active; 'I' for Inactive)
ROOT
HETATM    1  C1  UNL     1     -23.903  18.380   8.380  1.00 20.00     0.149 C 
HETATM    2  C2  UNL     1     -23.760  18.170   9.695  1.00 20.00     0.010 C 
HETATM    3  C3  UNL     1     -22.456  17.721  10.281  1.00 20.00     0.050 C 
HETATM    4  C4  UNL     1     -21.329  17.890   9.263  1.00 20.00     0.032 C 
HETATM    5  C5  UNL     1     -21.797  17.440   7.884  1.00 20.00     0.174 C 
HETATM    6  O6  UNL     1     -22.940  18.174   7.425  1.00 20.00    -0.362 OA
HETATM    7 BR7  UNL     1     -25.141  18.468  10.910  1.00 20.00    -0.054 Br
ENDROOT
TORSDOF 0
ENDMDL
MODEL 5
REMARK VINA RESULT:      -3.4     16.210     16.617
REMARK  0 active torsions:
REMARK  status: ('A' for Active; 'I' for Inactive)
ROOT
HETATM    1  C1  UNL     1     -23.523  16.817  10.153  1.00 20.00     0.149 C 
HETATM    2  C2  UNL     1     -24.243  17.939  10.288  1.00 20.00     0.010 C 
HETATM    3  C3  UNL     1     -24.250  19.000   9.230  1.00 20.00     0.050 C 
HETATM    4  C4  UNL     1     -23.648  18.462   7.933  1.00 20.00     0.032 C 
HETATM    5  C5  UNL     1     -22.409  17.627   8.238  1.00 20.00     0.174 C 
HETATM    6  O6  UNL     1     -22.691  16.519   9.103  1.00 20.00    -0.362 OA
HETATM    7 BR7  UNL     1     -25.334  18.253  11.766  1.00 20.00    -0.054 Br
ENDROOT
TORSDOF 0
ENDMDL
MODEL 6
REMARK VINA RESULT:      -3.4     16.507     17.141
REMARK  0 active torsions:
REMARK  status: ('A' for Active; 'I' for Inactive)
ROOT
HETATM    1  C1  UNL     1     -23.418  17.996  12.238  1.00 20.00     0.149 C 
HETATM    2  C2  UNL     1     -24.487  18.039  11.432  1.00 20.00     0.010 C 
HETATM    3  C3  UNL     1     -24.380  17.741   9.968  1.00 20.00     0.050 C 
HETATM    4  C4  UNL     1     -23.038  17.078   9.657  1.00 20.00     0.032 C 
HETATM    5  C5  UNL     1     -21.921  17.771  10.429  1.00 20.00     0.174 C 
HETATM    6  O6  UNL     1     -22.129  17.736  11.847  1.00 20.00    -0.362 OA
HETATM    7 BR7  UNL     1     -26.199  18.418  12.065  1.00 20.00    -0.054 Br
ENDROOT
TORSDOF 0
ENDMDL
MODEL 7
REMARK VINA RESULT:      -3.4     16.603     17.042
REMARK  0 active torsions:
REMARK  status: ('A' for Active; 'I' for Inactive)
ROOT
HETATM    1  C1  UNL     1     -22.798  18.235   9.932  1.00 20.00     0.149 C 
HETATM    2  C2  UNL     1     -24.123  18.412   9.845  1.00 20.00     0.010 C 
HETATM    3  C3  UNL     1     -25.022  18.206  11.026  1.00 20.00     0.050 C 
HETATM    4  C4  UNL     1     -24.202  18.131  12.313  1.00 20.00     0.032 C 
HETATM    5  C5  UNL     1     -22.951  17.289  12.088  1.00 20.00     0.174 C 
HETATM    6  O6  UNL     1     -22.117  17.811  11.045  1.00 20.00    -0.362 OA
HETATM    7 BR7  UNL     1     -24.954  18.979   8.276  1.00 20.00    -0.054 Br
ENDROOT
TORSDOF 0
ENDMDL
MODEL 8
REMARK VINA RESULT:      -3.3     15.795     16.873
REMARK  0 active torsions:
REMARK  status: ('A' for Active; 'I' for Inactive)
ROOT
HETATM    1  C1  UNL     1     -23.910  16.664  10.123  1.00 20.00     0.149 C 
HETATM    2  C2  UNL     1     -22.762  17.309   9.877  1.00 20.00     0.010 C 
HETATM    3  C3  UNL     1     -22.025  18.040  10.957  1.00 20.00     0.050 C 
HETATM    4  C4  UNL     1     -22.563  17.643  12.331  1.00 20.00     0.032 C 
HETATM    5  C5  UNL     1     -24.086  17.568  12.295  1.00 20.00     0.174 C 
HETATM    6  O6  UNL     1     -24.567  16.626  11.327  1.00 20.00    -0.362 OA
HETATM    7 BR7  UNL     1     -21.958  17.310   8.195  1.00 20.00    -0.054 Br
ENDROOT
TORSDOF 0
ENDMDL
MODEL 9
REMARK VINA RESULT:      -3.3     15.643     16.141
REMARK  0 active torsions:
REMARK  status: ('A' for Active; 'I' for Inactive)
ROOT
HETATM    1  C1  UNL     1     -23.933  16.976  10.252  1.00 20.00     0.149 C 
HETATM    2  C2  UNL     1     -24.522  18.162  10.048  1.00 20.00     0.010 C 
HETATM    3  C3  UNL     1     -25.526  18.716  11.013  1.00 20.00     0.050 C 
HETATM    4  C4  UNL     1     -25.484  17.940  12.328  1.00 20.00     0.032 C 
HETATM    5  C5  UNL     1     -25.362  16.446  12.052  1.00 20.00     0.174 C 
HETATM    6  O6  UNL     1     -24.190  16.121  11.293  1.00 20.00    -0.362 OA
HETATM    7 BR7  UNL     1     -24.109  19.245   8.588  1.00 20.00    -0.054 Br
ENDROOT
TORSDOF 0
ENDMDL
