MODEL 1
REMARK VINA RESULT:      -5.1      0.000      0.000
REMARK  3 active torsions:
REMARK  status: ('A' for Active; 'I' for Inactive)
REMARK    1  A    between atoms: C1_1  and  C5_5 
REMARK    2  A    between atoms: C6_6  and  C8_8 
REMARK    3  A    between atoms: C8_8  and  C9_9 
ROOT
HETATM    1  C2  UNL     1     -35.044  16.282  -4.510  1.00 20.00     0.028 C 
HETATM    2  C3  UNL     1     -33.645  14.758  -4.022  1.00 20.00     0.028 C 
HETATM    3  C4  UNL     1     -34.984  15.487  -2.539  1.00 20.00     0.028 C 
HETATM    4  C5  UNL     1     -35.188  14.851  -3.937  1.00 20.00     0.038 C 
HETATM    5  C6  UNL     1     -33.888  16.206  -3.430  1.00 20.00    -0.037 C 
ENDROOT
BRANCH   4   6
HETATM    6  C1  UNL     1     -36.181  13.815  -4.328  1.00 20.00     0.227 C 
HETATM    7  O10 UNL     1     -35.846  12.658  -4.567  1.00 20.00    -0.279 OA
HETATM    8 CL11 UNL     1     -37.797  14.449  -4.392  1.00 20.00    -0.043 Cl
ENDBRANCH   4   6
BRANCH   5   9
HETATM    9  C8  UNL     1     -32.901  17.235  -3.045  1.00 20.00     0.009 C 
BRANCH   9  10
HETATM   10  C9  UNL     1     -33.070  17.715  -1.588  1.00 20.00    -0.004 C 
HETATM   11  C7  UNL     1     -31.790  18.290  -1.001  1.00 20.00     0.005 C 
ENDBRANCH   9  10
ENDBRANCH   5   9
TORSDOF 3
ENDMDL
MODEL 2
REMARK VINA RESULT:      -5.1      0.023      1.106
REMARK  3 active torsions:
REMARK  status: ('A' for Active; 'I' for Inactive)
REMARK    1  A    between atoms: C1_1  and  C5_5 
REMARK    2  A    between atoms: C6_6  and  C8_8 
REMARK    3  A    between atoms: C8_8  and  C9_9 
ROOT
HETATM    1  C2  UNL     1     -34.983  15.505  -2.541  1.00 20.00     0.028 C 
HETATM    2  C3  UNL     1     -35.013  16.286  -4.518  1.00 20.00     0.028 C 
HETATM    3  C4  UNL     1     -33.634  14.752  -4.002  1.00 20.00     0.028 C 
HETATM    4  C5  UNL     1     -35.178  14.861  -3.936  1.00 20.00     0.038 C 
HETATM    5  C6  UNL     1     -33.872  16.208  -3.423  1.00 20.00    -0.037 C 
ENDROOT
BRANCH   4   6
HETATM    6  C1  UNL     1     -36.179  13.834  -4.327  1.00 20.00     0.227 C 
HETATM    7  O10 UNL     1     -35.852  12.677  -4.580  1.00 20.00    -0.279 OA
HETATM    8 CL11 UNL     1     -37.793  14.475  -4.369  1.00 20.00    -0.043 Cl
ENDBRANCH   4   6
BRANCH   5   9
HETATM    9  C8  UNL     1     -32.879  17.230  -3.035  1.00 20.00     0.009 C 
BRANCH   9  10
HETATM   10  C9  UNL     1     -33.063  17.727  -1.585  1.00 20.00    -0.004 C 
HETATM   11  C7  UNL     1     -31.783  18.286  -0.984  1.00 20.00     0.005 C 
ENDBRANCH   9  10
ENDBRANCH   5   9
TORSDOF 3
ENDMDL
MODEL 3
REMARK VINA RESULT:      -4.6      1.385      1.846
REMARK  3 active torsions:
REMARK  status: ('A' for Active; 'I' for Inactive)
REMARK    1  A    between atoms: C1_1  and  C5_5 
REMARK    2  A    between atoms: C6_6  and  C8_8 
REMARK    3  A    between atoms: C8_8  and  C9_9 
ROOT
HETATM    1  C2  UNL     1     -34.962  15.601  -2.456  1.00 20.00     0.028 C 
HETATM    2  C3  UNL     1     -34.630  17.126  -3.900  1.00 20.00     0.028 C 
HETATM    3  C4  UNL     1     -33.045  15.819  -3.351  1.00 20.00     0.028 C 
HETATM    4  C5  UNL     1     -34.466  15.587  -3.923  1.00 20.00     0.038 C 
HETATM    5  C6  UNL     1     -33.944  16.814  -2.507  1.00 20.00    -0.037 C 
ENDROOT
BRANCH   4   6
HETATM    6  C1  UNL     1     -34.868  14.649  -5.005  1.00 20.00     0.227 C 
HETATM    7  O10 UNL     1     -34.245  14.578  -6.061  1.00 20.00    -0.279 OA
HETATM    8 CL11 UNL     1     -36.272  13.721  -4.578  1.00 20.00    -0.043 Cl
ENDBRANCH   4   6
BRANCH   5   9
HETATM    9  C8  UNL     1     -33.547  17.746  -1.432  1.00 20.00     0.009 C 
BRANCH   9  10
HETATM   10  C9  UNL     1     -32.174  18.403  -1.682  1.00 20.00    -0.004 C 
HETATM   11  C7  UNL     1     -31.249  18.319  -0.478  1.00 20.00     0.005 C 
ENDBRANCH   9  10
ENDBRANCH   5   9
TORSDOF 3
ENDMDL
MODEL 4
REMARK VINA RESULT:      -4.6      1.124      1.349
REMARK  3 active torsions:
REMARK  status: ('A' for Active; 'I' for Inactive)
REMARK    1  A    between atoms: C1_1  and  C5_5 
REMARK    2  A    between atoms: C6_6  and  C8_8 
REMARK    3  A    between atoms: C8_8  and  C9_9 
ROOT
HETATM    1  C2  UNL     1     -34.914  17.027  -3.781  1.00 20.00     0.028 C 
HETATM    2  C3  UNL     1     -33.187  16.066  -2.996  1.00 20.00     0.028 C 
HETATM    3  C4  UNL     1     -34.991  16.097  -1.870  1.00 20.00     0.028 C 
HETATM    4  C5  UNL     1     -34.630  15.587  -3.288  1.00 20.00     0.038 C 
HETATM    5  C6  UNL     1     -34.080  17.255  -2.453  1.00 20.00    -0.037 C 
ENDROOT
BRANCH   4   6
HETATM    6  C1  UNL     1     -35.049  14.312  -3.928  1.00 20.00     0.227 C 
HETATM    7  O10 UNL     1     -34.247  13.409  -4.153  1.00 20.00    -0.279 OA
HETATM    8 CL11 UNL     1     -36.748  14.289  -4.292  1.00 20.00    -0.043 Cl
ENDBRANCH   4   6
BRANCH   5   9
HETATM    9  C8  UNL     1     -33.663  18.522  -1.819  1.00 20.00     0.009 C 
BRANCH   9  10
HETATM   10  C9  UNL     1     -32.926  18.310  -0.480  1.00 20.00    -0.004 C 
HETATM   11  C7  UNL     1     -31.412  18.360  -0.623  1.00 20.00     0.005 C 
ENDBRANCH   9  10
ENDBRANCH   5   9
TORSDOF 3
ENDMDL
MODEL 5
REMARK VINA RESULT:      -4.4      2.169      2.439
REMARK  3 active torsions:
REMARK  status: ('A' for Active; 'I' for Inactive)
REMARK    1  A    between atoms: C1_1  and  C5_5 
REMARK    2  A    between atoms: C6_6  and  C8_8 
REMARK    3  A    between atoms: C8_8  and  C9_9 
ROOT
HETATM    1  C2  UNL     1     -34.886  16.843  -4.312  1.00 20.00     0.028 C 
HETATM    2  C3  UNL     1     -33.349  15.437  -3.885  1.00 20.00     0.028 C 
HETATM    3  C4  UNL     1     -35.343  15.058  -3.250  1.00 20.00     0.028 C 
HETATM    4  C5  UNL     1     -34.702  15.339  -4.632  1.00 20.00     0.038 C 
HETATM    5  C6  UNL     1     -34.339  16.246  -2.950  1.00 20.00    -0.037 C 
ENDROOT
BRANCH   4   6
HETATM    6  C1  UNL     1     -34.977  14.647  -5.919  1.00 20.00     0.227 C 
HETATM    7  O10 UNL     1     -35.935  13.890  -6.052  1.00 20.00    -0.279 OA
HETATM    8 CL11 UNL     1     -33.808  15.047  -7.140  1.00 20.00    -0.043 Cl
ENDBRANCH   4   6
BRANCH   5   9
HETATM    9  C8  UNL     1     -34.063  16.935  -1.673  1.00 20.00     0.009 C 
BRANCH   9  10
HETATM   10  C9  UNL     1     -35.263  16.909  -0.704  1.00 20.00    -0.004 C 
HETATM   11  C7  UNL     1     -36.305  17.970  -1.023  1.00 20.00     0.005 C 
ENDBRANCH   9  10
ENDBRANCH   5   9
TORSDOF 3
ENDMDL
MODEL 6
REMARK VINA RESULT:      -4.4     17.441     18.143
REMARK  3 active torsions:
REMARK  status: ('A' for Active; 'I' for Inactive)
REMARK    1  A    between atoms: C1_1  and  C5_5 
REMARK    2  A    between atoms: C6_6  and  C8_8 
REMARK    3  A    between atoms: C8_8  and  C9_9 
ROOT
HETATM    1  C2  UNL     1     -23.128  17.924  11.687  1.00 20.00     0.028 C 
HETATM    2  C3  UNL     1     -23.965  16.533  10.314  1.00 20.00     0.028 C 
HETATM    3  C4  UNL     1     -24.535  18.580  10.235  1.00 20.00     0.028 C 
HETATM    4  C5  UNL     1     -23.172  17.852  10.141  1.00 20.00     0.038 C 
HETATM    5  C6  UNL     1     -24.622  17.495  11.386  1.00 20.00    -0.037 C 
ENDROOT
BRANCH   4   6
HETATM    6  C1  UNL     1     -22.061  18.123   9.191  1.00 20.00     0.227 C 
HETATM    7  O10 UNL     1     -21.655  19.263   8.980  1.00 20.00    -0.279 OA
HETATM    8 CL11 UNL     1     -21.453  16.667   8.463  1.00 20.00    -0.043 Cl
ENDBRANCH   4   6
BRANCH   5   9
HETATM    9  C8  UNL     1     -25.725  17.224  12.332  1.00 20.00     0.009 C 
BRANCH   9  10
HETATM   10  C9  UNL     1     -26.880  18.240  12.216  1.00 20.00    -0.004 C 
HETATM   11  C7  UNL     1     -28.250  17.581  12.208  1.00 20.00     0.005 C 
ENDBRANCH   9  10
ENDBRANCH   5   9
TORSDOF 3
ENDMDL
MODEL 7
REMARK VINA RESULT:      -4.4     10.707     11.403
REMARK  3 active torsions:
REMARK  status: ('A' for Active; 'I' for Inactive)
REMARK    1  A    between atoms: C1_1  and  C5_5 
REMARK    2  A    between atoms: C6_6  and  C8_8 
REMARK    3  A    between atoms: C8_8  and  C9_9 
ROOT
HETATM    1  C2  UNL     1     -34.292   7.189   2.778  1.00 20.00     0.028 C 
HETATM    2  C3  UNL     1     -32.979   5.534   2.530  1.00 20.00     0.028 C 
HETATM    3  C4  UNL     1     -32.546   7.028   3.980  1.00 20.00     0.028 C 
HETATM    4  C5  UNL     1     -33.761   6.099   3.742  1.00 20.00     0.038 C 
HETATM    5  C6  UNL     1     -32.754   7.097   2.411  1.00 20.00    -0.037 C 
ENDROOT
BRANCH   4   6
HETATM    6  C1  UNL     1     -34.534   5.334   4.756  1.00 20.00     0.227 C 
HETATM    7  O10 UNL     1     -35.100   4.281   4.477  1.00 20.00    -0.279 OA
HETATM    8 CL11 UNL     1     -34.517   6.109   6.311  1.00 20.00    -0.043 Cl
ENDBRANCH   4   6
BRANCH   5   9
HETATM    9  C8  UNL     1     -31.988   7.855   1.401  1.00 20.00     0.009 C 
BRANCH   9  10
HETATM   10  C9  UNL     1     -32.776   9.047   0.818  1.00 20.00    -0.004 C 
HETATM   11  C7  UNL     1     -33.509   8.699  -0.469  1.00 20.00     0.005 C 
ENDBRANCH   9  10
ENDBRANCH   5   9
TORSDOF 3
ENDMDL
MODEL 8
REMARK VINA RESULT:      -4.3      3.233      4.930
REMARK  3 active torsions:
REMARK  status: ('A' for Active; 'I' for Inactive)
REMARK    1  A    between atoms: C1_1  and  C5_5 
REMARK    2  A    between atoms: C6_6  and  C8_8 
REMARK    3  A    between atoms: C8_8  and  C9_9 
ROOT
HETATM    1  C2  UNL     1     -34.461  15.969  -2.260  1.00 20.00     0.028 C 
HETATM    2  C3  UNL     1     -32.927  15.460  -3.641  1.00 20.00     0.028 C 
HETATM    3  C4  UNL     1     -34.602  16.600  -4.286  1.00 20.00     0.028 C 
HETATM    4  C5  UNL     1     -33.538  16.806  -3.180  1.00 20.00     0.038 C 
HETATM    5  C6  UNL     1     -34.482  15.165  -3.624  1.00 20.00    -0.037 C 
ENDROOT
BRANCH   4   6
HETATM    6  C1  UNL     1     -32.814  18.059  -2.838  1.00 20.00     0.227 C 
HETATM    7  O10 UNL     1     -32.625  18.942  -3.670  1.00 20.00    -0.279 OA
HETATM    8 CL11 UNL     1     -32.304  18.087  -1.177  1.00 20.00    -0.043 Cl
ENDBRANCH   4   6
BRANCH   5   9
HETATM    9  C8  UNL     1     -35.200  13.919  -3.962  1.00 20.00     0.009 C 
BRANCH   9  10
HETATM   10  C9  UNL     1     -36.342  14.138  -4.976  1.00 20.00    -0.004 C 
HETATM   11  C7  UNL     1     -37.656  14.523  -4.314  1.00 20.00     0.005 C 
ENDBRANCH   9  10
ENDBRANCH   5   9
TORSDOF 3
ENDMDL
MODEL 9
REMARK VINA RESULT:      -4.3      1.405      1.613
REMARK  3 active torsions:
REMARK  status: ('A' for Active; 'I' for Inactive)
REMARK    1  A    between atoms: C1_1  and  C5_5 
REMARK    2  A    between atoms: C6_6  and  C8_8 
REMARK    3  A    between atoms: C8_8  and  C9_9 
ROOT
HETATM    1  C2  UNL     1     -35.303  15.937  -4.856  1.00 20.00     0.028 C 
HETATM    2  C3  UNL     1     -35.142  14.144  -3.724  1.00 20.00     0.028 C 
HETATM    3  C4  UNL     1     -35.751  15.948  -2.778  1.00 20.00     0.028 C 
HETATM    4  C5  UNL     1     -36.300  15.140  -3.979  1.00 20.00     0.038 C 
HETATM    5  C6  UNL     1     -34.443  15.558  -3.581  1.00 20.00    -0.037 C 
ENDROOT
BRANCH   4   6
HETATM    6  C1  UNL     1     -37.719  14.819  -4.287  1.00 20.00     0.227 C 
HETATM    7  O10 UNL     1     -38.127  13.660  -4.313  1.00 20.00    -0.279 OA
HETATM    8 CL11 UNL     1     -38.663  16.246  -4.586  1.00 20.00    -0.043 Cl
ENDBRANCH   4   6
BRANCH   5   9
HETATM    9  C8  UNL     1     -33.032  15.876  -3.278  1.00 20.00     0.009 C 
BRANCH   9  10
HETATM   10  C9  UNL     1     -32.872  17.157  -2.434  1.00 20.00    -0.004 C 
HETATM   11  C7  UNL     1     -32.687  18.406  -3.281  1.00 20.00     0.005 C 
ENDBRANCH   9  10
ENDBRANCH   5   9
TORSDOF 3
ENDMDL
