MODEL 1
REMARK VINA RESULT:      -3.9      0.000      0.000
REMARK  2 active torsions:
REMARK  status: ('A' for Active; 'I' for Inactive)
REMARK    1  A    between atoms: C2_2  and  C6_6 
REMARK    2  A    between atoms: C3_3  and  C7_7 
ROOT
HETATM    1  C1  UNL     1     -23.502  17.453  12.140  1.00 20.00     0.100 A 
HETATM    2  C2  UNL     1     -24.800  17.596  11.385  1.00 20.00     0.089 A 
HETATM    3  C3  UNL     1     -22.560  18.182  10.221  1.00 20.00     0.168 A 
HETATM    4  N8  UNL     1     -22.354  17.735  11.609  1.00 20.00    -0.289 NA
HETATM    5  S9  UNL     1     -24.302  18.092   9.727  1.00 20.00    -0.132 SA
ENDROOT
BRANCH   2   6
HETATM    6  C6  UNL     1     -25.674  18.652  12.039  1.00 20.00     0.016 C 
HETATM    7  C4  UNL     1     -27.086  18.184  12.210  1.00 20.00     0.006 C 
ENDBRANCH   2   6
BRANCH   3   8
HETATM    8  C7  UNL     1     -21.712  17.315   9.301  1.00 20.00     0.033 C 
HETATM    9  C5  UNL     1     -22.062  17.520   7.862  1.00 20.00     0.008 C 
ENDBRANCH   3   8
TORSDOF 2
ENDMDL
MODEL 2
REMARK VINA RESULT:      -3.7      2.151      3.010
REMARK  2 active torsions:
REMARK  status: ('A' for Active; 'I' for Inactive)
REMARK    1  A    between atoms: C2_2  and  C6_6 
REMARK    2  A    between atoms: C3_3  and  C7_7 
ROOT
HETATM    1  C1  UNL     1     -22.911  16.919   9.566  1.00 20.00     0.100 A 
HETATM    2  C2  UNL     1     -24.084  17.025  10.508  1.00 20.00     0.089 A 
HETATM    3  C3  UNL     1     -23.637  18.911   8.787  1.00 20.00     0.168 A 
HETATM    4  N8  UNL     1     -22.637  17.833   8.689  1.00 20.00    -0.289 NA
HETATM    5  S9  UNL     1     -24.922  18.541  10.010  1.00 20.00    -0.132 SA
ENDROOT
BRANCH   2   6
HETATM    6  C6  UNL     1     -23.599  17.108  11.945  1.00 20.00     0.016 C 
HETATM    7  C4  UNL     1     -22.235  17.719  12.041  1.00 20.00     0.006 C 
ENDBRANCH   2   6
BRANCH   3   8
HETATM    8  C7  UNL     1     -24.266  19.115   7.416  1.00 20.00     0.033 C 
HETATM    9  C5  UNL     1     -25.753  18.965   7.457  1.00 20.00     0.008 C 
ENDBRANCH   3   8
TORSDOF 2
ENDMDL
MODEL 3
REMARK VINA RESULT:      -3.7     16.614     17.409
REMARK  2 active torsions:
REMARK  status: ('A' for Active; 'I' for Inactive)
REMARK    1  A    between atoms: C2_2  and  C6_6 
REMARK    2  A    between atoms: C3_3  and  C7_7 
ROOT
HETATM    1  C1  UNL     1     -32.996   4.935   2.555  1.00 20.00     0.100 A 
HETATM    2  C2  UNL     1     -32.528   6.362   2.705  1.00 20.00     0.089 A 
HETATM    3  C3  UNL     1     -34.664   5.567   3.940  1.00 20.00     0.168 A 
HETATM    4  N8  UNL     1     -34.058   4.485   3.145  1.00 20.00    -0.289 NA
HETATM    5  S9  UNL     1     -33.679   7.087   3.887  1.00 20.00    -0.132 SA
ENDROOT
BRANCH   2   6
HETATM    6  C6  UNL     1     -32.585   7.077   1.367  1.00 20.00     0.016 C 
HETATM    7  C4  UNL     1     -32.811   8.549   1.527  1.00 20.00     0.006 C 
ENDBRANCH   2   6
BRANCH   3   8
HETATM    8  C7  UNL     1     -34.808   5.090   5.379  1.00 20.00     0.033 C 
HETATM    9  C5  UNL     1     -34.377   6.134   6.358  1.00 20.00     0.008 C 
ENDBRANCH   3   8
TORSDOF 2
ENDMDL
MODEL 4
REMARK VINA RESULT:      -3.6     19.379     20.199
REMARK  2 active torsions:
REMARK  status: ('A' for Active; 'I' for Inactive)
REMARK    1  A    between atoms: C2_2  and  C6_6 
REMARK    2  A    between atoms: C3_3  and  C7_7 
ROOT
HETATM    1  C1  UNL     1     -36.310  14.196  -4.537  1.00 20.00     0.100 A 
HETATM    2  C2  UNL     1     -35.908  15.561  -4.033  1.00 20.00     0.089 A 
HETATM    3  C3  UNL     1     -35.201  14.802  -6.409  1.00 20.00     0.168 A 
HETATM    4  N8  UNL     1     -35.982  13.764  -5.713  1.00 20.00    -0.289 NA
HETATM    5  S9  UNL     1     -35.060  16.320  -5.430  1.00 20.00    -0.132 SA
ENDROOT
BRANCH   2   6
HETATM    6  C6  UNL     1     -34.988  15.427  -2.833  1.00 20.00     0.016 C 
HETATM    7  C4  UNL     1     -33.595  15.882  -3.142  1.00 20.00     0.006 C 
ENDBRANCH   2   6
BRANCH   3   8
HETATM    8  C7  UNL     1     -35.873  15.102  -7.742  1.00 20.00     0.033 C 
HETATM    9  C5  UNL     1     -36.768  16.296  -7.658  1.00 20.00     0.008 C 
ENDBRANCH   3   8
TORSDOF 2
ENDMDL
MODEL 5
REMARK VINA RESULT:      -3.5     16.587     17.079
REMARK  2 active torsions:
REMARK  status: ('A' for Active; 'I' for Inactive)
REMARK    1  A    between atoms: C2_2  and  C6_6 
REMARK    2  A    between atoms: C3_3  and  C7_7 
ROOT
HETATM    1  C1  UNL     1     -34.013   4.575   3.103  1.00 20.00     0.100 A 
HETATM    2  C2  UNL     1     -34.768   5.552   3.969  1.00 20.00     0.089 A 
HETATM    3  C3  UNL     1     -32.601   6.304   2.763  1.00 20.00     0.168 A 
HETATM    4  N8  UNL     1     -32.923   4.895   2.480  1.00 20.00    -0.289 NA
HETATM    5  S9  UNL     1     -33.867   7.101   3.786  1.00 20.00    -0.132 SA
ENDROOT
BRANCH   2   6
HETATM    6  C6  UNL     1     -34.770   5.081   5.413  1.00 20.00     0.016 C 
HETATM    7  C4  UNL     1     -34.343   6.163   6.356  1.00 20.00     0.006 C 
ENDBRANCH   2   6
BRANCH   3   8
HETATM    8  C7  UNL     1     -32.457   7.044   1.441  1.00 20.00     0.033 C 
HETATM    9  C5  UNL     1     -32.852   8.481   1.561  1.00 20.00     0.008 C 
ENDBRANCH   3   8
TORSDOF 2
ENDMDL
MODEL 6
REMARK VINA RESULT:      -3.4     23.928     24.927
REMARK  2 active torsions:
REMARK  status: ('A' for Active; 'I' for Inactive)
REMARK    1  A    between atoms: C2_2  and  C6_6 
REMARK    2  A    between atoms: C3_3  and  C7_7 
ROOT
HETATM    1  C1  UNL     1     -40.827   5.644  -0.320  1.00 20.00     0.100 A 
HETATM    2  C2  UNL     1     -41.860   6.286   0.573  1.00 20.00     0.089 A 
HETATM    3  C3  UNL     1     -42.568   5.297  -1.717  1.00 20.00     0.168 A 
HETATM    4  N8  UNL     1     -41.123   5.138  -1.475  1.00 20.00    -0.289 NA
HETATM    5  S9  UNL     1     -43.417   6.046  -0.301  1.00 20.00    -0.132 SA
ENDROOT
BRANCH   2   6
HETATM    6  C6  UNL     1     -41.552   7.761   0.757  1.00 20.00     0.016 C 
HETATM    7  C4  UNL     1     -41.300   8.449  -0.549  1.00 20.00     0.006 C 
ENDBRANCH   2   6
BRANCH   3   8
HETATM    8  C7  UNL     1     -43.163   3.929  -2.018  1.00 20.00     0.033 C 
HETATM    9  C5  UNL     1     -42.323   3.156  -2.983  1.00 20.00     0.008 C 
ENDBRANCH   3   8
TORSDOF 2
ENDMDL
MODEL 7
REMARK VINA RESULT:      -3.4     18.954     19.915
REMARK  2 active torsions:
REMARK  status: ('A' for Active; 'I' for Inactive)
REMARK    1  A    between atoms: C2_2  and  C6_6 
REMARK    2  A    between atoms: C3_3  and  C7_7 
ROOT
HETATM    1  C1  UNL     1     -35.659  13.675  -4.232  1.00 20.00     0.100 A 
HETATM    2  C2  UNL     1     -35.133  14.840  -3.430  1.00 20.00     0.089 A 
HETATM    3  C3  UNL     1     -37.369  15.067  -4.720  1.00 20.00     0.168 A 
HETATM    4  N8  UNL     1     -36.768  13.734  -4.899  1.00 20.00    -0.289 NA
HETATM    5  S9  UNL     1     -36.412  16.100  -3.579  1.00 20.00    -0.132 SA
ENDROOT
BRANCH   2   6
HETATM    6  C6  UNL     1     -33.813  15.320  -4.006  1.00 20.00     0.016 C 
HETATM    7  C4  UNL     1     -33.141  16.318  -3.113  1.00 20.00     0.006 C 
ENDBRANCH   2   6
BRANCH   3   8
HETATM    8  C7  UNL     1     -38.789  14.893  -4.199  1.00 20.00     0.033 C 
HETATM    9  C5  UNL     1     -39.416  16.203  -3.844  1.00 20.00     0.008 C 
ENDBRANCH   3   8
TORSDOF 2
ENDMDL
MODEL 8
REMARK VINA RESULT:      -3.4     23.882     24.989
REMARK  2 active torsions:
REMARK  status: ('A' for Active; 'I' for Inactive)
REMARK    1  A    between atoms: C2_2  and  C6_6 
REMARK    2  A    between atoms: C3_3  and  C7_7 
ROOT
HETATM    1  C1  UNL     1     -41.270   5.221  -1.244  1.00 20.00     0.100 A 
HETATM    2  C2  UNL     1     -42.706   5.396  -1.674  1.00 20.00     0.089 A 
HETATM    3  C3  UNL     1     -41.874   6.494   0.522  1.00 20.00     0.168 A 
HETATM    4  N8  UNL     1     -40.801   5.744  -0.155  1.00 20.00    -0.289 NA
HETATM    5  S9  UNL     1     -43.413   6.497  -0.435  1.00 20.00    -0.132 SA
ENDROOT
BRANCH   2   6
HETATM    6  C6  UNL     1     -43.415   4.053  -1.690  1.00 20.00     0.016 C 
HETATM    7  C4  UNL     1     -42.879   3.148  -2.755  1.00 20.00     0.006 C 
ENDBRANCH   2   6
BRANCH   3   8
HETATM    8  C7  UNL     1     -41.399   7.922   0.750  1.00 20.00     0.033 C 
HETATM    9  C5  UNL     1     -42.189   8.906  -0.050  1.00 20.00     0.008 C 
ENDBRANCH   3   8
TORSDOF 2
ENDMDL
MODEL 9
REMARK VINA RESULT:      -3.3     17.928     18.706
REMARK  2 active torsions:
REMARK  status: ('A' for Active; 'I' for Inactive)
REMARK    1  A    between atoms: C2_2  and  C6_6 
REMARK    2  A    between atoms: C3_3  and  C7_7 
ROOT
HETATM    1  C1  UNL     1     -33.925  16.974  -4.059  1.00 20.00     0.100 A 
HETATM    2  C2  UNL     1     -33.955  15.789  -3.125  1.00 20.00     0.089 A 
HETATM    3  C3  UNL     1     -34.771  15.524  -5.571  1.00 20.00     0.168 A 
HETATM    4  N8  UNL     1     -34.325  16.900  -5.289  1.00 20.00    -0.289 NA
HETATM    5  S9  UNL     1     -34.523  14.423  -4.153  1.00 20.00    -0.132 SA
ENDROOT
BRANCH   2   6
HETATM    6  C6  UNL     1     -34.913  16.051  -1.975  1.00 20.00     0.016 C 
HETATM    7  C4  UNL     1     -34.545  17.283  -1.208  1.00 20.00     0.006 C 
ENDBRANCH   2   6
BRANCH   3   8
HETATM    8  C7  UNL     1     -34.004  15.002  -6.777  1.00 20.00     0.033 C 
HETATM    9  C5  UNL     1     -34.031  15.969  -7.917  1.00 20.00     0.008 C 
ENDBRANCH   3   8
TORSDOF 2
ENDMDL
