MODEL 1
REMARK VINA RESULT:      -4.9      0.000      0.000
REMARK  1 active torsions:
REMARK  status: ('A' for Active; 'I' for Inactive)
REMARK    1  A    between atoms: C3_3  and  C6_6 
ROOT
HETATM    1  C1  UNL     1     -34.016   6.198   6.137  1.00 20.00    -0.030 C 
HETATM    2  C2  UNL     1     -34.828   5.201   5.777  1.00 20.00    -0.030 C 
HETATM    3  C4  UNL     1     -33.682   7.092   4.990  1.00 20.00     0.038 C 
HETATM    4  C5  UNL     1     -35.178   5.259   4.327  1.00 20.00     0.038 C 
HETATM    5  C6  UNL     1     -34.250   6.346   3.782  1.00 20.00     0.054 C 
ENDROOT
BRANCH   5   6
HETATM    6  C3  UNL     1     -33.135   5.737   2.982  1.00 20.00     0.236 C 
HETATM    7  O7  UNL     1     -33.201   4.625   2.469  1.00 20.00    -0.306 OA
ENDBRANCH   5   6
TORSDOF 1
ENDMDL
MODEL 2
REMARK VINA RESULT:      -4.5      1.234      1.273
REMARK  1 active torsions:
REMARK  status: ('A' for Active; 'I' for Inactive)
REMARK    1  A    between atoms: C3_3  and  C6_6 
ROOT
HETATM    1  C1  UNL     1     -34.553   5.496   6.021  1.00 20.00    -0.030 C 
HETATM    2  C2  UNL     1     -35.095   4.822   5.003  1.00 20.00    -0.030 C 
HETATM    3  C4  UNL     1     -34.049   6.836   5.601  1.00 20.00     0.038 C 
HETATM    4  C5  UNL     1     -35.047   5.597   3.728  1.00 20.00     0.038 C 
HETATM    5  C6  UNL     1     -34.165   6.796   4.077  1.00 20.00     0.054 C 
ENDROOT
BRANCH   5   6
HETATM    6  C3  UNL     1     -32.804   6.648   3.461  1.00 20.00     0.236 C 
HETATM    7  O7  UNL     1     -32.467   7.208   2.423  1.00 20.00    -0.306 OA
ENDBRANCH   5   6
TORSDOF 1
ENDMDL
MODEL 3
REMARK VINA RESULT:      -4.3      1.911      3.029
REMARK  1 active torsions:
REMARK  status: ('A' for Active; 'I' for Inactive)
REMARK    1  A    between atoms: C3_3  and  C6_6 
ROOT
HETATM    1  C1  UNL     1     -34.139   4.237   3.448  1.00 20.00    -0.030 C 
HETATM    2  C2  UNL     1     -33.156   4.853   2.786  1.00 20.00    -0.030 C 
HETATM    3  C4  UNL     1     -35.007   5.200   4.187  1.00 20.00     0.038 C 
HETATM    4  C5  UNL     1     -33.201   6.334   2.967  1.00 20.00     0.038 C 
HETATM    5  C6  UNL     1     -34.257   6.526   4.056  1.00 20.00     0.054 C 
ENDROOT
BRANCH   5   6
HETATM    6  C3  UNL     1     -33.610   6.882   5.363  1.00 20.00     0.236 C 
HETATM    7  O7  UNL     1     -34.142   6.698   6.453  1.00 20.00    -0.306 OA
ENDBRANCH   5   6
TORSDOF 1
ENDMDL
MODEL 4
REMARK VINA RESULT:      -4.2      1.817      3.160
REMARK  1 active torsions:
REMARK  status: ('A' for Active; 'I' for Inactive)
REMARK    1  A    between atoms: C3_3  and  C6_6 
ROOT
HETATM    1  C1  UNL     1     -33.185   4.678   2.887  1.00 20.00    -0.030 C 
HETATM    2  C2  UNL     1     -33.083   6.006   2.792  1.00 20.00    -0.030 C 
HETATM    3  C4  UNL     1     -34.355   4.263   3.716  1.00 20.00     0.038 C 
HETATM    4  C5  UNL     1     -34.168   6.707   3.541  1.00 20.00     0.038 C 
HETATM    5  C6  UNL     1     -34.845   5.579   4.321  1.00 20.00     0.054 C 
ENDROOT
BRANCH   5   6
HETATM    6  C3  UNL     1     -34.476   5.646   5.774  1.00 20.00     0.236 C 
HETATM    7  O7  UNL     1     -33.930   6.616   6.289  1.00 20.00    -0.306 OA
ENDBRANCH   5   6
TORSDOF 1
ENDMDL
MODEL 5
REMARK VINA RESULT:      -3.9      1.770      2.604
REMARK  1 active torsions:
REMARK  status: ('A' for Active; 'I' for Inactive)
REMARK    1  A    between atoms: C3_3  and  C6_6 
ROOT
HETATM    1  C1  UNL     1     -34.407   5.020   3.589  1.00 20.00    -0.030 C 
HETATM    2  C2  UNL     1     -34.429   6.002   4.495  1.00 20.00    -0.030 C 
HETATM    3  C4  UNL     1     -33.256   5.152   2.648  1.00 20.00     0.038 C 
HETATM    4  C5  UNL     1     -33.296   6.956   4.315  1.00 20.00     0.038 C 
HETATM    5  C6  UNL     1     -32.681   6.528   2.982  1.00 20.00     0.054 C 
ENDROOT
BRANCH   5   6
HETATM    6  C3  UNL     1     -33.030   7.508   1.899  1.00 20.00     0.236 C 
HETATM    7  O7  UNL     1     -32.225   7.907   1.064  1.00 20.00    -0.306 OA
ENDBRANCH   5   6
TORSDOF 1
ENDMDL
MODEL 6
REMARK VINA RESULT:      -3.9      8.989      9.415
REMARK  1 active torsions:
REMARK  status: ('A' for Active; 'I' for Inactive)
REMARK    1  A    between atoms: C3_3  and  C6_6 
ROOT
HETATM    1  C1  UNL     1     -41.926   5.995   0.592  1.00 20.00    -0.030 C 
HETATM    2  C2  UNL     1     -41.188   6.028  -0.521  1.00 20.00    -0.030 C 
HETATM    3  C4  UNL     1     -42.697   7.257   0.792  1.00 20.00     0.038 C 
HETATM    4  C5  UNL     1     -41.340   7.317  -1.256  1.00 20.00     0.038 C 
HETATM    5  C6  UNL     1     -42.135   8.189  -0.282  1.00 20.00     0.054 C 
ENDROOT
BRANCH   5   6
HETATM    6  C3  UNL     1     -41.246   9.223   0.347  1.00 20.00     0.236 C 
HETATM    7  O7  UNL     1     -41.512  10.420   0.366  1.00 20.00    -0.306 OA
ENDBRANCH   5   6
TORSDOF 1
ENDMDL
MODEL 7
REMARK VINA RESULT:      -3.8     12.122     12.651
REMARK  1 active torsions:
REMARK  status: ('A' for Active; 'I' for Inactive)
REMARK    1  A    between atoms: C3_3  and  C6_6 
ROOT
HETATM    1  C1  UNL     1     -34.175  16.168  -2.705  1.00 20.00    -0.030 C 
HETATM    2  C2  UNL     1     -33.098  15.929  -3.457  1.00 20.00    -0.030 C 
HETATM    3  C4  UNL     1     -35.233  15.132  -2.895  1.00 20.00     0.038 C 
HETATM    4  C5  UNL     1     -33.250  14.692  -4.277  1.00 20.00     0.038 C 
HETATM    5  C6  UNL     1     -34.718  14.314  -4.080  1.00 20.00     0.054 C 
ENDROOT
BRANCH   5   6
HETATM    6  C3  UNL     1     -35.516  14.634  -5.311  1.00 20.00     0.236 C 
HETATM    7  O7  UNL     1     -35.972  13.778  -6.062  1.00 20.00    -0.306 OA
ENDBRANCH   5   6
TORSDOF 1
ENDMDL
MODEL 8
REMARK VINA RESULT:      -3.8     12.040     12.532
REMARK  1 active torsions:
REMARK  status: ('A' for Active; 'I' for Inactive)
REMARK    1  A    between atoms: C3_3  and  C6_6 
ROOT
HETATM    1  C1  UNL     1     -33.371  15.137  -4.012  1.00 20.00    -0.030 C 
HETATM    2  C2  UNL     1     -34.063  15.607  -2.971  1.00 20.00    -0.030 C 
HETATM    3  C4  UNL     1     -34.242  14.881  -5.196  1.00 20.00     0.038 C 
HETATM    4  C5  UNL     1     -35.516  15.748  -3.282  1.00 20.00     0.038 C 
HETATM    5  C6  UNL     1     -35.655  15.060  -4.641  1.00 20.00     0.054 C 
ENDROOT
BRANCH   5   6
HETATM    6  C3  UNL     1     -36.323  13.724  -4.491  1.00 20.00     0.236 C 
HETATM    7  O7  UNL     1     -35.711  12.661  -4.479  1.00 20.00    -0.306 OA
ENDBRANCH   5   6
TORSDOF 1
ENDMDL
MODEL 9
REMARK VINA RESULT:      -3.7      0.839      1.697
REMARK  1 active torsions:
REMARK  status: ('A' for Active; 'I' for Inactive)
REMARK    1  A    between atoms: C3_3  and  C6_6 
ROOT
HETATM    1  C1  UNL     1     -33.385   7.193   4.730  1.00 20.00    -0.030 C 
HETATM    2  C2  UNL     1     -33.667   6.690   5.935  1.00 20.00    -0.030 C 
HETATM    3  C4  UNL     1     -34.315   6.687   3.679  1.00 20.00     0.038 C 
HETATM    4  C5  UNL     1     -34.836   5.762   5.895  1.00 20.00     0.038 C 
HETATM    5  C6  UNL     1     -35.100   5.590   4.398  1.00 20.00     0.054 C 
ENDROOT
BRANCH   5   6
HETATM    6  C3  UNL     1     -34.641   4.238   3.933  1.00 20.00     0.236 C 
HETATM    7  O7  UNL     1     -33.794   4.076   3.060  1.00 20.00    -0.306 OA
ENDBRANCH   5   6
TORSDOF 1
ENDMDL
