MODEL 1
REMARK VINA RESULT:      -4.7      0.000      0.000
REMARK  0 active torsions:
REMARK  status: ('A' for Active; 'I' for Inactive)
ROOT
HETATM    1  C1  UNL     1     -24.534  18.787   8.599  1.00 20.00     0.037 C 
HETATM    2  C2  UNL     1     -22.823  18.101   9.697  1.00 20.00     0.017 C 
HETATM    3  C3  UNL     1     -25.279  19.085   7.530  1.00 20.00    -0.063 C 
HETATM    4  C4  UNL     1     -25.086  18.600   9.983  1.00 20.00     0.074 C 
HETATM    5  C5  UNL     1     -23.944  17.860  10.693  1.00 20.00    -0.002 C 
HETATM    6  C6  UNL     1     -21.398  17.763  10.006  1.00 20.00     0.066 C 
HETATM    7  C7  UNL     1     -24.679  19.262   6.165  1.00 20.00     0.045 C 
HETATM    8  C8  UNL     1     -26.768  19.263   7.621  1.00 20.00     0.045 C 
HETATM    9  C9  UNL     1     -23.648  18.464  12.061  1.00 20.00     0.021 C 
HETATM   10  C10 UNL     1     -24.228  16.360  10.802  1.00 20.00     0.021 C 
HETATM   11  N11 UNL     1     -23.176  18.591   8.549  1.00 20.00    -0.262 NA
ENDROOT
TORSDOF 0
ENDMDL
MODEL 2
REMARK VINA RESULT:      -4.6     13.561     15.860
REMARK  0 active torsions:
REMARK  status: ('A' for Active; 'I' for Inactive)
ROOT
HETATM    1  C1  UNL     1     -34.204  15.754  -2.858  1.00 20.00     0.037 C 
HETATM    2  C2  UNL     1     -34.896  17.010  -1.263  1.00 20.00     0.017 C 
HETATM    3  C3  UNL     1     -34.275  14.849  -3.839  1.00 20.00    -0.063 C 
HETATM    4  C4  UNL     1     -33.073  16.728  -2.693  1.00 20.00     0.074 C 
HETATM    5  C5  UNL     1     -33.680  17.777  -1.751  1.00 20.00    -0.002 C 
HETATM    6  C6  UNL     1     -35.747  17.504  -0.136  1.00 20.00     0.066 C 
HETATM    7  C7  UNL     1     -35.429  13.896  -3.961  1.00 20.00     0.045 C 
HETATM    8  C8  UNL     1     -33.206  14.724  -4.887  1.00 20.00     0.045 C 
HETATM    9  C9  UNL     1     -32.723  18.135  -0.619  1.00 20.00     0.021 C 
HETATM   10  C10 UNL     1     -34.124  19.027  -2.514  1.00 20.00     0.021 C 
HETATM   11  N11 UNL     1     -35.174  15.915  -1.901  1.00 20.00    -0.262 NA
ENDROOT
TORSDOF 0
ENDMDL
MODEL 3
REMARK VINA RESULT:      -4.5     14.430     16.893
REMARK  0 active torsions:
REMARK  status: ('A' for Active; 'I' for Inactive)
ROOT
HETATM    1  C1  UNL     1     -34.503  16.355  -2.656  1.00 20.00     0.037 C 
HETATM    2  C2  UNL     1     -35.239  14.791  -3.926  1.00 20.00     0.017 C 
HETATM    3  C3  UNL     1     -34.340  17.063  -1.533  1.00 20.00    -0.063 C 
HETATM    4  C4  UNL     1     -33.587  16.438  -3.842  1.00 20.00     0.074 C 
HETATM    5  C5  UNL     1     -33.938  15.160  -4.616  1.00 20.00    -0.002 C 
HETATM    6  C6  UNL     1     -36.135  13.710  -4.444  1.00 20.00     0.066 C 
HETATM    7  C7  UNL     1     -35.285  16.943  -0.372  1.00 20.00     0.045 C 
HETATM    8  C8  UNL     1     -33.201  18.026  -1.357  1.00 20.00     0.045 C 
HETATM    9  C9  UNL     1     -34.125  15.437  -6.104  1.00 20.00     0.021 C 
HETATM   10  C10 UNL     1     -32.897  14.061  -4.387  1.00 20.00     0.021 C 
HETATM   11  N11 UNL     1     -35.515  15.446  -2.841  1.00 20.00    -0.262 NA
ENDROOT
TORSDOF 0
ENDMDL
MODEL 4
REMARK VINA RESULT:      -4.4     14.527     17.151
REMARK  0 active torsions:
REMARK  status: ('A' for Active; 'I' for Inactive)
ROOT
HETATM    1  C1  UNL     1     -34.288  16.219  -2.871  1.00 20.00     0.037 C 
HETATM    2  C2  UNL     1     -34.294  15.340  -4.827  1.00 20.00     0.017 C 
HETATM    3  C3  UNL     1     -33.905  17.033  -1.881  1.00 20.00    -0.063 C 
HETATM    4  C4  UNL     1     -35.599  15.489  -2.898  1.00 20.00     0.074 C 
HETATM    5  C5  UNL     1     -35.722  15.094  -4.376  1.00 20.00    -0.002 C 
HETATM    6  C6  UNL     1     -33.798  14.906  -6.171  1.00 20.00     0.066 C 
HETATM    7  C7  UNL     1     -32.581  17.741  -1.900  1.00 20.00     0.045 C 
HETATM    8  C8  UNL     1     -34.773  17.293  -0.684  1.00 20.00     0.045 C 
HETATM    9  C9  UNL     1     -36.141  13.636  -4.536  1.00 20.00     0.021 C 
HETATM   10  C10 UNL     1     -36.674  16.026  -5.130  1.00 20.00     0.021 C 
HETATM   11  N11 UNL     1     -33.534  15.978  -3.992  1.00 20.00    -0.262 NA
ENDROOT
TORSDOF 0
ENDMDL
MODEL 5
REMARK VINA RESULT:      -4.1     14.202     16.825
REMARK  0 active torsions:
REMARK  status: ('A' for Active; 'I' for Inactive)
ROOT
HETATM    1  C1  UNL     1     -34.939  16.394  -2.241  1.00 20.00     0.037 C 
HETATM    2  C2  UNL     1     -33.983  15.187  -3.735  1.00 20.00     0.017 C 
HETATM    3  C3  UNL     1     -35.053  17.336  -1.299  1.00 20.00    -0.063 C 
HETATM    4  C4  UNL     1     -36.104  15.782  -2.963  1.00 20.00     0.074 C 
HETATM    5  C5  UNL     1     -35.432  15.144  -4.186  1.00 20.00    -0.002 C 
HETATM    6  C6  UNL     1     -32.895  14.483  -4.483  1.00 20.00     0.066 C 
HETATM    7  C7  UNL     1     -33.856  17.917  -0.605  1.00 20.00     0.045 C 
HETATM    8  C8  UNL     1     -36.388  17.875  -0.870  1.00 20.00     0.045 C 
HETATM    9  C9  UNL     1     -35.927  13.720  -4.421  1.00 20.00     0.021 C 
HETATM   10  C10 UNL     1     -35.612  16.003  -5.440  1.00 20.00     0.021 C 
HETATM   11  N11 UNL     1     -33.737  15.897  -2.677  1.00 20.00    -0.262 NA
ENDROOT
TORSDOF 0
ENDMDL
MODEL 6
REMARK VINA RESULT:      -4.1     13.393     15.597
REMARK  0 active torsions:
REMARK  status: ('A' for Active; 'I' for Inactive)
ROOT
HETATM    1  C1  UNL     1     -34.653  16.281  -2.660  1.00 20.00     0.037 C 
HETATM    2  C2  UNL     1     -33.688  17.649  -1.319  1.00 20.00     0.017 C 
HETATM    3  C3  UNL     1     -34.777  15.231  -3.478  1.00 20.00    -0.063 C 
HETATM    4  C4  UNL     1     -35.813  16.998  -2.032  1.00 20.00     0.074 C 
HETATM    5  C5  UNL     1     -35.139  17.774  -0.892  1.00 20.00    -0.002 C 
HETATM    6  C6  UNL     1     -32.593  18.424  -0.654  1.00 20.00     0.066 C 
HETATM    7  C7  UNL     1     -33.584  14.547  -4.082  1.00 20.00     0.045 C 
HETATM    8  C8  UNL     1     -36.117  14.664  -3.849  1.00 20.00     0.045 C 
HETATM    9  C9  UNL     1     -35.610  19.223  -0.842  1.00 20.00     0.021 C 
HETATM   10  C10 UNL     1     -35.345  17.081   0.458  1.00 20.00     0.021 C 
HETATM   11  N11 UNL     1     -33.445  16.808  -2.277  1.00 20.00    -0.262 NA
ENDROOT
TORSDOF 0
ENDMDL
MODEL 7
REMARK VINA RESULT:      -4.0     15.365     17.108
REMARK  0 active torsions:
REMARK  status: ('A' for Active; 'I' for Inactive)
ROOT
HETATM    1  C1  UNL     1     -35.171  16.930  -2.798  1.00 20.00     0.037 C 
HETATM    2  C2  UNL     1     -34.852  16.208  -4.792  1.00 20.00     0.017 C 
HETATM    3  C3  UNL     1     -35.729  17.646  -1.816  1.00 20.00    -0.063 C 
HETATM    4  C4  UNL     1     -34.331  15.706  -2.573  1.00 20.00     0.074 C 
HETATM    5  C5  UNL     1     -34.334  15.049  -3.960  1.00 20.00    -0.002 C 
HETATM    6  C6  UNL     1     -34.851  16.176  -6.289  1.00 20.00     0.066 C 
HETATM    7  C7  UNL     1     -36.561  18.864  -2.093  1.00 20.00     0.045 C 
HETATM    8  C8  UNL     1     -35.561  17.279  -0.369  1.00 20.00     0.045 C 
HETATM    9  C9  UNL     1     -32.934  14.611  -4.377  1.00 20.00     0.021 C 
HETATM   10  C10 UNL     1     -35.319  13.880  -4.026  1.00 20.00     0.021 C 
HETATM   11  N11 UNL     1     -35.325  17.219  -4.130  1.00 20.00    -0.262 NA
ENDROOT
TORSDOF 0
ENDMDL
MODEL 8
REMARK VINA RESULT:      -3.9     14.312     16.739
REMARK  0 active torsions:
REMARK  status: ('A' for Active; 'I' for Inactive)
ROOT
HETATM    1  C1  UNL     1     -35.387  15.836  -3.142  1.00 20.00     0.037 C 
HETATM    2  C2  UNL     1     -35.336  17.887  -2.515  1.00 20.00     0.017 C 
HETATM    3  C3  UNL     1     -35.841  14.745  -3.766  1.00 20.00    -0.063 C 
HETATM    4  C4  UNL     1     -33.988  15.984  -2.619  1.00 20.00     0.074 C 
HETATM    5  C5  UNL     1     -33.870  17.503  -2.427  1.00 20.00    -0.002 C 
HETATM    6  C6  UNL     1     -35.820  19.263  -2.178  1.00 20.00     0.066 C 
HETATM    7  C7  UNL     1     -37.252  14.645  -4.271  1.00 20.00     0.045 C 
HETATM    8  C8  UNL     1     -34.971  13.544  -4.005  1.00 20.00     0.045 C 
HETATM    9  C9  UNL     1     -33.256  17.852  -1.075  1.00 20.00     0.021 C 
HETATM   10  C10 UNL     1     -33.091  18.156  -3.571  1.00 20.00     0.021 C 
HETATM   11  N11 UNL     1     -36.144  16.961  -2.930  1.00 20.00    -0.262 NA
ENDROOT
TORSDOF 0
ENDMDL
MODEL 9
REMARK VINA RESULT:      -3.8     14.746     17.422
REMARK  0 active torsions:
REMARK  status: ('A' for Active; 'I' for Inactive)
ROOT
HETATM    1  C1  UNL     1     -34.856  16.457  -2.909  1.00 20.00     0.037 C 
HETATM    2  C2  UNL     1     -36.367  15.293  -3.892  1.00 20.00     0.017 C 
HETATM    3  C3  UNL     1     -34.292  17.188  -1.942  1.00 20.00    -0.063 C 
HETATM    4  C4  UNL     1     -34.091  15.794  -4.018  1.00 20.00     0.074 C 
HETATM    5  C5  UNL     1     -35.101  14.766  -4.544  1.00 20.00    -0.002 C 
HETATM    6  C6  UNL     1     -37.723  14.769  -4.248  1.00 20.00     0.066 C 
HETATM    7  C7  UNL     1     -35.102  17.831  -0.855  1.00 20.00     0.045 C 
HETATM    8  C8  UNL     1     -32.809  17.415  -1.879  1.00 20.00     0.045 C 
HETATM    9  C9  UNL     1     -35.179  14.782  -6.067  1.00 20.00     0.021 C 
HETATM   10  C10 UNL     1     -34.795  13.359  -4.023  1.00 20.00     0.021 C 
HETATM   11  N11 UNL     1     -36.203  16.205  -2.984  1.00 20.00    -0.262 NA
ENDROOT
TORSDOF 0
ENDMDL
