MODEL 1
REMARK VINA RESULT:      -4.4      0.000      0.000
REMARK  0 active torsions:
REMARK  status: ('A' for Active; 'I' for Inactive)
ROOT
HETATM    1  C1  UNL     1     -35.735  13.932  -4.347  1.00 20.00     0.099 C 
HETATM    2  C2  UNL     1     -34.000  16.282  -2.339  1.00 20.00    -0.026 C 
HETATM    3  C3  UNL     1     -35.045  15.511  -2.668  1.00 20.00     0.019 C 
HETATM    4  C4  UNL     1     -33.279  17.101  -3.363  1.00 20.00     0.057 C 
HETATM    5  C5  UNL     1     -34.085  17.248  -4.659  1.00 20.00     0.277 C 
HETATM    6  C6  UNL     1     -35.537  15.372  -4.092  1.00 20.00     0.350 C 
HETATM    7  C7  UNL     1     -35.267  16.095  -6.405  1.00 20.00     0.312 C 
HETATM    8  N8  UNL     1     -35.891  12.800  -4.547  1.00 20.00    -0.195 NA
HETATM    9  N9  UNL     1     -34.615  15.949  -5.099  1.00 20.00     0.106 N 
ENDROOT
TORSDOF 0
ENDMDL
MODEL 2
REMARK VINA RESULT:      -4.4     11.349     12.697
REMARK  0 active torsions:
REMARK  status: ('A' for Active; 'I' for Inactive)
ROOT
HETATM    1  C1  UNL     1     -32.723   7.259   2.345  1.00 20.00     0.099 C 
HETATM    2  C2  UNL     1     -34.271   6.631   5.470  1.00 20.00    -0.026 C 
HETATM    3  C3  UNL     1     -33.269   7.030   4.676  1.00 20.00     0.019 C 
HETATM    4  C4  UNL     1     -35.030   5.371   5.199  1.00 20.00     0.057 C 
HETATM    5  C5  UNL     1     -34.300   4.457   4.208  1.00 20.00     0.277 C 
HETATM    6  C6  UNL     1     -32.867   6.271   3.431  1.00 20.00     0.350 C 
HETATM    7  C7  UNL     1     -33.256   4.299   2.049  1.00 20.00     0.312 C 
HETATM    8  N8  UNL     1     -32.610   8.037   1.491  1.00 20.00    -0.195 NA
HETATM    9  N9  UNL     1     -33.832   5.216   3.039  1.00 20.00     0.106 N 
ENDROOT
TORSDOF 0
ENDMDL
MODEL 3
REMARK VINA RESULT:      -4.3      1.616      1.642
REMARK  0 active torsions:
REMARK  status: ('A' for Active; 'I' for Inactive)
ROOT
HETATM    1  C1  UNL     1     -37.316  14.621  -4.425  1.00 20.00     0.099 C 
HETATM    2  C2  UNL     1     -34.240  15.556  -2.934  1.00 20.00    -0.026 C 
HETATM    3  C3  UNL     1     -35.541  15.705  -3.218  1.00 20.00     0.019 C 
HETATM    4  C4  UNL     1     -33.249  15.170  -3.987  1.00 20.00     0.057 C 
HETATM    5  C5  UNL     1     -33.807  15.356  -5.403  1.00 20.00     0.277 C 
HETATM    6  C6  UNL     1     -36.107  15.449  -4.597  1.00 20.00     0.350 C 
HETATM    7  C7  UNL     1     -35.611  14.853  -6.909  1.00 20.00     0.312 C 
HETATM    8  N8  UNL     1     -38.268  13.971  -4.290  1.00 20.00    -0.195 NA
HETATM    9  N9  UNL     1     -35.156  14.781  -5.516  1.00 20.00     0.106 N 
ENDROOT
TORSDOF 0
ENDMDL
MODEL 4
REMARK VINA RESULT:      -4.2      3.466      5.279
REMARK  0 active torsions:
REMARK  status: ('A' for Active; 'I' for Inactive)
ROOT
HETATM    1  C1  UNL     1     -31.687  18.293  -0.913  1.00 20.00     0.099 C 
HETATM    2  C2  UNL     1     -33.798  16.154  -2.792  1.00 20.00    -0.026 C 
HETATM    3  C3  UNL     1     -32.906  17.141  -2.638  1.00 20.00     0.019 C 
HETATM    4  C4  UNL     1     -35.000  16.042  -1.909  1.00 20.00     0.057 C 
HETATM    5  C5  UNL     1     -35.272  17.335  -1.132  1.00 20.00     0.277 C 
HETATM    6  C6  UNL     1     -33.018  18.175  -1.539  1.00 20.00     0.350 C 
HETATM    7  C7  UNL     1     -34.349  19.006   0.328  1.00 20.00     0.312 C 
HETATM    8  N8  UNL     1     -30.641  18.386  -0.421  1.00 20.00    -0.195 NA
HETATM    9  N9  UNL     1     -34.039  17.847  -0.515  1.00 20.00     0.106 N 
ENDROOT
TORSDOF 0
ENDMDL
MODEL 5
REMARK VINA RESULT:      -4.1     17.413     18.698
REMARK  0 active torsions:
REMARK  status: ('A' for Active; 'I' for Inactive)
ROOT
HETATM    1  C1  UNL     1     -22.710  17.349   9.258  1.00 20.00     0.099 C 
HETATM    2  C2  UNL     1     -25.699  19.137   9.912  1.00 20.00    -0.026 C 
HETATM    3  C3  UNL     1     -24.485  18.968   9.372  1.00 20.00     0.019 C 
HETATM    4  C4  UNL     1     -25.980  18.773  11.335  1.00 20.00     0.057 C 
HETATM    5  C5  UNL     1     -24.694  18.581  12.149  1.00 20.00     0.277 C 
HETATM    6  C6  UNL     1     -23.332  18.356  10.138  1.00 20.00     0.350 C 
HETATM    7  C7  UNL     1     -22.572  17.461  12.275  1.00 20.00     0.312 C 
HETATM    8  N8  UNL     1     -22.220  16.557   8.566  1.00 20.00    -0.195 NA
HETATM    9  N9  UNL     1     -23.734  17.736  11.423  1.00 20.00     0.106 N 
ENDROOT
TORSDOF 0
ENDMDL
MODEL 6
REMARK VINA RESULT:      -4.0     11.760     12.950
REMARK  0 active torsions:
REMARK  status: ('A' for Active; 'I' for Inactive)
ROOT
HETATM    1  C1  UNL     1     -33.446   4.624   2.523  1.00 20.00     0.099 C 
HETATM    2  C2  UNL     1     -34.898   5.302   5.684  1.00 20.00    -0.026 C 
HETATM    3  C3  UNL     1     -34.927   4.977   4.385  1.00 20.00     0.019 C 
HETATM    4  C4  UNL     1     -34.042   6.419   6.191  1.00 20.00     0.057 C 
HETATM    5  C5  UNL     1     -33.557   7.336   5.062  1.00 20.00     0.277 C 
HETATM    6  C6  UNL     1     -34.069   5.674   3.353  1.00 20.00     0.350 C 
HETATM    7  C7  UNL     1     -32.450   7.448   2.932  1.00 20.00     0.312 C 
HETATM    8  N8  UNL     1     -32.956   3.799   1.870  1.00 20.00    -0.195 NA
HETATM    9  N9  UNL     1     -33.026   6.550   3.938  1.00 20.00     0.106 N 
ENDROOT
TORSDOF 0
ENDMDL
MODEL 7
REMARK VINA RESULT:      -4.0     15.941     17.492
REMARK  0 active torsions:
REMARK  status: ('A' for Active; 'I' for Inactive)
ROOT
HETATM    1  C1  UNL     1     -24.452  18.951   7.370  1.00 20.00     0.099 C 
HETATM    2  C2  UNL     1     -25.070  18.137  10.763  1.00 20.00    -0.026 C 
HETATM    3  C3  UNL     1     -24.910  18.975   9.731  1.00 20.00     0.019 C 
HETATM    4  C4  UNL     1     -24.142  16.984  10.985  1.00 20.00     0.057 C 
HETATM    5  C5  UNL     1     -22.846  17.119  10.177  1.00 20.00     0.277 C 
HETATM    6  C6  UNL     1     -23.823  18.792   8.695  1.00 20.00     0.350 C 
HETATM    7  C7  UNL     1     -21.891  17.476   8.001  1.00 20.00     0.312 C 
HETATM    8  N8  UNL     1     -24.947  19.076   6.327  1.00 20.00    -0.195 NA
HETATM    9  N9  UNL     1     -23.133  17.483   8.781  1.00 20.00     0.106 N 
ENDROOT
TORSDOF 0
ENDMDL
MODEL 8
REMARK VINA RESULT:      -3.9     16.967     18.045
REMARK  0 active torsions:
REMARK  status: ('A' for Active; 'I' for Inactive)
ROOT
HETATM    1  C1  UNL     1     -24.254  16.492  11.362  1.00 20.00     0.099 C 
HETATM    2  C2  UNL     1     -22.616  17.605   8.423  1.00 20.00    -0.026 C 
HETATM    3  C3  UNL     1     -22.674  17.242   9.711  1.00 20.00     0.019 C 
HETATM    4  C4  UNL     1     -23.633  18.524   7.824  1.00 20.00     0.057 C 
HETATM    5  C5  UNL     1     -24.448  19.263   8.892  1.00 20.00     0.277 C 
HETATM    6  C6  UNL     1     -23.788  17.687  10.632  1.00 20.00     0.350 C 
HETATM    7  C7  UNL     1     -25.805  19.038  10.863  1.00 20.00     0.312 C 
HETATM    8  N8  UNL     1     -24.621  15.553  11.936  1.00 20.00    -0.195 NA
HETATM    9  N9  UNL     1     -24.921  18.333   9.929  1.00 20.00     0.106 N 
ENDROOT
TORSDOF 0
ENDMDL
MODEL 9
REMARK VINA RESULT:      -3.9      1.643      2.382
REMARK  0 active torsions:
REMARK  status: ('A' for Active; 'I' for Inactive)
ROOT
HETATM    1  C1  UNL     1     -33.978  14.885  -5.589  1.00 20.00     0.099 C 
HETATM    2  C2  UNL     1     -33.103  16.696  -2.672  1.00 20.00    -0.026 C 
HETATM    3  C3  UNL     1     -32.962  15.716  -3.574  1.00 20.00     0.019 C 
HETATM    4  C4  UNL     1     -34.443  17.054  -2.109  1.00 20.00     0.057 C 
HETATM    5  C5  UNL     1     -35.491  15.967  -2.372  1.00 20.00     0.277 C 
HETATM    6  C6  UNL     1     -34.139  14.941  -4.124  1.00 20.00     0.350 C 
HETATM    7  C7  UNL     1     -36.551  14.589  -4.032  1.00 20.00     0.312 C 
HETATM    8  N8  UNL     1     -33.851  14.839  -6.742  1.00 20.00    -0.195 NA
HETATM    9  N9  UNL     1     -35.454  15.529  -3.776  1.00 20.00     0.106 N 
ENDROOT
TORSDOF 0
ENDMDL
