MODEL 1
REMARK VINA RESULT:      -4.1      0.000      0.000
REMARK  2 active torsions:
REMARK  status: ('A' for Active; 'I' for Inactive)
REMARK       I    between atoms: C1_1  and  N9_9 
REMARK    1  A    between atoms: C7_7  and  C8_8 
REMARK    2  A    between atoms: C7_7  and  N9_9 
ROOT
HETATM    1  C3  UNL     1     -35.172  16.285  -1.526  1.00 20.00     0.033 C 
HETATM    2  C7  UNL     1     -35.260  15.536  -2.857  1.00 20.00     0.087 C 
ENDROOT
BRANCH   2   3
HETATM    3  C8  UNL     1     -34.096  15.833  -3.858  1.00 20.00    -0.031 C 
HETATM    4  C4  UNL     1     -34.564  16.681  -5.056  1.00 20.00     0.016 C 
HETATM    5  C5  UNL     1     -32.953  16.584  -3.145  1.00 20.00     0.016 C 
HETATM    6  C6  UNL     1     -33.518  14.506  -4.397  1.00 20.00     0.016 C 
ENDBRANCH   2   3
BRANCH   2   7
HETATM    7  N9  UNL     1     -36.558  15.784  -3.447  1.00 20.00    -0.356 N 
HETATM    8  C1  UNL     1     -37.299  14.803  -4.075  1.00 20.00     0.213 C 
HETATM    9  C2  UNL     1     -38.608  15.282  -4.609  1.00 20.00     0.117 C 
HETATM   10  O10 UNL     1     -36.981  13.629  -4.219  1.00 20.00    -0.274 OA
HETATM   11  H27 UNL     1     -36.942  16.721  -3.398  1.00 20.00     0.162 HD
ENDBRANCH   2   7
TORSDOF 2
ENDMDL
MODEL 2
REMARK VINA RESULT:      -4.1     17.951     18.805
REMARK  2 active torsions:
REMARK  status: ('A' for Active; 'I' for Inactive)
REMARK       I    between atoms: C1_1  and  N9_9 
REMARK    1  A    between atoms: C7_7  and  C8_8 
REMARK    2  A    between atoms: C7_7  and  N9_9 
ROOT
HETATM    1  C3  UNL     1     -22.396  17.774  12.186  1.00 20.00     0.033 C 
HETATM    2  C7  UNL     1     -23.375  17.703  11.012  1.00 20.00     0.087 C 
ENDROOT
BRANCH   2   3
HETATM    3  C8  UNL     1     -22.737  17.954   9.607  1.00 20.00    -0.031 C 
HETATM    4  C4  UNL     1     -21.293  18.480   9.712  1.00 20.00     0.016 C 
HETATM    5  C5  UNL     1     -22.723  16.652   8.781  1.00 20.00     0.016 C 
HETATM    6  C6  UNL     1     -23.578  18.991   8.829  1.00 20.00     0.016 C 
ENDBRANCH   2   3
BRANCH   2   7
HETATM    7  N9  UNL     1     -24.482  18.599  11.272  1.00 20.00    -0.356 N 
HETATM    8  C1  UNL     1     -25.707  18.165  11.736  1.00 20.00     0.213 C 
HETATM    9  C2  UNL     1     -26.701  19.262  11.935  1.00 20.00     0.117 C 
HETATM   10  O10 UNL     1     -26.026  17.009  11.985  1.00 20.00    -0.274 OA
HETATM   11  H27 UNL     1     -24.351  19.591  11.106  1.00 20.00     0.162 HD
ENDBRANCH   2   7
TORSDOF 2
ENDMDL
MODEL 3
REMARK VINA RESULT:      -3.9      3.820      5.388
REMARK  2 active torsions:
REMARK  status: ('A' for Active; 'I' for Inactive)
REMARK       I    between atoms: C1_1  and  N9_9 
REMARK    1  A    between atoms: C7_7  and  C8_8 
REMARK    2  A    between atoms: C7_7  and  N9_9 
ROOT
HETATM    1  C3  UNL     1     -32.686  19.089  -3.329  1.00 20.00     0.033 C 
HETATM    2  C7  UNL     1     -32.726  17.771  -2.552  1.00 20.00     0.087 C 
ENDROOT
BRANCH   2   3
HETATM    3  C8  UNL     1     -33.819  16.760  -3.028  1.00 20.00    -0.031 C 
HETATM    4  C4  UNL     1     -34.731  16.305  -1.873  1.00 20.00     0.016 C 
HETATM    5  C5  UNL     1     -34.700  17.395  -4.123  1.00 20.00     0.016 C 
HETATM    6  C6  UNL     1     -33.145  15.511  -3.638  1.00 20.00     0.016 C 
ENDBRANCH   2   3
BRANCH   2   7
HETATM    7  N9  UNL     1     -32.840  18.066  -1.139  1.00 20.00    -0.356 N 
HETATM    8  C1  UNL     1     -31.749  18.323  -0.334  1.00 20.00     0.213 C 
HETATM    9  C2  UNL     1     -32.100  18.604   1.090  1.00 20.00     0.117 C 
HETATM   10  O10 UNL     1     -30.574  18.339  -0.681  1.00 20.00    -0.274 OA
HETATM   11  H27 UNL     1     -33.764  18.085  -0.721  1.00 20.00     0.162 HD
ENDBRANCH   2   7
TORSDOF 2
ENDMDL
MODEL 4
REMARK VINA RESULT:      -3.8      3.608      5.191
REMARK  2 active torsions:
REMARK  status: ('A' for Active; 'I' for Inactive)
REMARK       I    between atoms: C1_1  and  N9_9 
REMARK    1  A    between atoms: C7_7  and  C8_8 
REMARK    2  A    between atoms: C7_7  and  N9_9 
ROOT
HETATM    1  C3  UNL     1     -32.831  18.779  -3.663  1.00 20.00     0.033 C 
HETATM    2  C7  UNL     1     -32.877  17.522  -2.791  1.00 20.00     0.087 C 
ENDROOT
BRANCH   2   3
HETATM    3  C8  UNL     1     -33.942  16.461  -3.221  1.00 20.00    -0.031 C 
HETATM    4  C4  UNL     1     -33.293  15.195  -3.811  1.00 20.00     0.016 C 
HETATM    5  C5  UNL     1     -34.808  16.048  -2.014  1.00 20.00     0.016 C 
HETATM    6  C6  UNL     1     -34.883  17.067  -4.285  1.00 20.00     0.016 C 
ENDBRANCH   2   3
BRANCH   2   7
HETATM    7  N9  UNL     1     -33.037  17.920  -1.408  1.00 20.00    -0.356 N 
HETATM    8  C1  UNL     1     -31.975  18.268  -0.598  1.00 20.00     0.213 C 
HETATM    9  C2  UNL     1     -32.373  18.645   0.791  1.00 20.00     0.117 C 
HETATM   10  O10 UNL     1     -30.793  18.292  -0.915  1.00 20.00    -0.274 OA
HETATM   11  H27 UNL     1     -33.972  17.943  -1.016  1.00 20.00     0.162 HD
ENDBRANCH   2   7
TORSDOF 2
ENDMDL
MODEL 5
REMARK VINA RESULT:      -3.8      1.270      2.178
REMARK  2 active torsions:
REMARK  status: ('A' for Active; 'I' for Inactive)
REMARK       I    between atoms: C1_1  and  N9_9 
REMARK    1  A    between atoms: C7_7  and  C8_8 
REMARK    2  A    between atoms: C7_7  and  N9_9 
ROOT
HETATM    1  C3  UNL     1     -34.730  13.908  -3.898  1.00 20.00     0.033 C 
HETATM    2  C7  UNL     1     -35.380  15.292  -3.961  1.00 20.00     0.087 C 
ENDROOT
BRANCH   2   3
HETATM    3  C8  UNL     1     -34.676  16.390  -3.099  1.00 20.00    -0.031 C 
HETATM    4  C4  UNL     1     -33.142  16.250  -3.123  1.00 20.00     0.016 C 
HETATM    5  C5  UNL     1     -35.046  17.796  -3.613  1.00 20.00     0.016 C 
HETATM    6  C6  UNL     1     -35.151  16.288  -1.633  1.00 20.00     0.016 C 
ENDBRANCH   2   3
BRANCH   2   7
HETATM    7  N9  UNL     1     -36.784  15.163  -3.631  1.00 20.00    -0.356 N 
HETATM    8  C1  UNL     1     -37.788  15.238  -4.575  1.00 20.00     0.213 C 
HETATM    9  C2  UNL     1     -39.162  15.076  -4.010  1.00 20.00     0.117 C 
HETATM   10  O10 UNL     1     -37.647  15.418  -5.778  1.00 20.00    -0.274 OA
HETATM   11  H27 UNL     1     -37.042  15.010  -2.662  1.00 20.00     0.162 HD
ENDBRANCH   2   7
TORSDOF 2
ENDMDL
MODEL 6
REMARK VINA RESULT:      -3.6      2.427      3.461
REMARK  2 active torsions:
REMARK  status: ('A' for Active; 'I' for Inactive)
REMARK       I    between atoms: C1_1  and  N9_9 
REMARK    1  A    between atoms: C7_7  and  C8_8 
REMARK    2  A    between atoms: C7_7  and  N9_9 
ROOT
HETATM    1  C3  UNL     1     -34.911  15.785  -2.308  1.00 20.00     0.033 C 
HETATM    2  C7  UNL     1     -33.681  16.358  -3.014  1.00 20.00     0.087 C 
ENDROOT
BRANCH   2   3
HETATM    3  C8  UNL     1     -33.347  17.842  -2.654  1.00 20.00    -0.031 C 
HETATM    4  C4  UNL     1     -32.254  17.946  -1.574  1.00 20.00     0.016 C 
HETATM    5  C5  UNL     1     -32.869  18.605  -3.906  1.00 20.00     0.016 C 
HETATM    6  C6  UNL     1     -34.616  18.552  -2.132  1.00 20.00     0.016 C 
ENDBRANCH   2   3
BRANCH   2   7
HETATM    7  N9  UNL     1     -33.831  16.168  -4.441  1.00 20.00    -0.356 N 
HETATM    8  C1  UNL     1     -33.630  14.951  -5.063  1.00 20.00     0.213 C 
HETATM    9  C2  UNL     1     -33.842  14.986  -6.541  1.00 20.00     0.117 C 
HETATM   10  O10 UNL     1     -33.311  13.900  -4.522  1.00 20.00    -0.274 OA
HETATM   11  H27 UNL     1     -34.095  16.964  -5.011  1.00 20.00     0.162 HD
ENDBRANCH   2   7
TORSDOF 2
ENDMDL
MODEL 7
REMARK VINA RESULT:      -3.6      2.296      3.329
REMARK  2 active torsions:
REMARK  status: ('A' for Active; 'I' for Inactive)
REMARK       I    between atoms: C1_1  and  N9_9 
REMARK    1  A    between atoms: C7_7  and  C8_8 
REMARK    2  A    between atoms: C7_7  and  N9_9 
ROOT
HETATM    1  C3  UNL     1     -33.662  18.611  -4.497  1.00 20.00     0.033 C 
HETATM    2  C7  UNL     1     -34.242  17.196  -4.556  1.00 20.00     0.087 C 
ENDROOT
BRANCH   2   3
HETATM    3  C8  UNL     1     -33.816  16.260  -3.378  1.00 20.00    -0.031 C 
HETATM    4  C4  UNL     1     -35.029  15.615  -2.682  1.00 20.00     0.016 C 
HETATM    5  C5  UNL     1     -32.894  15.136  -3.892  1.00 20.00     0.016 C 
HETATM    6  C6  UNL     1     -33.024  17.070  -2.327  1.00 20.00     0.016 C 
ENDBRANCH   2   3
BRANCH   2   7
HETATM    7  N9  UNL     1     -33.931  16.618  -5.847  1.00 20.00    -0.356 N 
HETATM    8  C1  UNL     1     -34.866  15.962  -6.622  1.00 20.00     0.213 C 
HETATM    9  C2  UNL     1     -34.326  15.448  -7.915  1.00 20.00     0.117 C 
HETATM   10  O10 UNL     1     -36.045  15.780  -6.345  1.00 20.00    -0.274 OA
HETATM   11  H27 UNL     1     -32.983  16.699  -6.198  1.00 20.00     0.162 HD
ENDBRANCH   2   7
TORSDOF 2
ENDMDL
MODEL 8
REMARK VINA RESULT:      -3.6      1.948      2.628
REMARK  2 active torsions:
REMARK  status: ('A' for Active; 'I' for Inactive)
REMARK       I    between atoms: C1_1  and  N9_9 
REMARK    1  A    between atoms: C7_7  and  C8_8 
REMARK    2  A    between atoms: C7_7  and  N9_9 
ROOT
HETATM    1  C3  UNL     1     -37.093  16.620  -3.756  1.00 20.00     0.033 C 
HETATM    2  C7  UNL     1     -35.811  15.888  -4.157  1.00 20.00     0.087 C 
ENDROOT
BRANCH   2   3
HETATM    3  C8  UNL     1     -34.526  16.343  -3.393  1.00 20.00    -0.031 C 
HETATM    4  C4  UNL     1     -33.315  15.444  -3.707  1.00 20.00     0.016 C 
HETATM    5  C5  UNL     1     -34.164  17.795  -3.764  1.00 20.00     0.016 C 
HETATM    6  C6  UNL     1     -34.782  16.301  -1.869  1.00 20.00     0.016 C 
ENDBRANCH   2   3
BRANCH   2   7
HETATM    7  N9  UNL     1     -35.649  15.984  -5.593  1.00 20.00    -0.356 N 
HETATM    8  C1  UNL     1     -35.748  14.895  -6.435  1.00 20.00     0.213 C 
HETATM    9  C2  UNL     1     -35.548  15.226  -7.878  1.00 20.00     0.117 C 
HETATM   10  O10 UNL     1     -35.977  13.737  -6.108  1.00 20.00    -0.274 OA
HETATM   11  H27 UNL     1     -35.454  16.892  -5.999  1.00 20.00     0.162 HD
ENDBRANCH   2   7
TORSDOF 2
ENDMDL
MODEL 9
REMARK VINA RESULT:      -3.6      1.916      2.533
REMARK  2 active torsions:
REMARK  status: ('A' for Active; 'I' for Inactive)
REMARK       I    between atoms: C1_1  and  N9_9 
REMARK    1  A    between atoms: C7_7  and  C8_8 
REMARK    2  A    between atoms: C7_7  and  N9_9 
ROOT
HETATM    1  C3  UNL     1     -37.200  16.424  -3.827  1.00 20.00     0.033 C 
HETATM    2  C7  UNL     1     -35.809  15.843  -4.091  1.00 20.00     0.087 C 
ENDROOT
BRANCH   2   3
HETATM    3  C8  UNL     1     -34.665  16.449  -3.215  1.00 20.00    -0.031 C 
HETATM    4  C4  UNL     1     -34.447  17.947  -3.501  1.00 20.00     0.016 C 
HETATM    5  C5  UNL     1     -34.989  16.281  -1.716  1.00 20.00     0.016 C 
HETATM    6  C6  UNL     1     -33.342  15.702  -3.493  1.00 20.00     0.016 C 
ENDBRANCH   2   3
BRANCH   2   7
HETATM    7  N9  UNL     1     -35.521  15.949  -5.506  1.00 20.00    -0.356 N 
HETATM    8  C1  UNL     1     -35.632  14.884  -6.378  1.00 20.00     0.213 C 
HETATM    9  C2  UNL     1     -35.287  15.221  -7.791  1.00 20.00     0.117 C 
HETATM   10  O10 UNL     1     -35.977  13.743  -6.096  1.00 20.00    -0.274 OA
HETATM   11  H27 UNL     1     -35.224  16.846  -5.874  1.00 20.00     0.162 HD
ENDBRANCH   2   7
TORSDOF 2
ENDMDL
