MODEL 1
REMARK VINA RESULT:      -4.6      0.000      0.000
REMARK  3 active torsions:
REMARK  status: ('A' for Active; 'I' for Inactive)
REMARK    1  A    between atoms: C2_2  and  C7_7 
REMARK    2  A    between atoms: C5_5  and  C8_8 
REMARK    3  A    between atoms: C7_7  and  C8_8 
ROOT
HETATM    1  C3  UNL     1     -34.288   6.613   6.189  1.00 20.00     0.281 C 
HETATM    2  C4  UNL     1     -34.636   5.133   6.130  1.00 20.00     0.106 C 
HETATM    3  C5  UNL     1     -34.015   6.329   3.867  1.00 20.00     0.282 C 
HETATM    4  N9  UNL     1     -33.390   6.891   5.067  1.00 20.00     0.098 N 
HETATM    5  S10 UNL     1     -34.898   4.818   4.369  1.00 20.00    -0.132 SA
HETATM    6  H25 UNL     1     -33.248   7.894   4.959  1.00 20.00     0.317 HD
ENDROOT
BRANCH   3   7
HETATM    7  C8  UNL     1     -32.960   6.021   2.816  1.00 20.00     0.050 C 
BRANCH   7   8
HETATM    8  C7  UNL     1     -32.033   7.215   2.589  1.00 20.00     0.030 C 
BRANCH   8   9
HETATM    9  C2  UNL     1     -32.222   7.797   1.218  1.00 20.00    -0.031 C 
HETATM   10  C1  UNL     1     -33.230   8.619   0.889  1.00 20.00    -0.035 C 
HETATM   11  C6  UNL     1     -33.422   9.194  -0.474  1.00 20.00     0.036 C 
ENDBRANCH   8   9
ENDBRANCH   7   8
ENDBRANCH   3   7
TORSDOF 3
ENDMDL
MODEL 2
REMARK VINA RESULT:      -4.3     11.571     12.956
REMARK  3 active torsions:
REMARK  status: ('A' for Active; 'I' for Inactive)
REMARK    1  A    between atoms: C2_2  and  C7_7 
REMARK    2  A    between atoms: C5_5  and  C8_8 
REMARK    3  A    between atoms: C7_7  and  C8_8 
ROOT
HETATM    1  C3  UNL     1     -33.892  15.435  -7.900  1.00 20.00     0.281 C 
HETATM    2  C4  UNL     1     -34.489  16.764  -7.459  1.00 20.00     0.106 C 
HETATM    3  C5  UNL     1     -34.404  14.818  -5.686  1.00 20.00     0.282 C 
HETATM    4  N9  UNL     1     -33.352  14.785  -6.705  1.00 20.00     0.098 N 
HETATM    5  S10 UNL     1     -35.333  16.368  -5.910  1.00 20.00    -0.132 SA
HETATM    6  H25 UNL     1     -33.081  13.825  -6.908  1.00 20.00     0.317 HD
ENDROOT
BRANCH   3   7
HETATM    7  C8  UNL     1     -33.796  14.743  -4.295  1.00 20.00     0.050 C 
BRANCH   7   8
HETATM    8  C7  UNL     1     -34.790  15.193  -3.225  1.00 20.00     0.030 C 
BRANCH   8   9
HETATM    9  C2  UNL     1     -34.176  16.204  -2.301  1.00 20.00    -0.031 C 
HETATM   10  C1  UNL     1     -33.073  16.909  -2.595  1.00 20.00    -0.035 C 
HETATM   11  C6  UNL     1     -32.457  17.910  -1.675  1.00 20.00     0.036 C 
ENDBRANCH   8   9
ENDBRANCH   7   8
ENDBRANCH   3   7
TORSDOF 3
ENDMDL
MODEL 3
REMARK VINA RESULT:      -4.3     11.464     12.788
REMARK  3 active torsions:
REMARK  status: ('A' for Active; 'I' for Inactive)
REMARK    1  A    between atoms: C2_2  and  C7_7 
REMARK    2  A    between atoms: C5_5  and  C8_8 
REMARK    3  A    between atoms: C7_7  and  C8_8 
ROOT
HETATM    1  C3  UNL     1     -33.937  15.539  -7.734  1.00 20.00     0.281 C 
HETATM    2  C4  UNL     1     -34.695  16.763  -7.240  1.00 20.00     0.106 C 
HETATM    3  C5  UNL     1     -34.588  14.669  -5.644  1.00 20.00     0.282 C 
HETATM    4  N9  UNL     1     -33.449  14.826  -6.552  1.00 20.00     0.098 N 
HETATM    5  S10 UNL     1     -35.635  16.148  -5.824  1.00 20.00    -0.132 SA
HETATM    6  H25 UNL     1     -33.071  13.916  -6.811  1.00 20.00     0.317 HD
ENDROOT
BRANCH   3   7
HETATM    7  C8  UNL     1     -34.105  14.513  -4.212  1.00 20.00     0.050 C 
BRANCH   7   8
HETATM    8  C7  UNL     1     -33.131  15.627  -3.826  1.00 20.00     0.030 C 
BRANCH   8   9
HETATM    9  C2  UNL     1     -33.619  16.384  -2.625  1.00 20.00    -0.031 C 
HETATM   10  C1  UNL     1     -34.787  16.140  -2.012  1.00 20.00    -0.035 C 
HETATM   11  C6  UNL     1     -35.276  16.896  -0.823  1.00 20.00     0.036 C 
ENDBRANCH   8   9
ENDBRANCH   7   8
ENDBRANCH   3   7
TORSDOF 3
ENDMDL
MODEL 4
REMARK VINA RESULT:      -4.0     11.333     12.569
REMARK  3 active torsions:
REMARK  status: ('A' for Active; 'I' for Inactive)
REMARK    1  A    between atoms: C2_2  and  C7_7 
REMARK    2  A    between atoms: C5_5  and  C8_8 
REMARK    3  A    between atoms: C7_7  and  C8_8 
ROOT
HETATM    1  C3  UNL     1     -35.701  15.382  -7.570  1.00 20.00     0.281 C 
HETATM    2  C4  UNL     1     -36.355  16.550  -6.847  1.00 20.00     0.106 C 
HETATM    3  C5  UNL     1     -36.016  14.315  -5.494  1.00 20.00     0.282 C 
HETATM    4  N9  UNL     1     -35.037  14.562  -6.556  1.00 20.00     0.098 N 
HETATM    5  S10 UNL     1     -37.061  15.800  -5.361  1.00 20.00    -0.132 SA
HETATM    6  H25 UNL     1     -34.716  13.683  -6.957  1.00 20.00     0.317 HD
ENDROOT
BRANCH   3   7
HETATM    7  C8  UNL     1     -35.309  14.026  -4.180  1.00 20.00     0.050 C 
BRANCH   7   8
HETATM    8  C7  UNL     1     -33.966  14.751  -4.096  1.00 20.00     0.030 C 
BRANCH   8   9
HETATM    9  C2  UNL     1     -33.965  15.770  -2.993  1.00 20.00    -0.031 C 
HETATM   10  C1  UNL     1     -34.994  15.962  -2.154  1.00 20.00    -0.035 C 
HETATM   11  C6  UNL     1     -34.997  16.978  -1.061  1.00 20.00     0.036 C 
ENDBRANCH   8   9
ENDBRANCH   7   8
ENDBRANCH   3   7
TORSDOF 3
ENDMDL
MODEL 5
REMARK VINA RESULT:      -4.0     11.251     12.142
REMARK  3 active torsions:
REMARK  status: ('A' for Active; 'I' for Inactive)
REMARK    1  A    between atoms: C2_2  and  C7_7 
REMARK    2  A    between atoms: C5_5  and  C8_8 
REMARK    3  A    between atoms: C7_7  and  C8_8 
ROOT
HETATM    1  C3  UNL     1     -34.364  15.002  -6.533  1.00 20.00     0.281 C 
HETATM    2  C4  UNL     1     -35.737  14.596  -6.020  1.00 20.00     0.106 C 
HETATM    3  C5  UNL     1     -33.830  14.958  -4.239  1.00 20.00     0.282 C 
HETATM    4  N9  UNL     1     -33.707  15.755  -5.463  1.00 20.00     0.098 N 
HETATM    5  S10 UNL     1     -35.431  14.094  -4.310  1.00 20.00    -0.132 SA
HETATM    6  H25 UNL     1     -32.727  15.918  -5.686  1.00 20.00     0.317 HD
ENDROOT
BRANCH   3   7
HETATM    7  C8  UNL     1     -33.747  15.854  -3.014  1.00 20.00     0.050 C 
BRANCH   7   8
HETATM    8  C7  UNL     1     -35.094  15.945  -2.296  1.00 20.00     0.030 C 
BRANCH   8   9
HETATM    9  C2  UNL     1     -35.017  16.861  -1.109  1.00 20.00    -0.031 C 
HETATM   10  C1  UNL     1     -34.007  17.715  -0.890  1.00 20.00    -0.035 C 
HETATM   11  C6  UNL     1     -33.926  18.622   0.292  1.00 20.00     0.036 C 
ENDBRANCH   8   9
ENDBRANCH   7   8
ENDBRANCH   3   7
TORSDOF 3
ENDMDL
MODEL 6
REMARK VINA RESULT:      -4.0     15.524     16.407
REMARK  3 active torsions:
REMARK  status: ('A' for Active; 'I' for Inactive)
REMARK    1  A    between atoms: C2_2  and  C7_7 
REMARK    2  A    between atoms: C5_5  and  C8_8 
REMARK    3  A    between atoms: C7_7  and  C8_8 
ROOT
HETATM    1  C3  UNL     1     -21.945  17.440   8.974  1.00 20.00     0.281 C 
HETATM    2  C4  UNL     1     -22.577  18.818   9.095  1.00 20.00     0.106 C 
HETATM    3  C5  UNL     1     -23.920  16.772  10.071  1.00 20.00     0.282 C 
HETATM    4  N9  UNL     1     -22.462  16.629  10.078  1.00 20.00     0.098 N 
HETATM    5  S10 UNL     1     -24.297  18.470   9.531  1.00 20.00    -0.132 SA
HETATM    6  H25 UNL     1     -22.198  15.652   9.961  1.00 20.00     0.317 HD
ENDROOT
BRANCH   3   7
HETATM    7  C8  UNL     1     -24.484  16.502  11.456  1.00 20.00     0.050 C 
BRANCH   7   8
HETATM    8  C7  UNL     1     -25.156  17.745  12.038  1.00 20.00     0.030 C 
BRANCH   8   9
HETATM    9  C2  UNL     1     -26.606  17.494  12.332  1.00 20.00    -0.031 C 
HETATM   10  C1  UNL     1     -27.601  18.296  11.924  1.00 20.00    -0.035 C 
HETATM   11  C6  UNL     1     -29.042  18.051  12.221  1.00 20.00     0.036 C 
ENDBRANCH   8   9
ENDBRANCH   7   8
ENDBRANCH   3   7
TORSDOF 3
ENDMDL
MODEL 7
REMARK VINA RESULT:      -4.0     11.421     12.291
REMARK  3 active torsions:
REMARK  status: ('A' for Active; 'I' for Inactive)
REMARK    1  A    between atoms: C2_2  and  C7_7 
REMARK    2  A    between atoms: C5_5  and  C8_8 
REMARK    3  A    between atoms: C7_7  and  C8_8 
ROOT
HETATM    1  C3  UNL     1     -34.755  14.923  -6.589  1.00 20.00     0.281 C 
HETATM    2  C4  UNL     1     -36.000  14.853  -5.717  1.00 20.00     0.106 C 
HETATM    3  C5  UNL     1     -33.665  14.939  -4.500  1.00 20.00     0.282 C 
HETATM    4  N9  UNL     1     -33.718  15.599  -5.807  1.00 20.00     0.098 N 
HETATM    5  S10 UNL     1     -35.362  14.427  -4.081  1.00 20.00    -0.132 SA
HETATM    6  H25 UNL     1     -32.815  15.537  -6.275  1.00 20.00     0.317 HD
ENDROOT
BRANCH   3   7
HETATM    7  C8  UNL     1     -33.106  15.886  -3.451  1.00 20.00     0.050 C 
BRANCH   7   8
HETATM    8  C7  UNL     1     -34.152  16.225  -2.390  1.00 20.00     0.030 C 
BRANCH   8   9
HETATM    9  C2  UNL     1     -33.697  17.360  -1.519  1.00 20.00    -0.031 C 
HETATM   10  C1  UNL     1     -32.464  17.888  -1.565  1.00 20.00    -0.035 C 
HETATM   11  C6  UNL     1     -32.009  19.012  -0.696  1.00 20.00     0.036 C 
ENDBRANCH   8   9
ENDBRANCH   7   8
ENDBRANCH   3   7
TORSDOF 3
ENDMDL
MODEL 8
REMARK VINA RESULT:      -3.9     11.019     11.743
REMARK  3 active torsions:
REMARK  status: ('A' for Active; 'I' for Inactive)
REMARK    1  A    between atoms: C2_2  and  C7_7 
REMARK    2  A    between atoms: C5_5  and  C8_8 
REMARK    3  A    between atoms: C7_7  and  C8_8 
ROOT
HETATM    1  C3  UNL     1     -30.746  18.614   1.188  1.00 20.00     0.281 C 
HETATM    2  C4  UNL     1     -31.955  18.233   2.030  1.00 20.00     0.106 C 
HETATM    3  C5  UNL     1     -32.332  18.585  -0.553  1.00 20.00     0.282 C 
HETATM    4  N9  UNL     1     -30.994  18.127  -0.170  1.00 20.00     0.098 N 
HETATM    5  S10 UNL     1     -33.362  18.574   0.949  1.00 20.00    -0.132 SA
HETATM    6  H25 UNL     1     -30.295  18.488  -0.816  1.00 20.00     0.317 HD
ENDROOT
BRANCH   3   7
HETATM    7  C8  UNL     1     -32.916  17.677  -1.622  1.00 20.00     0.050 C 
BRANCH   7   8
HETATM    8  C7  UNL     1     -34.354  17.277  -1.292  1.00 20.00     0.030 C 
BRANCH   8   9
HETATM    9  C2  UNL     1     -34.781  16.075  -2.083  1.00 20.00    -0.031 C 
HETATM   10  C1  UNL     1     -34.053  15.537  -3.074  1.00 20.00    -0.035 C 
HETATM   11  C6  UNL     1     -34.479  14.346  -3.865  1.00 20.00     0.036 C 
ENDBRANCH   8   9
ENDBRANCH   7   8
ENDBRANCH   3   7
TORSDOF 3
ENDMDL
MODEL 9
REMARK VINA RESULT:      -3.7     11.083     12.228
REMARK  3 active torsions:
REMARK  status: ('A' for Active; 'I' for Inactive)
REMARK    1  A    between atoms: C2_2  and  C7_7 
REMARK    2  A    between atoms: C5_5  and  C8_8 
REMARK    3  A    between atoms: C7_7  and  C8_8 
ROOT
HETATM    1  C3  UNL     1     -33.462  14.582  -4.264  1.00 20.00     0.281 C 
HETATM    2  C4  UNL     1     -34.937  14.584  -3.891  1.00 20.00     0.106 C 
HETATM    3  C5  UNL     1     -33.436  16.526  -2.934  1.00 20.00     0.282 C 
HETATM    4  N9  UNL     1     -33.002  15.971  -4.219  1.00 20.00     0.098 N 
HETATM    5  S10 UNL     1     -35.038  15.763  -2.524  1.00 20.00    -0.132 SA
HETATM    6  H25 UNL     1     -31.988  16.018  -4.304  1.00 20.00     0.317 HD
ENDROOT
BRANCH   3   7
HETATM    7  C8  UNL     1     -33.559  18.038  -3.024  1.00 20.00     0.050 C 
BRANCH   7   8
HETATM    8  C7  UNL     1     -32.353  18.735  -2.396  1.00 20.00     0.030 C 
BRANCH   8   9
HETATM    9  C2  UNL     1     -32.178  18.332  -0.960  1.00 20.00    -0.031 C 
HETATM   10  C1  UNL     1     -31.048  18.526  -0.263  1.00 20.00    -0.035 C 
HETATM   11  C6  UNL     1     -30.871  18.120   1.162  1.00 20.00     0.036 C 
ENDBRANCH   8   9
ENDBRANCH   7   8
ENDBRANCH   3   7
TORSDOF 3
ENDMDL
