MODEL 1
REMARK VINA RESULT:      -5.0      0.000      0.000
REMARK  0 active torsions:
REMARK  status: ('A' for Active; 'I' for Inactive)
ROOT
HETATM    1  C1  UNL     1     -36.179  14.114  -4.811  1.00 20.00     0.131 C 
HETATM    2  C2  UNL     1     -35.743  14.288  -6.238  1.00 20.00     0.079 C 
HETATM    3  C3  UNL     1     -34.477  15.116  -6.085  1.00 20.00     0.013 C 
HETATM    4  C4  UNL     1     -35.205  15.110  -2.658  1.00 20.00     0.021 C 
HETATM    5  C5  UNL     1     -33.353  15.973  -3.941  1.00 20.00     0.014 C 
HETATM    6  C6  UNL     1     -35.014  14.185  -3.855  1.00 20.00     0.060 C 
HETATM    7  C7  UNL     1     -33.883  14.765  -4.716  1.00 20.00    -0.002 C 
HETATM    8  C8  UNL     1     -34.495  16.428  -3.012  1.00 20.00    -0.047 C 
HETATM    9  C9  UNL     1     -35.460  17.407  -3.700  1.00 20.00     0.015 C 
HETATM   10  C10 UNL     1     -33.934  17.111  -1.758  1.00 20.00     0.015 C 
HETATM   11  O11 UNL     1     -37.330  13.871  -4.477  1.00 20.00    -0.298 OA
ENDROOT
TORSDOF 0
ENDMDL
MODEL 2
REMARK VINA RESULT:      -5.0      1.341      2.014
REMARK  0 active torsions:
REMARK  status: ('A' for Active; 'I' for Inactive)
ROOT
HETATM    1  C1  UNL     1     -36.202  13.813  -4.581  1.00 20.00     0.131 C 
HETATM    2  C2  UNL     1     -37.584  14.397  -4.650  1.00 20.00     0.079 C 
HETATM    3  C3  UNL     1     -37.307  15.886  -4.508  1.00 20.00     0.013 C 
HETATM    4  C4  UNL     1     -33.952  14.954  -4.126  1.00 20.00     0.021 C 
HETATM    5  C5  UNL     1     -35.057  17.096  -4.246  1.00 20.00     0.014 C 
HETATM    6  C6  UNL     1     -35.154  14.792  -5.049  1.00 20.00     0.060 C 
HETATM    7  C7  UNL     1     -35.905  16.130  -5.077  1.00 20.00    -0.002 C 
HETATM    8  C8  UNL     1     -34.211  16.225  -3.298  1.00 20.00    -0.047 C 
HETATM    9  C9  UNL     1     -34.948  15.890  -1.991  1.00 20.00     0.015 C 
HETATM   10  C10 UNL     1     -32.898  16.932  -2.939  1.00 20.00     0.015 C 
HETATM   11  O11 UNL     1     -35.968  12.658  -4.253  1.00 20.00    -0.298 OA
ENDROOT
TORSDOF 0
ENDMDL
MODEL 3
REMARK VINA RESULT:      -4.5      1.618      2.853
REMARK  0 active torsions:
REMARK  status: ('A' for Active; 'I' for Inactive)
ROOT
HETATM    1  C1  UNL     1     -34.211  14.786  -4.408  1.00 20.00     0.131 C 
HETATM    2  C2  UNL     1     -32.911  15.339  -3.899  1.00 20.00     0.079 C 
HETATM    3  C3  UNL     1     -33.380  16.365  -2.879  1.00 20.00     0.013 C 
HETATM    4  C4  UNL     1     -36.620  15.496  -3.891  1.00 20.00     0.021 C 
HETATM    5  C5  UNL     1     -35.775  16.976  -2.183  1.00 20.00     0.014 C 
HETATM    6  C6  UNL     1     -35.311  14.901  -3.383  1.00 20.00     0.060 C 
HETATM    7  C7  UNL     1     -34.730  15.871  -2.346  1.00 20.00    -0.002 C 
HETATM    8  C8  UNL     1     -36.609  16.978  -3.477  1.00 20.00    -0.047 C 
HETATM    9  C9  UNL     1     -35.988  17.852  -4.578  1.00 20.00     0.015 C 
HETATM   10  C10 UNL     1     -38.031  17.489  -3.206  1.00 20.00     0.015 C 
HETATM   11  O11 UNL     1     -34.338  14.242  -5.497  1.00 20.00    -0.298 OA
ENDROOT
TORSDOF 0
ENDMDL
MODEL 4
REMARK VINA RESULT:      -4.4      1.471      2.393
REMARK  0 active torsions:
REMARK  status: ('A' for Active; 'I' for Inactive)
ROOT
HETATM    1  C1  UNL     1     -37.490  14.832  -4.608  1.00 20.00     0.131 C 
HETATM    2  C2  UNL     1     -38.450  15.982  -4.514  1.00 20.00     0.079 C 
HETATM    3  C3  UNL     1     -37.511  17.171  -4.389  1.00 20.00     0.013 C 
HETATM    4  C4  UNL     1     -34.934  14.798  -4.404  1.00 20.00     0.021 C 
HETATM    5  C5  UNL     1     -34.943  17.211  -4.376  1.00 20.00     0.014 C 
HETATM    6  C6  UNL     1     -36.161  15.255  -5.185  1.00 20.00     0.060 C 
HETATM    7  C7  UNL     1     -36.216  16.787  -5.113  1.00 20.00    -0.002 C 
HETATM    8  C8  UNL     1     -34.502  15.996  -3.539  1.00 20.00    -0.047 C 
HETATM    9  C9  UNL     1     -35.179  15.952  -2.160  1.00 20.00     0.015 C 
HETATM   10  C10 UNL     1     -32.982  16.007  -3.326  1.00 20.00     0.015 C 
HETATM   11  O11 UNL     1     -37.779  13.678  -4.321  1.00 20.00    -0.298 OA
ENDROOT
TORSDOF 0
ENDMDL
MODEL 5
REMARK VINA RESULT:      -4.4      1.524      2.413
REMARK  0 active torsions:
REMARK  status: ('A' for Active; 'I' for Inactive)
ROOT
HETATM    1  C1  UNL     1     -35.622  15.584  -5.953  1.00 20.00     0.131 C 
HETATM    2  C2  UNL     1     -36.140  14.190  -5.748  1.00 20.00     0.079 C 
HETATM    3  C3  UNL     1     -35.935  13.990  -4.255  1.00 20.00     0.013 C 
HETATM    4  C4  UNL     1     -34.481  17.177  -4.299  1.00 20.00     0.021 C 
HETATM    5  C5  UNL     1     -34.978  15.624  -2.521  1.00 20.00     0.014 C 
HETATM    6  C6  UNL     1     -35.740  16.417  -4.700  1.00 20.00     0.060 C 
HETATM    7  C7  UNL     1     -36.025  15.377  -3.609  1.00 20.00    -0.002 C 
HETATM    8  C8  UNL     1     -33.797  16.334  -3.208  1.00 20.00    -0.047 C 
HETATM    9  C9  UNL     1     -32.793  15.347  -3.825  1.00 20.00     0.015 C 
HETATM   10  C10 UNL     1     -33.042  17.223  -2.211  1.00 20.00     0.015 C 
HETATM   11  O11 UNL     1     -35.222  16.010  -7.028  1.00 20.00    -0.298 OA
ENDROOT
TORSDOF 0
ENDMDL
MODEL 6
REMARK VINA RESULT:      -4.4      2.551      4.411
REMARK  0 active torsions:
REMARK  status: ('A' for Active; 'I' for Inactive)
ROOT
HETATM    1  C1  UNL     1     -33.155  18.464  -2.819  1.00 20.00     0.131 C 
HETATM    2  C2  UNL     1     -34.267  19.261  -2.200  1.00 20.00     0.079 C 
HETATM    3  C3  UNL     1     -35.296  18.185  -1.891  1.00 20.00     0.013 C 
HETATM    4  C4  UNL     1     -33.051  15.973  -3.421  1.00 20.00     0.021 C 
HETATM    5  C5  UNL     1     -35.160  15.653  -2.295  1.00 20.00     0.014 C 
HETATM    6  C6  UNL     1     -33.149  17.036  -2.332  1.00 20.00     0.060 C 
HETATM    7  C7  UNL     1     -34.518  16.885  -1.655  1.00 20.00    -0.002 C 
HETATM    8  C8  UNL     1     -34.486  15.474  -3.668  1.00 20.00    -0.047 C 
HETATM    9  C9  UNL     1     -35.171  16.293  -4.773  1.00 20.00     0.015 C 
HETATM   10  C10 UNL     1     -34.496  13.999  -4.089  1.00 20.00     0.015 C 
HETATM   11  O11 UNL     1     -32.315  18.939  -3.571  1.00 20.00    -0.298 OA
ENDROOT
TORSDOF 0
ENDMDL
MODEL 7
REMARK VINA RESULT:      -4.3      2.288      4.101
REMARK  0 active torsions:
REMARK  status: ('A' for Active; 'I' for Inactive)
ROOT
HETATM    1  C1  UNL     1     -33.283  17.380  -2.803  1.00 20.00     0.131 C 
HETATM    2  C2  UNL     1     -33.894  17.475  -1.434  1.00 20.00     0.079 C 
HETATM    3  C3  UNL     1     -35.095  16.552  -1.557  1.00 20.00     0.013 C 
HETATM    4  C4  UNL     1     -34.122  16.166  -4.900  1.00 20.00     0.021 C 
HETATM    5  C5  UNL     1     -35.868  15.161  -3.573  1.00 20.00     0.014 C 
HETATM    6  C6  UNL     1     -33.603  16.065  -3.470  1.00 20.00     0.060 C 
HETATM    7  C7  UNL     1     -34.732  15.492  -2.604  1.00 20.00    -0.002 C 
HETATM    8  C8  UNL     1     -35.654  16.050  -4.812  1.00 20.00    -0.047 C 
HETATM    9  C9  UNL     1     -36.304  17.435  -4.665  1.00 20.00     0.015 C 
HETATM   10  C10 UNL     1     -36.233  15.381  -6.066  1.00 20.00     0.015 C 
HETATM   11  O11 UNL     1     -32.555  18.238  -3.284  1.00 20.00    -0.298 OA
ENDROOT
TORSDOF 0
ENDMDL
MODEL 8
REMARK VINA RESULT:      -4.3     10.826     12.366
REMARK  0 active torsions:
REMARK  status: ('A' for Active; 'I' for Inactive)
ROOT
HETATM    1  C1  UNL     1     -42.418   8.452   0.098  1.00 20.00     0.131 C 
HETATM    2  C2  UNL     1     -41.251   8.391   1.041  1.00 20.00     0.079 C 
HETATM    3  C3  UNL     1     -40.619   7.056   0.679  1.00 20.00     0.013 C 
HETATM    4  C4  UNL     1     -43.290   6.701  -1.560  1.00 20.00     0.021 C 
HETATM    5  C5  UNL     1     -41.339   5.356  -1.106  1.00 20.00     0.014 C 
HETATM    6  C6  UNL     1     -42.169   7.652  -1.157  1.00 20.00     0.060 C 
HETATM    7  C7  UNL     1     -40.943   6.802  -0.797  1.00 20.00    -0.002 C 
HETATM    8  C8  UNL     1     -42.878   5.308  -1.053  1.00 20.00    -0.047 C 
HETATM    9  C9  UNL     1     -43.412   5.057   0.366  1.00 20.00     0.015 C 
HETATM   10  C10 UNL     1     -43.417   4.202  -1.970  1.00 20.00     0.015 C 
HETATM   11  O11 UNL     1     -43.417   9.131   0.295  1.00 20.00    -0.298 OA
ENDROOT
TORSDOF 0
ENDMDL
MODEL 9
REMARK VINA RESULT:      -4.3      1.003      1.063
REMARK  0 active torsions:
REMARK  status: ('A' for Active; 'I' for Inactive)
ROOT
HETATM    1  C1  UNL     1     -35.535  13.949  -5.090  1.00 20.00     0.131 C 
HETATM    2  C2  UNL     1     -35.872  14.524  -6.435  1.00 20.00     0.079 C 
HETATM    3  C3  UNL     1     -35.380  15.956  -6.301  1.00 20.00     0.013 C 
HETATM    4  C4  UNL     1     -34.580  15.090  -3.002  1.00 20.00     0.021 C 
HETATM    5  C5  UNL     1     -34.239  17.094  -4.302  1.00 20.00     0.014 C 
HETATM    6  C6  UNL     1     -34.369  14.661  -4.450  1.00 20.00     0.060 C 
HETATM    7  C7  UNL     1     -34.222  15.932  -5.297  1.00 20.00    -0.002 C 
HETATM    8  C8  UNL     1     -34.966  16.579  -3.045  1.00 20.00    -0.047 C 
HETATM    9  C9  UNL     1     -36.491  16.750  -3.134  1.00 20.00     0.015 C 
HETATM   10  C10 UNL     1     -34.473  17.317  -1.793  1.00 20.00     0.015 C 
HETATM   11  O11 UNL     1     -36.095  12.973  -4.608  1.00 20.00    -0.298 OA
ENDROOT
TORSDOF 0
ENDMDL
