MODEL 1
REMARK VINA RESULT:      -4.9      0.000      0.000
REMARK  1 active torsions:
REMARK  status: ('A' for Active; 'I' for Inactive)
REMARK    1  A    between atoms: C1_1  and  C5_5 
ROOT
HETATM    1  C2  UNL     1     -34.527  15.909  -2.438  1.00 20.00     0.006 C 
HETATM    2  C3  UNL     1     -33.315  16.064  -3.369  1.00 20.00     0.006 C 
HETATM    3  C4  UNL     1     -34.370  14.019  -3.867  1.00 20.00     0.011 C 
HETATM    4  C5  UNL     1     -36.065  15.642  -4.398  1.00 20.00     0.059 C 
HETATM    5  C6  UNL     1     -35.419  14.910  -3.199  1.00 20.00    -0.003 C 
HETATM    6  C7  UNL     1     -33.694  15.194  -4.583  1.00 20.00    -0.006 C 
HETATM    7  C8  UNL     1     -34.880  15.805  -5.402  1.00 20.00    -0.034 C 
HETATM    8  C9  UNL     1     -35.056  15.033  -6.726  1.00 20.00     0.016 C 
HETATM    9  C10 UNL     1     -34.670  17.285  -5.768  1.00 20.00     0.016 C 
ENDROOT
BRANCH   4  10
HETATM   10  C1  UNL     1     -37.239  14.870  -4.922  1.00 20.00     0.236 C 
HETATM   11  O11 UNL     1     -37.732  13.909  -4.339  1.00 20.00    -0.306 OA
ENDBRANCH   4  10
TORSDOF 1
ENDMDL
MODEL 2
REMARK VINA RESULT:      -4.8      1.266      1.339
REMARK  1 active torsions:
REMARK  status: ('A' for Active; 'I' for Inactive)
REMARK    1  A    between atoms: C1_1  and  C5_5 
ROOT
HETATM    1  C2  UNL     1     -34.711  16.036  -2.201  1.00 20.00     0.006 C 
HETATM    2  C3  UNL     1     -34.209  17.209  -3.056  1.00 20.00     0.006 C 
HETATM    3  C4  UNL     1     -33.521  15.202  -4.079  1.00 20.00     0.011 C 
HETATM    4  C5  UNL     1     -35.921  15.054  -4.163  1.00 20.00     0.059 C 
HETATM    5  C6  UNL     1     -34.726  14.864  -3.200  1.00 20.00    -0.003 C 
HETATM    6  C7  UNL     1     -34.069  16.583  -4.458  1.00 20.00    -0.006 C 
HETATM    7  C8  UNL     1     -35.457  16.225  -5.086  1.00 20.00    -0.034 C 
HETATM    8  C9  UNL     1     -35.276  15.834  -6.568  1.00 20.00     0.016 C 
HETATM    9  C10 UNL     1     -36.463  17.387  -5.047  1.00 20.00     0.016 C 
ENDROOT
BRANCH   4  10
HETATM   10  C1  UNL     1     -36.239  13.772  -4.874  1.00 20.00     0.236 C 
HETATM   11  O11 UNL     1     -35.882  12.670  -4.473  1.00 20.00    -0.306 OA
ENDBRANCH   4  10
TORSDOF 1
ENDMDL
MODEL 3
REMARK VINA RESULT:      -4.7      1.073      2.451
REMARK  1 active torsions:
REMARK  status: ('A' for Active; 'I' for Inactive)
REMARK    1  A    between atoms: C1_1  and  C5_5 
ROOT
HETATM    1  C2  UNL     1     -33.381  14.545  -4.203  1.00 20.00     0.006 C 
HETATM    2  C3  UNL     1     -33.004  15.931  -3.662  1.00 20.00     0.006 C 
HETATM    3  C4  UNL     1     -34.625  16.213  -5.347  1.00 20.00     0.011 C 
HETATM    4  C5  UNL     1     -35.799  14.939  -3.676  1.00 20.00     0.059 C 
HETATM    5  C6  UNL     1     -34.771  14.783  -4.822  1.00 20.00    -0.003 C 
HETATM    6  C7  UNL     1     -34.254  16.778  -3.971  1.00 20.00    -0.006 C 
HETATM    7  C8  UNL     1     -35.484  16.356  -3.099  1.00 20.00    -0.034 C 
HETATM    8  C9  UNL     1     -36.624  17.381  -3.270  1.00 20.00     0.016 C 
HETATM    9  C10 UNL     1     -35.169  16.278  -1.596  1.00 20.00     0.016 C 
ENDROOT
BRANCH   4  10
HETATM   10  C1  UNL     1     -37.197  14.759  -4.189  1.00 20.00     0.236 C 
HETATM   11  O11 UNL     1     -37.695  13.664  -4.427  1.00 20.00    -0.306 OA
ENDBRANCH   4  10
TORSDOF 1
ENDMDL
MODEL 4
REMARK VINA RESULT:      -4.7      1.323      1.808
REMARK  1 active torsions:
REMARK  status: ('A' for Active; 'I' for Inactive)
REMARK    1  A    between atoms: C1_1  and  C5_5 
ROOT
HETATM    1  C2  UNL     1     -35.412  16.874  -2.312  1.00 20.00     0.006 C 
HETATM    2  C3  UNL     1     -34.956  17.829  -3.425  1.00 20.00     0.006 C 
HETATM    3  C4  UNL     1     -33.385  16.082  -3.262  1.00 20.00     0.011 C 
HETATM    4  C5  UNL     1     -35.402  14.935  -3.899  1.00 20.00     0.059 C 
HETATM    5  C6  UNL     1     -34.696  15.559  -2.672  1.00 20.00    -0.003 C 
HETATM    6  C7  UNL     1     -34.094  16.925  -4.328  1.00 20.00    -0.006 C 
HETATM    7  C8  UNL     1     -34.950  15.851  -5.080  1.00 20.00    -0.034 C 
HETATM    8  C9  UNL     1     -34.086  15.140  -6.142  1.00 20.00     0.016 C 
HETATM    9  C10 UNL     1     -36.167  16.443  -5.811  1.00 20.00     0.016 C 
ENDROOT
BRANCH   4  10
HETATM   10  C1  UNL     1     -35.036  13.487  -4.042  1.00 20.00     0.236 C 
HETATM   11  O11 UNL     1     -35.822  12.624  -4.420  1.00 20.00    -0.306 OA
ENDBRANCH   4  10
TORSDOF 1
ENDMDL
MODEL 5
REMARK VINA RESULT:      -4.5      1.144      2.982
REMARK  1 active torsions:
REMARK  status: ('A' for Active; 'I' for Inactive)
REMARK    1  A    between atoms: C1_1  and  C5_5 
ROOT
HETATM    1  C2  UNL     1     -34.453  16.058  -6.655  1.00 20.00     0.006 C 
HETATM    2  C3  UNL     1     -34.423  17.352  -5.830  1.00 20.00     0.006 C 
HETATM    3  C4  UNL     1     -36.316  16.109  -5.186  1.00 20.00     0.011 C 
HETATM    4  C5  UNL     1     -34.490  14.668  -4.571  1.00 20.00     0.059 C 
HETATM    5  C6  UNL     1     -35.321  15.121  -5.795  1.00 20.00    -0.003 C 
HETATM    6  C7  UNL     1     -35.216  16.976  -4.563  1.00 20.00    -0.006 C 
HETATM    7  C8  UNL     1     -34.449  15.943  -3.671  1.00 20.00    -0.034 C 
HETATM    8  C9  UNL     1     -35.166  15.788  -2.313  1.00 20.00     0.016 C 
HETATM    9  C10 UNL     1     -32.998  16.355  -3.369  1.00 20.00     0.016 C 
ENDROOT
BRANCH   4  10
HETATM   10  C1  UNL     1     -35.106  13.458  -3.931  1.00 20.00     0.236 C 
HETATM   11  O11 UNL     1     -35.829  12.670  -4.530  1.00 20.00    -0.306 OA
ENDBRANCH   4  10
TORSDOF 1
ENDMDL
MODEL 6
REMARK VINA RESULT:      -4.3      2.015      3.408
REMARK  1 active torsions:
REMARK  status: ('A' for Active; 'I' for Inactive)
REMARK    1  A    between atoms: C1_1  and  C5_5 
ROOT
HETATM    1  C2  UNL     1     -36.037  14.429  -5.285  1.00 20.00     0.006 C 
HETATM    2  C3  UNL     1     -35.378  13.709  -4.100  1.00 20.00     0.006 C 
HETATM    3  C4  UNL     1     -33.685  14.738  -5.372  1.00 20.00     0.011 C 
HETATM    4  C5  UNL     1     -34.997  16.606  -4.609  1.00 20.00     0.059 C 
HETATM    5  C6  UNL     1     -34.986  15.484  -5.674  1.00 20.00    -0.003 C 
HETATM    6  C7  UNL     1     -34.062  14.487  -3.907  1.00 20.00    -0.006 C 
HETATM    7  C8  UNL     1     -34.306  15.940  -3.377  1.00 20.00    -0.034 C 
HETATM    8  C9  UNL     1     -32.963  16.584  -2.974  1.00 20.00     0.016 C 
HETATM    9  C10 UNL     1     -35.220  15.994  -2.141  1.00 20.00     0.016 C 
ENDROOT
BRANCH   4  10
HETATM   10  C1  UNL     1     -34.317  17.838  -5.129  1.00 20.00     0.236 C 
HETATM   11  O11 UNL     1     -34.209  18.099  -6.323  1.00 20.00    -0.306 OA
ENDBRANCH   4  10
TORSDOF 1
ENDMDL
MODEL 7
REMARK VINA RESULT:      -4.2      1.494      2.438
REMARK  1 active torsions:
REMARK  status: ('A' for Active; 'I' for Inactive)
REMARK    1  A    between atoms: C1_1  and  C5_5 
ROOT
HETATM    1  C2  UNL     1     -33.957  17.790  -3.759  1.00 20.00     0.006 C 
HETATM    2  C3  UNL     1     -33.364  16.813  -2.733  1.00 20.00     0.006 C 
HETATM    3  C4  UNL     1     -35.688  16.452  -2.837  1.00 20.00     0.011 C 
HETATM    4  C5  UNL     1     -34.957  15.897  -5.061  1.00 20.00     0.059 C 
HETATM    5  C6  UNL     1     -35.280  17.110  -4.156  1.00 20.00    -0.003 C 
HETATM    6  C7  UNL     1     -34.383  15.656  -2.723  1.00 20.00    -0.006 C 
HETATM    7  C8  UNL     1     -34.373  14.848  -4.063  1.00 20.00    -0.034 C 
HETATM    8  C9  UNL     1     -35.224  13.570  -3.912  1.00 20.00     0.016 C 
HETATM    9  C10 UNL     1     -32.966  14.402  -4.497  1.00 20.00     0.016 C 
ENDROOT
BRANCH   4  10
HETATM   10  C1  UNL     1     -36.180  15.452  -5.808  1.00 20.00     0.236 C 
HETATM   11  O11 UNL     1     -36.145  14.953  -6.928  1.00 20.00    -0.306 OA
ENDBRANCH   4  10
TORSDOF 1
ENDMDL
MODEL 8
REMARK VINA RESULT:      -4.2      2.435      3.492
REMARK  1 active torsions:
REMARK  status: ('A' for Active; 'I' for Inactive)
REMARK    1  A    between atoms: C1_1  and  C5_5 
ROOT
HETATM    1  C2  UNL     1     -33.333  14.662  -4.173  1.00 20.00     0.006 C 
HETATM    2  C3  UNL     1     -34.769  14.205  -3.878  1.00 20.00     0.006 C 
HETATM    3  C4  UNL     1     -34.241  15.970  -2.412  1.00 20.00     0.011 C 
HETATM    4  C5  UNL     1     -34.107  17.010  -4.578  1.00 20.00     0.059 C 
HETATM    5  C6  UNL     1     -33.308  16.098  -3.617  1.00 20.00    -0.003 C 
HETATM    6  C7  UNL     1     -35.414  15.460  -3.258  1.00 20.00    -0.006 C 
HETATM    7  C8  UNL     1     -35.591  16.612  -4.303  1.00 20.00    -0.034 C 
HETATM    8  C9  UNL     1     -36.453  17.740  -3.698  1.00 20.00     0.016 C 
HETATM    9  C10 UNL     1     -36.287  16.159  -5.598  1.00 20.00     0.016 C 
ENDROOT
BRANCH   4  10
HETATM   10  C1  UNL     1     -33.781  18.454  -4.332  1.00 20.00     0.236 C 
HETATM   11  O11 UNL     1     -32.685  18.844  -3.943  1.00 20.00    -0.306 OA
ENDBRANCH   4  10
TORSDOF 1
ENDMDL
MODEL 9
REMARK VINA RESULT:      -4.0      1.207      1.485
REMARK  1 active torsions:
REMARK  status: ('A' for Active; 'I' for Inactive)
REMARK    1  A    between atoms: C1_1  and  C5_5 
ROOT
HETATM    1  C2  UNL     1     -34.925  16.178  -1.816  1.00 20.00     0.006 C 
HETATM    2  C3  UNL     1     -33.858  17.185  -2.268  1.00 20.00     0.006 C 
HETATM    3  C4  UNL     1     -33.696  15.275  -3.636  1.00 20.00     0.011 C 
HETATM    4  C5  UNL     1     -35.904  16.100  -4.121  1.00 20.00     0.059 C 
HETATM    5  C6  UNL     1     -35.114  15.294  -3.063  1.00 20.00    -0.003 C 
HETATM    6  C7  UNL     1     -33.620  16.803  -3.742  1.00 20.00    -0.006 C 
HETATM    7  C8  UNL     1     -34.855  17.131  -4.645  1.00 20.00    -0.034 C 
HETATM    8  C9  UNL     1     -34.480  16.958  -6.132  1.00 20.00     0.016 C 
HETATM    9  C10 UNL     1     -35.370  18.571  -4.476  1.00 20.00     0.016 C 
ENDROOT
BRANCH   4  10
HETATM   10  C1  UNL     1     -36.474  15.187  -5.166  1.00 20.00     0.236 C 
HETATM   11  O11 UNL     1     -37.604  15.310  -5.629  1.00 20.00    -0.306 OA
ENDBRANCH   4  10
TORSDOF 1
ENDMDL
