MODEL 1
REMARK VINA RESULT:      -4.7      0.000      0.000
REMARK  3 active torsions:
REMARK  status: ('A' for Active; 'I' for Inactive)
REMARK    1  A    between atoms: C5_5  and  N8_8 
REMARK    2  A    between atoms: C6_6  and  C7_7 
REMARK    3  A    between atoms: C7_7  and  N8_8 
ROOT
HETATM    1  C1  UNL     1     -32.921   8.771   0.370  1.00 20.00     0.013 C 
HETATM    2  C2  UNL     1     -32.658   8.061   1.301  1.00 20.00    -0.087 C 
HETATM    3  C5  UNL     1     -32.331   7.197   2.438  1.00 20.00     0.364 C 
ENDROOT
BRANCH   3   4
HETATM    4  N8  UNL     1     -33.468   6.343   2.780  1.00 20.00     0.095 N 
HETATM    5  C4  UNL     1     -33.140   4.937   2.549  1.00 20.00     0.310 C 
BRANCH   4   6
HETATM    6  C7  UNL     1     -33.863   6.553   4.173  1.00 20.00     0.272 C 
BRANCH   6   7
HETATM    7  C6  UNL     1     -34.941   5.574   4.624  1.00 20.00     0.026 C 
HETATM    8  C3  UNL     1     -34.752   5.111   6.061  1.00 20.00     0.007 C 
ENDBRANCH   6   7
ENDBRANCH   4   6
ENDBRANCH   3   4
TORSDOF 3
ENDMDL
MODEL 2
REMARK VINA RESULT:      -4.2      0.548      4.348
REMARK  3 active torsions:
REMARK  status: ('A' for Active; 'I' for Inactive)
REMARK    1  A    between atoms: C5_5  and  N8_8 
REMARK    2  A    between atoms: C6_6  and  C7_7 
REMARK    3  A    between atoms: C7_7  and  N8_8 
ROOT
HETATM    1  C1  UNL     1     -34.821   5.030   5.959  1.00 20.00     0.013 C 
HETATM    2  C2  UNL     1     -34.449   5.847   5.161  1.00 20.00    -0.087 C 
HETATM    3  C5  UNL     1     -34.001   6.847   4.189  1.00 20.00     0.364 C 
ENDROOT
BRANCH   3   4
HETATM    4  N8  UNL     1     -32.867   6.342   3.416  1.00 20.00     0.095 N 
HETATM    5  C4  UNL     1     -33.312   5.341   2.447  1.00 20.00     0.310 C 
BRANCH   4   6
HETATM    6  C7  UNL     1     -32.182   7.442   2.736  1.00 20.00     0.272 C 
BRANCH   6   7
HETATM    7  C6  UNL     1     -32.541   7.523   1.257  1.00 20.00     0.026 C 
HETATM    8  C3  UNL     1     -32.862   8.941   0.806  1.00 20.00     0.007 C 
ENDBRANCH   6   7
ENDBRANCH   4   6
ENDBRANCH   3   4
TORSDOF 3
ENDMDL
MODEL 3
REMARK VINA RESULT:      -3.5      1.910      4.066
REMARK  3 active torsions:
REMARK  status: ('A' for Active; 'I' for Inactive)
REMARK    1  A    between atoms: C5_5  and  N8_8 
REMARK    2  A    between atoms: C6_6  and  C7_7 
REMARK    3  A    between atoms: C7_7  and  N8_8 
ROOT
HETATM    1  C1  UNL     1     -33.620   7.335   6.107  1.00 20.00     0.013 C 
HETATM    2  C2  UNL     1     -34.121   6.249   6.003  1.00 20.00    -0.087 C 
HETATM    3  C5  UNL     1     -34.731   4.923   5.883  1.00 20.00     0.364 C 
ENDROOT
BRANCH   3   4
HETATM    4  N8  UNL     1     -34.983   4.597   4.480  1.00 20.00     0.095 N 
HETATM    5  C4  UNL     1     -35.806   5.631   3.853  1.00 20.00     0.310 C 
BRANCH   4   6
HETATM    6  C7  UNL     1     -33.721   4.440   3.756  1.00 20.00     0.272 C 
BRANCH   6   7
HETATM    7  C6  UNL     1     -33.660   5.303   2.501  1.00 20.00     0.026 C 
HETATM    8  C3  UNL     1     -32.652   6.437   2.614  1.00 20.00     0.007 C 
ENDBRANCH   6   7
ENDBRANCH   4   6
ENDBRANCH   3   4
TORSDOF 3
ENDMDL
MODEL 4
REMARK VINA RESULT:      -3.5     15.769     16.797
REMARK  3 active torsions:
REMARK  status: ('A' for Active; 'I' for Inactive)
REMARK    1  A    between atoms: C5_5  and  N8_8 
REMARK    2  A    between atoms: C6_6  and  C7_7 
REMARK    3  A    between atoms: C7_7  and  N8_8 
ROOT
HETATM    1  C1  UNL     1     -24.578  15.892  11.472  1.00 20.00     0.013 C 
HETATM    2  C2  UNL     1     -23.717  16.721  11.354  1.00 20.00    -0.087 C 
HETATM    3  C5  UNL     1     -22.665  17.731  11.217  1.00 20.00     0.364 C 
ENDROOT
BRANCH   3   4
HETATM    4  N8  UNL     1     -22.572  18.194   9.833  1.00 20.00     0.095 N 
HETATM    5  C4  UNL     1     -22.212  17.089   8.946  1.00 20.00     0.310 C 
BRANCH   4   6
HETATM    6  C7  UNL     1     -23.836  18.798   9.410  1.00 20.00     0.272 C 
BRANCH   6   7
HETATM    7  C6  UNL     1     -24.059  18.684   7.907  1.00 20.00     0.026 C 
HETATM    8  C3  UNL     1     -25.495  18.980   7.500  1.00 20.00     0.007 C 
ENDBRANCH   6   7
ENDBRANCH   4   6
ENDBRANCH   3   4
TORSDOF 3
ENDMDL
MODEL 5
REMARK VINA RESULT:      -3.4      0.882      1.315
REMARK  3 active torsions:
REMARK  status: ('A' for Active; 'I' for Inactive)
REMARK    1  A    between atoms: C5_5  and  N8_8 
REMARK    2  A    between atoms: C6_6  and  C7_7 
REMARK    3  A    between atoms: C7_7  and  N8_8 
ROOT
HETATM    1  C1  UNL     1     -32.919   9.053   0.895  1.00 20.00     0.013 C 
HETATM    2  C2  UNL     1     -32.769   7.954   1.354  1.00 20.00    -0.087 C 
HETATM    3  C5  UNL     1     -32.586   6.610   1.908  1.00 20.00     0.364 C 
ENDROOT
BRANCH   3   4
HETATM    4  N8  UNL     1     -32.727   6.629   3.363  1.00 20.00     0.095 N 
HETATM    5  C4  UNL     1     -31.954   7.729   3.939  1.00 20.00     0.310 C 
BRANCH   4   6
HETATM    6  C7  UNL     1     -34.136   6.744   3.739  1.00 20.00     0.272 C 
BRANCH   6   7
HETATM    7  C6  UNL     1     -34.665   5.479   4.404  1.00 20.00     0.026 C 
HETATM    8  C3  UNL     1     -34.633   5.556   5.924  1.00 20.00     0.007 C 
ENDBRANCH   6   7
ENDBRANCH   4   6
ENDBRANCH   3   4
TORSDOF 3
ENDMDL
MODEL 6
REMARK VINA RESULT:      -3.3     10.704     11.424
REMARK  3 active torsions:
REMARK  status: ('A' for Active; 'I' for Inactive)
REMARK    1  A    between atoms: C5_5  and  N8_8 
REMARK    2  A    between atoms: C6_6  and  C7_7 
REMARK    3  A    between atoms: C7_7  and  N8_8 
ROOT
HETATM    1  C1  UNL     1     -34.999  16.581  -1.402  1.00 20.00     0.013 C 
HETATM    2  C2  UNL     1     -34.366  16.211  -2.353  1.00 20.00    -0.087 C 
HETATM    3  C5  UNL     1     -33.588  15.762  -3.510  1.00 20.00     0.364 C 
ENDROOT
BRANCH   3   4
HETATM    4  N8  UNL     1     -34.463  15.165  -4.519  1.00 20.00     0.095 N 
HETATM    5  C4  UNL     1     -33.746  14.996  -5.782  1.00 20.00     0.310 C 
BRANCH   4   6
HETATM    6  C7  UNL     1     -34.982  13.881  -4.050  1.00 20.00     0.272 C 
BRANCH   6   7
HETATM    7  C6  UNL     1     -36.376  13.585  -4.593  1.00 20.00     0.026 C 
HETATM    8  C3  UNL     1     -37.373  14.694  -4.290  1.00 20.00     0.007 C 
ENDBRANCH   6   7
ENDBRANCH   4   6
ENDBRANCH   3   4
TORSDOF 3
ENDMDL
MODEL 7
REMARK VINA RESULT:      -3.3     16.354     16.742
REMARK  3 active torsions:
REMARK  status: ('A' for Active; 'I' for Inactive)
REMARK    1  A    between atoms: C5_5  and  N8_8 
REMARK    2  A    between atoms: C6_6  and  C7_7 
REMARK    3  A    between atoms: C7_7  and  N8_8 
ROOT
HETATM    1  C1  UNL     1     -21.917  17.339   8.343  1.00 20.00     0.013 C 
HETATM    2  C2  UNL     1     -22.812  17.508   9.125  1.00 20.00    -0.087 C 
HETATM    3  C5  UNL     1     -23.906  17.719  10.076  1.00 20.00     0.364 C 
ENDROOT
BRANCH   3   4
HETATM    4  N8  UNL     1     -23.619  17.058  11.348  1.00 20.00     0.095 N 
HETATM    5  C4  UNL     1     -22.473  17.688  12.004  1.00 20.00     0.310 C 
BRANCH   4   6
HETATM    6  C7  UNL     1     -24.792  17.097  12.221  1.00 20.00     0.272 C 
BRANCH   6   7
HETATM    7  C6  UNL     1     -25.456  18.469  12.241  1.00 20.00     0.026 C 
HETATM    8  C3  UNL     1     -26.966  18.395  12.076  1.00 20.00     0.007 C 
ENDBRANCH   6   7
ENDBRANCH   4   6
ENDBRANCH   3   4
TORSDOF 3
ENDMDL
MODEL 8
REMARK VINA RESULT:      -3.3      9.409     10.133
REMARK  3 active torsions:
REMARK  status: ('A' for Active; 'I' for Inactive)
REMARK    1  A    between atoms: C5_5  and  N8_8 
REMARK    2  A    between atoms: C6_6  and  C7_7 
REMARK    3  A    between atoms: C7_7  and  N8_8 
ROOT
HETATM    1  C1  UNL     1     -43.024   3.134  -2.702  1.00 20.00     0.013 C 
HETATM    2  C2  UNL     1     -43.138   4.151  -2.075  1.00 20.00    -0.087 C 
HETATM    3  C5  UNL     1     -43.281   5.394  -1.313  1.00 20.00     0.364 C 
ENDROOT
BRANCH   3   4
HETATM    4  N8  UNL     1     -42.245   5.492  -0.285  1.00 20.00     0.095 N 
HETATM    5  C4  UNL     1     -40.921   5.574  -0.899  1.00 20.00     0.310 C 
BRANCH   4   6
HETATM    6  C7  UNL     1     -42.484   6.653   0.572  1.00 20.00     0.272 C 
BRANCH   6   7
HETATM    7  C6  UNL     1     -41.289   7.598   0.614  1.00 20.00     0.026 C 
HETATM    8  C3  UNL     1     -41.661   9.034   0.274  1.00 20.00     0.007 C 
ENDBRANCH   6   7
ENDBRANCH   4   6
ENDBRANCH   3   4
TORSDOF 3
ENDMDL
MODEL 9
REMARK VINA RESULT:      -3.2     10.662     11.569
REMARK  3 active torsions:
REMARK  status: ('A' for Active; 'I' for Inactive)
REMARK    1  A    between atoms: C5_5  and  N8_8 
REMARK    2  A    between atoms: C6_6  and  C7_7 
REMARK    3  A    between atoms: C7_7  and  N8_8 
ROOT
HETATM    1  C1  UNL     1     -37.332  14.382  -4.426  1.00 20.00     0.013 C 
HETATM    2  C2  UNL     1     -36.164  14.174  -4.243  1.00 20.00    -0.087 C 
HETATM    3  C5  UNL     1     -34.741  13.916  -4.016  1.00 20.00     0.364 C 
ENDROOT
BRANCH   3   4
HETATM    4  N8  UNL     1     -33.924  14.984  -4.590  1.00 20.00     0.095 N 
HETATM    5  C4  UNL     1     -34.131  15.066  -6.036  1.00 20.00     0.310 C 
BRANCH   4   6
HETATM    6  C7  UNL     1     -34.238  16.264  -3.956  1.00 20.00     0.272 C 
BRANCH   6   7
HETATM    7  C6  UNL     1     -33.836  16.299  -2.486  1.00 20.00     0.026 C 
HETATM    8  C3  UNL     1     -35.008  16.594  -1.562  1.00 20.00     0.007 C 
ENDBRANCH   6   7
ENDBRANCH   4   6
ENDBRANCH   3   4
TORSDOF 3
ENDMDL
