MODEL 1
REMARK VINA RESULT:      -5.4      0.000      0.000
REMARK  0 active torsions:
REMARK  status: ('A' for Active; 'I' for Inactive)
ROOT
HETATM    1  C1  UNL     1     -33.366   6.658   4.074  1.00 20.00     0.011 C 
HETATM    2  C2  UNL     1     -32.431   7.271   3.068  1.00 20.00     0.054 C 
HETATM    3  C3  UNL     1     -32.670   6.395   1.837  1.00 20.00     0.006 C 
HETATM    4  C4  UNL     1     -35.155   5.265   5.694  1.00 20.00     0.022 C 
HETATM    5  C5  UNL     1     -33.213   5.073   2.385  1.00 20.00     0.011 C 
HETATM    6  C6  UNL     1     -34.482   4.503   4.560  1.00 20.00     0.012 C 
HETATM    7  C7  UNL     1     -34.229   6.334   6.268  1.00 20.00     0.148 C 
HETATM    8  C8  UNL     1     -34.154   5.520   3.495  1.00 20.00     0.033 C 
HETATM    9  N9  UNL     1     -33.423   7.073   5.287  1.00 20.00    -0.298 NA
ENDROOT
TORSDOF 0
ENDMDL
MODEL 2
REMARK VINA RESULT:      -5.4      1.257      3.749
REMARK  0 active torsions:
REMARK  status: ('A' for Active; 'I' for Inactive)
ROOT
HETATM    1  C1  UNL     1     -34.106   5.485   3.943  1.00 20.00     0.011 C 
HETATM    2  C2  UNL     1     -34.883   4.718   4.978  1.00 20.00     0.054 C 
HETATM    3  C3  UNL     1     -34.961   5.725   6.127  1.00 20.00     0.006 C 
HETATM    4  C4  UNL     1     -32.617   7.155   2.280  1.00 20.00     0.022 C 
HETATM    5  C5  UNL     1     -33.778   6.673   5.911  1.00 20.00     0.011 C 
HETATM    6  C6  UNL     1     -32.472   7.338   3.785  1.00 20.00     0.012 C 
HETATM    7  C7  UNL     1     -32.865   5.691   1.923  1.00 20.00     0.148 C 
HETATM    8  C8  UNL     1     -33.768   6.873   4.401  1.00 20.00     0.033 C 
HETATM    9  N9  UNL     1     -33.763   4.958   2.825  1.00 20.00    -0.298 NA
ENDROOT
TORSDOF 0
ENDMDL
MODEL 3
REMARK VINA RESULT:      -4.8      0.773      3.183
REMARK  0 active torsions:
REMARK  status: ('A' for Active; 'I' for Inactive)
ROOT
HETATM    1  C1  UNL     1     -33.497   6.480   4.583  1.00 20.00     0.011 C 
HETATM    2  C2  UNL     1     -34.064   6.677   5.962  1.00 20.00     0.054 C 
HETATM    3  C3  UNL     1     -34.894   5.406   6.148  1.00 20.00     0.006 C 
HETATM    4  C4  UNL     1     -32.661   5.828   2.005  1.00 20.00     0.022 C 
HETATM    5  C5  UNL     1     -35.213   4.924   4.731  1.00 20.00     0.011 C 
HETATM    6  C6  UNL     1     -33.999   5.275   2.480  1.00 20.00     0.012 C 
HETATM    7  C7  UNL     1     -32.388   7.205   2.606  1.00 20.00     0.148 C 
HETATM    8  C8  UNL     1     -33.910   5.169   3.982  1.00 20.00     0.033 C 
HETATM    9  N9  UNL     1     -32.776   7.375   4.012  1.00 20.00    -0.298 NA
ENDROOT
TORSDOF 0
ENDMDL
MODEL 4
REMARK VINA RESULT:      -4.4     15.756     16.232
REMARK  0 active torsions:
REMARK  status: ('A' for Active; 'I' for Inactive)
ROOT
HETATM    1  C1  UNL     1     -24.546  18.213  10.038  1.00 20.00     0.011 C 
HETATM    2  C2  UNL     1     -23.944  18.990   8.900  1.00 20.00     0.054 C 
HETATM    3  C3  UNL     1     -22.957  17.980   8.313  1.00 20.00     0.006 C 
HETATM    4  C4  UNL     1     -25.414  16.521  12.076  1.00 20.00     0.022 C 
HETATM    5  C5  UNL     1     -22.647  17.010   9.455  1.00 20.00     0.011 C 
HETATM    6  C6  UNL     1     -23.999  16.329  11.548  1.00 20.00     0.012 C 
HETATM    7  C7  UNL     1     -25.826  17.991  12.032  1.00 20.00     0.148 C 
HETATM    8  C8  UNL     1     -24.004  16.816  10.120  1.00 20.00     0.033 C 
HETATM    9  N9  UNL     1     -25.397  18.738  10.843  1.00 20.00    -0.298 NA
ENDROOT
TORSDOF 0
ENDMDL
MODEL 5
REMARK VINA RESULT:      -4.4     11.706     12.500
REMARK  0 active torsions:
REMARK  status: ('A' for Active; 'I' for Inactive)
ROOT
HETATM    1  C1  UNL     1     -33.526  16.244  -2.749  1.00 20.00     0.011 C 
HETATM    2  C2  UNL     1     -32.993  17.429  -1.992  1.00 20.00     0.054 C 
HETATM    3  C3  UNL     1     -34.139  17.729  -1.024  1.00 20.00     0.006 C 
HETATM    4  C4  UNL     1     -34.824  14.106  -3.979  1.00 20.00     0.022 C 
HETATM    5  C5  UNL     1     -35.386  17.134  -1.682  1.00 20.00     0.011 C 
HETATM    6  C6  UNL     1     -35.685  15.208  -3.375  1.00 20.00     0.012 C 
HETATM    7  C7  UNL     1     -33.516  14.667  -4.531  1.00 20.00     0.148 C 
HETATM    8  C8  UNL     1     -34.878  15.818  -2.256  1.00 20.00     0.033 C 
HETATM    9  N9  UNL     1     -32.878  15.713  -3.721  1.00 20.00    -0.298 NA
ENDROOT
TORSDOF 0
ENDMDL
MODEL 6
REMARK VINA RESULT:      -4.4      1.143      2.070
REMARK  0 active torsions:
REMARK  status: ('A' for Active; 'I' for Inactive)
ROOT
HETATM    1  C1  UNL     1     -33.843   5.288   3.660  1.00 20.00     0.011 C 
HETATM    2  C2  UNL     1     -33.462   5.066   2.222  1.00 20.00     0.054 C 
HETATM    3  C3  UNL     1     -32.537   6.254   1.953  1.00 20.00     0.006 C 
HETATM    4  C4  UNL     1     -34.380   6.013   6.297  1.00 20.00     0.022 C 
HETATM    5  C5  UNL     1     -32.932   7.314   2.984  1.00 20.00     0.011 C 
HETATM    6  C6  UNL     1     -34.034   7.122   5.312  1.00 20.00     0.012 C 
HETATM    7  C7  UNL     1     -35.143   4.882   5.612  1.00 20.00     0.148 C 
HETATM    8  C8  UNL     1     -33.171   6.494   4.246  1.00 20.00     0.033 C 
HETATM    9  N9  UNL     1     -34.680   4.525   4.264  1.00 20.00    -0.298 NA
ENDROOT
TORSDOF 0
ENDMDL
MODEL 7
REMARK VINA RESULT:      -4.3     14.617     15.483
REMARK  0 active torsions:
REMARK  status: ('A' for Active; 'I' for Inactive)
ROOT
HETATM    1  C1  UNL     1     -24.945  19.263   4.847  1.00 20.00     0.011 C 
HETATM    2  C2  UNL     1     -24.580  19.262   3.388  1.00 20.00     0.054 C 
HETATM    3  C3  UNL     1     -25.953  19.206   2.718  1.00 20.00     0.006 C 
HETATM    4  C4  UNL     1     -25.958  19.204   7.443  1.00 20.00     0.022 C 
HETATM    5  C5  UNL     1     -26.887  18.595   3.765  1.00 20.00     0.011 C 
HETATM    6  C6  UNL     1     -26.780  18.542   6.344  1.00 20.00     0.012 C 
HETATM    7  C7  UNL     1     -24.462  19.072   7.170  1.00 20.00     0.148 C 
HETATM    8  C8  UNL     1     -26.430  19.252   5.060  1.00 20.00     0.033 C 
HETATM    9  N9  UNL     1     -24.052  19.239   5.769  1.00 20.00    -0.298 NA
ENDROOT
TORSDOF 0
ENDMDL
MODEL 8
REMARK VINA RESULT:      -4.3     16.517     17.267
REMARK  0 active torsions:
REMARK  status: ('A' for Active; 'I' for Inactive)
ROOT
HETATM    1  C1  UNL     1     -23.226  17.885  10.936  1.00 20.00     0.011 C 
HETATM    2  C2  UNL     1     -23.768  18.022  12.332  1.00 20.00     0.054 C 
HETATM    3  C3  UNL     1     -25.268  18.176  12.075  1.00 20.00     0.006 C 
HETATM    4  C4  UNL     1     -22.552  17.707   8.236  1.00 20.00     0.022 C 
HETATM    5  C5  UNL     1     -25.379  18.701  10.642  1.00 20.00     0.011 C 
HETATM    6  C6  UNL     1     -23.803  18.494   8.607  1.00 20.00     0.012 C 
HETATM    7  C7  UNL     1     -21.481  17.831   9.317  1.00 20.00     0.148 C 
HETATM    8  C8  UNL     1     -24.311  17.907   9.901  1.00 20.00     0.033 C 
HETATM    9  N9  UNL     1     -21.966  17.796  10.703  1.00 20.00    -0.298 NA
ENDROOT
TORSDOF 0
ENDMDL
MODEL 9
REMARK VINA RESULT:      -4.3     16.204     16.939
REMARK  0 active torsions:
REMARK  status: ('A' for Active; 'I' for Inactive)
ROOT
HETATM    1  C1  UNL     1     -23.800  18.517   8.368  1.00 20.00     0.011 C 
HETATM    2  C2  UNL     1     -25.181  19.013   8.040  1.00 20.00     0.054 C 
HETATM    3  C3  UNL     1     -25.767  19.263   9.430  1.00 20.00     0.006 C 
HETATM    4  C4  UNL     1     -21.347  17.596   9.319  1.00 20.00     0.022 C 
HETATM    5  C5  UNL     1     -24.960  18.367  10.373  1.00 20.00     0.011 C 
HETATM    6  C6  UNL     1     -22.570  17.404  10.206  1.00 20.00     0.012 C 
HETATM    7  C7  UNL     1     -21.715  17.498   7.840  1.00 20.00     0.148 C 
HETATM    8  C8  UNL     1     -23.538  18.503   9.845  1.00 20.00     0.033 C 
HETATM    9  N9  UNL     1     -22.985  18.127   7.456  1.00 20.00    -0.298 NA
ENDROOT
TORSDOF 0
ENDMDL
