MODEL 1
REMARK VINA RESULT:      -4.0      0.000      0.000
REMARK  2 active torsions:
REMARK  status: ('A' for Active; 'I' for Inactive)
REMARK    1  A    between atoms: C1_1  and  C6_6 
REMARK    2  A    between atoms: C7_7  and  N8_8 
ROOT
HETATM    1  C3  UNL     1     -35.945   5.749   3.876  1.00 20.00     0.039 C 
HETATM    2  C4  UNL     1     -34.031   4.120   3.923  1.00 20.00     0.039 C 
HETATM    3  C5  UNL     1     -34.703   5.323   6.024  1.00 20.00     0.039 C 
HETATM    4  C7  UNL     1     -34.590   5.418   4.503  1.00 20.00     0.042 C 
ENDROOT
BRANCH   4   5
HETATM    5  N8  UNL     1     -33.650   6.499   4.174  1.00 20.00    -0.296 NA
HETATM    6  C1  UNL     1     -33.166   6.384   2.990  1.00 20.00     0.084 C 
BRANCH   6   7
HETATM    7  C6  UNL     1     -32.180   7.393   2.474  1.00 20.00     0.042 C 
HETATM    8  C2  UNL     1     -32.722   8.049   1.218  1.00 20.00     0.010 C 
ENDBRANCH   6   7
ENDBRANCH   4   5
TORSDOF 2
ENDMDL
MODEL 2
REMARK VINA RESULT:      -4.0      0.033      1.533
REMARK  2 active torsions:
REMARK  status: ('A' for Active; 'I' for Inactive)
REMARK    1  A    between atoms: C1_1  and  C6_6 
REMARK    2  A    between atoms: C7_7  and  N8_8 
ROOT
HETATM    1  C3  UNL     1     -34.756   5.355   6.024  1.00 20.00     0.039 C 
HETATM    2  C4  UNL     1     -35.951   5.777   3.854  1.00 20.00     0.039 C 
HETATM    3  C5  UNL     1     -34.067   4.117   3.944  1.00 20.00     0.039 C 
HETATM    4  C7  UNL     1     -34.613   5.430   4.504  1.00 20.00     0.042 C 
ENDROOT
BRANCH   4   5
HETATM    5  N8  UNL     1     -33.663   6.504   4.181  1.00 20.00    -0.296 NA
HETATM    6  C1  UNL     1     -33.174   6.386   2.999  1.00 20.00     0.084 C 
BRANCH   6   7
HETATM    7  C6  UNL     1     -32.178   7.388   2.489  1.00 20.00     0.042 C 
HETATM    8  C2  UNL     1     -32.703   8.042   1.225  1.00 20.00     0.010 C 
ENDBRANCH   6   7
ENDBRANCH   4   5
TORSDOF 2
ENDMDL
MODEL 3
REMARK VINA RESULT:      -3.6     15.719     16.539
REMARK  2 active torsions:
REMARK  status: ('A' for Active; 'I' for Inactive)
REMARK    1  A    between atoms: C1_1  and  C6_6 
REMARK    2  A    between atoms: C7_7  and  N8_8 
ROOT
HETATM    1  C3  UNL     1     -25.387  18.305  11.753  1.00 20.00     0.039 C 
HETATM    2  C4  UNL     1     -24.625  15.912  11.650  1.00 20.00     0.039 C 
HETATM    3  C5  UNL     1     -22.988  17.724  12.245  1.00 20.00     0.039 C 
HETATM    4  C7  UNL     1     -24.225  17.369  11.420  1.00 20.00     0.042 C 
ENDROOT
BRANCH   4   5
HETATM    5  N8  UNL     1     -23.896  17.526   9.997  1.00 20.00    -0.296 NA
HETATM    6  C1  UNL     1     -24.542  18.491   9.448  1.00 20.00     0.084 C 
BRANCH   6   7
HETATM    7  C6  UNL     1     -24.343  18.803   7.992  1.00 20.00     0.042 C 
HETATM    8  C2  UNL     1     -25.687  19.005   7.319  1.00 20.00     0.010 C 
ENDBRANCH   6   7
ENDBRANCH   4   5
TORSDOF 2
ENDMDL
MODEL 4
REMARK VINA RESULT:      -3.5     15.922     16.897
REMARK  2 active torsions:
REMARK  status: ('A' for Active; 'I' for Inactive)
REMARK    1  A    between atoms: C1_1  and  C6_6 
REMARK    2  A    between atoms: C7_7  and  N8_8 
ROOT
HETATM    1  C3  UNL     1     -24.294  15.927  11.219  1.00 20.00     0.039 C 
HETATM    2  C4  UNL     1     -22.919  17.105   9.475  1.00 20.00     0.039 C 
HETATM    3  C5  UNL     1     -22.692  17.747  11.894  1.00 20.00     0.039 C 
HETATM    4  C7  UNL     1     -23.648  17.251  10.811  1.00 20.00     0.042 C 
ENDROOT
BRANCH   4   5
HETATM    5  N8  UNL     1     -24.712  18.251  10.635  1.00 20.00    -0.296 NA
HETATM    6  C1  UNL     1     -25.506  18.303  11.643  1.00 20.00     0.084 C 
BRANCH   6   7
HETATM    7  C6  UNL     1     -26.662  19.262  11.646  1.00 20.00     0.042 C 
HETATM    8  C2  UNL     1     -27.963  18.503  11.822  1.00 20.00     0.010 C 
ENDBRANCH   6   7
ENDBRANCH   4   5
TORSDOF 2
ENDMDL
MODEL 5
REMARK VINA RESULT:      -3.2     11.261     12.349
REMARK  2 active torsions:
REMARK  status: ('A' for Active; 'I' for Inactive)
REMARK    1  A    between atoms: C1_1  and  C6_6 
REMARK    2  A    between atoms: C7_7  and  N8_8 
ROOT
HETATM    1  C3  UNL     1     -35.128  16.909  -0.891  1.00 20.00     0.039 C 
HETATM    2  C4  UNL     1     -32.843  17.773  -1.485  1.00 20.00     0.039 C 
HETATM    3  C5  UNL     1     -34.775  18.164  -3.044  1.00 20.00     0.039 C 
HETATM    4  C7  UNL     1     -34.153  17.204  -2.031  1.00 20.00     0.042 C 
ENDROOT
BRANCH   4   5
HETATM    5  N8  UNL     1     -33.844  15.941  -2.716  1.00 20.00    -0.296 NA
HETATM    6  C1  UNL     1     -34.895  15.361  -3.172  1.00 20.00     0.084 C 
BRANCH   6   7
HETATM    7  C6  UNL     1     -34.781  14.051  -3.899  1.00 20.00     0.042 C 
HETATM    8  C2  UNL     1     -36.117  13.686  -4.519  1.00 20.00     0.010 C 
ENDBRANCH   6   7
ENDBRANCH   4   5
TORSDOF 2
ENDMDL
MODEL 6
REMARK VINA RESULT:      -3.2     11.885     12.860
REMARK  2 active torsions:
REMARK  status: ('A' for Active; 'I' for Inactive)
REMARK    1  A    between atoms: C1_1  and  C6_6 
REMARK    2  A    between atoms: C7_7  and  N8_8 
ROOT
HETATM    1  C3  UNL     1     -34.884  16.773  -4.646  1.00 20.00     0.039 C 
HETATM    2  C4  UNL     1     -33.190  15.006  -4.072  1.00 20.00     0.039 C 
HETATM    3  C5  UNL     1     -34.705  15.916  -2.285  1.00 20.00     0.039 C 
HETATM    4  C7  UNL     1     -33.940  16.239  -3.568  1.00 20.00     0.042 C 
ENDROOT
BRANCH   4   5
HETATM    5  N8  UNL     1     -32.945  17.278  -3.267  1.00 20.00    -0.296 NA
HETATM    6  C1  UNL     1     -33.039  17.712  -2.061  1.00 20.00     0.084 C 
BRANCH   6   7
HETATM    7  C6  UNL     1     -32.109  18.784  -1.568  1.00 20.00     0.042 C 
HETATM    8  C2  UNL     1     -31.233  18.237  -0.457  1.00 20.00     0.010 C 
ENDBRANCH   6   7
ENDBRANCH   4   5
TORSDOF 2
ENDMDL
MODEL 7
REMARK VINA RESULT:      -3.1     11.510     12.301
REMARK  2 active torsions:
REMARK  status: ('A' for Active; 'I' for Inactive)
REMARK    1  A    between atoms: C1_1  and  C6_6 
REMARK    2  A    between atoms: C7_7  and  N8_8 
ROOT
HETATM    1  C3  UNL     1     -34.539  15.291  -6.099  1.00 20.00     0.039 C 
HETATM    2  C4  UNL     1     -32.907  14.389  -4.413  1.00 20.00     0.039 C 
HETATM    3  C5  UNL     1     -35.366  13.951  -4.135  1.00 20.00     0.039 C 
HETATM    4  C7  UNL     1     -34.315  14.945  -4.627  1.00 20.00     0.042 C 
ENDROOT
BRANCH   4   5
HETATM    5  N8  UNL     1     -34.436  16.178  -3.837  1.00 20.00    -0.296 NA
HETATM    6  C1  UNL     1     -34.071  16.016  -2.616  1.00 20.00     0.084 C 
BRANCH   6   7
HETATM    7  C6  UNL     1     -34.129  17.165  -1.650  1.00 20.00     0.042 C 
HETATM    8  C2  UNL     1     -35.280  16.968  -0.681  1.00 20.00     0.010 C 
ENDBRANCH   6   7
ENDBRANCH   4   5
TORSDOF 2
ENDMDL
MODEL 8
REMARK VINA RESULT:      -3.1     11.513     12.380
REMARK  2 active torsions:
REMARK  status: ('A' for Active; 'I' for Inactive)
REMARK    1  A    between atoms: C1_1  and  C6_6 
REMARK    2  A    between atoms: C7_7  and  N8_8 
ROOT
HETATM    1  C3  UNL     1     -32.878  14.386  -4.426  1.00 20.00     0.039 C 
HETATM    2  C4  UNL     1     -35.339  13.994  -4.098  1.00 20.00     0.039 C 
HETATM    3  C5  UNL     1     -34.533  15.312  -6.080  1.00 20.00     0.039 C 
HETATM    4  C7  UNL     1     -34.279  14.967  -4.613  1.00 20.00     0.042 C 
ENDROOT
BRANCH   4   5
HETATM    5  N8  UNL     1     -34.379  16.201  -3.821  1.00 20.00    -0.296 NA
HETATM    6  C1  UNL     1     -34.079  16.016  -2.586  1.00 20.00     0.084 C 
BRANCH   6   7
HETATM    7  C6  UNL     1     -34.129  17.162  -1.616  1.00 20.00     0.042 C 
HETATM    8  C2  UNL     1     -35.287  16.975  -0.655  1.00 20.00     0.010 C 
ENDBRANCH   6   7
ENDBRANCH   4   5
TORSDOF 2
ENDMDL
MODEL 9
REMARK VINA RESULT:      -3.1     11.527     12.391
REMARK  2 active torsions:
REMARK  status: ('A' for Active; 'I' for Inactive)
REMARK    1  A    between atoms: C1_1  and  C6_6 
REMARK    2  A    between atoms: C7_7  and  N8_8 
ROOT
HETATM    1  C3  UNL     1     -35.383  13.969  -4.150  1.00 20.00     0.039 C 
HETATM    2  C4  UNL     1     -34.526  15.318  -6.091  1.00 20.00     0.039 C 
HETATM    3  C5  UNL     1     -32.911  14.361  -4.420  1.00 20.00     0.039 C 
HETATM    4  C7  UNL     1     -34.308  14.947  -4.624  1.00 20.00     0.042 C 
ENDROOT
BRANCH   4   5
HETATM    5  N8  UNL     1     -34.417  16.177  -3.828  1.00 20.00    -0.296 NA
HETATM    6  C1  UNL     1     -34.062  16.003  -2.606  1.00 20.00     0.084 C 
BRANCH   6   7
HETATM    7  C6  UNL     1     -34.111  17.147  -1.633  1.00 20.00     0.042 C 
HETATM    8  C2  UNL     1     -32.756  17.826  -1.565  1.00 20.00     0.010 C 
ENDBRANCH   6   7
ENDBRANCH   4   5
TORSDOF 2
ENDMDL
