MODEL 1
REMARK VINA RESULT:      -4.5      0.000      0.000
REMARK  1 active torsions:
REMARK  status: ('A' for Active; 'I' for Inactive)
REMARK    1  A    between atoms: C1_1  and  C6_6 
ROOT
HETATM    1  C2  UNL     1     -35.343  16.731  -5.756  1.00 20.00     0.001 C 
HETATM    2  C3  UNL     1     -36.658  16.153  -5.243  1.00 20.00     0.011 C 
HETATM    3  C4  UNL     1     -34.421  17.138  -4.610  1.00 20.00     0.009 C 
HETATM    4  C5  UNL     1     -35.446  15.337  -3.146  1.00 20.00     0.020 C 
HETATM    5  C6  UNL     1     -36.469  15.014  -4.242  1.00 20.00     0.048 C 
HETATM    6  C7  UNL     1     -34.124  15.986  -3.627  1.00 20.00    -0.047 C 
HETATM    7  C8  UNL     1     -33.193  14.945  -4.276  1.00 20.00     0.015 C 
HETATM    8  C9  UNL     1     -33.384  16.560  -2.400  1.00 20.00     0.015 C 
ENDROOT
BRANCH   5   9
HETATM    9  C1  UNL     1     -36.150  13.718  -4.927  1.00 20.00     0.235 C 
HETATM   10  O10 UNL     1     -36.027  12.652  -4.334  1.00 20.00    -0.306 OA
ENDBRANCH   5   9
TORSDOF 1
ENDMDL
MODEL 2
REMARK VINA RESULT:      -4.5      1.867      2.764
REMARK  1 active torsions:
REMARK  status: ('A' for Active; 'I' for Inactive)
REMARK    1  A    between atoms: C1_1  and  C6_6 
ROOT
HETATM    1  C2  UNL     1     -35.788  15.132  -3.191  1.00 20.00     0.001 C 
HETATM    2  C3  UNL     1     -34.930  14.047  -3.834  1.00 20.00     0.011 C 
HETATM    3  C4  UNL     1     -34.961  16.044  -2.288  1.00 20.00     0.009 C 
HETATM    4  C5  UNL     1     -32.919  15.621  -3.734  1.00 20.00     0.020 C 
HETATM    5  C6  UNL     1     -33.705  14.597  -4.562  1.00 20.00     0.048 C 
HETATM    6  C7  UNL     1     -33.766  16.699  -3.013  1.00 20.00    -0.047 C 
HETATM    7  C8  UNL     1     -34.254  17.778  -3.998  1.00 20.00     0.015 C 
HETATM    8  C9  UNL     1     -32.877  17.403  -1.967  1.00 20.00     0.015 C 
ENDROOT
BRANCH   5   9
HETATM    9  C1  UNL     1     -34.059  15.140  -5.916  1.00 20.00     0.235 C 
HETATM   10  O10 UNL     1     -33.564  14.728  -6.960  1.00 20.00    -0.306 OA
ENDBRANCH   5   9
TORSDOF 1
ENDMDL
MODEL 3
REMARK VINA RESULT:      -4.3      1.271      2.090
REMARK  1 active torsions:
REMARK  status: ('A' for Active; 'I' for Inactive)
REMARK    1  A    between atoms: C1_1  and  C6_6 
ROOT
HETATM    1  C2  UNL     1     -33.799  14.453  -4.255  1.00 20.00     0.001 C 
HETATM    2  C3  UNL     1     -34.820  14.664  -5.367  1.00 20.00     0.011 C 
HETATM    3  C4  UNL     1     -33.315  15.780  -3.674  1.00 20.00     0.009 C 
HETATM    4  C5  UNL     1     -35.547  16.842  -4.245  1.00 20.00     0.020 C 
HETATM    5  C6  UNL     1     -35.989  15.556  -4.955  1.00 20.00     0.048 C 
HETATM    6  C7  UNL     1     -34.462  16.672  -3.153  1.00 20.00    -0.047 C 
HETATM    7  C8  UNL     1     -35.058  16.089  -1.858  1.00 20.00     0.015 C 
HETATM    8  C9  UNL     1     -33.890  18.063  -2.809  1.00 20.00     0.015 C 
ENDROOT
BRANCH   5   9
HETATM    9  C1  UNL     1     -37.005  14.804  -4.146  1.00 20.00     0.235 C 
HETATM   10  O10 UNL     1     -37.450  13.708  -4.470  1.00 20.00    -0.306 OA
ENDBRANCH   5   9
TORSDOF 1
ENDMDL
MODEL 4
REMARK VINA RESULT:      -4.2     18.255     19.250
REMARK  1 active torsions:
REMARK  status: ('A' for Active; 'I' for Inactive)
REMARK    1  A    between atoms: C1_1  and  C6_6 
ROOT
HETATM    1  C2  UNL     1     -22.091  17.990  11.774  1.00 20.00     0.001 C 
HETATM    2  C3  UNL     1     -23.088  16.892  12.129  1.00 20.00     0.011 C 
HETATM    3  C4  UNL     1     -21.530  17.811  10.366  1.00 20.00     0.009 C 
HETATM    4  C5  UNL     1     -23.686  16.679   9.653  1.00 20.00     0.020 C 
HETATM    5  C6  UNL     1     -24.202  16.729  11.097  1.00 20.00     0.048 C 
HETATM    6  C7  UNL     1     -22.623  17.741   9.278  1.00 20.00    -0.047 C 
HETATM    7  C8  UNL     1     -23.266  19.125   9.065  1.00 20.00     0.015 C 
HETATM    8  C9  UNL     1     -21.968  17.330   7.943  1.00 20.00     0.015 C 
ENDROOT
BRANCH   5   9
HETATM    9  C1  UNL     1     -25.270  17.771  11.262  1.00 20.00     0.235 C 
HETATM   10  O10 UNL     1     -25.518  18.320  12.330  1.00 20.00    -0.306 OA
ENDBRANCH   5   9
TORSDOF 1
ENDMDL
MODEL 5
REMARK VINA RESULT:      -4.2     10.629     12.570
REMARK  1 active torsions:
REMARK  status: ('A' for Active; 'I' for Inactive)
REMARK    1  A    between atoms: C1_1  and  C6_6 
ROOT
HETATM    1  C2  UNL     1     -42.823   6.068   1.476  1.00 20.00     0.001 C 
HETATM    2  C3  UNL     1     -43.417   7.412   1.069  1.00 20.00     0.011 C 
HETATM    3  C4  UNL     1     -42.961   5.029   0.366  1.00 20.00     0.009 C 
HETATM    4  C5  UNL     1     -42.873   6.877  -1.371  1.00 20.00     0.020 C 
HETATM    5  C6  UNL     1     -42.875   7.935  -0.260  1.00 20.00     0.048 C 
HETATM    6  C7  UNL     1     -42.337   5.480  -0.972  1.00 20.00    -0.047 C 
HETATM    7  C8  UNL     1     -40.799   5.476  -0.881  1.00 20.00     0.015 C 
HETATM    8  C9  UNL     1     -42.733   4.470  -2.069  1.00 20.00     0.015 C 
ENDROOT
BRANCH   5   9
HETATM    9  C1  UNL     1     -41.522   8.565  -0.100  1.00 20.00     0.235 C 
HETATM   10  O10 UNL     1     -41.353   9.701   0.330  1.00 20.00    -0.306 OA
ENDBRANCH   5   9
TORSDOF 1
ENDMDL
MODEL 6
REMARK VINA RESULT:      -4.1      1.306      2.744
REMARK  1 active torsions:
REMARK  status: ('A' for Active; 'I' for Inactive)
REMARK    1  A    between atoms: C1_1  and  C6_6 
ROOT
HETATM    1  C2  UNL     1     -34.422  15.732  -2.669  1.00 20.00     0.001 C 
HETATM    2  C3  UNL     1     -33.952  14.842  -3.815  1.00 20.00     0.011 C 
HETATM    3  C4  UNL     1     -34.836  17.116  -3.162  1.00 20.00     0.009 C 
HETATM    4  C5  UNL     1     -35.497  16.120  -5.399  1.00 20.00     0.020 C 
HETATM    5  C6  UNL     1     -34.956  14.753  -4.963  1.00 20.00     0.048 C 
HETATM    6  C7  UNL     1     -35.923  17.074  -4.256  1.00 20.00    -0.047 C 
HETATM    7  C8  UNL     1     -37.280  16.660  -3.657  1.00 20.00     0.015 C 
HETATM    8  C9  UNL     1     -36.094  18.493  -4.839  1.00 20.00     0.015 C 
ENDROOT
BRANCH   5   9
HETATM    9  C1  UNL     1     -36.069  13.794  -4.656  1.00 20.00     0.235 C 
HETATM   10  O10 UNL     1     -35.897  12.592  -4.485  1.00 20.00    -0.306 OA
ENDBRANCH   5   9
TORSDOF 1
ENDMDL
MODEL 7
REMARK VINA RESULT:      -4.1      1.145      2.783
REMARK  1 active torsions:
REMARK  status: ('A' for Active; 'I' for Inactive)
REMARK    1  A    between atoms: C1_1  and  C6_6 
ROOT
HETATM    1  C2  UNL     1     -34.979  16.828  -3.568  1.00 20.00     0.001 C 
HETATM    2  C3  UNL     1     -34.201  15.564  -3.218  1.00 20.00     0.011 C 
HETATM    3  C4  UNL     1     -34.627  17.340  -4.963  1.00 20.00     0.009 C 
HETATM    4  C5  UNL     1     -34.114  14.968  -5.702  1.00 20.00     0.020 C 
HETATM    5  C6  UNL     1     -34.331  14.463  -4.269  1.00 20.00     0.048 C 
HETATM    6  C7  UNL     1     -34.838  16.286  -6.070  1.00 20.00    -0.047 C 
HETATM    7  C8  UNL     1     -36.341  16.050  -6.315  1.00 20.00     0.015 C 
HETATM    8  C9  UNL     1     -34.239  16.824  -7.386  1.00 20.00     0.015 C 
ENDROOT
BRANCH   5   9
HETATM    9  C1  UNL     1     -35.627  13.719  -4.139  1.00 20.00     0.235 C 
HETATM   10  O10 UNL     1     -35.775  12.553  -4.490  1.00 20.00    -0.306 OA
ENDBRANCH   5   9
TORSDOF 1
ENDMDL
MODEL 8
REMARK VINA RESULT:      -4.0      2.314      3.720
REMARK  1 active torsions:
REMARK  status: ('A' for Active; 'I' for Inactive)
REMARK    1  A    between atoms: C1_1  and  C6_6 
ROOT
HETATM    1  C2  UNL     1     -32.943  17.616  -2.470  1.00 20.00     0.001 C 
HETATM    2  C3  UNL     1     -33.742  17.479  -1.178  1.00 20.00     0.011 C 
HETATM    3  C4  UNL     1     -32.917  16.309  -3.259  1.00 20.00     0.009 C 
HETATM    4  C5  UNL     1     -35.177  15.682  -2.293  1.00 20.00     0.020 C 
HETATM    5  C6  UNL     1     -35.149  16.923  -1.392  1.00 20.00     0.048 C 
HETATM    6  C7  UNL     1     -34.324  15.764  -3.583  1.00 20.00    -0.047 C 
HETATM    7  C8  UNL     1     -35.009  16.633  -4.654  1.00 20.00     0.015 C 
HETATM    8  C9  UNL     1     -34.181  14.343  -4.168  1.00 20.00     0.015 C 
ENDROOT
BRANCH   5   9
HETATM    9  C1  UNL     1     -36.095  17.980  -1.883  1.00 20.00     0.235 C 
HETATM   10  O10 UNL     1     -37.276  17.765  -2.135  1.00 20.00    -0.306 OA
ENDBRANCH   5   9
TORSDOF 1
ENDMDL
MODEL 9
REMARK VINA RESULT:      -3.9      1.551      2.060
REMARK  1 active torsions:
REMARK  status: ('A' for Active; 'I' for Inactive)
REMARK    1  A    between atoms: C1_1  and  C6_6 
ROOT
HETATM    1  C2  UNL     1     -35.114  17.650  -4.687  1.00 20.00     0.001 C 
HETATM    2  C3  UNL     1     -35.613  16.262  -5.077  1.00 20.00     0.011 C 
HETATM    3  C4  UNL     1     -35.281  17.910  -3.193  1.00 20.00     0.009 C 
HETATM    4  C5  UNL     1     -35.028  15.427  -2.734  1.00 20.00     0.020 C 
HETATM    5  C6  UNL     1     -34.999  15.141  -4.240  1.00 20.00     0.048 C 
HETATM    6  C7  UNL     1     -34.590  16.851  -2.308  1.00 20.00    -0.047 C 
HETATM    7  C8  UNL     1     -33.058  17.007  -2.371  1.00 20.00     0.015 C 
HETATM    8  C9  UNL     1     -35.013  17.077  -0.842  1.00 20.00     0.015 C 
ENDROOT
BRANCH   5   9
HETATM    9  C1  UNL     1     -33.616  14.792  -4.707  1.00 20.00     0.235 C 
HETATM   10  O10 UNL     1     -33.080  13.712  -4.483  1.00 20.00    -0.306 OA
ENDBRANCH   5   9
TORSDOF 1
ENDMDL
