MODEL 1
REMARK VINA RESULT:      -4.7      0.000      0.000
REMARK  0 active torsions:
REMARK  status: ('A' for Active; 'I' for Inactive)
ROOT
HETATM    1  C1  UNL     1     -23.371  18.518   7.836  1.00 20.00     0.143 A 
HETATM    2  C2  UNL     1     -23.271  18.033  10.042  1.00 20.00     0.059 A 
HETATM    3  C3  UNL     1     -24.614  18.338  10.173  1.00 20.00     0.063 A 
HETATM    4  C4  UNL     1     -24.719  18.820   7.965  1.00 20.00     0.048 A 
HETATM    5  C5  UNL     1     -22.687  17.567  11.341  1.00 20.00     0.062 C 
HETATM    6  C6  UNL     1     -23.735  18.099  12.332  1.00 20.00     0.016 C 
HETATM    7  C7  UNL     1     -25.087  18.101  11.582  1.00 20.00     0.036 C 
HETATM    8  C8  UNL     1     -25.502  19.259   6.777  1.00 20.00     0.072 C 
HETATM    9  C9  UNL     1     -26.045  19.158  12.105  1.00 20.00     0.016 C 
HETATM   10  N10 UNL     1     -22.613  18.110   8.877  1.00 20.00    -0.261 NA
HETATM   11  N11 UNL     1     -25.376  18.728   9.143  1.00 20.00    -0.254 NA
ENDROOT
TORSDOF 0
ENDMDL
MODEL 2
REMARK VINA RESULT:      -4.7      1.397      3.072
REMARK  0 active torsions:
REMARK  status: ('A' for Active; 'I' for Inactive)
ROOT
HETATM    1  C1  UNL     1     -26.328  19.207   7.398  1.00 20.00     0.143 A 
HETATM    2  C2  UNL     1     -24.919  18.779   9.112  1.00 20.00     0.059 A 
HETATM    3  C3  UNL     1     -23.869  18.651   8.221  1.00 20.00     0.063 A 
HETATM    4  C4  UNL     1     -25.275  19.084   6.503  1.00 20.00     0.048 A 
HETATM    5  C5  UNL     1     -24.458  18.611  10.528  1.00 20.00     0.062 C 
HETATM    6  C6  UNL     1     -23.112  17.900  10.308  1.00 20.00     0.016 C 
HETATM    7  C7  UNL     1     -22.574  18.391   8.945  1.00 20.00     0.036 C 
HETATM    8  C8  UNL     1     -25.511  19.263   5.043  1.00 20.00     0.072 C 
HETATM    9  C9  UNL     1     -21.676  17.370   8.268  1.00 20.00     0.016 C 
HETATM   10  N10 UNL     1     -26.172  19.061   8.731  1.00 20.00    -0.261 NA
HETATM   11  N11 UNL     1     -24.012  18.810   6.899  1.00 20.00    -0.254 NA
ENDROOT
TORSDOF 0
ENDMDL
MODEL 3
REMARK VINA RESULT:      -4.6     16.363     17.984
REMARK  0 active torsions:
REMARK  status: ('A' for Active; 'I' for Inactive)
ROOT
HETATM    1  C1  UNL     1     -36.439  14.022  -5.264  1.00 20.00     0.143 A 
HETATM    2  C2  UNL     1     -34.493  14.736  -4.362  1.00 20.00     0.059 A 
HETATM    3  C3  UNL     1     -35.193  15.416  -3.382  1.00 20.00     0.063 A 
HETATM    4  C4  UNL     1     -37.143  14.700  -4.278  1.00 20.00     0.048 A 
HETATM    5  C5  UNL     1     -33.013  14.869  -4.167  1.00 20.00     0.062 C 
HETATM    6  C6  UNL     1     -32.955  16.096  -3.243  1.00 20.00     0.016 C 
HETATM    7  C7  UNL     1     -34.255  16.078  -2.408  1.00 20.00     0.036 C 
HETATM    8  C8  UNL     1     -38.632  14.657  -4.262  1.00 20.00     0.072 C 
HETATM    9  C9  UNL     1     -34.689  17.466  -1.969  1.00 20.00     0.016 C 
HETATM   10  N10 UNL     1     -35.090  14.021  -5.325  1.00 20.00    -0.261 NA
HETATM   11  N11 UNL     1     -36.531  15.410  -3.304  1.00 20.00    -0.254 NA
ENDROOT
TORSDOF 0
ENDMDL
MODEL 4
REMARK VINA RESULT:      -4.5     14.985     16.423
REMARK  0 active torsions:
REMARK  status: ('A' for Active; 'I' for Inactive)
ROOT
HETATM    1  C1  UNL     1     -33.788  14.794  -4.334  1.00 20.00     0.143 A 
HETATM    2  C2  UNL     1     -33.421  16.371  -2.756  1.00 20.00     0.059 A 
HETATM    3  C3  UNL     1     -34.705  16.192  -2.274  1.00 20.00     0.063 A 
HETATM    4  C4  UNL     1     -35.075  14.610  -3.848  1.00 20.00     0.048 A 
HETATM    5  C5  UNL     1     -32.668  17.381  -1.945  1.00 20.00     0.062 C 
HETATM    6  C6  UNL     1     -33.828  18.104  -1.242  1.00 20.00     0.016 C 
HETATM    7  C7  UNL     1     -34.956  17.062  -1.071  1.00 20.00     0.036 C 
HETATM    8  C8  UNL     1     -35.978  13.612  -4.486  1.00 20.00     0.072 C 
HETATM    9  C9  UNL     1     -36.337  17.694  -1.037  1.00 20.00     0.016 C 
HETATM   10  N10 UNL     1     -32.925  15.680  -3.792  1.00 20.00    -0.261 NA
HETATM   11  N11 UNL     1     -35.562  15.305  -2.795  1.00 20.00    -0.254 NA
ENDROOT
TORSDOF 0
ENDMDL
MODEL 5
REMARK VINA RESULT:      -4.4     17.012     18.761
REMARK  0 active torsions:
REMARK  status: ('A' for Active; 'I' for Inactive)
ROOT
HETATM    1  C1  UNL     1     -38.491  15.027  -4.354  1.00 20.00     0.143 A 
HETATM    2  C2  UNL     1     -36.370  14.280  -4.125  1.00 20.00     0.059 A 
HETATM    3  C3  UNL     1     -35.991  15.505  -3.607  1.00 20.00     0.063 A 
HETATM    4  C4  UNL     1     -38.114  16.255  -3.829  1.00 20.00     0.048 A 
HETATM    5  C5  UNL     1     -35.222  13.318  -4.147  1.00 20.00     0.062 C 
HETATM    6  C6  UNL     1     -34.034  14.287  -4.026  1.00 20.00     0.016 C 
HETATM    7  C7  UNL     1     -34.539  15.499  -3.211  1.00 20.00     0.036 C 
HETATM    8  C8  UNL     1     -39.121  17.342  -3.677  1.00 20.00     0.072 C 
HETATM    9  C9  UNL     1     -33.796  16.781  -3.548  1.00 20.00     0.016 C 
HETATM   10  N10 UNL     1     -37.623  14.004  -4.510  1.00 20.00    -0.261 NA
HETATM   11  N11 UNL     1     -36.849  16.520  -3.435  1.00 20.00    -0.254 NA
ENDROOT
TORSDOF 0
ENDMDL
MODEL 6
REMARK VINA RESULT:      -4.3     13.041     15.002
REMARK  0 active torsions:
REMARK  status: ('A' for Active; 'I' for Inactive)
ROOT
HETATM    1  C1  UNL     1     -35.000  15.804  -2.441  1.00 20.00     0.143 A 
HETATM    2  C2  UNL     1     -34.583  17.424  -0.921  1.00 20.00     0.059 A 
HETATM    3  C3  UNL     1     -33.305  17.576  -1.429  1.00 20.00     0.063 A 
HETATM    4  C4  UNL     1     -33.721  15.959  -2.956  1.00 20.00     0.048 A 
HETATM    5  C5  UNL     1     -34.849  18.395   0.189  1.00 20.00     0.062 C 
HETATM    6  C6  UNL     1     -33.414  18.791   0.572  1.00 20.00     0.016 C 
HETATM    7  C7  UNL     1     -32.569  18.680  -0.717  1.00 20.00     0.036 C 
HETATM    8  C8  UNL     1     -33.270  15.119  -4.100  1.00 20.00     0.072 C 
HETATM    9  C9  UNL     1     -31.108  18.374  -0.436  1.00 20.00     0.016 C 
HETATM   10  N10 UNL     1     -35.465  16.542  -1.409  1.00 20.00    -0.261 NA
HETATM   11  N11 UNL     1     -32.842  16.860  -2.462  1.00 20.00    -0.254 NA
ENDROOT
TORSDOF 0
ENDMDL
MODEL 7
REMARK VINA RESULT:      -4.3     10.368     13.231
REMARK  0 active torsions:
REMARK  status: ('A' for Active; 'I' for Inactive)
ROOT
HETATM    1  C1  UNL     1     -30.580  18.676   0.886  1.00 20.00     0.143 A 
HETATM    2  C2  UNL     1     -32.019  18.207  -0.793  1.00 20.00     0.059 A 
HETATM    3  C3  UNL     1     -33.076  18.246   0.098  1.00 20.00     0.063 A 
HETATM    4  C4  UNL     1     -31.640  18.721   1.780  1.00 20.00     0.048 A 
HETATM    5  C5  UNL     1     -32.492  17.948  -2.191  1.00 20.00     0.062 C 
HETATM    6  C6  UNL     1     -33.890  17.371  -1.917  1.00 20.00     0.016 C 
HETATM    7  C7  UNL     1     -34.387  18.026  -0.609  1.00 20.00     0.036 C 
HETATM    8  C8  UNL     1     -31.390  19.012   3.219  1.00 20.00     0.072 C 
HETATM    9  C9  UNL     1     -35.365  17.147   0.152  1.00 20.00     0.016 C 
HETATM   10  N10 UNL     1     -30.747  18.422  -0.430  1.00 20.00    -0.261 NA
HETATM   11  N11 UNL     1     -32.921  18.513   1.402  1.00 20.00    -0.254 NA
ENDROOT
TORSDOF 0
ENDMDL
MODEL 8
REMARK VINA RESULT:      -4.0     14.176     15.588
REMARK  0 active torsions:
REMARK  status: ('A' for Active; 'I' for Inactive)
ROOT
HETATM    1  C1  UNL     1     -33.313  15.921  -3.531  1.00 20.00     0.143 A 
HETATM    2  C2  UNL     1     -33.382  17.363  -1.792  1.00 20.00     0.059 A 
HETATM    3  C3  UNL     1     -34.613  16.857  -1.416  1.00 20.00     0.063 A 
HETATM    4  C4  UNL     1     -34.546  15.408  -3.152  1.00 20.00     0.048 A 
HETATM    5  C5  UNL     1     -32.914  18.422  -0.841  1.00 20.00     0.062 C 
HETATM    6  C6  UNL     1     -34.238  18.795  -0.153  1.00 20.00     0.016 C 
HETATM    7  C7  UNL     1     -35.108  17.518  -0.157  1.00 20.00     0.036 C 
HETATM    8  C8  UNL     1     -35.170  14.309  -3.940  1.00 20.00     0.072 C 
HETATM    9  C9  UNL     1     -36.596  17.823  -0.157  1.00 20.00     0.016 C 
HETATM   10  N10 UNL     1     -32.697  16.912  -2.851  1.00 20.00    -0.261 NA
HETATM   11  N11 UNL     1     -35.223  15.863  -2.075  1.00 20.00    -0.254 NA
ENDROOT
TORSDOF 0
ENDMDL
MODEL 9
REMARK VINA RESULT:      -4.0     17.542     19.329
REMARK  0 active torsions:
REMARK  status: ('A' for Active; 'I' for Inactive)
ROOT
HETATM    1  C1  UNL     1     -36.042  13.685  -4.418  1.00 20.00     0.143 A 
HETATM    2  C2  UNL     1     -37.963  14.865  -4.253  1.00 20.00     0.059 A 
HETATM    3  C3  UNL     1     -37.241  16.001  -3.935  1.00 20.00     0.063 A 
HETATM    4  C4  UNL     1     -35.316  14.825  -4.105  1.00 20.00     0.048 A 
HETATM    5  C5  UNL     1     -39.432  15.152  -4.323  1.00 20.00     0.062 C 
HETATM    6  C6  UNL     1     -39.502  16.474  -3.539  1.00 20.00     0.016 C 
HETATM    7  C7  UNL     1     -38.150  17.189  -3.764  1.00 20.00     0.036 C 
HETATM    8  C8  UNL     1     -33.830  14.766  -4.031  1.00 20.00     0.072 C 
HETATM    9  C9  UNL     1     -37.772  18.102  -2.611  1.00 20.00     0.016 C 
HETATM   10  N10 UNL     1     -37.390  13.680  -4.505  1.00 20.00    -0.261 NA
HETATM   11  N11 UNL     1     -35.903  16.018  -3.863  1.00 20.00    -0.254 NA
ENDROOT
TORSDOF 0
ENDMDL
