MODEL 1
REMARK VINA RESULT:      -3.7      0.000      0.000
REMARK  0 active torsions:
REMARK  status: ('A' for Active; 'I' for Inactive)
ROOT
HETATM    1  C1  UNL     1     -23.442  16.724   9.824  1.00 20.00     0.292 C 
HETATM    2  C2  UNL     1     -24.711  18.654   9.339  1.00 20.00     0.346 C 
HETATM    3  C3  UNL     1     -23.931  16.987  11.263  1.00 20.00     0.029 C 
HETATM    4  C4  UNL     1     -22.813  17.416  12.218  1.00 20.00     0.028 C 
HETATM    5  C5  UNL     1     -24.641  15.753  11.830  1.00 20.00     0.028 C 
HETATM    6  C6  UNL     1     -22.298  18.768   9.083  1.00 20.00     0.310 C 
HETATM    7  N7  UNL     1     -23.487  17.933   8.988  1.00 20.00     0.094 N 
HETATM    8  S8  UNL     1     -25.131  18.347  11.075  1.00 20.00    -0.128 SA
ENDROOT
TORSDOF 0
ENDMDL
MODEL 2
REMARK VINA RESULT:      -3.4      2.159      3.157
REMARK  0 active torsions:
REMARK  status: ('A' for Active; 'I' for Inactive)
ROOT
HETATM    1  C1  UNL     1     -24.630  18.240  12.331  1.00 20.00     0.292 C 
HETATM    2  C2  UNL     1     -25.925  19.262  10.642  1.00 20.00     0.346 C 
HETATM    3  C3  UNL     1     -23.981  17.510  11.137  1.00 20.00     0.029 C 
HETATM    4  C4  UNL     1     -24.294  16.012  11.094  1.00 20.00     0.028 C 
HETATM    5  C5  UNL     1     -22.462  17.715  11.137  1.00 20.00     0.028 C 
HETATM    6  C6  UNL     1     -27.041  17.780  12.210  1.00 20.00     0.310 C 
HETATM    7  N7  UNL     1     -25.972  18.749  12.012  1.00 20.00     0.094 N 
HETATM    8  S8  UNL     1     -24.705  18.330   9.678  1.00 20.00    -0.128 SA
ENDROOT
TORSDOF 0
ENDMDL
MODEL 3
REMARK VINA RESULT:      -3.3      1.867      3.303
REMARK  0 active torsions:
REMARK  status: ('A' for Active; 'I' for Inactive)
ROOT
HETATM    1  C1  UNL     1     -24.032  16.682  10.022  1.00 20.00     0.292 C 
HETATM    2  C2  UNL     1     -22.955  17.143  12.072  1.00 20.00     0.346 C 
HETATM    3  C3  UNL     1     -23.043  17.732   9.476  1.00 20.00     0.029 C 
HETATM    4  C4  UNL     1     -23.718  19.030   9.025  1.00 20.00     0.028 C 
HETATM    5  C5  UNL     1     -22.222  17.154   8.318  1.00 20.00     0.028 C 
HETATM    6  C6  UNL     1     -25.289  17.772  11.831  1.00 20.00     0.310 C 
HETATM    7  N7  UNL     1     -24.249  16.818  11.470  1.00 20.00     0.094 N 
HETATM    8  S8  UNL     1     -21.943  18.073  10.890  1.00 20.00    -0.128 SA
ENDROOT
TORSDOF 0
ENDMDL
MODEL 4
REMARK VINA RESULT:      -3.3     17.397     18.538
REMARK  0 active torsions:
REMARK  status: ('A' for Active; 'I' for Inactive)
ROOT
HETATM    1  C1  UNL     1     -35.156  15.222  -3.001  1.00 20.00     0.292 C 
HETATM    2  C2  UNL     1     -36.328  16.211  -4.796  1.00 20.00     0.346 C 
HETATM    3  C3  UNL     1     -33.920  15.743  -3.760  1.00 20.00     0.029 C 
HETATM    4  C4  UNL     1     -33.053  14.629  -4.353  1.00 20.00     0.028 C 
HETATM    5  C5  UNL     1     -33.060  16.631  -2.854  1.00 20.00     0.028 C 
HETATM    6  C6  UNL     1     -36.396  13.793  -4.569  1.00 20.00     0.310 C 
HETATM    7  N7  UNL     1     -36.328  15.072  -3.876  1.00 20.00     0.094 N 
HETATM    8  S8  UNL     1     -34.626  16.751  -5.106  1.00 20.00    -0.128 SA
ENDROOT
TORSDOF 0
ENDMDL
MODEL 5
REMARK VINA RESULT:      -3.3     23.394     24.160
REMARK  0 active torsions:
REMARK  status: ('A' for Active; 'I' for Inactive)
ROOT
HETATM    1  C1  UNL     1     -41.307   6.794  -0.852  1.00 20.00     0.292 C 
HETATM    2  C2  UNL     1     -42.386   5.403   0.721  1.00 20.00     0.346 C 
HETATM    3  C3  UNL     1     -42.329   7.837  -0.357  1.00 20.00     0.029 C 
HETATM    4  C4  UNL     1     -43.375   8.215  -1.410  1.00 20.00     0.028 C 
HETATM    5  C5  UNL     1     -41.618   9.104   0.133  1.00 20.00     0.028 C 
HETATM    6  C6  UNL     1     -42.601   4.857  -1.636  1.00 20.00     0.310 C 
HETATM    7  N7  UNL     1     -41.748   5.415  -0.595  1.00 20.00     0.094 N 
HETATM    8  S8  UNL     1     -43.146   7.015   1.051  1.00 20.00    -0.128 SA
ENDROOT
TORSDOF 0
ENDMDL
MODEL 6
REMARK VINA RESULT:      -3.2     17.419     18.586
REMARK  0 active torsions:
REMARK  status: ('A' for Active; 'I' for Inactive)
ROOT
HETATM    1  C1  UNL     1     -34.626  16.946  -4.724  1.00 20.00     0.292 C 
HETATM    2  C2  UNL     1     -34.066  15.055  -6.021  1.00 20.00     0.346 C 
HETATM    3  C3  UNL     1     -34.059  16.094  -3.570  1.00 20.00     0.029 C 
HETATM    4  C4  UNL     1     -35.122  15.646  -2.563  1.00 20.00     0.028 C 
HETATM    5  C5  UNL     1     -32.946  16.848  -2.835  1.00 20.00     0.028 C 
HETATM    6  C6  UNL     1     -36.415  15.621  -5.764  1.00 20.00     0.310 C 
HETATM    7  N7  UNL     1     -35.052  16.125  -5.867  1.00 20.00     0.094 N 
HETATM    8  S8  UNL     1     -33.355  14.635  -4.408  1.00 20.00    -0.128 SA
ENDROOT
TORSDOF 0
ENDMDL
MODEL 7
REMARK VINA RESULT:      -3.0     16.995     18.068
REMARK  0 active torsions:
REMARK  status: ('A' for Active; 'I' for Inactive)
ROOT
HETATM    1  C1  UNL     1     -34.864  14.938  -3.430  1.00 20.00     0.292 C 
HETATM    2  C2  UNL     1     -35.838  16.218  -5.158  1.00 20.00     0.346 C 
HETATM    3  C3  UNL     1     -34.556  16.323  -2.827  1.00 20.00     0.029 C 
HETATM    4  C4  UNL     1     -33.062  16.662  -2.807  1.00 20.00     0.028 C 
HETATM    5  C5  UNL     1     -35.123  16.435  -1.407  1.00 20.00     0.028 C 
HETATM    6  C6  UNL     1     -33.859  14.906  -5.672  1.00 20.00     0.310 C 
HETATM    7  N7  UNL     1     -35.079  14.996  -4.884  1.00 20.00     0.094 N 
HETATM    8  S8  UNL     1     -35.433  17.484  -3.926  1.00 20.00    -0.128 SA
ENDROOT
TORSDOF 0
ENDMDL
MODEL 8
REMARK VINA RESULT:      -3.0     17.719     18.884
REMARK  0 active torsions:
REMARK  status: ('A' for Active; 'I' for Inactive)
ROOT
HETATM    1  C1  UNL     1     -34.738  16.420  -4.558  1.00 20.00     0.292 C 
HETATM    2  C2  UNL     1     -36.651  15.281  -3.772  1.00 20.00     0.346 C 
HETATM    3  C3  UNL     1     -34.367  15.031  -5.117  1.00 20.00     0.029 C 
HETATM    4  C4  UNL     1     -33.155  14.399  -4.426  1.00 20.00     0.028 C 
HETATM    5  C5  UNL     1     -34.112  15.105  -6.627  1.00 20.00     0.028 C 
HETATM    6  C6  UNL     1     -35.070  16.139  -2.139  1.00 20.00     0.310 C 
HETATM    7  N7  UNL     1     -35.691  16.336  -3.441  1.00 20.00     0.094 N 
HETATM    8  S8  UNL     1     -35.851  14.020  -4.799  1.00 20.00    -0.128 SA
ENDROOT
TORSDOF 0
ENDMDL
MODEL 9
REMARK VINA RESULT:      -3.0     17.963     19.048
REMARK  0 active torsions:
REMARK  status: ('A' for Active; 'I' for Inactive)
ROOT
HETATM    1  C1  UNL     1     -35.882  15.141  -4.328  1.00 20.00     0.292 C 
HETATM    2  C2  UNL     1     -35.830  16.992  -5.793  1.00 20.00     0.346 C 
HETATM    3  C3  UNL     1     -34.549  15.733  -3.826  1.00 20.00     0.029 C 
HETATM    4  C4  UNL     1     -33.332  14.866  -4.159  1.00 20.00     0.028 C 
HETATM    5  C5  UNL     1     -34.600  15.981  -2.315  1.00 20.00     0.028 C 
HETATM    6  C6  UNL     1     -35.621  14.766  -6.743  1.00 20.00     0.310 C 
HETATM    7  N7  UNL     1     -36.211  15.583  -5.691  1.00 20.00     0.094 N 
HETATM    8  S8  UNL     1     -34.423  17.329  -4.701  1.00 20.00    -0.128 SA
ENDROOT
TORSDOF 0
ENDMDL
