MODEL 1
REMARK VINA RESULT:      -4.4      0.000      0.000
REMARK  2 active torsions:
REMARK  status: ('A' for Active; 'I' for Inactive)
REMARK    1  A    between atoms: C7_7  and  C10_10 
REMARK    2  A    between atoms: C7_7  and  O11_11 
ROOT
HETATM    1  C1  UNL     1     -34.056  16.921  -2.080  1.00 20.00     0.000 C 
HETATM    2  C2  UNL     1     -35.167  15.889  -1.918  1.00 20.00     0.000 C 
HETATM    3  C3  UNL     1     -32.934  16.532  -3.043  1.00 20.00     0.003 C 
HETATM    4  C4  UNL     1     -35.835  15.437  -3.217  1.00 20.00     0.003 C 
HETATM    5  C5  UNL     1     -33.374  16.581  -4.507  1.00 20.00     0.038 C 
HETATM    6  C6  UNL     1     -34.928  14.545  -4.059  1.00 20.00     0.038 C 
HETATM    7  C7  UNL     1     -33.999  15.280  -5.041  1.00 20.00     0.061 C 
ENDROOT
BRANCH   7   8
HETATM    8  C10 UNL     1     -34.723  15.578  -6.362  1.00 20.00     0.012 C 
HETATM    9  C8  UNL     1     -35.059  17.062  -6.456  1.00 20.00     0.012 C 
HETATM   10  C9  UNL     1     -33.868  15.138  -7.544  1.00 20.00     0.012 C 
ENDBRANCH   7   8
BRANCH   7  11
HETATM   11  O11 UNL     1     -32.918  14.388  -5.349  1.00 20.00    -0.389 OA
HETATM   12  H31 UNL     1     -33.143  13.981  -6.197  1.00 20.00     0.210 HD
ENDBRANCH   7  11
TORSDOF 2
ENDMDL
MODEL 2
REMARK VINA RESULT:      -4.4     17.392     18.748
REMARK  2 active torsions:
REMARK  status: ('A' for Active; 'I' for Inactive)
REMARK    1  A    between atoms: C7_7  and  C10_10 
REMARK    2  A    between atoms: C7_7  and  O11_11 
ROOT
HETATM    1  C1  UNL     1     -26.664  18.553  12.094  1.00 20.00     0.000 C 
HETATM    2  C2  UNL     1     -26.749  19.021  10.645  1.00 20.00     0.000 C 
HETATM    3  C3  UNL     1     -25.813  17.304  12.332  1.00 20.00     0.003 C 
HETATM    4  C4  UNL     1     -25.406  19.263   9.956  1.00 20.00     0.003 C 
HETATM    5  C5  UNL     1     -24.315  17.580  12.194  1.00 20.00     0.038 C 
HETATM    6  C6  UNL     1     -24.667  17.963   9.646  1.00 20.00     0.038 C 
HETATM    7  C7  UNL     1     -23.756  17.434  10.768  1.00 20.00     0.061 C 
ENDROOT
BRANCH   7   8
HETATM    8  C10 UNL     1     -22.370  18.091  10.703  1.00 20.00     0.012 C 
HETATM    9  C8  UNL     1     -21.568  17.756  11.956  1.00 20.00     0.012 C 
HETATM   10  C9  UNL     1     -21.631  17.642   9.449  1.00 20.00     0.012 C 
ENDBRANCH   7   8
BRANCH   7  11
HETATM   11  O11 UNL     1     -23.565  16.031  10.531  1.00 20.00    -0.389 OA
HETATM   12  H31 UNL     1     -24.077  15.824   9.737  1.00 20.00     0.210 HD
ENDBRANCH   7  11
TORSDOF 2
ENDMDL
MODEL 3
REMARK VINA RESULT:      -4.3      2.013      4.024
REMARK  2 active torsions:
REMARK  status: ('A' for Active; 'I' for Inactive)
REMARK    1  A    between atoms: C7_7  and  C10_10 
REMARK    2  A    between atoms: C7_7  and  O11_11 
ROOT
HETATM    1  C1  UNL     1     -38.163  16.320  -5.407  1.00 20.00     0.000 C 
HETATM    2  C2  UNL     1     -37.179  16.443  -6.565  1.00 20.00     0.000 C 
HETATM    3  C3  UNL     1     -38.151  14.978  -4.674  1.00 20.00     0.003 C 
HETATM    4  C4  UNL     1     -35.721  16.141  -6.220  1.00 20.00     0.003 C 
HETATM    5  C5  UNL     1     -36.903  14.795  -3.808  1.00 20.00     0.038 C 
HETATM    6  C6  UNL     1     -35.476  14.655  -5.976  1.00 20.00     0.038 C 
HETATM    7  C7  UNL     1     -35.696  14.173  -4.532  1.00 20.00     0.061 C 
ENDROOT
BRANCH   7   8
HETATM    8  C10 UNL     1     -34.436  14.393  -3.683  1.00 20.00     0.012 C 
HETATM    9  C8  UNL     1     -33.212  14.533  -4.581  1.00 20.00     0.012 C 
HETATM   10  C9  UNL     1     -34.603  15.622  -2.797  1.00 20.00     0.012 C 
ENDBRANCH   7   8
BRANCH   7  11
HETATM   11  O11 UNL     1     -35.921  12.756  -4.588  1.00 20.00    -0.389 OA
HETATM   12  H31 UNL     1     -35.290  12.413  -5.235  1.00 20.00     0.210 HD
ENDBRANCH   7  11
TORSDOF 2
ENDMDL
MODEL 4
REMARK VINA RESULT:      -4.3      1.672      4.050
REMARK  2 active torsions:
REMARK  status: ('A' for Active; 'I' for Inactive)
REMARK    1  A    between atoms: C7_7  and  C10_10 
REMARK    2  A    between atoms: C7_7  and  O11_11 
ROOT
HETATM    1  C1  UNL     1     -34.536  16.306  -6.666  1.00 20.00     0.000 C 
HETATM    2  C2  UNL     1     -33.936  14.927  -6.416  1.00 20.00     0.000 C 
HETATM    3  C3  UNL     1     -35.700  16.692  -5.753  1.00 20.00     0.003 C 
HETATM    4  C4  UNL     1     -33.480  14.662  -4.981  1.00 20.00     0.003 C 
HETATM    5  C5  UNL     1     -35.248  17.001  -4.325  1.00 20.00     0.038 C 
HETATM    6  C6  UNL     1     -34.652  14.489  -4.019  1.00 20.00     0.038 C 
HETATM    7  C7  UNL     1     -35.187  15.784  -3.385  1.00 20.00     0.061 C 
ENDROOT
BRANCH   7   8
HETATM    8  C10 UNL     1     -34.378  16.157  -2.134  1.00 20.00     0.012 C 
HETATM    9  C8  UNL     1     -33.198  17.044  -2.515  1.00 20.00     0.012 C 
HETATM   10  C9  UNL     1     -35.273  16.851  -1.114  1.00 20.00     0.012 C 
ENDBRANCH   7   8
BRANCH   7  11
HETATM   11  O11 UNL     1     -36.530  15.518  -2.950  1.00 20.00    -0.389 OA
HETATM   12  H31 UNL     1     -37.101  15.764  -3.691  1.00 20.00     0.210 HD
ENDBRANCH   7  11
TORSDOF 2
ENDMDL
MODEL 5
REMARK VINA RESULT:      -4.3      1.369      3.482
REMARK  2 active torsions:
REMARK  status: ('A' for Active; 'I' for Inactive)
REMARK    1  A    between atoms: C7_7  and  C10_10 
REMARK    2  A    between atoms: C7_7  and  O11_11 
ROOT
HETATM    1  C1  UNL     1     -37.021  14.397  -4.626  1.00 20.00     0.000 C 
HETATM    2  C2  UNL     1     -36.996  15.664  -5.473  1.00 20.00     0.000 C 
HETATM    3  C3  UNL     1     -35.670  13.704  -4.441  1.00 20.00     0.003 C 
HETATM    4  C4  UNL     1     -36.008  16.738  -5.017  1.00 20.00     0.003 C 
HETATM    5  C5  UNL     1     -34.741  14.473  -3.501  1.00 20.00     0.038 C 
HETATM    6  C6  UNL     1     -34.558  16.349  -5.292  1.00 20.00     0.038 C 
HETATM    7  C7  UNL     1     -33.865  15.540  -4.182  1.00 20.00     0.061 C 
ENDROOT
BRANCH   7   8
HETATM    8  C10 UNL     1     -33.281  16.469  -3.109  1.00 20.00     0.012 C 
HETATM    9  C8  UNL     1     -32.978  17.839  -3.705  1.00 20.00     0.012 C 
HETATM   10  C9  UNL     1     -34.244  16.588  -1.933  1.00 20.00     0.012 C 
ENDBRANCH   7   8
BRANCH   7  11
HETATM   11  O11 UNL     1     -32.759  14.853  -4.788  1.00 20.00    -0.389 OA
HETATM   12  H31 UNL     1     -33.112  14.430  -5.582  1.00 20.00     0.210 HD
ENDBRANCH   7  11
TORSDOF 2
ENDMDL
MODEL 6
REMARK VINA RESULT:      -4.3     16.865     18.595
REMARK  2 active torsions:
REMARK  status: ('A' for Active; 'I' for Inactive)
REMARK    1  A    between atoms: C7_7  and  C10_10 
REMARK    2  A    between atoms: C7_7  and  O11_11 
ROOT
HETATM    1  C1  UNL     1     -22.019  17.512   8.542  1.00 20.00     0.000 C 
HETATM    2  C2  UNL     1     -23.113  18.318   7.850  1.00 20.00     0.000 C 
HETATM    3  C3  UNL     1     -21.902  17.725  10.052  1.00 20.00     0.003 C 
HETATM    4  C4  UNL     1     -24.517  18.148   8.430  1.00 20.00     0.003 C 
HETATM    5  C5  UNL     1     -23.052  17.079  10.826  1.00 20.00     0.038 C 
HETATM    6  C6  UNL     1     -24.672  18.828   9.788  1.00 20.00     0.038 C 
HETATM    7  C7  UNL     1     -24.295  17.969  11.008  1.00 20.00     0.061 C 
ENDROOT
BRANCH   7   8
HETATM    8  C10 UNL     1     -25.477  17.095  11.449  1.00 20.00     0.012 C 
HETATM    9  C8  UNL     1     -24.973  15.855  12.179  1.00 20.00     0.012 C 
HETATM   10  C9  UNL     1     -26.426  17.897  12.332  1.00 20.00     0.012 C 
ENDBRANCH   7   8
BRANCH   7  11
HETATM   11  O11 UNL     1     -24.013  18.870  12.089  1.00 20.00    -0.389 OA
HETATM   12  H31 UNL     1     -24.031  18.333  12.893  1.00 20.00     0.210 HD
ENDBRANCH   7  11
TORSDOF 2
ENDMDL
MODEL 7
REMARK VINA RESULT:      -4.2      1.795      3.787
REMARK  2 active torsions:
REMARK  status: ('A' for Active; 'I' for Inactive)
REMARK    1  A    between atoms: C7_7  and  C10_10 
REMARK    2  A    between atoms: C7_7  and  O11_11 
ROOT
HETATM    1  C1  UNL     1     -36.650  14.179  -4.541  1.00 20.00     0.000 C 
HETATM    2  C2  UNL     1     -37.014  15.436  -5.323  1.00 20.00     0.000 C 
HETATM    3  C3  UNL     1     -35.170  14.028  -4.190  1.00 20.00     0.003 C 
HETATM    4  C4  UNL     1     -36.575  16.754  -4.685  1.00 20.00     0.003 C 
HETATM    5  C5  UNL     1     -34.725  14.999  -3.095  1.00 20.00     0.038 C 
HETATM    6  C6  UNL     1     -35.066  16.964  -4.763  1.00 20.00     0.038 C 
HETATM    7  C7  UNL     1     -34.252  16.374  -3.598  1.00 20.00     0.061 C 
ENDROOT
BRANCH   7   8
HETATM    8  C10 UNL     1     -34.201  17.350  -2.414  1.00 20.00     0.012 C 
HETATM    9  C8  UNL     1     -35.038  16.818  -1.256  1.00 20.00     0.012 C 
HETATM   10  C9  UNL     1     -32.758  17.581  -1.982  1.00 20.00     0.012 C 
ENDBRANCH   7   8
BRANCH   7  11
HETATM   11  O11 UNL     1     -32.903  16.211  -4.064  1.00 20.00    -0.389 OA
HETATM   12  H31 UNL     1     -32.355  16.758  -3.484  1.00 20.00     0.210 HD
ENDBRANCH   7  11
TORSDOF 2
ENDMDL
MODEL 8
REMARK VINA RESULT:      -4.1      1.267      1.944
REMARK  2 active torsions:
REMARK  status: ('A' for Active; 'I' for Inactive)
REMARK    1  A    between atoms: C7_7  and  C10_10 
REMARK    2  A    between atoms: C7_7  and  O11_11 
ROOT
HETATM    1  C1  UNL     1     -33.945  17.982  -3.025  1.00 20.00     0.000 C 
HETATM    2  C2  UNL     1     -34.126  16.856  -2.013  1.00 20.00     0.000 C 
HETATM    3  C3  UNL     1     -33.372  17.562  -4.379  1.00 20.00     0.003 C 
HETATM    4  C4  UNL     1     -34.959  15.669  -2.497  1.00 20.00     0.003 C 
HETATM    5  C5  UNL     1     -34.380  16.784  -5.226  1.00 20.00     0.038 C 
HETATM    6  C6  UNL     1     -34.221  14.821  -3.529  1.00 20.00     0.038 C 
HETATM    7  C7  UNL     1     -34.388  15.263  -4.993  1.00 20.00     0.061 C 
ENDROOT
BRANCH   7   8
HETATM    8  C10 UNL     1     -35.666  14.669  -5.603  1.00 20.00     0.012 C 
HETATM    9  C8  UNL     1     -36.227  13.580  -4.695  1.00 20.00     0.012 C 
HETATM   10  C9  UNL     1     -36.697  15.766  -5.839  1.00 20.00     0.012 C 
ENDBRANCH   7   8
BRANCH   7  11
HETATM   11  O11 UNL     1     -33.281  14.717  -5.728  1.00 20.00    -0.389 OA
HETATM   12  H31 UNL     1     -32.761  14.213  -5.088  1.00 20.00     0.210 HD
ENDBRANCH   7  11
TORSDOF 2
ENDMDL
MODEL 9
REMARK VINA RESULT:      -4.1      1.661      2.177
REMARK  2 active torsions:
REMARK  status: ('A' for Active; 'I' for Inactive)
REMARK    1  A    between atoms: C7_7  and  C10_10 
REMARK    2  A    between atoms: C7_7  and  O11_11 
ROOT
HETATM    1  C1  UNL     1     -33.312  15.660  -3.408  1.00 20.00     0.000 C 
HETATM    2  C2  UNL     1     -34.575  15.706  -2.556  1.00 20.00     0.000 C 
HETATM    3  C3  UNL     1     -33.390  14.775  -4.652  1.00 20.00     0.003 C 
HETATM    4  C4  UNL     1     -35.852  16.100  -3.299  1.00 20.00     0.003 C 
HETATM    5  C5  UNL     1     -34.267  15.382  -5.748  1.00 20.00     0.038 C 
HETATM    6  C6  UNL     1     -36.345  15.000  -4.233  1.00 20.00     0.038 C 
HETATM    7  C7  UNL     1     -35.762  15.026  -5.657  1.00 20.00     0.061 C 
ENDROOT
BRANCH   7   8
HETATM    8  C10 UNL     1     -36.559  15.978  -6.559  1.00 20.00     0.012 C 
HETATM    9  C8  UNL     1     -37.920  16.276  -5.939  1.00 20.00     0.012 C 
HETATM   10  C9  UNL     1     -35.775  17.263  -6.795  1.00 20.00     0.012 C 
ENDBRANCH   7   8
BRANCH   7  11
HETATM   11  O11 UNL     1     -35.915  13.706  -6.201  1.00 20.00    -0.389 OA
HETATM   12  H31 UNL     1     -36.846  13.476  -6.080  1.00 20.00     0.210 HD
ENDBRANCH   7  11
TORSDOF 2
ENDMDL
