MODEL 1
REMARK VINA RESULT:      -3.8      0.000      0.000
REMARK  2 active torsions:
REMARK  status: ('A' for Active; 'I' for Inactive)
REMARK    1  A    between atoms: C1_1  and  S9_9 
REMARK    2  A    between atoms: C2_2  and  N7_7 
ROOT
HETATM    1  C1  UNL     1     -35.896  15.319  -3.424  1.00 20.00     0.102 C 
HETATM    2  C2  UNL     1     -34.626  15.644  -3.113  1.00 20.00     0.011 C 
HETATM    3  C3  UNL     1     -33.501  15.034  -3.913  1.00 20.00     0.068 C 
ENDROOT
BRANCH   2   4
HETATM    4  N7  UNL     1     -34.215  16.492  -2.121  1.00 20.00    -0.393 N 
HETATM    5  C4  UNL     1     -32.971  17.237  -2.230  1.00 20.00     0.148 C 
HETATM    6  C5  UNL     1     -35.108  16.878  -1.037  1.00 20.00     0.148 C 
ENDBRANCH   2   4
BRANCH   1   7
HETATM    7  S9  UNL     1     -36.286  14.191  -4.754  1.00 20.00     0.036 S 
HETATM    8  C6  UNL     1     -36.431  15.436  -6.056  1.00 20.00     0.132 C 
HETATM    9  O8  UNL     1     -37.658  13.670  -4.452  1.00 20.00    -0.254 OA
ENDBRANCH   1   7
TORSDOF 2
ENDMDL
MODEL 2
REMARK VINA RESULT:      -3.7     16.203     17.475
REMARK  2 active torsions:
REMARK  status: ('A' for Active; 'I' for Inactive)
REMARK    1  A    between atoms: C1_1  and  S9_9 
REMARK    2  A    between atoms: C2_2  and  N7_7 
ROOT
HETATM    1  C1  UNL     1     -24.526  18.249   9.121  1.00 20.00     0.102 C 
HETATM    2  C2  UNL     1     -23.447  17.987   9.885  1.00 20.00     0.011 C 
HETATM    3  C3  UNL     1     -22.113  18.568   9.485  1.00 20.00     0.068 C 
ENDROOT
BRANCH   2   4
HETATM    4  N7  UNL     1     -23.412  17.228  11.023  1.00 20.00    -0.393 N 
HETATM    5  C4  UNL     1     -22.572  17.596  12.152  1.00 20.00     0.148 C 
HETATM    6  C5  UNL     1     -24.385  16.170  11.257  1.00 20.00     0.148 C 
ENDBRANCH   2   4
BRANCH   1   7
HETATM    7  S9  UNL     1     -24.424  19.263   7.653  1.00 20.00     0.036 S 
HETATM    8  C6  UNL     1     -26.137  19.046   7.122  1.00 20.00     0.132 C 
HETATM    9  O8  UNL     1     -23.541  18.511   6.703  1.00 20.00    -0.254 OA
ENDBRANCH   1   7
TORSDOF 2
ENDMDL
MODEL 3
REMARK VINA RESULT:      -3.6      1.478      1.480
REMARK  2 active torsions:
REMARK  status: ('A' for Active; 'I' for Inactive)
REMARK    1  A    between atoms: C1_1  and  S9_9 
REMARK    2  A    between atoms: C2_2  and  N7_7 
ROOT
HETATM    1  C1  UNL     1     -35.264  15.304  -2.974  1.00 20.00     0.102 C 
HETATM    2  C2  UNL     1     -34.218  16.081  -2.628  1.00 20.00     0.011 C 
HETATM    3  C3  UNL     1     -32.978  16.057  -3.488  1.00 20.00     0.068 C 
ENDROOT
BRANCH   2   4
HETATM    4  N7  UNL     1     -34.140  16.920  -1.550  1.00 20.00    -0.393 N 
HETATM    5  C4  UNL     1     -33.056  17.881  -1.417  1.00 20.00     0.148 C 
HETATM    6  C5  UNL     1     -35.253  17.067  -0.623  1.00 20.00     0.148 C 
ENDBRANCH   2   4
BRANCH   1   7
HETATM    7  S9  UNL     1     -35.225  14.251  -4.417  1.00 20.00     0.036 S 
HETATM    8  C6  UNL     1     -37.014  14.081  -4.607  1.00 20.00     0.132 C 
HETATM    9  O8  UNL     1     -34.678  12.938  -3.945  1.00 20.00    -0.254 OA
ENDBRANCH   1   7
TORSDOF 2
ENDMDL
MODEL 4
REMARK VINA RESULT:      -3.4      1.412      1.762
REMARK  2 active torsions:
REMARK  status: ('A' for Active; 'I' for Inactive)
REMARK    1  A    between atoms: C1_1  and  S9_9 
REMARK    2  A    between atoms: C2_2  and  N7_7 
ROOT
HETATM    1  C1  UNL     1     -35.913  15.133  -3.402  1.00 20.00     0.102 C 
HETATM    2  C2  UNL     1     -35.256  16.044  -2.656  1.00 20.00     0.011 C 
HETATM    3  C3  UNL     1     -33.748  16.079  -2.711  1.00 20.00     0.068 C 
ENDROOT
BRANCH   2   4
HETATM    4  N7  UNL     1     -35.811  16.977  -1.823  1.00 20.00    -0.393 N 
HETATM    5  C4  UNL     1     -35.375  17.111  -0.442  1.00 20.00     0.148 C 
HETATM    6  C5  UNL     1     -36.673  18.032  -2.335  1.00 20.00     0.148 C 
ENDBRANCH   2   4
BRANCH   1   7
HETATM    7  S9  UNL     1     -35.053  13.971  -4.451  1.00 20.00     0.036 S 
HETATM    8  C6  UNL     1     -35.307  14.855  -6.006  1.00 20.00     0.132 C 
HETATM    9  O8  UNL     1     -35.904  12.737  -4.471  1.00 20.00    -0.254 OA
ENDBRANCH   1   7
TORSDOF 2
ENDMDL
MODEL 5
REMARK VINA RESULT:      -3.3      1.496      1.524
REMARK  2 active torsions:
REMARK  status: ('A' for Active; 'I' for Inactive)
REMARK    1  A    between atoms: C1_1  and  S9_9 
REMARK    2  A    between atoms: C2_2  and  N7_7 
ROOT
HETATM    1  C1  UNL     1     -35.218  15.008  -3.545  1.00 20.00     0.102 C 
HETATM    2  C2  UNL     1     -34.566  16.151  -3.834  1.00 20.00     0.011 C 
HETATM    3  C3  UNL     1     -34.549  16.640  -5.261  1.00 20.00     0.068 C 
ENDROOT
BRANCH   2   4
HETATM    4  N7  UNL     1     -33.890  16.955  -2.956  1.00 20.00    -0.393 N 
HETATM    5  C4  UNL     1     -32.938  17.951  -3.421  1.00 20.00     0.148 C 
HETATM    6  C5  UNL     1     -34.268  17.027  -1.551  1.00 20.00     0.148 C 
ENDBRANCH   2   4
BRANCH   1   7
HETATM    7  S9  UNL     1     -36.062  14.056  -4.800  1.00 20.00     0.036 S 
HETATM    8  C6  UNL     1     -37.744  14.505  -4.316  1.00 20.00     0.132 C 
HETATM    9  O8  UNL     1     -35.839  12.620  -4.436  1.00 20.00    -0.254 OA
ENDBRANCH   1   7
TORSDOF 2
ENDMDL
MODEL 6
REMARK VINA RESULT:      -3.3     16.378     17.640
REMARK  2 active torsions:
REMARK  status: ('A' for Active; 'I' for Inactive)
REMARK    1  A    between atoms: C1_1  and  S9_9 
REMARK    2  A    between atoms: C2_2  and  N7_7 
ROOT
HETATM    1  C1  UNL     1     -24.532  18.231   9.206  1.00 20.00     0.102 C 
HETATM    2  C2  UNL     1     -24.079  17.855  10.418  1.00 20.00     0.011 C 
HETATM    3  C3  UNL     1     -22.615  18.034  10.736  1.00 20.00     0.068 C 
ENDROOT
BRANCH   2   4
HETATM    4  N7  UNL     1     -24.813  17.309  11.436  1.00 20.00    -0.393 N 
HETATM    5  C4  UNL     1     -24.646  15.918  11.827  1.00 20.00     0.148 C 
HETATM    6  C5  UNL     1     -25.605  18.142  12.329  1.00 20.00     0.148 C 
ENDBRANCH   2   4
BRANCH   1   7
HETATM    7  S9  UNL     1     -23.452  18.934   7.968  1.00 20.00     0.036 S 
HETATM    8  C6  UNL     1     -24.728  19.263   6.732  1.00 20.00     0.132 C 
HETATM    9  O8  UNL     1     -22.607  17.798   7.477  1.00 20.00    -0.254 OA
ENDBRANCH   1   7
TORSDOF 2
ENDMDL
MODEL 7
REMARK VINA RESULT:      -3.3      1.599      2.065
REMARK  2 active torsions:
REMARK  status: ('A' for Active; 'I' for Inactive)
REMARK    1  A    between atoms: C1_1  and  S9_9 
REMARK    2  A    between atoms: C2_2  and  N7_7 
ROOT
HETATM    1  C1  UNL     1     -34.745  15.358  -2.764  1.00 20.00     0.102 C 
HETATM    2  C2  UNL     1     -34.100  16.494  -2.431  1.00 20.00     0.011 C 
HETATM    3  C3  UNL     1     -33.027  17.019  -3.353  1.00 20.00     0.068 C 
ENDROOT
BRANCH   2   4
HETATM    4  N7  UNL     1     -34.308  17.259  -1.315  1.00 20.00    -0.393 N 
HETATM    5  C4  UNL     1     -35.474  17.061  -0.469  1.00 20.00     0.148 C 
HETATM    6  C5  UNL     1     -33.263  18.125  -0.787  1.00 20.00     0.148 C 
ENDBRANCH   2   4
BRANCH   1   7
HETATM    7  S9  UNL     1     -34.368  14.459  -4.261  1.00 20.00     0.036 S 
HETATM    8  C6  UNL     1     -35.742  15.097  -5.246  1.00 20.00     0.132 C 
HETATM    9  O8  UNL     1     -34.645  13.020  -3.949  1.00 20.00    -0.254 OA
ENDBRANCH   1   7
TORSDOF 2
ENDMDL
MODEL 8
REMARK VINA RESULT:      -3.2     16.703     17.846
REMARK  2 active torsions:
REMARK  status: ('A' for Active; 'I' for Inactive)
REMARK    1  A    between atoms: C1_1  and  S9_9 
REMARK    2  A    between atoms: C2_2  and  N7_7 
ROOT
HETATM    1  C1  UNL     1     -23.945  17.853   9.952  1.00 20.00     0.102 C 
HETATM    2  C2  UNL     1     -24.999  17.903  10.791  1.00 20.00     0.011 C 
HETATM    3  C3  UNL     1     -25.775  19.192  10.908  1.00 20.00     0.068 C 
ENDROOT
BRANCH   2   4
HETATM    4  N7  UNL     1     -25.469  16.889  11.581  1.00 20.00    -0.393 N 
HETATM    5  C4  UNL     1     -24.642  15.737  11.903  1.00 20.00     0.148 C 
HETATM    6  C5  UNL     1     -26.708  17.028  12.332  1.00 20.00     0.148 C 
ENDBRANCH   2   4
BRANCH   1   7
HETATM    7  S9  UNL     1     -23.443  19.263   8.976  1.00 20.00     0.036 S 
HETATM    8  C6  UNL     1     -24.409  18.860   7.503  1.00 20.00     0.132 C 
HETATM    9  O8  UNL     1     -21.995  19.041   8.661  1.00 20.00    -0.254 OA
ENDBRANCH   1   7
TORSDOF 2
ENDMDL
MODEL 9
REMARK VINA RESULT:      -3.1      1.714      2.526
REMARK  2 active torsions:
REMARK  status: ('A' for Active; 'I' for Inactive)
REMARK    1  A    between atoms: C1_1  and  S9_9 
REMARK    2  A    between atoms: C2_2  and  N7_7 
ROOT
HETATM    1  C1  UNL     1     -36.464  15.585  -3.846  1.00 20.00     0.102 C 
HETATM    2  C2  UNL     1     -35.303  15.262  -4.451  1.00 20.00     0.011 C 
HETATM    3  C3  UNL     1     -35.342  14.725  -5.861  1.00 20.00     0.068 C 
ENDROOT
BRANCH   2   4
HETATM    4  N7  UNL     1     -34.045  15.365  -3.922  1.00 20.00    -0.393 N 
HETATM    5  C4  UNL     1     -33.798  16.113  -2.699  1.00 20.00     0.148 C 
HETATM    6  C5  UNL     1     -32.950  14.538  -4.409  1.00 20.00     0.148 C 
ENDBRANCH   2   4
BRANCH   1   7
HETATM    7  S9  UNL     1     -38.042  15.397  -4.662  1.00 20.00     0.036 S 
HETATM    8  C6  UNL     1     -38.966  16.538  -3.610  1.00 20.00     0.132 C 
HETATM    9  O8  UNL     1     -38.495  14.003  -4.351  1.00 20.00    -0.254 OA
ENDBRANCH   1   7
TORSDOF 2
ENDMDL
