MODEL 1
REMARK VINA RESULT:      -5.2      0.000      0.000
REMARK  1 active torsions:
REMARK  status: ('A' for Active; 'I' for Inactive)
REMARK    1  A    between atoms: C10_10  and  O11_11 
ROOT
HETATM    1  C1  UNL     1     -43.241   8.060  -1.160  1.00 20.00    -0.025 C 
HETATM    2  C2  UNL     1     -43.343   8.161   0.174  1.00 20.00    -0.025 C 
HETATM    3  C3  UNL     1     -42.297   5.178  -1.408  1.00 20.00     0.008 C 
HETATM    4  C4  UNL     1     -43.226   4.929  -0.224  1.00 20.00     0.032 C 
HETATM    5  C5  UNL     1     -41.155   8.618  -0.369  1.00 20.00     0.018 C 
HETATM    6  C6  UNL     1     -41.796   7.769  -1.479  1.00 20.00     0.013 C 
HETATM    7  C7  UNL     1     -41.964   7.937   0.747  1.00 20.00     0.015 C 
HETATM    8  C8  UNL     1     -41.397   6.345  -1.002  1.00 20.00     0.000 C 
HETATM    9  C9  UNL     1     -41.505   6.467   0.550  1.00 20.00     0.027 C 
HETATM   10  C10 UNL     1     -42.402   5.315   1.000  1.00 20.00     0.123 C 
ENDROOT
BRANCH  10  11
HETATM   11  O11 UNL     1     -43.232   5.650   2.093  1.00 20.00    -0.395 OA
HETATM   12  H25 UNL     1     -44.136   5.369   1.865  1.00 20.00     0.210 HD
ENDBRANCH  10  11
TORSDOF 1
ENDMDL
MODEL 2
REMARK VINA RESULT:      -5.1     10.832     12.318
REMARK  1 active torsions:
REMARK  status: ('A' for Active; 'I' for Inactive)
REMARK    1  A    between atoms: C10_10  and  O11_11 
ROOT
HETATM    1  C1  UNL     1     -36.189  16.595  -4.774  1.00 20.00    -0.025 C 
HETATM    2  C2  UNL     1     -35.729  15.801  -5.752  1.00 20.00    -0.025 C 
HETATM    3  C3  UNL     1     -34.141  16.013  -2.602  1.00 20.00     0.008 C 
HETATM    4  C4  UNL     1     -33.153  15.938  -3.762  1.00 20.00     0.032 C 
HETATM    5  C5  UNL     1     -37.083  14.507  -4.417  1.00 20.00     0.018 C 
HETATM    6  C6  UNL     1     -36.561  15.708  -3.613  1.00 20.00     0.013 C 
HETATM    7  C7  UNL     1     -35.792  14.380  -5.243  1.00 20.00     0.015 C 
HETATM    8  C8  UNL     1     -35.295  15.079  -2.967  1.00 20.00     0.000 C 
HETATM    9  C9  UNL     1     -34.766  14.147  -4.101  1.00 20.00     0.027 C 
HETATM   10  C10 UNL     1     -33.298  14.518  -4.300  1.00 20.00     0.123 C 
ENDROOT
BRANCH  10  11
HETATM   11  O11 UNL     1     -32.880  14.434  -5.646  1.00 20.00    -0.395 OA
HETATM   12  H25 UNL     1     -32.542  15.312  -5.899  1.00 20.00     0.210 HD
ENDBRANCH  10  11
TORSDOF 1
ENDMDL
MODEL 3
REMARK VINA RESULT:      -5.1     10.615     12.037
REMARK  1 active torsions:
REMARK  status: ('A' for Active; 'I' for Inactive)
REMARK    1  A    between atoms: C10_10  and  O11_11 
ROOT
HETATM    1  C1  UNL     1     -35.026  17.202  -4.224  1.00 20.00    -0.025 C 
HETATM    2  C2  UNL     1     -35.962  16.607  -3.471  1.00 20.00    -0.025 C 
HETATM    3  C3  UNL     1     -34.296  14.910  -6.086  1.00 20.00     0.008 C 
HETATM    4  C4  UNL     1     -35.783  14.574  -6.012  1.00 20.00     0.032 C 
HETATM    5  C5  UNL     1     -33.926  16.104  -2.528  1.00 20.00     0.018 C 
HETATM    6  C6  UNL     1     -33.736  16.448  -4.015  1.00 20.00     0.013 C 
HETATM    7  C7  UNL     1     -35.299  15.452  -2.759  1.00 20.00     0.015 C 
HETATM    8  C8  UNL     1     -33.816  15.028  -4.640  1.00 20.00     0.000 C 
HETATM    9  C9  UNL     1     -34.898  14.332  -3.757  1.00 20.00     0.027 C 
HETATM   10  C10 UNL     1     -35.931  13.763  -4.729  1.00 20.00     0.123 C 
ENDROOT
BRANCH  10  11
HETATM   11  O11 UNL     1     -37.252  13.822  -4.233  1.00 20.00    -0.395 OA
HETATM   12  H25 UNL     1     -37.446  14.756  -4.041  1.00 20.00     0.210 HD
ENDBRANCH  10  11
TORSDOF 1
ENDMDL
MODEL 4
REMARK VINA RESULT:      -4.8     11.368     12.762
REMARK  1 active torsions:
REMARK  status: ('A' for Active; 'I' for Inactive)
REMARK    1  A    between atoms: C10_10  and  O11_11 
ROOT
HETATM    1  C1  UNL     1     -35.189  15.549  -2.940  1.00 20.00    -0.025 C 
HETATM    2  C2  UNL     1     -34.971  14.377  -3.556  1.00 20.00    -0.025 C 
HETATM    3  C3  UNL     1     -35.979  17.268  -5.322  1.00 20.00     0.008 C 
HETATM    4  C4  UNL     1     -36.660  15.999  -5.824  1.00 20.00     0.032 C 
HETATM    5  C5  UNL     1     -33.019  15.584  -3.702  1.00 20.00     0.018 C 
HETATM    6  C6  UNL     1     -34.206  16.543  -3.506  1.00 20.00     0.013 C 
HETATM    7  C7  UNL     1     -33.842  14.588  -4.536  1.00 20.00     0.015 C 
HETATM    8  C8  UNL     1     -34.541  16.874  -4.987  1.00 20.00     0.000 C 
HETATM    9  C9  UNL     1     -34.277  15.513  -5.704  1.00 20.00     0.027 C 
HETATM   10  C10 UNL     1     -35.545  15.205  -6.498  1.00 20.00     0.123 C 
ENDROOT
BRANCH  10  11
HETATM   11  O11 UNL     1     -35.852  13.827  -6.543  1.00 20.00    -0.395 OA
HETATM   12  H25 UNL     1     -36.733  13.714  -6.145  1.00 20.00     0.210 HD
ENDBRANCH  10  11
TORSDOF 1
ENDMDL
MODEL 5
REMARK VINA RESULT:      -4.8     23.016     24.150
REMARK  1 active torsions:
REMARK  status: ('A' for Active; 'I' for Inactive)
REMARK    1  A    between atoms: C10_10  and  O11_11 
ROOT
HETATM    1  C1  UNL     1     -23.425  18.270  12.332  1.00 20.00    -0.025 C 
HETATM    2  C2  UNL     1     -24.729  18.254  12.019  1.00 20.00    -0.025 C 
HETATM    3  C3  UNL     1     -22.205  18.358   9.547  1.00 20.00     0.008 C 
HETATM    4  C4  UNL     1     -23.400  19.248   9.214  1.00 20.00     0.032 C 
HETATM    5  C5  UNL     1     -23.998  16.075  11.953  1.00 20.00     0.018 C 
HETATM    6  C6  UNL     1     -22.807  17.025  11.744  1.00 20.00     0.013 C 
HETATM    7  C7  UNL     1     -24.984  16.999  11.220  1.00 20.00     0.015 C 
HETATM    8  C8  UNL     1     -22.781  17.098  10.192  1.00 20.00     0.000 C 
HETATM    9  C9  UNL     1     -24.299  17.070   9.828  1.00 20.00     0.027 C 
HETATM   10  C10 UNL     1     -24.534  18.272   8.915  1.00 20.00     0.123 C 
ENDROOT
BRANCH  10  11
HETATM   11  O11 UNL     1     -25.796  18.878   9.108  1.00 20.00    -0.395 OA
HETATM   12  H25 UNL     1     -26.452  18.330   8.643  1.00 20.00     0.210 HD
ENDBRANCH  10  11
TORSDOF 1
ENDMDL
MODEL 6
REMARK VINA RESULT:      -4.6     10.840     12.506
REMARK  1 active torsions:
REMARK  status: ('A' for Active; 'I' for Inactive)
REMARK    1  A    between atoms: C10_10  and  O11_11 
ROOT
HETATM    1  C1  UNL     1     -36.345  14.053  -4.131  1.00 20.00    -0.025 C 
HETATM    2  C2  UNL     1     -35.052  13.703  -4.201  1.00 20.00    -0.025 C 
HETATM    3  C3  UNL     1     -36.479  16.068  -6.405  1.00 20.00     0.008 C 
HETATM    4  C4  UNL     1     -35.496  15.129  -7.098  1.00 20.00     0.032 C 
HETATM    5  C5  UNL     1     -35.164  15.598  -2.903  1.00 20.00     0.018 C 
HETATM    6  C6  UNL     1     -36.394  15.528  -3.823  1.00 20.00     0.013 C 
HETATM    7  C7  UNL     1     -34.236  14.946  -3.940  1.00 20.00     0.015 C 
HETATM    8  C8  UNL     1     -35.885  16.365  -5.029  1.00 20.00     0.000 C 
HETATM    9  C9  UNL     1     -34.378  15.965  -5.103  1.00 20.00     0.027 C 
HETATM   10  C10 UNL     1     -34.131  15.526  -6.546  1.00 20.00     0.123 C 
ENDROOT
BRANCH  10  11
HETATM   11  O11 UNL     1     -33.205  14.464  -6.652  1.00 20.00    -0.395 OA
HETATM   12  H25 UNL     1     -32.425  14.708  -6.123  1.00 20.00     0.210 HD
ENDBRANCH  10  11
TORSDOF 1
ENDMDL
MODEL 7
REMARK VINA RESULT:      -4.6     10.912     12.442
REMARK  1 active torsions:
REMARK  status: ('A' for Active; 'I' for Inactive)
REMARK    1  A    between atoms: C10_10  and  O11_11 
ROOT
HETATM    1  C1  UNL     1     -34.425  13.808  -3.942  1.00 20.00    -0.025 C 
HETATM    2  C2  UNL     1     -35.700  14.079  -4.257  1.00 20.00    -0.025 C 
HETATM    3  C3  UNL     1     -33.691  16.353  -2.446  1.00 20.00     0.008 C 
HETATM    4  C4  UNL     1     -35.125  16.286  -1.929  1.00 20.00     0.032 C 
HETATM    5  C5  UNL     1     -34.391  15.013  -5.900  1.00 20.00     0.018 C 
HETATM    6  C6  UNL     1     -33.566  14.851  -4.613  1.00 20.00     0.013 C 
HETATM    7  C7  UNL     1     -35.695  15.304  -5.139  1.00 20.00     0.015 C 
HETATM    8  C8  UNL     1     -33.783  16.248  -3.968  1.00 20.00     0.000 C 
HETATM    9  C9  UNL     1     -35.263  16.567  -4.344  1.00 20.00     0.027 C 
HETATM   10  C10 UNL     1     -35.961  16.925  -3.033  1.00 20.00     0.123 C 
ENDROOT
BRANCH  10  11
HETATM   11  O11 UNL     1     -37.303  16.487  -2.980  1.00 20.00    -0.395 OA
HETATM   12  H25 UNL     1     -37.715  16.716  -3.831  1.00 20.00     0.210 HD
ENDBRANCH  10  11
TORSDOF 1
ENDMDL
MODEL 8
REMARK VINA RESULT:      -4.6     23.236     24.148
REMARK  1 active torsions:
REMARK  status: ('A' for Active; 'I' for Inactive)
REMARK    1  A    between atoms: C10_10  and  O11_11 
ROOT
HETATM    1  C1  UNL     1     -22.227  19.051   9.543  1.00 20.00    -0.025 C 
HETATM    2  C2  UNL     1     -21.689  17.918  10.020  1.00 20.00    -0.025 C 
HETATM    3  C3  UNL     1     -25.104  18.710  10.472  1.00 20.00     0.008 C 
HETATM    4  C4  UNL     1     -24.473  18.074  11.707  1.00 20.00     0.032 C 
HETATM    5  C5  UNL     1     -22.599  17.417   7.968  1.00 20.00     0.018 C 
HETATM    6  C6  UNL     1     -23.293  18.658   8.552  1.00 20.00     0.013 C 
HETATM    7  C7  UNL     1     -22.397  16.767   9.346  1.00 20.00     0.015 C 
HETATM    8  C8  UNL     1     -24.499  17.989   9.268  1.00 20.00     0.000 C 
HETATM    9  C9  UNL     1     -23.875  16.666   9.813  1.00 20.00     0.027 C 
HETATM   10  C10 UNL     1     -24.210  16.627  11.303  1.00 20.00     0.123 C 
ENDROOT
BRANCH  10  11
HETATM   11  O11 UNL     1     -23.186  16.052  12.088  1.00 20.00    -0.395 OA
HETATM   12  H25 UNL     1     -22.976  16.686  12.796  1.00 20.00     0.210 HD
ENDBRANCH  10  11
TORSDOF 1
ENDMDL
MODEL 9
REMARK VINA RESULT:      -4.6     11.184     12.728
REMARK  1 active torsions:
REMARK  status: ('A' for Active; 'I' for Inactive)
REMARK    1  A    between atoms: C10_10  and  O11_11 
ROOT
HETATM    1  C1  UNL     1     -34.943  16.278  -1.927  1.00 20.00    -0.025 C 
HETATM    2  C2  UNL     1     -33.681  16.454  -2.345  1.00 20.00    -0.025 C 
HETATM    3  C3  UNL     1     -35.966  14.399  -4.090  1.00 20.00     0.008 C 
HETATM    4  C4  UNL     1     -34.560  13.810  -4.034  1.00 20.00     0.032 C 
HETATM    5  C5  UNL     1     -34.978  17.985  -3.469  1.00 20.00     0.018 C 
HETATM    6  C6  UNL     1     -35.851  16.805  -3.010  1.00 20.00     0.013 C 
HETATM    7  C7  UNL     1     -33.745  17.099  -3.709  1.00 20.00     0.015 C 
HETATM    8  C8  UNL     1     -35.787  15.906  -4.275  1.00 20.00     0.000 C 
HETATM    9  C9  UNL     1     -34.322  16.120  -4.766  1.00 20.00     0.027 C 
HETATM   10  C10 UNL     1     -33.725  14.722  -4.927  1.00 20.00     0.123 C 
ENDROOT
BRANCH  10  11
HETATM   11  O11 UNL     1     -32.356  14.660  -4.586  1.00 20.00    -0.395 OA
HETATM   12  H25 UNL     1     -32.297  14.269  -3.697  1.00 20.00     0.210 HD
ENDBRANCH  10  11
TORSDOF 1
ENDMDL
