MODEL 1
REMARK VINA RESULT:      -3.9      0.000      0.000
REMARK  0 active torsions:
REMARK  status: ('A' for Active; 'I' for Inactive)
ROOT
HETATM    1  C1  UNL     1     -24.199  18.266   9.183  1.00 20.00     0.135 C 
HETATM    2  C2  UNL     1     -24.208  16.522  10.840  1.00 20.00     0.092 C 
HETATM    3  C3  UNL     1     -22.853  17.178  11.143  1.00 20.00     0.073 C 
HETATM    4  C4  UNL     1     -25.031  16.137  12.061  1.00 20.00     0.033 C 
HETATM    5  C5  UNL     1     -22.834  18.133  12.331  1.00 20.00     0.024 C 
HETATM    6  N6  UNL     1     -24.942  17.417   9.967  1.00 20.00    -0.370 N 
HETATM    7  S7  UNL     1     -24.824  19.263   8.012  1.00 20.00    -0.053 SA
HETATM    8  S8  UNL     1     -22.505  18.128   9.615  1.00 20.00    -0.094 SA
HETATM    9  H17 UNL     1     -25.953  17.469   9.992  1.00 20.00     0.161 HD
ENDROOT
TORSDOF 0
ENDMDL
MODEL 2
REMARK VINA RESULT:      -3.9      1.907      3.377
REMARK  0 active torsions:
REMARK  status: ('A' for Active; 'I' for Inactive)
ROOT
HETATM    1  C1  UNL     1     -24.279  17.254  10.799  1.00 20.00     0.135 C 
HETATM    2  C2  UNL     1     -24.208  18.855   9.006  1.00 20.00     0.092 C 
HETATM    3  C3  UNL     1     -22.714  18.528   9.138  1.00 20.00     0.073 C 
HETATM    4  C4  UNL     1     -24.725  18.967   7.579  1.00 20.00     0.033 C 
HETATM    5  C5  UNL     1     -22.161  17.544   8.113  1.00 20.00     0.024 C 
HETATM    6  N6  UNL     1     -24.943  17.857   9.758  1.00 20.00    -0.370 N 
HETATM    7  S7  UNL     1     -24.972  16.199  11.878  1.00 20.00    -0.053 SA
HETATM    8  S8  UNL     1     -22.604  17.771  10.804  1.00 20.00    -0.094 SA
HETATM    9  H17 UNL     1     -25.871  17.562   9.481  1.00 20.00     0.161 HD
ENDROOT
TORSDOF 0
ENDMDL
MODEL 3
REMARK VINA RESULT:      -3.8      2.015      2.869
REMARK  0 active torsions:
REMARK  status: ('A' for Active; 'I' for Inactive)
ROOT
HETATM    1  C1  UNL     1     -24.549  18.935   7.810  1.00 20.00     0.135 C 
HETATM    2  C2  UNL     1     -22.543  18.450   9.046  1.00 20.00     0.092 C 
HETATM    3  C3  UNL     1     -23.602  18.154  10.118  1.00 20.00     0.073 C 
HETATM    4  C4  UNL     1     -21.394  17.455   8.976  1.00 20.00     0.033 C 
HETATM    5  C5  UNL     1     -23.935  16.681  10.327  1.00 20.00     0.024 C 
HETATM    6  N6  UNL     1     -23.229  18.558   7.772  1.00 20.00    -0.370 N 
HETATM    7  S7  UNL     1     -25.478  19.263   6.473  1.00 20.00    -0.053 SA
HETATM    8  S8  UNL     1     -25.088  19.012   9.477  1.00 20.00    -0.094 SA
HETATM    9  H17 UNL     1     -22.779  18.292   6.905  1.00 20.00     0.161 HD
ENDROOT
TORSDOF 0
ENDMDL
MODEL 4
REMARK VINA RESULT:      -3.5      1.629      2.458
REMARK  0 active torsions:
REMARK  status: ('A' for Active; 'I' for Inactive)
ROOT
HETATM    1  C1  UNL     1     -24.911  18.847   9.810  1.00 20.00     0.135 C 
HETATM    2  C2  UNL     1     -23.647  18.344  11.794  1.00 20.00     0.092 C 
HETATM    3  C3  UNL     1     -25.068  18.054  12.296  1.00 20.00     0.073 C 
HETATM    4  C4  UNL     1     -22.588  17.340  12.226  1.00 20.00     0.033 C 
HETATM    5  C5  UNL     1     -25.469  16.584  12.332  1.00 20.00     0.024 C 
HETATM    6  N6  UNL     1     -23.709  18.459  10.349  1.00 20.00    -0.370 N 
HETATM    7  S7  UNL     1     -25.163  19.184   8.204  1.00 20.00    -0.053 SA
HETATM    8  S8  UNL     1     -26.122  18.925  11.076  1.00 20.00    -0.094 SA
HETATM    9  H17 UNL     1     -22.928  18.192   9.763  1.00 20.00     0.161 HD
ENDROOT
TORSDOF 0
ENDMDL
MODEL 5
REMARK VINA RESULT:      -3.4     17.627     18.800
REMARK  0 active torsions:
REMARK  status: ('A' for Active; 'I' for Inactive)
ROOT
HETATM    1  C1  UNL     1     -37.081  15.160  -4.035  1.00 20.00     0.135 C 
HETATM    2  C2  UNL     1     -35.008  15.277  -2.819  1.00 20.00     0.092 C 
HETATM    3  C3  UNL     1     -34.603  14.330  -3.958  1.00 20.00     0.073 C 
HETATM    4  C4  UNL     1     -33.977  16.335  -2.457  1.00 20.00     0.033 C 
HETATM    5  C5  UNL     1     -33.823  14.969  -5.101  1.00 20.00     0.024 C 
HETATM    6  N6  UNL     1     -36.279  15.876  -3.180  1.00 20.00    -0.370 N 
HETATM    7  S7  UNL     1     -38.629  15.586  -4.458  1.00 20.00    -0.053 SA
HETATM    8  S8  UNL     1     -36.217  13.743  -4.599  1.00 20.00    -0.094 SA
HETATM    9  H17 UNL     1     -36.527  16.811  -2.879  1.00 20.00     0.161 HD
ENDROOT
TORSDOF 0
ENDMDL
MODEL 6
REMARK VINA RESULT:      -3.3     16.760     17.531
REMARK  0 active torsions:
REMARK  status: ('A' for Active; 'I' for Inactive)
ROOT
HETATM    1  C1  UNL     1     -35.326  14.839  -3.817  1.00 20.00     0.135 C 
HETATM    2  C2  UNL     1     -34.585  16.182  -1.965  1.00 20.00     0.092 C 
HETATM    3  C3  UNL     1     -33.401  16.365  -2.925  1.00 20.00     0.073 C 
HETATM    4  C4  UNL     1     -35.035  17.442  -1.240  1.00 20.00     0.033 C 
HETATM    5  C5  UNL     1     -33.386  17.670  -3.712  1.00 20.00     0.024 C 
HETATM    6  N6  UNL     1     -35.672  15.588  -2.719  1.00 20.00    -0.370 N 
HETATM    7  S7  UNL     1     -36.391  13.952  -4.731  1.00 20.00    -0.053 SA
HETATM    8  S8  UNL     1     -33.599  14.969  -4.095  1.00 20.00    -0.094 SA
HETATM    9  H17 UNL     1     -36.640  15.780  -2.494  1.00 20.00     0.161 HD
ENDROOT
TORSDOF 0
ENDMDL
MODEL 7
REMARK VINA RESULT:      -3.2      1.952      2.777
REMARK  0 active torsions:
REMARK  status: ('A' for Active; 'I' for Inactive)
ROOT
HETATM    1  C1  UNL     1     -22.135  17.532   8.649  1.00 20.00     0.135 C 
HETATM    2  C2  UNL     1     -22.470  18.092  10.964  1.00 20.00     0.092 C 
HETATM    3  C3  UNL     1     -23.928  17.988  10.496  1.00 20.00     0.073 C 
HETATM    4  C4  UNL     1     -22.179  17.471  12.323  1.00 20.00     0.033 C 
HETATM    5  C5  UNL     1     -24.640  16.684  10.839  1.00 20.00     0.024 C 
HETATM    6  N6  UNL     1     -21.636  17.514   9.929  1.00 20.00    -0.370 N 
HETATM    7  S7  UNL     1     -21.293  17.063   7.297  1.00 20.00    -0.053 SA
HETATM    8  S8  UNL     1     -23.786  18.123   8.674  1.00 20.00    -0.094 SA
HETATM    9  H17 UNL     1     -20.763  17.050  10.149  1.00 20.00     0.161 HD
ENDROOT
TORSDOF 0
ENDMDL
MODEL 8
REMARK VINA RESULT:      -3.2     16.947     17.954
REMARK  0 active torsions:
REMARK  status: ('A' for Active; 'I' for Inactive)
ROOT
HETATM    1  C1  UNL     1     -35.100  16.496  -2.296  1.00 20.00     0.135 C 
HETATM    2  C2  UNL     1     -35.714  15.170  -4.206  1.00 20.00     0.092 C 
HETATM    3  C3  UNL     1     -34.289  15.578  -4.605  1.00 20.00     0.073 C 
HETATM    4  C4  UNL     1     -36.081  13.722  -4.497  1.00 20.00     0.033 C 
HETATM    5  C5  UNL     1     -33.213  14.522  -4.377  1.00 20.00     0.024 C 
HETATM    6  N6  UNL     1     -35.883  15.487  -2.801  1.00 20.00    -0.370 N 
HETATM    7  S7  UNL     1     -35.233  17.120  -0.763  1.00 20.00    -0.053 SA
HETATM    8  S8  UNL     1     -33.951  17.012  -3.516  1.00 20.00    -0.094 SA
HETATM    9  H17 UNL     1     -36.490  14.940  -2.204  1.00 20.00     0.161 HD
ENDROOT
TORSDOF 0
ENDMDL
MODEL 9
REMARK VINA RESULT:      -3.1     18.220     19.407
REMARK  0 active torsions:
REMARK  status: ('A' for Active; 'I' for Inactive)
ROOT
HETATM    1  C1  UNL     1     -34.565  14.965  -6.247  1.00 20.00     0.135 C 
HETATM    2  C2  UNL     1     -36.167  14.057  -4.699  1.00 20.00     0.092 C 
HETATM    3  C3  UNL     1     -35.037  14.437  -3.731  1.00 20.00     0.073 C 
HETATM    4  C4  UNL     1     -37.573  14.383  -4.218  1.00 20.00     0.033 C 
HETATM    5  C5  UNL     1     -35.233  15.744  -2.970  1.00 20.00     0.024 C 
HETATM    6  N6  UNL     1     -35.883  14.691  -5.973  1.00 20.00    -0.370 N 
HETATM    7  S7  UNL     1     -34.002  15.547  -7.697  1.00 20.00    -0.053 SA
HETATM    8  S8  UNL     1     -33.586  14.608  -4.837  1.00 20.00    -0.094 SA
HETATM    9  H17 UNL     1     -36.625  14.987  -6.594  1.00 20.00     0.161 HD
ENDROOT
TORSDOF 0
ENDMDL
