MODEL 1
REMARK VINA RESULT:      -5.4      0.000      0.000
REMARK  2 active torsions:
REMARK  status: ('A' for Active; 'I' for Inactive)
REMARK    1  A    between atoms: C6_6  and  C10_10 
REMARK    2  A    between atoms: C7_7  and  C11_11 
ROOT
HETATM    1  C1  UNL     1     -36.620  14.013  -4.362  1.00 20.00     0.059 C 
HETATM    2  C10 UNL     1     -35.169  13.965  -4.235  1.00 20.00     0.128 C 
HETATM    3  N12 UNL     1     -37.775  14.020  -4.473  1.00 20.00    -0.197 NA
ENDROOT
BRANCH   2   4
HETATM    4  C6  UNL     1     -34.794  15.353  -3.718  1.00 20.00    -0.002 C 
HETATM    5  C2  UNL     1     -35.351  15.575  -2.306  1.00 20.00     0.006 C 
HETATM    6  C4  UNL     1     -34.946  16.938  -1.747  1.00 20.00     0.005 C 
HETATM    7  C7  UNL     1     -33.424  17.131  -1.770  1.00 20.00    -0.011 C 
HETATM    8  C5  UNL     1     -32.867  16.909  -3.181  1.00 20.00     0.005 C 
HETATM    9  C3  UNL     1     -33.272  15.546  -3.741  1.00 20.00     0.006 C 
BRANCH   7  10
HETATM   10  C11 UNL     1     -33.047  18.518  -1.253  1.00 20.00    -0.019 C 
HETATM   11  C8  UNL     1     -33.997  18.951  -0.139  1.00 20.00     0.010 C 
HETATM   12  C9  UNL     1     -31.602  18.534  -0.762  1.00 20.00     0.010 C 
ENDBRANCH   7  10
ENDBRANCH   2   4
TORSDOF 2
ENDMDL
MODEL 2
REMARK VINA RESULT:      -5.3      1.154      1.956
REMARK  2 active torsions:
REMARK  status: ('A' for Active; 'I' for Inactive)
REMARK    1  A    between atoms: C6_6  and  C10_10 
REMARK    2  A    between atoms: C7_7  and  C11_11 
ROOT
HETATM    1  C1  UNL     1     -35.166  13.710  -4.418  1.00 20.00     0.059 C 
HETATM    2  C10 UNL     1     -34.234  14.804  -4.657  1.00 20.00     0.128 C 
HETATM    3  N12 UNL     1     -35.907  12.831  -4.259  1.00 20.00    -0.197 NA
ENDROOT
BRANCH   2   4
HETATM    4  C6  UNL     1     -34.044  15.440  -3.281  1.00 20.00    -0.002 C 
HETATM    5  C2  UNL     1     -33.072  16.624  -3.360  1.00 20.00     0.006 C 
HETATM    6  C4  UNL     1     -32.904  17.309  -2.005  1.00 20.00     0.005 C 
HETATM    7  C7  UNL     1     -34.254  17.748  -1.421  1.00 20.00    -0.011 C 
HETATM    8  C5  UNL     1     -35.224  16.564  -1.341  1.00 20.00     0.005 C 
HETATM    9  C3  UNL     1     -35.392  15.879  -2.696  1.00 20.00     0.006 C 
BRANCH   7  10
HETATM   10  C11 UNL     1     -34.064  18.384  -0.045  1.00 20.00    -0.019 C 
HETATM   11  C8  UNL     1     -34.862  17.624   1.012  1.00 20.00     0.010 C 
HETATM   12  C9  UNL     1     -32.585  18.426   0.327  1.00 20.00     0.010 C 
ENDBRANCH   7  10
ENDBRANCH   2   4
TORSDOF 2
ENDMDL
MODEL 3
REMARK VINA RESULT:      -5.1      2.805      5.345
REMARK  2 active torsions:
REMARK  status: ('A' for Active; 'I' for Inactive)
REMARK    1  A    between atoms: C6_6  and  C10_10 
REMARK    2  A    between atoms: C7_7  and  C11_11 
ROOT
HETATM    1  C1  UNL     1     -31.724  18.423  -0.553  1.00 20.00     0.059 C 
HETATM    2  C10 UNL     1     -33.169  18.433  -0.739  1.00 20.00     0.128 C 
HETATM    3  N12 UNL     1     -30.575  18.442  -0.388  1.00 20.00    -0.197 NA
ENDROOT
BRANCH   2   4
HETATM    4  C6  UNL     1     -33.449  17.172  -1.553  1.00 20.00    -0.002 C 
HETATM    5  C2  UNL     1     -34.954  16.878  -1.598  1.00 20.00     0.006 C 
HETATM    6  C4  UNL     1     -35.265  15.649  -2.450  1.00 20.00     0.005 C 
HETATM    7  C7  UNL     1     -34.692  15.781  -3.867  1.00 20.00    -0.011 C 
HETATM    8  C5  UNL     1     -33.188  16.073  -3.822  1.00 20.00     0.005 C 
HETATM    9  C3  UNL     1     -32.876  17.303  -2.970  1.00 20.00     0.006 C 
BRANCH   7  10
HETATM   10  C11 UNL     1     -34.972  14.520  -4.683  1.00 20.00    -0.019 C 
HETATM   11  C8  UNL     1     -36.359  13.969  -4.359  1.00 20.00     0.010 C 
HETATM   12  C9  UNL     1     -34.845  14.807  -6.176  1.00 20.00     0.010 C 
ENDBRANCH   7  10
ENDBRANCH   2   4
TORSDOF 2
ENDMDL
MODEL 4
REMARK VINA RESULT:      -5.0      2.737      5.387
REMARK  2 active torsions:
REMARK  status: ('A' for Active; 'I' for Inactive)
REMARK    1  A    between atoms: C6_6  and  C10_10 
REMARK    2  A    between atoms: C7_7  and  C11_11 
ROOT
HETATM    1  C1  UNL     1     -32.018  18.435  -0.651  1.00 20.00     0.059 C 
HETATM    2  C10 UNL     1     -33.458  18.323  -0.462  1.00 20.00     0.128 C 
HETATM    3  N12 UNL     1     -30.868  18.539  -0.771  1.00 20.00    -0.197 NA
ENDROOT
BRANCH   2   4
HETATM    4  C6  UNL     1     -33.943  17.601  -1.718  1.00 20.00    -0.002 C 
HETATM    5  C2  UNL     1     -32.778  16.892  -2.420  1.00 20.00     0.006 C 
HETATM    6  C4  UNL     1     -33.247  16.119  -3.652  1.00 20.00     0.005 C 
HETATM    7  C7  UNL     1     -34.363  15.124  -3.306  1.00 20.00    -0.011 C 
HETATM    8  C5  UNL     1     -35.528  15.834  -2.605  1.00 20.00     0.005 C 
HETATM    9  C3  UNL     1     -35.059  16.606  -1.373  1.00 20.00     0.006 C 
BRANCH   7  10
HETATM   10  C11 UNL     1     -34.849  14.401  -4.561  1.00 20.00    -0.019 C 
HETATM   11  C8  UNL     1     -36.312  13.991  -4.412  1.00 20.00     0.010 C 
HETATM   12  C9  UNL     1     -34.661  15.281  -5.794  1.00 20.00     0.010 C 
ENDBRANCH   7  10
ENDBRANCH   2   4
TORSDOF 2
ENDMDL
MODEL 5
REMARK VINA RESULT:      -4.9      2.915      5.352
REMARK  2 active torsions:
REMARK  status: ('A' for Active; 'I' for Inactive)
REMARK    1  A    between atoms: C6_6  and  C10_10 
REMARK    2  A    between atoms: C7_7  and  C11_11 
ROOT
HETATM    1  C1  UNL     1     -31.550  18.478  -0.338  1.00 20.00     0.059 C 
HETATM    2  C10 UNL     1     -32.996  18.543  -0.503  1.00 20.00     0.128 C 
HETATM    3  N12 UNL     1     -30.400  18.452  -0.187  1.00 20.00    -0.197 NA
ENDROOT
BRANCH   2   4
HETATM    4  C6  UNL     1     -33.320  17.362  -1.417  1.00 20.00    -0.002 C 
HETATM    5  C2  UNL     1     -34.816  17.026  -1.358  1.00 20.00     0.006 C 
HETATM    6  C4  UNL     1     -35.175  15.880  -2.303  1.00 20.00     0.005 C 
HETATM    7  C7  UNL     1     -34.738  16.175  -3.744  1.00 20.00    -0.011 C 
HETATM    8  C5  UNL     1     -33.243  16.511  -3.802  1.00 20.00     0.005 C 
HETATM    9  C3  UNL     1     -32.883  17.656  -2.858  1.00 20.00     0.006 C 
BRANCH   7  10
HETATM   10  C11 UNL     1     -35.062  14.995  -4.658  1.00 20.00    -0.019 C 
HETATM   11  C8  UNL     1     -34.210  15.047  -5.924  1.00 20.00     0.010 C 
HETATM   12  C9  UNL     1     -34.852  13.674  -3.924  1.00 20.00     0.010 C 
ENDBRANCH   7  10
ENDBRANCH   2   4
TORSDOF 2
ENDMDL
MODEL 6
REMARK VINA RESULT:      -4.8      1.233      1.629
REMARK  2 active torsions:
REMARK  status: ('A' for Active; 'I' for Inactive)
REMARK    1  A    between atoms: C6_6  and  C10_10 
REMARK    2  A    between atoms: C7_7  and  C11_11 
ROOT
HETATM    1  C1  UNL     1     -35.910  13.760  -4.985  1.00 20.00     0.059 C 
HETATM    2  C10 UNL     1     -35.701  14.983  -5.749  1.00 20.00     0.128 C 
HETATM    3  N12 UNL     1     -36.088  12.771  -4.404  1.00 20.00    -0.197 NA
ENDROOT
BRANCH   2   4
HETATM    4  C6  UNL     1     -35.107  15.959  -4.735  1.00 20.00    -0.002 C 
HETATM    5  C2  UNL     1     -36.122  16.279  -3.631  1.00 20.00     0.006 C 
HETATM    6  C4  UNL     1     -35.534  17.215  -2.576  1.00 20.00     0.005 C 
HETATM    7  C7  UNL     1     -34.237  16.651  -1.979  1.00 20.00    -0.011 C 
HETATM    8  C5  UNL     1     -33.222  16.332  -3.083  1.00 20.00     0.005 C 
HETATM    9  C3  UNL     1     -33.811  15.396  -4.138  1.00 20.00     0.006 C 
BRANCH   7  10
HETATM   10  C11 UNL     1     -33.642  17.626  -0.965  1.00 20.00    -0.019 C 
HETATM   11  C8  UNL     1     -32.275  18.120  -1.433  1.00 20.00     0.010 C 
HETATM   12  C9  UNL     1     -34.587  18.803  -0.734  1.00 20.00     0.010 C 
ENDBRANCH   7  10
ENDBRANCH   2   4
TORSDOF 2
ENDMDL
MODEL 7
REMARK VINA RESULT:      -4.7      2.687      5.151
REMARK  2 active torsions:
REMARK  status: ('A' for Active; 'I' for Inactive)
REMARK    1  A    between atoms: C6_6  and  C10_10 
REMARK    2  A    between atoms: C7_7  and  C11_11 
ROOT
HETATM    1  C1  UNL     1     -33.756  18.330   1.070  1.00 20.00     0.059 C 
HETATM    2  C10 UNL     1     -33.655  18.770  -0.315  1.00 20.00     0.128 C 
HETATM    3  N12 UNL     1     -33.838  18.010   2.182  1.00 20.00    -0.197 NA
ENDROOT
BRANCH   2   4
HETATM    4  C6  UNL     1     -33.635  17.472  -1.120  1.00 20.00    -0.002 C 
HETATM    5  C2  UNL     1     -35.062  16.976  -1.385  1.00 20.00     0.006 C 
HETATM    6  C4  UNL     1     -35.070  15.704  -2.231  1.00 20.00     0.005 C 
HETATM    7  C7  UNL     1     -34.305  15.895  -3.548  1.00 20.00    -0.011 C 
HETATM    8  C5  UNL     1     -32.878  16.390  -3.282  1.00 20.00     0.005 C 
HETATM    9  C3  UNL     1     -32.870  17.662  -2.436  1.00 20.00     0.006 C 
BRANCH   7  10
HETATM   10  C11 UNL     1     -34.285  14.597  -4.353  1.00 20.00    -0.019 C 
HETATM   11  C8  UNL     1     -35.608  13.850  -4.200  1.00 20.00     0.010 C 
HETATM   12  C9  UNL     1     -33.998  14.883  -5.825  1.00 20.00     0.010 C 
ENDBRANCH   7  10
ENDBRANCH   2   4
TORSDOF 2
ENDMDL
MODEL 8
REMARK VINA RESULT:      -4.7      1.333      1.471
REMARK  2 active torsions:
REMARK  status: ('A' for Active; 'I' for Inactive)
REMARK    1  A    between atoms: C6_6  and  C10_10 
REMARK    2  A    between atoms: C7_7  and  C11_11 
ROOT
HETATM    1  C1  UNL     1     -35.302  14.645  -5.717  1.00 20.00     0.059 C 
HETATM    2  C10 UNL     1     -34.070  14.665  -4.940  1.00 20.00     0.128 C 
HETATM    3  N12 UNL     1     -36.272  14.604  -6.353  1.00 20.00    -0.197 NA
ENDROOT
BRANCH   2   4
HETATM    4  C6  UNL     1     -34.265  15.821  -3.961  1.00 20.00    -0.002 C 
HETATM    5  C2  UNL     1     -35.284  15.449  -2.877  1.00 20.00     0.006 C 
HETATM    6  C4  UNL     1     -35.459  16.572  -1.856  1.00 20.00     0.005 C 
HETATM    7  C7  UNL     1     -34.119  16.981  -1.228  1.00 20.00    -0.011 C 
HETATM    8  C5  UNL     1     -33.101  17.354  -2.313  1.00 20.00     0.005 C 
HETATM    9  C3  UNL     1     -32.926  16.231  -3.334  1.00 20.00     0.006 C 
BRANCH   7  10
HETATM   10  C11 UNL     1     -34.313  18.137  -0.249  1.00 20.00    -0.019 C 
HETATM   11  C8  UNL     1     -35.205  17.711   0.914  1.00 20.00     0.010 C 
HETATM   12  C9  UNL     1     -32.966  18.638   0.264  1.00 20.00     0.010 C 
ENDBRANCH   7  10
ENDBRANCH   2   4
TORSDOF 2
ENDMDL
MODEL 9
REMARK VINA RESULT:      -4.6     13.289     16.214
REMARK  2 active torsions:
REMARK  status: ('A' for Active; 'I' for Inactive)
REMARK    1  A    between atoms: C6_6  and  C10_10 
REMARK    2  A    between atoms: C7_7  and  C11_11 
ROOT
HETATM    1  C1  UNL     1     -23.870  16.361  11.836  1.00 20.00     0.059 C 
HETATM    2  C10 UNL     1     -22.874  17.418  11.722  1.00 20.00     0.128 C 
HETATM    3  N12 UNL     1     -24.648  15.508  11.954  1.00 20.00    -0.197 NA
ENDROOT
BRANCH   2   4
HETATM    4  C6  UNL     1     -23.314  18.214  10.495  1.00 20.00    -0.002 C 
HETATM    5  C2  UNL     1     -22.844  17.529   9.206  1.00 20.00     0.006 C 
HETATM    6  C4  UNL     1     -23.315  18.280   7.962  1.00 20.00     0.005 C 
HETATM    7  C7  UNL     1     -24.839  18.467   7.956  1.00 20.00    -0.011 C 
HETATM    8  C5  UNL     1     -25.308  19.153   9.245  1.00 20.00     0.005 C 
HETATM    9  C3  UNL     1     -24.837  18.402  10.489  1.00 20.00     0.006 C 
BRANCH   7  10
HETATM   10  C11 UNL     1     -25.280  19.263   6.729  1.00 20.00    -0.019 C 
HETATM   11  C8  UNL     1     -24.195  19.237   5.655  1.00 20.00     0.010 C 
HETATM   12  C9  UNL     1     -26.594  18.715   6.178  1.00 20.00     0.010 C 
ENDBRANCH   7  10
ENDBRANCH   2   4
TORSDOF 2
ENDMDL
