MODEL 1
REMARK VINA RESULT:      -3.9      0.000      0.000
REMARK  3 active torsions:
REMARK  status: ('A' for Active; 'I' for Inactive)
REMARK    1  A    between atoms: C1_1  and  C7_7 
REMARK    2  A    between atoms: C6_6  and  C7_7 
REMARK    3  A    between atoms: C6_6  and  C8_8 
ROOT
HETATM    1  C6  UNL     1     -35.136  16.066  -4.809  1.00 20.00     0.019 C 
ENDROOT
BRANCH   1   2
HETATM    2  C7  UNL     1     -35.216  14.723  -5.558  1.00 20.00     0.043 C 
HETATM    3  C2  UNL     1     -35.680  14.940  -6.999  1.00 20.00     0.017 C 
BRANCH   2   4
HETATM    4  C1  UNL     1     -36.219  13.794  -4.907  1.00 20.00     0.235 C 
HETATM    5  O9  UNL     1     -35.934  12.668  -4.510  1.00 20.00    -0.306 OA
ENDBRANCH   2   4
ENDBRANCH   1   2
BRANCH   1   6
HETATM    6  C8  UNL     1     -34.059  16.192  -3.692  1.00 20.00    -0.051 C 
HETATM    7  C3  UNL     1     -33.392  17.576  -3.679  1.00 20.00     0.014 C 
HETATM    8  C4  UNL     1     -34.667  15.912  -2.306  1.00 20.00     0.014 C 
HETATM    9  C5  UNL     1     -32.970  15.133  -3.963  1.00 20.00     0.014 C 
ENDBRANCH   1   6
TORSDOF 3
ENDMDL
MODEL 2
REMARK VINA RESULT:      -3.9      1.384      2.181
REMARK  3 active torsions:
REMARK  status: ('A' for Active; 'I' for Inactive)
REMARK    1  A    between atoms: C1_1  and  C7_7 
REMARK    2  A    between atoms: C6_6  and  C7_7 
REMARK    3  A    between atoms: C6_6  and  C8_8 
ROOT
HETATM    1  C6  UNL     1     -34.758  16.196  -3.871  1.00 20.00     0.019 C 
ENDROOT
BRANCH   1   2
HETATM    2  C7  UNL     1     -34.593  14.675  -3.703  1.00 20.00     0.043 C 
HETATM    3  C2  UNL     1     -33.311  14.197  -4.386  1.00 20.00     0.017 C 
BRANCH   2   4
HETATM    4  C1  UNL     1     -35.741  13.927  -4.346  1.00 20.00     0.235 C 
HETATM    5  O9  UNL     1     -35.786  12.703  -4.427  1.00 20.00    -0.306 OA
ENDBRANCH   2   4
ENDBRANCH   1   2
BRANCH   1   6
HETATM    6  C8  UNL     1     -34.478  17.083  -2.623  1.00 20.00    -0.051 C 
HETATM    7  C3  UNL     1     -32.977  17.204  -2.318  1.00 20.00     0.014 C 
HETATM    8  C4  UNL     1     -35.070  18.492  -2.804  1.00 20.00     0.014 C 
HETATM    9  C5  UNL     1     -35.166  16.424  -1.410  1.00 20.00     0.014 C 
ENDBRANCH   1   6
TORSDOF 3
ENDMDL
MODEL 3
REMARK VINA RESULT:      -3.9      0.086      1.440
REMARK  3 active torsions:
REMARK  status: ('A' for Active; 'I' for Inactive)
REMARK    1  A    between atoms: C1_1  and  C7_7 
REMARK    2  A    between atoms: C6_6  and  C7_7 
REMARK    3  A    between atoms: C6_6  and  C8_8 
ROOT
HETATM    1  C6  UNL     1     -35.227  16.045  -4.739  1.00 20.00     0.019 C 
ENDROOT
BRANCH   1   2
HETATM    2  C7  UNL     1     -35.269  14.723  -5.528  1.00 20.00     0.043 C 
HETATM    3  C2  UNL     1     -35.758  14.969  -6.956  1.00 20.00     0.017 C 
BRANCH   2   4
HETATM    4  C1  UNL     1     -36.231  13.740  -4.895  1.00 20.00     0.235 C 
HETATM    5  O9  UNL     1     -35.889  12.640  -4.474  1.00 20.00    -0.306 OA
ENDBRANCH   2   4
ENDBRANCH   1   2
BRANCH   1   6
HETATM    6  C8  UNL     1     -34.091  16.207  -3.688  1.00 20.00    -0.051 C 
HETATM    7  C3  UNL     1     -32.950  15.201  -3.901  1.00 20.00     0.014 C 
HETATM    8  C4  UNL     1     -33.515  17.635  -3.715  1.00 20.00     0.014 C 
HETATM    9  C5  UNL     1     -34.699  15.960  -2.292  1.00 20.00     0.014 C 
ENDBRANCH   1   6
TORSDOF 3
ENDMDL
MODEL 4
REMARK VINA RESULT:      -3.9      0.571      1.592
REMARK  3 active torsions:
REMARK  status: ('A' for Active; 'I' for Inactive)
REMARK    1  A    between atoms: C1_1  and  C7_7 
REMARK    2  A    between atoms: C6_6  and  C7_7 
REMARK    3  A    between atoms: C6_6  and  C8_8 
ROOT
HETATM    1  C6  UNL     1     -35.452  16.129  -4.454  1.00 20.00     0.019 C 
ENDROOT
BRANCH   1   2
HETATM    2  C7  UNL     1     -35.244  14.780  -5.167  1.00 20.00     0.043 C 
HETATM    3  C2  UNL     1     -35.567  14.906  -6.656  1.00 20.00     0.017 C 
BRANCH   2   4
HETATM    4  C1  UNL     1     -36.165  13.718  -4.604  1.00 20.00     0.235 C 
HETATM    5  O9  UNL     1     -35.830  12.547  -4.455  1.00 20.00    -0.306 OA
ENDBRANCH   2   4
ENDBRANCH   1   2
BRANCH   1   6
HETATM    6  C8  UNL     1     -34.457  16.490  -3.313  1.00 20.00    -0.051 C 
HETATM    7  C3  UNL     1     -35.014  16.147  -1.923  1.00 20.00     0.014 C 
HETATM    8  C4  UNL     1     -33.110  15.770  -3.507  1.00 20.00     0.014 C 
HETATM    9  C5  UNL     1     -34.202  18.010  -3.370  1.00 20.00     0.014 C 
ENDBRANCH   1   6
TORSDOF 3
ENDMDL
MODEL 5
REMARK VINA RESULT:      -3.8      1.331      1.960
REMARK  3 active torsions:
REMARK  status: ('A' for Active; 'I' for Inactive)
REMARK    1  A    between atoms: C1_1  and  C7_7 
REMARK    2  A    between atoms: C6_6  and  C7_7 
REMARK    3  A    between atoms: C6_6  and  C8_8 
ROOT
HETATM    1  C6  UNL     1     -35.288  15.323  -3.263  1.00 20.00     0.019 C 
ENDROOT
BRANCH   1   2
HETATM    2  C7  UNL     1     -36.309  15.131  -4.399  1.00 20.00     0.043 C 
HETATM    3  C2  UNL     1     -37.621  15.843  -4.066  1.00 20.00     0.017 C 
BRANCH   2   4
HETATM    4  C1  UNL     1     -36.639  13.666  -4.594  1.00 20.00     0.235 C 
HETATM    5  O9  UNL     1     -35.803  12.771  -4.512  1.00 20.00    -0.306 OA
ENDBRANCH   2   4
ENDBRANCH   1   2
BRANCH   1   6
HETATM    6  C8  UNL     1     -33.919  15.961  -3.640  1.00 20.00    -0.051 C 
HETATM    7  C3  UNL     1     -33.267  16.688  -2.454  1.00 20.00     0.014 C 
HETATM    8  C4  UNL     1     -32.944  14.898  -4.177  1.00 20.00     0.014 C 
HETATM    9  C5  UNL     1     -34.170  16.992  -4.760  1.00 20.00     0.014 C 
ENDBRANCH   1   6
TORSDOF 3
ENDMDL
MODEL 6
REMARK VINA RESULT:      -3.8      1.604      1.872
REMARK  3 active torsions:
REMARK  status: ('A' for Active; 'I' for Inactive)
REMARK    1  A    between atoms: C1_1  and  C7_7 
REMARK    2  A    between atoms: C6_6  and  C7_7 
REMARK    3  A    between atoms: C6_6  and  C8_8 
ROOT
HETATM    1  C6  UNL     1     -35.236  15.555  -2.566  1.00 20.00     0.019 C 
ENDROOT
BRANCH   1   2
HETATM    2  C7  UNL     1     -35.587  14.957  -3.941  1.00 20.00     0.043 C 
HETATM    3  C2  UNL     1     -37.104  14.903  -4.129  1.00 20.00     0.017 C 
BRANCH   2   4
HETATM    4  C1  UNL     1     -35.076  13.538  -4.065  1.00 20.00     0.235 C 
HETATM    5  O9  UNL     1     -35.770  12.604  -4.456  1.00 20.00    -0.306 OA
ENDBRANCH   2   4
ENDBRANCH   1   2
BRANCH   1   6
HETATM    6  C8  UNL     1     -34.387  16.859  -2.555  1.00 20.00    -0.051 C 
HETATM    7  C3  UNL     1     -34.961  17.938  -3.487  1.00 20.00     0.014 C 
HETATM    8  C4  UNL     1     -34.273  17.432  -1.131  1.00 20.00     0.014 C 
HETATM    9  C5  UNL     1     -32.968  16.503  -3.045  1.00 20.00     0.014 C 
ENDBRANCH   1   6
TORSDOF 3
ENDMDL
MODEL 7
REMARK VINA RESULT:      -3.8     10.108     12.099
REMARK  3 active torsions:
REMARK  status: ('A' for Active; 'I' for Inactive)
REMARK    1  A    between atoms: C1_1  and  C7_7 
REMARK    2  A    between atoms: C6_6  and  C7_7 
REMARK    3  A    between atoms: C6_6  and  C8_8 
ROOT
HETATM    1  C6  UNL     1     -41.600   7.237  -0.898  1.00 20.00     0.019 C 
ENDROOT
BRANCH   1   2
HETATM    2  C7  UNL     1     -42.122   8.243   0.143  1.00 20.00     0.043 C 
HETATM    3  C2  UNL     1     -43.415   8.898  -0.347  1.00 20.00     0.017 C 
BRANCH   2   4
HETATM    4  C1  UNL     1     -41.123   9.357   0.374  1.00 20.00     0.235 C 
HETATM    5  O9  UNL     1     -41.432  10.545   0.388  1.00 20.00    -0.306 OA
ENDBRANCH   2   4
ENDBRANCH   1   2
BRANCH   1   6
HETATM    6  C8  UNL     1     -42.044   5.754  -0.738  1.00 20.00    -0.051 C 
HETATM    7  C3  UNL     1     -42.349   5.391   0.724  1.00 20.00     0.014 C 
HETATM    8  C4  UNL     1     -43.282   5.453  -1.601  1.00 20.00     0.014 C 
HETATM    9  C5  UNL     1     -40.887   4.858  -1.226  1.00 20.00     0.014 C 
ENDBRANCH   1   6
TORSDOF 3
ENDMDL
MODEL 8
REMARK VINA RESULT:      -3.7      1.308      2.067
REMARK  3 active torsions:
REMARK  status: ('A' for Active; 'I' for Inactive)
REMARK    1  A    between atoms: C1_1  and  C7_7 
REMARK    2  A    between atoms: C6_6  and  C7_7 
REMARK    3  A    between atoms: C6_6  and  C8_8 
ROOT
HETATM    1  C6  UNL     1     -34.425  16.364  -5.258  1.00 20.00     0.019 C 
ENDROOT
BRANCH   1   2
HETATM    2  C7  UNL     1     -34.368  15.536  -6.555  1.00 20.00     0.043 C 
HETATM    3  C2  UNL     1     -34.149  16.449  -7.763  1.00 20.00     0.017 C 
BRANCH   2   4
HETATM    4  C1  UNL     1     -35.670  14.800  -6.790  1.00 20.00     0.235 C 
HETATM    5  O9  UNL     1     -36.002  13.802  -6.157  1.00 20.00    -0.306 OA
ENDBRANCH   2   4
ENDBRANCH   1   2
BRANCH   1   6
HETATM    6  C8  UNL     1     -33.876  15.694  -3.965  1.00 20.00    -0.051 C 
HETATM    7  C3  UNL     1     -34.999  15.185  -3.049  1.00 20.00     0.014 C 
HETATM    8  C4  UNL     1     -32.935  14.524  -4.307  1.00 20.00     0.014 C 
HETATM    9  C5  UNL     1     -33.064  16.753  -3.192  1.00 20.00     0.014 C 
ENDBRANCH   1   6
TORSDOF 3
ENDMDL
MODEL 9
REMARK VINA RESULT:      -3.7      1.307      1.480
REMARK  3 active torsions:
REMARK  status: ('A' for Active; 'I' for Inactive)
REMARK    1  A    between atoms: C1_1  and  C7_7 
REMARK    2  A    between atoms: C6_6  and  C7_7 
REMARK    3  A    between atoms: C6_6  and  C8_8 
ROOT
HETATM    1  C6  UNL     1     -34.400  16.435  -5.155  1.00 20.00     0.019 C 
ENDROOT
BRANCH   1   2
HETATM    2  C7  UNL     1     -34.398  15.592  -6.443  1.00 20.00     0.043 C 
HETATM    3  C2  UNL     1     -34.176  16.485  -7.666  1.00 20.00     0.017 C 
BRANCH   2   4
HETATM    4  C1  UNL     1     -35.727  14.895  -6.642  1.00 20.00     0.235 C 
HETATM    5  O9  UNL     1     -35.990  13.798  -6.157  1.00 20.00    -0.306 OA
ENDBRANCH   2   4
ENDBRANCH   1   2
BRANCH   1   6
HETATM    6  C8  UNL     1     -33.867  15.754  -3.861  1.00 20.00    -0.051 C 
HETATM    7  C3  UNL     1     -33.029  16.712  -3.000  1.00 20.00     0.014 C 
HETATM    8  C4  UNL     1     -35.025  15.198  -3.013  1.00 20.00     0.014 C 
HETATM    9  C5  UNL     1     -32.970  14.573  -4.283  1.00 20.00     0.014 C 
ENDBRANCH   1   6
TORSDOF 3
ENDMDL
