MODEL 1
REMARK VINA RESULT:      -4.6      0.000      0.000
REMARK  0 active torsions:
REMARK  status: ('A' for Active; 'I' for Inactive)
ROOT
HETATM    1  C1  UNL     1     -41.381   9.614   0.527  1.00 20.00     0.015 C 
HETATM    2  C2  UNL     1     -41.459   8.612  -0.131  1.00 20.00    -0.071 C 
HETATM    3  C3  UNL     1     -42.028   5.790   0.943  1.00 20.00     0.039 C 
HETATM    4  C4  UNL     1     -41.039   4.968  -1.168  1.00 20.00     0.039 C 
HETATM    5  C5  UNL     1     -43.415   5.531   0.331  1.00 20.00     0.273 C 
HETATM    6  C6  UNL     1     -42.453   4.798  -1.750  1.00 20.00     0.273 C 
HETATM    7  C7  UNL     1     -42.992   7.127  -1.422  1.00 20.00     0.329 C 
HETATM    8  C8  UNL     1     -41.037   6.148  -0.178  1.00 20.00     0.043 C 
HETATM    9  C9  UNL     1     -41.554   7.386  -0.935  1.00 20.00     0.195 C 
HETATM   10  N10 UNL     1     -43.417   5.735  -1.136  1.00 20.00     0.092 N 
HETATM   11  F11 UNL     1     -40.758   7.579  -2.028  1.00 20.00    -0.227 F 
ENDROOT
TORSDOF 0
ENDMDL
MODEL 2
REMARK VINA RESULT:      -4.5     11.214     12.308
REMARK  0 active torsions:
REMARK  status: ('A' for Active; 'I' for Inactive)
ROOT
HETATM    1  C1  UNL     1     -35.313  16.995  -0.584  1.00 20.00     0.015 C 
HETATM    2  C2  UNL     1     -34.827  16.664  -1.631  1.00 20.00    -0.071 C 
HETATM    3  C3  UNL     1     -36.153  14.875  -3.749  1.00 20.00     0.039 C 
HETATM    4  C4  UNL     1     -33.867  14.474  -4.599  1.00 20.00     0.039 C 
HETATM    5  C5  UNL     1     -36.341  15.887  -4.893  1.00 20.00     0.273 C 
HETATM    6  C6  UNL     1     -34.091  15.548  -5.677  1.00 20.00     0.273 C 
HETATM    7  C7  UNL     1     -34.554  17.257  -4.038  1.00 20.00     0.329 C 
HETATM    8  C8  UNL     1     -34.670  14.844  -3.339  1.00 20.00     0.043 C 
HETATM    9  C9  UNL     1     -34.232  16.258  -2.911  1.00 20.00     0.195 C 
HETATM   10  N10 UNL     1     -35.072  16.565  -5.244  1.00 20.00     0.092 N 
HETATM   11  F11 UNL     1     -32.880  16.245  -2.722  1.00 20.00    -0.227 F 
ENDROOT
TORSDOF 0
ENDMDL
MODEL 3
REMARK VINA RESULT:      -4.5     11.416     12.666
REMARK  0 active torsions:
REMARK  status: ('A' for Active; 'I' for Inactive)
ROOT
HETATM    1  C1  UNL     1     -32.490  17.890  -1.618  1.00 20.00     0.015 C 
HETATM    2  C2  UNL     1     -32.939  17.132  -2.434  1.00 20.00    -0.071 C 
HETATM    3  C3  UNL     1     -35.884  16.288  -2.681  1.00 20.00     0.039 C 
HETATM    4  C4  UNL     1     -35.044  14.339  -3.948  1.00 20.00     0.039 C 
HETATM    5  C5  UNL     1     -36.249  16.936  -4.028  1.00 20.00     0.273 C 
HETATM    6  C6  UNL     1     -35.367  15.069  -5.263  1.00 20.00     0.273 C 
HETATM    7  C7  UNL     1     -33.940  16.934  -4.710  1.00 20.00     0.329 C 
HETATM    8  C8  UNL     1     -34.661  15.373  -2.874  1.00 20.00     0.043 C 
HETATM    9  C9  UNL     1     -33.489  16.204  -3.431  1.00 20.00     0.195 C 
HETATM   10  N10 UNL     1     -35.314  16.538  -5.104  1.00 20.00     0.092 N 
HETATM   11  F11 UNL     1     -32.478  15.347  -3.759  1.00 20.00    -0.227 F 
ENDROOT
TORSDOF 0
ENDMDL
MODEL 4
REMARK VINA RESULT:      -4.3     10.689     11.870
REMARK  0 active torsions:
REMARK  status: ('A' for Active; 'I' for Inactive)
ROOT
HETATM    1  C1  UNL     1     -35.115  16.581  -1.328  1.00 20.00     0.015 C 
HETATM    2  C2  UNL     1     -34.959  16.400  -2.505  1.00 20.00    -0.071 C 
HETATM    3  C3  UNL     1     -34.968  13.676  -3.927  1.00 20.00     0.039 C 
HETATM    4  C4  UNL     1     -33.753  14.813  -5.754  1.00 20.00     0.039 C 
HETATM    5  C5  UNL     1     -36.248  13.805  -4.772  1.00 20.00     0.273 C 
HETATM    6  C6  UNL     1     -35.077  14.975  -6.519  1.00 20.00     0.273 C 
HETATM    7  C7  UNL     1     -36.100  16.208  -4.715  1.00 20.00     0.329 C 
HETATM    8  C8  UNL     1     -34.032  14.856  -4.241  1.00 20.00     0.043 C 
HETATM    9  C9  UNL     1     -34.767  16.178  -3.944  1.00 20.00     0.195 C 
HETATM   10  N10 UNL     1     -36.238  15.029  -5.605  1.00 20.00     0.092 N 
HETATM   11  F11 UNL     1     -33.989  17.206  -4.393  1.00 20.00    -0.227 F 
ENDROOT
TORSDOF 0
ENDMDL
MODEL 5
REMARK VINA RESULT:      -4.3     10.686     11.655
REMARK  0 active torsions:
REMARK  status: ('A' for Active; 'I' for Inactive)
ROOT
HETATM    1  C1  UNL     1     -34.944  16.729  -1.282  1.00 20.00     0.015 C 
HETATM    2  C2  UNL     1     -34.965  16.100  -2.303  1.00 20.00    -0.071 C 
HETATM    3  C3  UNL     1     -37.363  15.830  -4.207  1.00 20.00     0.039 C 
HETATM    4  C4  UNL     1     -36.236  13.807  -5.071  1.00 20.00     0.039 C 
HETATM    5  C5  UNL     1     -36.831  16.585  -5.437  1.00 20.00     0.273 C 
HETATM    6  C6  UNL     1     -35.675  14.633  -6.241  1.00 20.00     0.273 C 
HETATM    7  C7  UNL     1     -34.555  16.177  -4.763  1.00 20.00     0.329 C 
HETATM    8  C8  UNL     1     -36.375  14.711  -3.832  1.00 20.00     0.043 C 
HETATM    9  C9  UNL     1     -34.992  15.328  -3.554  1.00 20.00     0.195 C 
HETATM   10  N10 UNL     1     -35.521  16.059  -5.883  1.00 20.00     0.092 N 
HETATM   11  F11 UNL     1     -34.095  14.310  -3.398  1.00 20.00    -0.227 F 
ENDROOT
TORSDOF 0
ENDMDL
MODEL 6
REMARK VINA RESULT:      -4.2     22.922     23.888
REMARK  0 active torsions:
REMARK  status: ('A' for Active; 'I' for Inactive)
ROOT
HETATM    1  C1  UNL     1     -25.390  19.254   8.041  1.00 20.00     0.015 C 
HETATM    2  C2  UNL     1     -24.709  18.760   8.897  1.00 20.00    -0.071 C 
HETATM    3  C3  UNL     1     -25.597  18.140  11.773  1.00 20.00     0.039 C 
HETATM    4  C4  UNL     1     -23.190  18.109  12.332  1.00 20.00     0.039 C 
HETATM    5  C5  UNL     1     -25.556  16.602  11.754  1.00 20.00     0.273 C 
HETATM    6  C6  UNL     1     -23.197  16.575  12.228  1.00 20.00     0.273 C 
HETATM    7  C7  UNL     1     -23.970  16.619   9.943  1.00 20.00     0.329 C 
HETATM    8  C8  UNL     1     -24.223  18.689  11.349  1.00 20.00     0.043 C 
HETATM    9  C9  UNL     1     -23.876  18.157   9.946  1.00 20.00     0.195 C 
HETATM   10  N10 UNL     1     -24.242  16.091  11.301  1.00 20.00     0.092 N 
HETATM   11  F11 UNL     1     -22.587  18.509   9.665  1.00 20.00    -0.227 F 
ENDROOT
TORSDOF 0
ENDMDL
MODEL 7
REMARK VINA RESULT:      -4.2     11.349     12.556
REMARK  0 active torsions:
REMARK  status: ('A' for Active; 'I' for Inactive)
ROOT
HETATM    1  C1  UNL     1     -32.925  17.017  -2.353  1.00 20.00     0.015 C 
HETATM    2  C2  UNL     1     -33.609  16.308  -3.038  1.00 20.00    -0.071 C 
HETATM    3  C3  UNL     1     -35.259  17.201  -5.473  1.00 20.00     0.039 C 
HETATM    4  C4  UNL     1     -36.564  15.128  -5.138  1.00 20.00     0.039 C 
HETATM    5  C5  UNL     1     -34.505  16.478  -6.602  1.00 20.00     0.273 C 
HETATM    6  C6  UNL     1     -35.727  14.439  -6.228  1.00 20.00     0.273 C 
HETATM    7  C7  UNL     1     -33.657  14.840  -5.054  1.00 20.00     0.329 C 
HETATM    8  C8  UNL     1     -35.693  16.172  -4.414  1.00 20.00     0.043 C 
HETATM    9  C9  UNL     1     -34.448  15.441  -3.877  1.00 20.00     0.195 C 
HETATM   10  N10 UNL     1     -34.375  15.027  -6.339  1.00 20.00     0.092 N 
HETATM   11  F11 UNL     1     -34.868  14.418  -3.075  1.00 20.00    -0.227 F 
ENDROOT
TORSDOF 0
ENDMDL
MODEL 8
REMARK VINA RESULT:      -4.1     11.308     12.702
REMARK  0 active torsions:
REMARK  status: ('A' for Active; 'I' for Inactive)
ROOT
HETATM    1  C1  UNL     1     -33.925  15.134  -7.474  1.00 20.00     0.015 C 
HETATM    2  C2  UNL     1     -34.025  15.130  -6.278  1.00 20.00    -0.071 C 
HETATM    3  C3  UNL     1     -34.603  17.576  -4.508  1.00 20.00     0.039 C 
HETATM    4  C4  UNL     1     -33.663  16.244  -2.650  1.00 20.00     0.039 C 
HETATM    5  C5  UNL     1     -36.004  17.218  -3.983  1.00 20.00     0.273 C 
HETATM    6  C6  UNL     1     -35.089  15.863  -2.217  1.00 20.00     0.273 C 
HETATM    7  C7  UNL     1     -35.598  14.874  -4.358  1.00 20.00     0.329 C 
HETATM    8  C8  UNL     1     -33.630  16.430  -4.178  1.00 20.00     0.043 C 
HETATM    9  C9  UNL     1     -34.148  15.126  -4.814  1.00 20.00     0.195 C 
HETATM   10  N10 UNL     1     -36.032  15.877  -3.355  1.00 20.00     0.092 N 
HETATM   11  F11 UNL     1     -33.372  14.096  -4.365  1.00 20.00    -0.227 F 
ENDROOT
TORSDOF 0
ENDMDL
MODEL 9
REMARK VINA RESULT:      -4.1     11.621     13.530
REMARK  0 active torsions:
REMARK  status: ('A' for Active; 'I' for Inactive)
ROOT
HETATM    1  C1  UNL     1     -34.593  14.224  -3.929  1.00 20.00     0.015 C 
HETATM    2  C2  UNL     1     -34.667  15.183  -3.211  1.00 20.00    -0.071 C 
HETATM    3  C3  UNL     1     -32.979  17.741  -3.437  1.00 20.00     0.039 C 
HETATM    4  C4  UNL     1     -33.585  18.150  -1.076  1.00 20.00     0.039 C 
HETATM    5  C5  UNL     1     -34.063  18.758  -3.834  1.00 20.00     0.273 C 
HETATM    6  C6  UNL     1     -34.700  19.102  -1.538  1.00 20.00     0.273 C 
HETATM    7  C7  UNL     1     -35.779  17.387  -2.848  1.00 20.00     0.329 C 
HETATM    8  C8  UNL     1     -33.393  17.043  -2.129  1.00 20.00     0.043 C 
HETATM    9  C9  UNL     1     -34.757  16.356  -2.331  1.00 20.00     0.195 C 
HETATM   10  N10 UNL     1     -35.200  18.752  -2.885  1.00 20.00     0.092 N 
HETATM   11  F11 UNL     1     -35.185  15.898  -1.118  1.00 20.00    -0.227 F 
ENDROOT
TORSDOF 0
ENDMDL
