MODEL 1
REMARK VINA RESULT:      -5.1      0.000      0.000
REMARK  0 active torsions:
REMARK  status: ('A' for Active; 'I' for Inactive)
ROOT
HETATM    1  C1  UNL     1     -32.354   7.594   3.594  1.00 20.00     0.047 A 
HETATM    2  C2  UNL     1     -32.231   6.954   2.345  1.00 20.00     0.141 A 
HETATM    3  C3  UNL     1     -33.257   6.824   4.291  1.00 20.00     0.032 A 
HETATM    4  C4  UNL     1     -33.845   6.942   5.653  1.00 20.00     0.059 C 
HETATM    5  C5  UNL     1     -34.461   5.619   6.119  1.00 20.00     0.008 C 
HETATM    6  C6  UNL     1     -35.324   4.997   5.019  1.00 20.00     0.022 C 
HETATM    7  C7  UNL     1     -34.493   4.714   3.766  1.00 20.00     0.151 C 
HETATM    8  N8  UNL     1     -32.992   5.861   2.244  1.00 20.00    -0.185 NA
HETATM    9  N9  UNL     1     -33.609   5.813   3.437  1.00 20.00    -0.274 N 
ENDROOT
TORSDOF 0
ENDMDL
MODEL 2
REMARK VINA RESULT:      -5.0      1.056      2.024
REMARK  0 active torsions:
REMARK  status: ('A' for Active; 'I' for Inactive)
ROOT
HETATM    1  C1  UNL     1     -32.911   5.926   2.251  1.00 20.00     0.047 A 
HETATM    2  C2  UNL     1     -32.199   7.120   2.484  1.00 20.00     0.141 A 
HETATM    3  C3  UNL     1     -33.592   5.694   3.424  1.00 20.00     0.032 A 
HETATM    4  C4  UNL     1     -34.507   4.604   3.860  1.00 20.00     0.059 C 
HETATM    5  C5  UNL     1     -35.336   5.017   5.080  1.00 20.00     0.008 C 
HETATM    6  C6  UNL     1     -34.457   5.680   6.142  1.00 20.00     0.022 C 
HETATM    7  C7  UNL     1     -33.780   6.935   5.587  1.00 20.00     0.151 C 
HETATM    8  N8  UNL     1     -32.405   7.616   3.707  1.00 20.00    -0.185 NA
HETATM    9  N9  UNL     1     -33.247   6.725   4.256  1.00 20.00    -0.274 N 
ENDROOT
TORSDOF 0
ENDMDL
MODEL 3
REMARK VINA RESULT:      -4.7      1.362      3.517
REMARK  0 active torsions:
REMARK  status: ('A' for Active; 'I' for Inactive)
ROOT
HETATM    1  C1  UNL     1     -34.871   5.203   5.651  1.00 20.00     0.047 A 
HETATM    2  C2  UNL     1     -34.494   6.343   6.388  1.00 20.00     0.141 A 
HETATM    3  C3  UNL     1     -34.237   5.350   4.438  1.00 20.00     0.032 A 
HETATM    4  C4  UNL     1     -34.222   4.521   3.201  1.00 20.00     0.059 C 
HETATM    5  C5  UNL     1     -33.040   4.881   2.295  1.00 20.00     0.008 C 
HETATM    6  C6  UNL     1     -32.908   6.399   2.142  1.00 20.00     0.022 C 
HETATM    7  C7  UNL     1     -32.682   7.068   3.498  1.00 20.00     0.151 C 
HETATM    8  N8  UNL     1     -33.684   7.158   5.707  1.00 20.00    -0.185 NA
HETATM    9  N9  UNL     1     -33.554   6.533   4.524  1.00 20.00    -0.274 N 
ENDROOT
TORSDOF 0
ENDMDL
MODEL 4
REMARK VINA RESULT:      -4.6      1.105      3.105
REMARK  0 active torsions:
REMARK  status: ('A' for Active; 'I' for Inactive)
ROOT
HETATM    1  C1  UNL     1     -33.995   6.787   5.942  1.00 20.00     0.047 A 
HETATM    2  C2  UNL     1     -34.868   5.703   6.163  1.00 20.00     0.141 A 
HETATM    3  C3  UNL     1     -33.532   6.604   4.659  1.00 20.00     0.032 A 
HETATM    4  C4  UNL     1     -32.574   7.367   3.813  1.00 20.00     0.059 C 
HETATM    5  C5  UNL     1     -32.720   7.010   2.331  1.00 20.00     0.008 C 
HETATM    6  C6  UNL     1     -32.795   5.494   2.137  1.00 20.00     0.022 C 
HETATM    7  C7  UNL     1     -33.993   4.905   2.883  1.00 20.00     0.151 C 
HETATM    8  N8  UNL     1     -34.960   4.888   5.108  1.00 20.00    -0.185 NA
HETATM    9  N9  UNL     1     -34.132   5.456   4.215  1.00 20.00    -0.274 N 
ENDROOT
TORSDOF 0
ENDMDL
MODEL 5
REMARK VINA RESULT:      -4.2     15.725     16.186
REMARK  0 active torsions:
REMARK  status: ('A' for Active; 'I' for Inactive)
ROOT
HETATM    1  C1  UNL     1     -22.906  16.873   9.394  1.00 20.00     0.047 A 
HETATM    2  C2  UNL     1     -23.051  18.033   8.607  1.00 20.00     0.141 A 
HETATM    3  C3  UNL     1     -23.835  17.018  10.399  1.00 20.00     0.032 A 
HETATM    4  C4  UNL     1     -24.194  16.172  11.570  1.00 20.00     0.059 C 
HETATM    5  C5  UNL     1     -25.565  16.549  12.140  1.00 20.00     0.008 C 
HETATM    6  C6  UNL     1     -25.702  18.067  12.284  1.00 20.00     0.022 C 
HETATM    7  C7  UNL     1     -25.547  18.761  10.930  1.00 20.00     0.151 C 
HETATM    8  N8  UNL     1     -23.995  18.858   9.067  1.00 20.00    -0.185 NA
HETATM    9  N9  UNL     1     -24.446  18.219  10.160  1.00 20.00    -0.274 N 
ENDROOT
TORSDOF 0
ENDMDL
MODEL 6
REMARK VINA RESULT:      -4.2     15.601     16.086
REMARK  0 active torsions:
REMARK  status: ('A' for Active; 'I' for Inactive)
ROOT
HETATM    1  C1  UNL     1     -23.674  18.691   8.761  1.00 20.00     0.047 A 
HETATM    2  C2  UNL     1     -22.772  17.660   8.432  1.00 20.00     0.141 A 
HETATM    3  C3  UNL     1     -24.326  18.237   9.885  1.00 20.00     0.032 A 
HETATM    4  C4  UNL     1     -25.406  18.817  10.729  1.00 20.00     0.059 C 
HETATM    5  C5  UNL     1     -25.487  18.129  12.096  1.00 20.00     0.008 C 
HETATM    6  C6  UNL     1     -25.434  16.607  11.948  1.00 20.00     0.022 C 
HETATM    7  C7  UNL     1     -24.132  16.167  11.275  1.00 20.00     0.151 C 
HETATM    8  N8  UNL     1     -22.837  16.625   9.275  1.00 20.00    -0.185 NA
HETATM    9  N9  UNL     1     -23.795  17.001  10.140  1.00 20.00    -0.274 N 
ENDROOT
TORSDOF 0
ENDMDL
MODEL 7
REMARK VINA RESULT:      -4.1     16.566     17.133
REMARK  0 active torsions:
REMARK  status: ('A' for Active; 'I' for Inactive)
ROOT
HETATM    1  C1  UNL     1     -25.846  18.799  11.044  1.00 20.00     0.047 A 
HETATM    2  C2  UNL     1     -25.414  18.374  12.316  1.00 20.00     0.141 A 
HETATM    3  C3  UNL     1     -24.745  18.638  10.233  1.00 20.00     0.032 A 
HETATM    4  C4  UNL     1     -24.507  18.912   8.789  1.00 20.00     0.059 C 
HETATM    5  C5  UNL     1     -23.271  18.170   8.270  1.00 20.00     0.008 C 
HETATM    6  C6  UNL     1     -22.092  18.328   9.233  1.00 20.00     0.022 C 
HETATM    7  C7  UNL     1     -22.433  17.765  10.614  1.00 20.00     0.151 C 
HETATM    8  N8  UNL     1     -24.141  17.972  12.325  1.00 20.00    -0.185 NA
HETATM    9  N9  UNL     1     -23.759  18.152  11.049  1.00 20.00    -0.274 N 
ENDROOT
TORSDOF 0
ENDMDL
MODEL 8
REMARK VINA RESULT:      -3.9     11.869     12.451
REMARK  0 active torsions:
REMARK  status: ('A' for Active; 'I' for Inactive)
ROOT
HETATM    1  C1  UNL     1     -35.001  15.184  -3.003  1.00 20.00     0.047 A 
HETATM    2  C2  UNL     1     -33.898  15.039  -3.869  1.00 20.00     0.141 A 
HETATM    3  C3  UNL     1     -34.642  16.205  -2.153  1.00 20.00     0.032 A 
HETATM    4  C4  UNL     1     -35.331  16.846  -1.000  1.00 20.00     0.059 C 
HETATM    5  C5  UNL     1     -34.714  18.206  -0.658  1.00 20.00     0.008 C 
HETATM    6  C6  UNL     1     -33.186  18.122  -0.624  1.00 20.00     0.022 C 
HETATM    7  C7  UNL     1     -32.631  17.681  -1.979  1.00 20.00     0.151 C 
HETATM    8  N8  UNL     1     -32.910  15.896  -3.599  1.00 20.00    -0.185 NA
HETATM    9  N9  UNL     1     -33.387  16.584  -2.548  1.00 20.00    -0.274 N 
ENDROOT
TORSDOF 0
ENDMDL
MODEL 9
REMARK VINA RESULT:      -3.8     11.672     12.762
REMARK  0 active torsions:
REMARK  status: ('A' for Active; 'I' for Inactive)
ROOT
HETATM    1  C1  UNL     1     -38.197  16.278  -3.877  1.00 20.00     0.047 A 
HETATM    2  C2  UNL     1     -39.001  15.161  -4.182  1.00 20.00     0.141 A 
HETATM    3  C3  UNL     1     -36.908  15.799  -3.918  1.00 20.00     0.032 A 
HETATM    4  C4  UNL     1     -35.586  16.439  -3.677  1.00 20.00     0.059 C 
HETATM    5  C5  UNL     1     -34.440  15.606  -4.260  1.00 20.00     0.008 C 
HETATM    6  C6  UNL     1     -34.596  14.128  -3.896  1.00 20.00     0.022 C 
HETATM    7  C7  UNL     1     -35.911  13.566  -4.441  1.00 20.00     0.151 C 
HETATM    8  N8  UNL     1     -38.288  14.053  -4.401  1.00 20.00    -0.185 NA
HETATM    9  N9  UNL     1     -37.022  14.470  -4.225  1.00 20.00    -0.274 N 
ENDROOT
TORSDOF 0
ENDMDL
