MODEL 1
REMARK VINA RESULT:      -4.3      0.000      0.000
REMARK  0 active torsions:
REMARK  status: ('A' for Active; 'I' for Inactive)
ROOT
HETATM    1  C1  UNL     1     -23.173  18.110   8.378  1.00 20.00     0.134 C 
HETATM    2  C2  UNL     1     -24.073  19.201   8.927  1.00 20.00     0.109 C 
HETATM    3  C3  UNL     1     -21.987  17.729  10.535  1.00 20.00     0.044 C 
HETATM    4  C4  UNL     1     -24.965  18.676  10.062  1.00 20.00     0.280 C 
HETATM    5  C5  UNL     1     -23.102  18.079  11.525  1.00 20.00     0.273 C 
HETATM    6  C6  UNL     1     -23.957  16.495  10.049  1.00 20.00     0.284 C 
HETATM    7  C7  UNL     1     -22.719  17.059   9.378  1.00 20.00     0.085 C 
HETATM    8  N8  UNL     1     -24.368  17.622  10.911  1.00 20.00     0.089 N 
HETATM    9  O9  UNL     1     -22.775  18.118   7.215  1.00 20.00    -0.297 OA
ENDROOT
TORSDOF 0
ENDMDL
MODEL 2
REMARK VINA RESULT:      -4.1     17.948     18.663
REMARK  0 active torsions:
REMARK  status: ('A' for Active; 'I' for Inactive)
ROOT
HETATM    1  C1  UNL     1     -35.756  13.754  -4.331  1.00 20.00     0.134 C 
HETATM    2  C2  UNL     1     -36.933  14.649  -4.670  1.00 20.00     0.109 C 
HETATM    3  C3  UNL     1     -34.041  15.380  -5.117  1.00 20.00     0.044 C 
HETATM    4  C4  UNL     1     -36.887  15.962  -3.875  1.00 20.00     0.280 C 
HETATM    5  C5  UNL     1     -34.760  16.699  -4.822  1.00 20.00     0.273 C 
HETATM    6  C6  UNL     1     -34.772  15.450  -2.859  1.00 20.00     0.284 C 
HETATM    7  C7  UNL     1     -34.463  14.467  -3.971  1.00 20.00     0.085 C 
HETATM    8  N8  UNL     1     -35.536  16.488  -3.581  1.00 20.00     0.089 N 
HETATM    9  O9  UNL     1     -35.824  12.530  -4.417  1.00 20.00    -0.297 OA
ENDROOT
TORSDOF 0
ENDMDL
MODEL 3
REMARK VINA RESULT:      -4.1     18.095     18.814
REMARK  0 active torsions:
REMARK  status: ('A' for Active; 'I' for Inactive)
ROOT
HETATM    1  C1  UNL     1     -35.647  13.834  -4.595  1.00 20.00     0.134 C 
HETATM    2  C2  UNL     1     -35.815  14.549  -5.922  1.00 20.00     0.109 C 
HETATM    3  C3  UNL     1     -33.739  15.249  -3.848  1.00 20.00     0.044 C 
HETATM    4  C4  UNL     1     -36.161  16.032  -5.721  1.00 20.00     0.280 C 
HETATM    5  C5  UNL     1     -34.087  16.567  -4.546  1.00 20.00     0.273 C 
HETATM    6  C6  UNL     1     -35.961  15.911  -3.330  1.00 20.00     0.284 C 
HETATM    7  C7  UNL     1     -35.095  14.673  -3.454  1.00 20.00     0.085 C 
HETATM    8  N8  UNL     1     -35.562  16.675  -4.531  1.00 20.00     0.089 N 
HETATM    9  O9  UNL     1     -35.873  12.632  -4.471  1.00 20.00    -0.297 OA
ENDROOT
TORSDOF 0
ENDMDL
MODEL 4
REMARK VINA RESULT:      -4.1      1.358      2.431
REMARK  0 active torsions:
REMARK  status: ('A' for Active; 'I' for Inactive)
ROOT
HETATM    1  C1  UNL     1     -22.607  18.356   9.879  1.00 20.00     0.134 C 
HETATM    2  C2  UNL     1     -21.649  17.897  10.963  1.00 20.00     0.109 C 
HETATM    3  C3  UNL     1     -24.152  16.423  10.150  1.00 20.00     0.044 C 
HETATM    4  C4  UNL     1     -22.343  17.821  12.330  1.00 20.00     0.280 C 
HETATM    5  C5  UNL     1     -23.966  16.131  11.642  1.00 20.00     0.273 C 
HETATM    6  C6  UNL     1     -24.500  18.388  11.437  1.00 20.00     0.284 C 
HETATM    7  C7  UNL     1     -24.058  17.941  10.057  1.00 20.00     0.085 C 
HETATM    8  N8  UNL     1     -23.772  17.439  12.305  1.00 20.00     0.089 N 
HETATM    9  O9  UNL     1     -22.219  18.962   8.882  1.00 20.00    -0.297 OA
ENDROOT
TORSDOF 0
ENDMDL
MODEL 5
REMARK VINA RESULT:      -4.0      1.717      2.143
REMARK  0 active torsions:
REMARK  status: ('A' for Active; 'I' for Inactive)
ROOT
HETATM    1  C1  UNL     1     -25.024  18.583  10.118  1.00 20.00     0.134 C 
HETATM    2  C2  UNL     1     -25.491  18.715  11.555  1.00 20.00     0.109 C 
HETATM    3  C3  UNL     1     -22.664  18.068  10.725  1.00 20.00     0.044 C 
HETATM    4  C4  UNL     1     -25.303  17.403  12.330  1.00 20.00     0.280 C 
HETATM    5  C5  UNL     1     -22.876  17.354  12.064  1.00 20.00     0.273 C 
HETATM    6  C6  UNL     1     -24.226  16.294  10.492  1.00 20.00     0.284 C 
HETATM    7  C7  UNL     1     -23.859  17.634   9.884  1.00 20.00     0.085 C 
HETATM    8  N8  UNL     1     -24.134  16.587  11.937  1.00 20.00     0.089 N 
HETATM    9  O9  UNL     1     -25.508  19.257   9.212  1.00 20.00    -0.297 OA
ENDROOT
TORSDOF 0
ENDMDL
MODEL 6
REMARK VINA RESULT:      -4.0      2.329      3.202
REMARK  0 active torsions:
REMARK  status: ('A' for Active; 'I' for Inactive)
ROOT
HETATM    1  C1  UNL     1     -25.389  18.650  11.529  1.00 20.00     0.134 C 
HETATM    2  C2  UNL     1     -25.209  18.881  10.040  1.00 20.00     0.109 C 
HETATM    3  C3  UNL     1     -24.748  16.245  11.433  1.00 20.00     0.044 C 
HETATM    4  C4  UNL     1     -23.760  18.624   9.602  1.00 20.00     0.280 C 
HETATM    5  C5  UNL     1     -23.763  16.272  10.260  1.00 20.00     0.273 C 
HETATM    6  C6  UNL     1     -23.071  17.890  11.783  1.00 20.00     0.284 C 
HETATM    7  C7  UNL     1     -24.510  17.573  12.143  1.00 20.00     0.085 C 
HETATM    8  N8  UNL     1     -23.045  17.562  10.343  1.00 20.00     0.089 N 
HETATM    9  O9  UNL     1     -26.244  19.244  12.181  1.00 20.00    -0.297 OA
ENDROOT
TORSDOF 0
ENDMDL
MODEL 7
REMARK VINA RESULT:      -4.0     17.306     18.084
REMARK  0 active torsions:
REMARK  status: ('A' for Active; 'I' for Inactive)
ROOT
HETATM    1  C1  UNL     1     -35.934  14.368  -4.008  1.00 20.00     0.134 C 
HETATM    2  C2  UNL     1     -34.584  13.676  -4.031  1.00 20.00     0.109 C 
HETATM    3  C3  UNL     1     -35.268  16.038  -2.284  1.00 20.00     0.044 C 
HETATM    4  C4  UNL     1     -33.468  14.635  -4.469  1.00 20.00     0.280 C 
HETATM    5  C5  UNL     1     -33.775  16.173  -2.597  1.00 20.00     0.273 C 
HETATM    6  C6  UNL     1     -34.935  16.533  -4.582  1.00 20.00     0.284 C 
HETATM    7  C7  UNL     1     -35.915  15.846  -3.651  1.00 20.00     0.085 C 
HETATM    8  N8  UNL     1     -33.640  16.047  -4.064  1.00 20.00     0.089 N 
HETATM    9  O9  UNL     1     -36.983  13.755  -4.192  1.00 20.00    -0.297 OA
ENDROOT
TORSDOF 0
ENDMDL
MODEL 8
REMARK VINA RESULT:      -3.9     23.092     23.877
REMARK  0 active torsions:
REMARK  status: ('A' for Active; 'I' for Inactive)
ROOT
HETATM    1  C1  UNL     1     -41.284   5.921  -0.683  1.00 20.00     0.134 C 
HETATM    2  C2  UNL     1     -42.554   5.393  -0.043  1.00 20.00     0.109 C 
HETATM    3  C3  UNL     1     -42.346   8.002  -1.543  1.00 20.00     0.044 C 
HETATM    4  C4  UNL     1     -43.072   6.344   1.047  1.00 20.00     0.280 C 
HETATM    5  C5  UNL     1     -43.417   8.226  -0.472  1.00 20.00     0.273 C 
HETATM    6  C6  UNL     1     -41.377   7.994   0.625  1.00 20.00     0.284 C 
HETATM    7  C7  UNL     1     -41.163   7.434  -0.768  1.00 20.00     0.085 C 
HETATM    8  N8  UNL     1     -42.828   7.784   0.811  1.00 20.00     0.089 N 
HETATM    9  O9  UNL     1     -40.440   5.171  -1.168  1.00 20.00    -0.297 OA
ENDROOT
TORSDOF 0
ENDMDL
MODEL 9
REMARK VINA RESULT:      -3.9     18.503     19.317
REMARK  0 active torsions:
REMARK  status: ('A' for Active; 'I' for Inactive)
ROOT
HETATM    1  C1  UNL     1     -35.539  13.818  -4.635  1.00 20.00     0.134 C 
HETATM    2  C2  UNL     1     -34.893  14.657  -3.548  1.00 20.00     0.109 C 
HETATM    3  C3  UNL     1     -36.674  15.748  -5.725  1.00 20.00     0.044 C 
HETATM    4  C4  UNL     1     -33.941  15.706  -4.140  1.00 20.00     0.280 C 
HETATM    5  C5  UNL     1     -35.678  16.867  -5.405  1.00 20.00     0.273 C 
HETATM    6  C6  UNL     1     -34.483  15.140  -6.410  1.00 20.00     0.284 C 
HETATM    7  C7  UNL     1     -35.793  14.526  -5.956  1.00 20.00     0.085 C 
HETATM    8  N8  UNL     1     -34.331  16.257  -5.456  1.00 20.00     0.089 N 
HETATM    9  O9  UNL     1     -35.902  12.661  -4.434  1.00 20.00    -0.297 OA
ENDROOT
TORSDOF 0
ENDMDL
