MODEL 1
REMARK VINA RESULT:      -5.5      0.000      0.000
REMARK  3 active torsions:
REMARK  status: ('A' for Active; 'I' for Inactive)
REMARK    1  A    between atoms: C2_2  and  C9_9 
REMARK    2  A    between atoms: C7_7  and  C9_9 
REMARK    3  A    between atoms: C8_8  and  O10_10 
ROOT
HETATM    1  C3  UNL     1     -34.307   4.327   3.370  1.00 20.00     0.003 C 
HETATM    2  C4  UNL     1     -33.177   5.107   2.701  1.00 20.00     0.005 C 
HETATM    3  C5  UNL     1     -34.415   4.656   4.854  1.00 20.00     0.032 C 
HETATM    4  C6  UNL     1     -33.425   6.942   4.421  1.00 20.00     0.036 C 
HETATM    5  C7  UNL     1     -33.319   6.620   2.925  1.00 20.00    -0.009 C 
HETATM    6  C8  UNL     1     -34.558   6.159   5.086  1.00 20.00     0.118 C 
ENDROOT
BRANCH   5   7
HETATM    7  C9  UNL     1     -32.149   7.371   2.293  1.00 20.00     0.031 C 
BRANCH   7   8
HETATM    8  C2  UNL     1     -32.514   7.903   0.943  1.00 20.00    -0.037 C 
HETATM    9  C1  UNL     1     -32.959   9.147   0.727  1.00 20.00     0.007 C 
ENDBRANCH   7   8
ENDBRANCH   5   7
BRANCH   6  10
HETATM   10  O10 UNL     1     -34.566   6.427   6.485  1.00 20.00    -0.396 OA
HETATM   11  H26 UNL     1     -34.771   5.589   6.926  1.00 20.00     0.210 HD
ENDBRANCH   6  10
TORSDOF 3
ENDMDL
MODEL 2
REMARK VINA RESULT:      -5.0      1.236      2.028
REMARK  3 active torsions:
REMARK  status: ('A' for Active; 'I' for Inactive)
REMARK    1  A    between atoms: C2_2  and  C9_9 
REMARK    2  A    between atoms: C7_7  and  C9_9 
REMARK    3  A    between atoms: C8_8  and  O10_10 
ROOT
HETATM    1  C3  UNL     1     -33.252   7.048   5.562  1.00 20.00     0.003 C 
HETATM    2  C4  UNL     1     -32.866   7.534   4.166  1.00 20.00     0.005 C 
HETATM    3  C5  UNL     1     -34.536   6.226   5.535  1.00 20.00     0.032 C 
HETATM    4  C6  UNL     1     -34.057   5.553   3.145  1.00 20.00     0.036 C 
HETATM    5  C7  UNL     1     -32.760   6.372   3.167  1.00 20.00    -0.009 C 
HETATM    6  C8  UNL     1     -34.439   5.067   4.544  1.00 20.00     0.118 C 
ENDROOT
BRANCH   5   7
HETATM    7  C9  UNL     1     -32.426   6.891   1.770  1.00 20.00     0.031 C 
BRANCH   7   8
HETATM    8  C2  UNL     1     -32.853   8.316   1.606  1.00 20.00    -0.037 C 
HETATM    9  C1  UNL     1     -32.910   8.947   0.427  1.00 20.00     0.007 C 
ENDBRANCH   7   8
ENDBRANCH   5   7
BRANCH   6  10
HETATM   10  O10 UNL     1     -35.686   4.383   4.487  1.00 20.00    -0.396 OA
HETATM   11  H26 UNL     1     -36.317   4.991   4.072  1.00 20.00     0.210 HD
ENDBRANCH   6  10
TORSDOF 3
ENDMDL
MODEL 3
REMARK VINA RESULT:      -4.7     11.470     12.053
REMARK  3 active torsions:
REMARK  status: ('A' for Active; 'I' for Inactive)
REMARK    1  A    between atoms: C2_2  and  C9_9 
REMARK    2  A    between atoms: C7_7  and  C9_9 
REMARK    3  A    between atoms: C8_8  and  O10_10 
ROOT
HETATM    1  C3  UNL     1     -36.145  14.819  -3.824  1.00 20.00     0.003 C 
HETATM    2  C4  UNL     1     -35.799  16.038  -2.971  1.00 20.00     0.005 C 
HETATM    3  C5  UNL     1     -35.123  14.601  -4.934  1.00 20.00     0.032 C 
HETATM    4  C6  UNL     1     -33.353  15.734  -3.529  1.00 20.00     0.036 C 
HETATM    5  C7  UNL     1     -34.374  15.950  -2.405  1.00 20.00    -0.009 C 
HETATM    6  C8  UNL     1     -33.703  14.512  -4.378  1.00 20.00     0.118 C 
ENDROOT
BRANCH   5   7
HETATM    7  C9  UNL     1     -34.034  17.205  -1.603  1.00 20.00     0.031 C 
BRANCH   7   8
HETATM    8  C2  UNL     1     -32.667  17.711  -1.944  1.00 20.00    -0.037 C 
HETATM    9  C1  UNL     1     -31.828  18.250  -1.052  1.00 20.00     0.007 C 
ENDBRANCH   7   8
ENDBRANCH   5   7
BRANCH   6  10
HETATM   10  O10 UNL     1     -32.777  14.397  -5.454  1.00 20.00    -0.396 OA
HETATM   11  H26 UNL     1     -32.234  15.200  -5.439  1.00 20.00     0.210 HD
ENDBRANCH   6  10
TORSDOF 3
ENDMDL
MODEL 4
REMARK VINA RESULT:      -4.6     16.046     16.778
REMARK  3 active torsions:
REMARK  status: ('A' for Active; 'I' for Inactive)
REMARK    1  A    between atoms: C2_2  and  C9_9 
REMARK    2  A    between atoms: C7_7  and  C9_9 
REMARK    3  A    between atoms: C8_8  and  O10_10 
ROOT
HETATM    1  C3  UNL     1     -24.250  18.594   8.160  1.00 20.00     0.003 C 
HETATM    2  C4  UNL     1     -24.658  18.965   9.585  1.00 20.00     0.005 C 
HETATM    3  C5  UNL     1     -22.838  18.021   8.111  1.00 20.00     0.032 C 
HETATM    4  C6  UNL     1     -23.082  17.212  10.494  1.00 20.00     0.036 C 
HETATM    5  C7  UNL     1     -24.506  17.779  10.548  1.00 20.00    -0.009 C 
HETATM    6  C8  UNL     1     -22.679  16.840   9.067  1.00 20.00     0.118 C 
ENDROOT
BRANCH   5   7
HETATM    7  C9  UNL     1     -24.868  18.192  11.974  1.00 20.00     0.031 C 
BRANCH   7   8
HETATM    8  C2  UNL     1     -26.200  18.872  12.017  1.00 20.00    -0.037 C 
HETATM    9  C1  UNL     1     -27.366  18.223  12.116  1.00 20.00     0.007 C 
ENDBRANCH   7   8
ENDBRANCH   5   7
BRANCH   6  10
HETATM   10  O10 UNL     1     -21.326  16.396   9.054  1.00 20.00    -0.396 OA
HETATM   11  H26 UNL     1     -21.310  15.541   9.512  1.00 20.00     0.210 HD
ENDBRANCH   6  10
TORSDOF 3
ENDMDL
MODEL 5
REMARK VINA RESULT:      -4.6     10.930     12.158
REMARK  3 active torsions:
REMARK  status: ('A' for Active; 'I' for Inactive)
REMARK    1  A    between atoms: C2_2  and  C9_9 
REMARK    2  A    between atoms: C7_7  and  C9_9 
REMARK    3  A    between atoms: C8_8  and  O10_10 
ROOT
HETATM    1  C3  UNL     1     -35.720  16.003  -5.927  1.00 20.00     0.003 C 
HETATM    2  C4  UNL     1     -34.511  16.494  -5.132  1.00 20.00     0.005 C 
HETATM    3  C5  UNL     1     -35.819  14.482  -5.918  1.00 20.00     0.032 C 
HETATM    4  C6  UNL     1     -34.610  14.416  -3.698  1.00 20.00     0.036 C 
HETATM    5  C7  UNL     1     -34.513  15.947  -3.697  1.00 20.00    -0.009 C 
HETATM    6  C8  UNL     1     -35.822  13.930  -4.494  1.00 20.00     0.118 C 
ENDROOT
BRANCH   5   7
HETATM    7  C9  UNL     1     -33.268  16.407  -2.943  1.00 20.00     0.031 C 
BRANCH   7   8
HETATM    8  C2  UNL     1     -33.633  17.244  -1.756  1.00 20.00    -0.037 C 
HETATM    9  C1  UNL     1     -34.802  17.151  -1.110  1.00 20.00     0.007 C 
ENDBRANCH   7   8
ENDBRANCH   5   7
BRANCH   6  10
HETATM   10  O10 UNL     1     -35.826  12.506  -4.535  1.00 20.00    -0.396 OA
HETATM   11  H26 UNL     1     -35.110  12.210  -3.952  1.00 20.00     0.210 HD
ENDBRANCH   6  10
TORSDOF 3
ENDMDL
MODEL 6
REMARK VINA RESULT:      -4.5     11.442     11.987
REMARK  3 active torsions:
REMARK  status: ('A' for Active; 'I' for Inactive)
REMARK    1  A    between atoms: C2_2  and  C9_9 
REMARK    2  A    between atoms: C7_7  and  C9_9 
REMARK    3  A    between atoms: C8_8  and  O10_10 
ROOT
HETATM    1  C3  UNL     1     -36.123  14.712  -3.883  1.00 20.00     0.003 C 
HETATM    2  C4  UNL     1     -35.817  15.917  -2.994  1.00 20.00     0.005 C 
HETATM    3  C5  UNL     1     -35.109  14.576  -5.013  1.00 20.00     0.032 C 
HETATM    4  C6  UNL     1     -33.369  15.739  -3.594  1.00 20.00     0.036 C 
HETATM    5  C7  UNL     1     -34.382  15.873  -2.450  1.00 20.00    -0.009 C 
HETATM    6  C8  UNL     1     -33.679  14.531  -4.480  1.00 20.00     0.118 C 
ENDROOT
BRANCH   5   7
HETATM    7  C9  UNL     1     -34.085  17.115  -1.611  1.00 20.00     0.031 C 
BRANCH   7   8
HETATM    8  C2  UNL     1     -35.268  17.500  -0.780  1.00 20.00    -0.037 C 
HETATM    9  C1  UNL     1     -35.400  17.196   0.517  1.00 20.00     0.007 C 
ENDBRANCH   7   8
ENDBRANCH   5   7
BRANCH   6  10
HETATM   10  O10 UNL     1     -32.765  14.493  -5.571  1.00 20.00    -0.396 OA
HETATM   11  H26 UNL     1     -33.013  15.217  -6.166  1.00 20.00     0.210 HD
ENDBRANCH   6  10
TORSDOF 3
ENDMDL
MODEL 7
REMARK VINA RESULT:      -4.4     11.274     11.957
REMARK  3 active torsions:
REMARK  status: ('A' for Active; 'I' for Inactive)
REMARK    1  A    between atoms: C2_2  and  C9_9 
REMARK    2  A    between atoms: C7_7  and  C9_9 
REMARK    3  A    between atoms: C8_8  and  O10_10 
ROOT
HETATM    1  C3  UNL     1     -33.649  14.976  -4.498  1.00 20.00     0.003 C 
HETATM    2  C4  UNL     1     -33.159  15.749  -3.274  1.00 20.00     0.005 C 
HETATM    3  C5  UNL     1     -34.995  14.311  -4.241  1.00 20.00     0.032 C 
HETATM    4  C6  UNL     1     -35.551  16.090  -2.533  1.00 20.00     0.036 C 
HETATM    5  C7  UNL     1     -34.200  16.770  -2.792  1.00 20.00    -0.009 C 
HETATM    6  C8  UNL     1     -36.037  15.319  -3.761  1.00 20.00     0.118 C 
ENDROOT
BRANCH   5   7
HETATM    7  C9  UNL     1     -33.709  17.489  -1.537  1.00 20.00     0.031 C 
BRANCH   7   8
HETATM    8  C2  UNL     1     -32.302  17.970  -1.706  1.00 20.00    -0.037 C 
HETATM    9  C1  UNL     1     -31.541  18.417  -0.700  1.00 20.00     0.007 C 
ENDBRANCH   7   8
ENDBRANCH   5   7
BRANCH   6  10
HETATM   10  O10 UNL     1     -37.249  14.641  -3.449  1.00 20.00    -0.396 OA
HETATM   11  H26 UNL     1     -37.200  14.402  -2.511  1.00 20.00     0.210 HD
ENDBRANCH   6  10
TORSDOF 3
ENDMDL
MODEL 8
REMARK VINA RESULT:      -4.3     10.855     11.737
REMARK  3 active torsions:
REMARK  status: ('A' for Active; 'I' for Inactive)
REMARK    1  A    between atoms: C2_2  and  C9_9 
REMARK    2  A    between atoms: C7_7  and  C9_9 
REMARK    3  A    between atoms: C8_8  and  O10_10 
ROOT
HETATM    1  C3  UNL     1     -33.076  15.258  -3.959  1.00 20.00     0.003 C 
HETATM    2  C4  UNL     1     -33.739  16.106  -2.874  1.00 20.00     0.005 C 
HETATM    3  C5  UNL     1     -33.810  13.939  -4.167  1.00 20.00     0.032 C 
HETATM    4  C6  UNL     1     -35.959  15.006  -3.371  1.00 20.00     0.036 C 
HETATM    5  C7  UNL     1     -35.228  16.339  -3.165  1.00 20.00    -0.009 C 
HETATM    6  C8  UNL     1     -35.293  14.162  -4.458  1.00 20.00     0.118 C 
ENDROOT
BRANCH   5   7
HETATM    7  C9  UNL     1     -35.878  17.142  -2.040  1.00 20.00     0.031 C 
BRANCH   7   8
HETATM    8  C2  UNL     1     -35.007  17.169  -0.822  1.00 20.00    -0.037 C 
HETATM    9  C1  UNL     1     -35.476  17.137   0.431  1.00 20.00     0.007 C 
ENDBRANCH   7   8
ENDBRANCH   5   7
BRANCH   6  10
HETATM   10  O10 UNL     1     -35.953  12.905  -4.558  1.00 20.00    -0.396 OA
HETATM   11  H26 UNL     1     -36.025  12.703  -5.503  1.00 20.00     0.210 HD
ENDBRANCH   6  10
TORSDOF 3
ENDMDL
MODEL 9
REMARK VINA RESULT:      -4.3     10.822     11.830
REMARK  3 active torsions:
REMARK  status: ('A' for Active; 'I' for Inactive)
REMARK    1  A    between atoms: C2_2  and  C9_9 
REMARK    2  A    between atoms: C7_7  and  C9_9 
REMARK    3  A    between atoms: C8_8  and  O10_10 
ROOT
HETATM    1  C3  UNL     1     -32.904  17.837  -1.448  1.00 20.00     0.003 C 
HETATM    2  C4  UNL     1     -33.052  17.114  -2.786  1.00 20.00     0.005 C 
HETATM    3  C5  UNL     1     -34.258  18.210  -0.858  1.00 20.00     0.032 C 
HETATM    4  C6  UNL     1     -35.327  16.271  -2.078  1.00 20.00     0.036 C 
HETATM    5  C7  UNL     1     -33.965  15.885  -2.671  1.00 20.00    -0.009 C 
HETATM    6  C8  UNL     1     -35.173  16.992  -0.739  1.00 20.00     0.118 C 
ENDROOT
BRANCH   5   7
HETATM    7  C9  UNL     1     -34.141  15.214  -4.032  1.00 20.00     0.031 C 
BRANCH   7   8
HETATM    8  C2  UNL     1     -34.911  13.936  -3.909  1.00 20.00    -0.037 C 
HETATM    9  C1  UNL     1     -36.064  13.697  -4.545  1.00 20.00     0.007 C 
ENDBRANCH   7   8
ENDBRANCH   5   7
BRANCH   6  10
HETATM   10  O10 UNL     1     -36.453  17.402  -0.268  1.00 20.00    -0.396 OA
HETATM   11  H26 UNL     1     -36.336  18.281   0.123  1.00 20.00     0.210 HD
ENDBRANCH   6  10
TORSDOF 3
ENDMDL
