MODEL 1
REMARK VINA RESULT:      -4.3      0.000      0.000
REMARK  1 active torsions:
REMARK  status: ('A' for Active; 'I' for Inactive)
REMARK    1  A    between atoms: C1_1  and  C4_4 
ROOT
HETATM    1  C2  UNL     1     -35.912  16.030  -5.005  1.00 20.00     0.035 C 
HETATM    2  C3  UNL     1     -34.145  14.827  -4.929  1.00 20.00     0.035 C 
HETATM    3  C4  UNL     1     -35.591  14.574  -5.412  1.00 20.00     0.089 C 
HETATM    4  C5  UNL     1     -34.671  16.011  -4.087  1.00 20.00     0.084 C 
HETATM    5 CL8  UNL     1     -34.937  15.733  -2.326  1.00 20.00    -0.125 Cl
ENDROOT
BRANCH   3   6
HETATM    6  C1  UNL     1     -36.339  13.524  -4.662  1.00 20.00     0.177 C 
HETATM    7  O6  UNL     1     -35.668  12.500  -4.355  1.00 20.00    -0.648 OA
HETATM    8  O7  UNL     1     -37.549  13.799  -4.430  1.00 20.00    -0.648 OA
ENDBRANCH   3   6
TORSDOF 1
ENDMDL
MODEL 2
REMARK VINA RESULT:      -4.3      0.084      1.147
REMARK  1 active torsions:
REMARK  status: ('A' for Active; 'I' for Inactive)
REMARK    1  A    between atoms: C1_1  and  C4_4 
ROOT
HETATM    1  C2  UNL     1     -35.841  16.072  -5.042  1.00 20.00     0.035 C 
HETATM    2  C3  UNL     1     -34.112  14.814  -4.998  1.00 20.00     0.035 C 
HETATM    3  C4  UNL     1     -35.572  14.608  -5.462  1.00 20.00     0.089 C 
HETATM    4  C5  UNL     1     -34.588  16.008  -4.142  1.00 20.00     0.084 C 
HETATM    5 CL8  UNL     1     -34.837  15.728  -2.379  1.00 20.00    -0.125 Cl
ENDROOT
BRANCH   3   6
HETATM    6  C1  UNL     1     -36.341  13.578  -4.706  1.00 20.00     0.177 C 
HETATM    7  O6  UNL     1     -37.546  13.870  -4.471  1.00 20.00    -0.648 OA
HETATM    8  O7  UNL     1     -35.683  12.544  -4.400  1.00 20.00    -0.648 OA
ENDBRANCH   3   6
TORSDOF 1
ENDMDL
MODEL 3
REMARK VINA RESULT:      -4.2      1.824      2.116
REMARK  1 active torsions:
REMARK  status: ('A' for Active; 'I' for Inactive)
REMARK    1  A    between atoms: C1_1  and  C4_4 
ROOT
HETATM    1  C2  UNL     1     -34.119  14.762  -3.994  1.00 20.00     0.035 C 
HETATM    2  C3  UNL     1     -35.664  16.120  -4.580  1.00 20.00     0.035 C 
HETATM    3  C4  UNL     1     -35.645  14.813  -3.755  1.00 20.00     0.089 C 
HETATM    4  C5  UNL     1     -34.310  15.707  -5.200  1.00 20.00     0.084 C 
HETATM    5 CL8  UNL     1     -34.332  14.972  -6.845  1.00 20.00    -0.125 Cl
ENDROOT
BRANCH   3   6
HETATM    6  C1  UNL     1     -36.420  13.680  -4.340  1.00 20.00     0.177 C 
HETATM    7  O6  UNL     1     -35.762  12.621  -4.531  1.00 20.00    -0.648 OA
HETATM    8  O7  UNL     1     -37.636  13.931  -4.567  1.00 20.00    -0.648 OA
ENDBRANCH   3   6
TORSDOF 1
ENDMDL
MODEL 4
REMARK VINA RESULT:      -4.1      1.606      2.096
REMARK  1 active torsions:
REMARK  status: ('A' for Active; 'I' for Inactive)
REMARK    1  A    between atoms: C1_1  and  C4_4 
ROOT
HETATM    1  C2  UNL     1     -33.842  14.590  -4.547  1.00 20.00     0.035 C 
HETATM    2  C3  UNL     1     -35.231  15.290  -3.079  1.00 20.00     0.035 C 
HETATM    3  C4  UNL     1     -35.147  14.016  -3.950  1.00 20.00     0.089 C 
HETATM    4  C5  UNL     1     -34.284  15.992  -4.076  1.00 20.00     0.084 C 
HETATM    5 CL8  UNL     1     -35.022  17.092  -5.299  1.00 20.00    -0.125 Cl
ENDROOT
BRANCH   3   6
HETATM    6  C1  UNL     1     -36.265  13.834  -4.921  1.00 20.00     0.177 C 
HETATM    7  O6  UNL     1     -37.412  13.719  -4.407  1.00 20.00    -0.648 OA
HETATM    8  O7  UNL     1     -35.916  13.819  -6.134  1.00 20.00    -0.648 OA
ENDBRANCH   3   6
TORSDOF 1
ENDMDL
MODEL 5
REMARK VINA RESULT:      -4.0      1.664      1.849
REMARK  1 active torsions:
REMARK  status: ('A' for Active; 'I' for Inactive)
REMARK    1  A    between atoms: C1_1  and  C4_4 
ROOT
HETATM    1  C2  UNL     1     -35.166  15.085  -3.021  1.00 20.00     0.035 C 
HETATM    2  C3  UNL     1     -35.017  16.145  -4.873  1.00 20.00     0.035 C 
HETATM    3  C4  UNL     1     -36.005  15.093  -4.321  1.00 20.00     0.089 C 
HETATM    4  C5  UNL     1     -33.987  15.681  -3.820  1.00 20.00     0.084 C 
HETATM    5 CL8  UNL     1     -32.687  14.554  -4.360  1.00 20.00    -0.125 Cl
ENDROOT
BRANCH   3   6
HETATM    6  C1  UNL     1     -36.040  13.800  -5.064  1.00 20.00     0.177 C 
HETATM    7  O6  UNL     1     -36.107  12.766  -4.343  1.00 20.00    -0.648 OA
HETATM    8  O7  UNL     1     -35.998  13.910  -6.321  1.00 20.00    -0.648 OA
ENDBRANCH   3   6
TORSDOF 1
ENDMDL
MODEL 6
REMARK VINA RESULT:      -3.9     18.561     19.209
REMARK  1 active torsions:
REMARK  status: ('A' for Active; 'I' for Inactive)
REMARK    1  A    between atoms: C1_1  and  C4_4 
ROOT
HETATM    1  C2  UNL     1     -23.651  18.812   9.518  1.00 20.00     0.035 C 
HETATM    2  C3  UNL     1     -22.028  17.969  10.628  1.00 20.00     0.035 C 
HETATM    3  C4  UNL     1     -22.172  18.506   9.186  1.00 20.00     0.089 C 
HETATM    4  C5  UNL     1     -23.563  17.801  10.681  1.00 20.00     0.084 C 
HETATM    5 CL8  UNL     1     -24.235  16.150  10.409  1.00 20.00    -0.125 Cl
ENDROOT
BRANCH   3   6
HETATM    6  C1  UNL     1     -21.957  17.499   8.107  1.00 20.00     0.177 C 
HETATM    7  O6  UNL     1     -22.385  17.831   6.967  1.00 20.00    -0.648 OA
HETATM    8  O7  UNL     1     -21.373  16.442   8.477  1.00 20.00    -0.648 OA
ENDBRANCH   3   6
TORSDOF 1
ENDMDL
MODEL 7
REMARK VINA RESULT:      -3.8     10.541     11.064
REMARK  1 active torsions:
REMARK  status: ('A' for Active; 'I' for Inactive)
REMARK    1  A    between atoms: C1_1  and  C4_4 
ROOT
HETATM    1  C2  UNL     1     -41.168   7.283   0.754  1.00 20.00     0.035 C 
HETATM    2  C3  UNL     1     -41.222   6.327  -1.159  1.00 20.00     0.035 C 
HETATM    3  C4  UNL     1     -41.456   7.778  -0.682  1.00 20.00     0.089 C 
HETATM    4  C5  UNL     1     -41.487   5.847   0.286  1.00 20.00     0.084 C 
HETATM    5 CL8  UNL     1     -43.122   5.187   0.662  1.00 20.00    -0.125 Cl
ENDROOT
BRANCH   3   6
HETATM    6  C1  UNL     1     -42.831   8.310  -0.909  1.00 20.00     0.177 C 
HETATM    7  O6  UNL     1     -43.229   9.153  -0.059  1.00 20.00    -0.648 OA
HETATM    8  O7  UNL     1     -43.417   7.845  -1.926  1.00 20.00    -0.648 OA
ENDBRANCH   3   6
TORSDOF 1
ENDMDL
MODEL 8
REMARK VINA RESULT:      -3.7     12.077     12.926
REMARK  1 active torsions:
REMARK  status: ('A' for Active; 'I' for Inactive)
REMARK    1  A    between atoms: C1_1  and  C4_4 
ROOT
HETATM    1  C2  UNL     1     -34.149   4.289   5.204  1.00 20.00     0.035 C 
HETATM    2  C3  UNL     1     -35.552   5.677   4.378  1.00 20.00     0.035 C 
HETATM    3  C4  UNL     1     -34.533   4.693   3.761  1.00 20.00     0.089 C 
HETATM    4  C5  UNL     1     -34.755   5.620   5.700  1.00 20.00     0.084 C 
HETATM    5 CL8  UNL     1     -33.620   6.976   6.052  1.00 20.00    -0.125 Cl
ENDROOT
BRANCH   3   6
HETATM    6  C1  UNL     1     -33.441   5.323   2.964  1.00 20.00     0.177 C 
HETATM    7  O6  UNL     1     -33.358   6.578   3.062  1.00 20.00    -0.648 OA
HETATM    8  O7  UNL     1     -32.740   4.514   2.295  1.00 20.00    -0.648 OA
ENDBRANCH   3   6
TORSDOF 1
ENDMDL
MODEL 9
REMARK VINA RESULT:      -3.6     10.767     11.516
REMARK  1 active torsions:
REMARK  status: ('A' for Active; 'I' for Inactive)
REMARK    1  A    between atoms: C1_1  and  C4_4 
ROOT
HETATM    1  C2  UNL     1     -41.155   6.525  -1.111  1.00 20.00     0.035 C 
HETATM    2  C3  UNL     1     -41.468   7.762   0.606  1.00 20.00     0.035 C 
HETATM    3  C4  UNL     1     -41.443   6.233   0.380  1.00 20.00     0.089 C 
HETATM    4  C5  UNL     1     -41.722   7.947  -0.907  1.00 20.00     0.084 C 
HETATM    5 CL8  UNL     1     -43.416   8.257  -1.440  1.00 20.00    -0.125 Cl
ENDROOT
BRANCH   3   6
HETATM    6  C1  UNL     1     -42.728   5.528   0.654  1.00 20.00     0.177 C 
HETATM    7  O6  UNL     1     -43.233   5.750   1.789  1.00 20.00    -0.648 OA
HETATM    8  O7  UNL     1     -43.143   4.799  -0.289  1.00 20.00    -0.648 OA
ENDBRANCH   3   6
TORSDOF 1
ENDMDL
