MODEL 1
REMARK VINA RESULT:      -4.3      0.000      0.000
REMARK  5 active torsions:
REMARK  status: ('A' for Active; 'I' for Inactive)
REMARK    1  A    between atoms: C5_5  and  C6_6 
REMARK    2  A    between atoms: C5_5  and  C7_7 
REMARK    3  A    between atoms: C6_6  and  C8_8 
REMARK    4  A    between atoms: C7_7  and  C9_9 
REMARK    5  A    between atoms: C8_8  and  O10_10 
ROOT
HETATM    1  C5  UNL     1     -34.065  14.610  -3.802  1.00 20.00     0.003 C 
ENDROOT
BRANCH   1   2
HETATM    2  C6  UNL     1     -34.864  14.722  -5.108  1.00 20.00     0.031 C 
BRANCH   2   3
HETATM    3  C8  UNL     1     -36.151  13.891  -5.070  1.00 20.00     0.114 C 
HETATM    4  C1  UNL     1     -37.235  14.576  -4.249  1.00 20.00     0.039 C 
BRANCH   3   5
HETATM    5  O10 UNL     1     -35.890  12.609  -4.503  1.00 20.00    -0.396 OA
HETATM    6  H30 UNL     1     -36.665  12.060  -4.695  1.00 20.00     0.210 HD
ENDBRANCH   3   5
ENDBRANCH   2   3
ENDBRANCH   1   2
BRANCH   1   7
HETATM    7  C7  UNL     1     -33.267  15.893  -3.535  1.00 20.00     0.008 C 
BRANCH   7   8
HETATM    8  C9  UNL     1     -33.965  16.948  -2.637  1.00 20.00    -0.051 C 
HETATM    9  C2  UNL     1     -35.010  16.294  -1.717  1.00 20.00     0.014 C 
HETATM   10  C3  UNL     1     -32.889  17.615  -1.756  1.00 20.00     0.014 C 
HETATM   11  C4  UNL     1     -34.646  18.037  -3.482  1.00 20.00     0.014 C 
ENDBRANCH   7   8
ENDBRANCH   1   7
TORSDOF 5
ENDMDL
MODEL 2
REMARK VINA RESULT:      -4.3      0.026      1.367
REMARK  5 active torsions:
REMARK  status: ('A' for Active; 'I' for Inactive)
REMARK    1  A    between atoms: C5_5  and  C6_6 
REMARK    2  A    between atoms: C5_5  and  C7_7 
REMARK    3  A    between atoms: C6_6  and  C8_8 
REMARK    4  A    between atoms: C7_7  and  C9_9 
REMARK    5  A    between atoms: C8_8  and  O10_10 
ROOT
HETATM    1  C5  UNL     1     -34.069  14.621  -3.796  1.00 20.00     0.003 C 
ENDROOT
BRANCH   1   2
HETATM    2  C6  UNL     1     -34.857  14.716  -5.110  1.00 20.00     0.031 C 
BRANCH   2   3
HETATM    3  C8  UNL     1     -36.147  13.889  -5.070  1.00 20.00     0.114 C 
HETATM    4  C1  UNL     1     -37.227  14.579  -4.248  1.00 20.00     0.039 C 
BRANCH   3   5
HETATM    5  O10 UNL     1     -35.890  12.607  -4.502  1.00 20.00    -0.396 OA
HETATM    6  H30 UNL     1     -36.349  11.961  -5.060  1.00 20.00     0.210 HD
ENDBRANCH   3   5
ENDBRANCH   2   3
ENDBRANCH   1   2
BRANCH   1   7
HETATM    7  C7  UNL     1     -33.266  15.903  -3.544  1.00 20.00     0.008 C 
BRANCH   7   8
HETATM    8  C9  UNL     1     -33.932  16.944  -2.606  1.00 20.00    -0.051 C 
HETATM    9  C2  UNL     1     -32.891  17.636  -1.712  1.00 20.00     0.014 C 
HETATM   10  C3  UNL     1     -34.610  18.016  -3.484  1.00 20.00     0.014 C 
HETATM   11  C4  UNL     1     -35.006  16.290  -1.721  1.00 20.00     0.014 C 
ENDBRANCH   7   8
ENDBRANCH   1   7
TORSDOF 5
ENDMDL
MODEL 3
REMARK VINA RESULT:      -4.2      1.025      1.746
REMARK  5 active torsions:
REMARK  status: ('A' for Active; 'I' for Inactive)
REMARK    1  A    between atoms: C5_5  and  C6_6 
REMARK    2  A    between atoms: C5_5  and  C7_7 
REMARK    3  A    between atoms: C6_6  and  C8_8 
REMARK    4  A    between atoms: C7_7  and  C9_9 
REMARK    5  A    between atoms: C8_8  and  O10_10 
ROOT
HETATM    1  C5  UNL     1     -33.794  14.764  -3.984  1.00 20.00     0.003 C 
ENDROOT
BRANCH   1   2
HETATM    2  C6  UNL     1     -34.209  14.928  -5.452  1.00 20.00     0.031 C 
BRANCH   2   3
HETATM    3  C8  UNL     1     -35.691  14.603  -5.672  1.00 20.00     0.114 C 
HETATM    4  C1  UNL     1     -36.245  13.738  -4.548  1.00 20.00     0.039 C 
BRANCH   3   5
HETATM    5  O10 UNL     1     -35.862  13.913  -6.908  1.00 20.00    -0.396 OA
HETATM    6  H30 UNL     1     -35.977  14.593  -7.589  1.00 20.00     0.210 HD
ENDBRANCH   3   5
ENDBRANCH   2   3
ENDBRANCH   1   2
BRANCH   1   7
HETATM    7  C7  UNL     1     -33.092  16.027  -3.467  1.00 20.00     0.008 C 
BRANCH   7   8
HETATM    8  C9  UNL     1     -33.962  16.976  -2.601  1.00 20.00    -0.051 C 
HETATM    9  C2  UNL     1     -34.663  18.036  -3.468  1.00 20.00     0.014 C 
HETATM   10  C3  UNL     1     -35.043  16.129  -1.899  1.00 20.00     0.014 C 
HETATM   11  C4  UNL     1     -33.119  17.679  -1.525  1.00 20.00     0.014 C 
ENDBRANCH   7   8
ENDBRANCH   1   7
TORSDOF 5
ENDMDL
MODEL 4
REMARK VINA RESULT:      -4.1      1.730      2.478
REMARK  5 active torsions:
REMARK  status: ('A' for Active; 'I' for Inactive)
REMARK    1  A    between atoms: C5_5  and  C6_6 
REMARK    2  A    between atoms: C5_5  and  C7_7 
REMARK    3  A    between atoms: C6_6  and  C8_8 
REMARK    4  A    between atoms: C7_7  and  C9_9 
REMARK    5  A    between atoms: C8_8  and  O10_10 
ROOT
HETATM    1  C5  UNL     1     -33.346  15.821  -3.429  1.00 20.00     0.003 C 
ENDROOT
BRANCH   1   2
HETATM    2  C6  UNL     1     -33.546  14.629  -4.374  1.00 20.00     0.031 C 
BRANCH   2   3
HETATM    3  C8  UNL     1     -34.051  15.065  -5.754  1.00 20.00     0.114 C 
HETATM    4  C1  UNL     1     -35.480  14.598  -5.999  1.00 20.00     0.039 C 
BRANCH   3   5
HETATM    5  O10 UNL     1     -33.214  14.527  -6.775  1.00 20.00    -0.396 OA
HETATM    6  H30 UNL     1     -32.304  14.764  -6.538  1.00 20.00     0.210 HD
ENDBRANCH   3   5
ENDBRANCH   2   3
ENDBRANCH   1   2
BRANCH   1   7
HETATM    7  C7  UNL     1     -34.489  15.911  -2.410  1.00 20.00     0.008 C 
BRANCH   7   8
HETATM    8  C9  UNL     1     -34.578  17.238  -1.610  1.00 20.00    -0.051 C 
HETATM    9  C2  UNL     1     -33.180  17.795  -1.296  1.00 20.00     0.014 C 
HETATM   10  C3  UNL     1     -35.331  18.269  -2.476  1.00 20.00     0.014 C 
HETATM   11  C4  UNL     1     -35.355  17.046  -0.297  1.00 20.00     0.014 C 
ENDBRANCH   7   8
ENDBRANCH   1   7
TORSDOF 5
ENDMDL
MODEL 5
REMARK VINA RESULT:      -4.0     10.612     11.619
REMARK  5 active torsions:
REMARK  status: ('A' for Active; 'I' for Inactive)
REMARK    1  A    between atoms: C5_5  and  C6_6 
REMARK    2  A    between atoms: C5_5  and  C7_7 
REMARK    3  A    between atoms: C6_6  and  C8_8 
REMARK    4  A    between atoms: C7_7  and  C9_9 
REMARK    5  A    between atoms: C8_8  and  O10_10 
ROOT
HETATM    1  C5  UNL     1     -32.944   6.361   2.543  1.00 20.00     0.003 C 
ENDROOT
BRANCH   1   2
HETATM    2  C6  UNL     1     -32.252   7.624   2.013  1.00 20.00     0.031 C 
BRANCH   2   3
HETATM    3  C8  UNL     1     -33.164   8.435   1.085  1.00 20.00     0.114 C 
HETATM    4  C1  UNL     1     -32.991   8.022  -0.370  1.00 20.00     0.039 C 
BRANCH   3   5
HETATM    5  O10 UNL     1     -32.871   9.826   1.204  1.00 20.00    -0.396 OA
HETATM    6  H30 UNL     1     -33.087  10.226   0.348  1.00 20.00     0.210 HD
ENDBRANCH   3   5
ENDBRANCH   2   3
ENDBRANCH   1   2
BRANCH   1   7
HETATM    7  C7  UNL     1     -33.600   6.626   3.905  1.00 20.00     0.008 C 
BRANCH   7   8
HETATM    8  C9  UNL     1     -34.520   5.498   4.442  1.00 20.00    -0.051 C 
HETATM    9  C2  UNL     1     -34.583   5.514   5.978  1.00 20.00     0.014 C 
HETATM   10  C3  UNL     1     -35.942   5.737   3.893  1.00 20.00     0.014 C 
HETATM   11  C4  UNL     1     -34.042   4.116   3.969  1.00 20.00     0.014 C 
ENDBRANCH   7   8
ENDBRANCH   1   7
TORSDOF 5
ENDMDL
MODEL 6
REMARK VINA RESULT:      -4.0     10.603     11.602
REMARK  5 active torsions:
REMARK  status: ('A' for Active; 'I' for Inactive)
REMARK    1  A    between atoms: C5_5  and  C6_6 
REMARK    2  A    between atoms: C5_5  and  C7_7 
REMARK    3  A    between atoms: C6_6  and  C8_8 
REMARK    4  A    between atoms: C7_7  and  C9_9 
REMARK    5  A    between atoms: C8_8  and  O10_10 
ROOT
HETATM    1  C5  UNL     1     -32.963   6.340   2.516  1.00 20.00     0.003 C 
ENDROOT
BRANCH   1   2
HETATM    2  C6  UNL     1     -32.252   7.588   1.975  1.00 20.00     0.031 C 
BRANCH   2   3
HETATM    3  C8  UNL     1     -33.172   8.436   1.089  1.00 20.00     0.114 C 
HETATM    4  C1  UNL     1     -33.072   8.025  -0.374  1.00 20.00     0.039 C 
BRANCH   3   5
HETATM    5  O10 UNL     1     -32.825   9.814   1.201  1.00 20.00    -0.396 OA
HETATM    6  H30 UNL     1     -31.949   9.845   1.615  1.00 20.00     0.210 HD
ENDBRANCH   3   5
ENDBRANCH   2   3
ENDBRANCH   1   2
BRANCH   1   7
HETATM    7  C7  UNL     1     -33.578   6.613   3.895  1.00 20.00     0.008 C 
BRANCH   7   8
HETATM    8  C9  UNL     1     -34.549   5.526   4.429  1.00 20.00    -0.051 C 
HETATM    9  C2  UNL     1     -35.971   5.734   3.884  1.00 20.00     0.014 C 
HETATM   10  C3  UNL     1     -34.039   4.152   3.951  1.00 20.00     0.014 C 
HETATM   11  C4  UNL     1     -34.590   5.523   5.966  1.00 20.00     0.014 C 
ENDBRANCH   7   8
ENDBRANCH   1   7
TORSDOF 5
ENDMDL
MODEL 7
REMARK VINA RESULT:      -3.9     17.024     18.131
REMARK  5 active torsions:
REMARK  status: ('A' for Active; 'I' for Inactive)
REMARK    1  A    between atoms: C5_5  and  C6_6 
REMARK    2  A    between atoms: C5_5  and  C7_7 
REMARK    3  A    between atoms: C6_6  and  C8_8 
REMARK    4  A    between atoms: C7_7  and  C9_9 
REMARK    5  A    between atoms: C8_8  and  O10_10 
ROOT
HETATM    1  C5  UNL     1     -24.016  18.009   8.964  1.00 20.00     0.003 C 
ENDROOT
BRANCH   1   2
HETATM    2  C6  UNL     1     -22.595  18.578   8.856  1.00 20.00     0.031 C 
BRANCH   2   3
HETATM    3  C8  UNL     1     -21.551  17.482   8.614  1.00 20.00     0.114 C 
HETATM    4  C1  UNL     1     -21.295  17.273   7.128  1.00 20.00     0.039 C 
BRANCH   3   5
HETATM    5  O10 UNL     1     -21.994  16.250   9.179  1.00 20.00    -0.396 OA
HETATM    6  H30 UNL     1     -22.941  16.182   8.982  1.00 20.00     0.210 HD
ENDBRANCH   3   5
ENDBRANCH   2   3
ENDBRANCH   1   2
BRANCH   1   7
HETATM    7  C7  UNL     1     -24.746  18.582  10.185  1.00 20.00     0.008 C 
BRANCH   7   8
HETATM    8  C9  UNL     1     -24.665  17.733  11.481  1.00 20.00    -0.051 C 
HETATM    9  C2  UNL     1     -23.417  18.091  12.305  1.00 20.00     0.014 C 
HETATM   10  C3  UNL     1     -25.915  18.036  12.332  1.00 20.00     0.014 C 
HETATM   11  C4  UNL     1     -24.647  16.229  11.161  1.00 20.00     0.014 C 
ENDBRANCH   7   8
ENDBRANCH   1   7
TORSDOF 5
ENDMDL
MODEL 8
REMARK VINA RESULT:      -3.9      1.801      2.592
REMARK  5 active torsions:
REMARK  status: ('A' for Active; 'I' for Inactive)
REMARK    1  A    between atoms: C5_5  and  C6_6 
REMARK    2  A    between atoms: C5_5  and  C7_7 
REMARK    3  A    between atoms: C6_6  and  C8_8 
REMARK    4  A    between atoms: C7_7  and  C9_9 
REMARK    5  A    between atoms: C8_8  and  O10_10 
ROOT
HETATM    1  C5  UNL     1     -34.808  14.314  -4.177  1.00 20.00     0.003 C 
ENDROOT
BRANCH   1   2
HETATM    2  C6  UNL     1     -35.309  14.662  -5.586  1.00 20.00     0.031 C 
BRANCH   2   3
HETATM    3  C8  UNL     1     -34.210  15.293  -6.448  1.00 20.00     0.114 C 
HETATM    4  C1  UNL     1     -34.607  15.332  -7.918  1.00 20.00     0.039 C 
BRANCH   3   5
HETATM    5  O10 UNL     1     -33.000  14.551  -6.321  1.00 20.00    -0.396 OA
HETATM    6  H30 UNL     1     -32.461  15.015  -5.661  1.00 20.00     0.210 HD
ENDBRANCH   3   5
ENDBRANCH   2   3
ENDBRANCH   1   2
BRANCH   1   7
HETATM    7  C7  UNL     1     -35.465  15.215  -3.123  1.00 20.00     0.008 C 
BRANCH   7   8
HETATM    8  C9  UNL     1     -34.688  16.508  -2.761  1.00 20.00    -0.051 C 
HETATM    9  C2  UNL     1     -35.194  17.710  -3.575  1.00 20.00     0.014 C 
HETATM   10  C3  UNL     1     -34.917  16.801  -1.264  1.00 20.00     0.014 C 
HETATM   11  C4  UNL     1     -33.178  16.335  -2.997  1.00 20.00     0.014 C 
ENDBRANCH   7   8
ENDBRANCH   1   7
TORSDOF 5
ENDMDL
MODEL 9
REMARK VINA RESULT:      -3.8     14.616     16.931
REMARK  5 active torsions:
REMARK  status: ('A' for Active; 'I' for Inactive)
REMARK    1  A    between atoms: C5_5  and  C6_6 
REMARK    2  A    between atoms: C5_5  and  C7_7 
REMARK    3  A    between atoms: C6_6  and  C8_8 
REMARK    4  A    between atoms: C7_7  and  C9_9 
REMARK    5  A    between atoms: C8_8  and  O10_10 
ROOT
HETATM    1  C5  UNL     1     -24.430  17.954   8.747  1.00 20.00     0.003 C 
ENDROOT
BRANCH   1   2
HETATM    2  C6  UNL     1     -25.406  19.010   8.212  1.00 20.00     0.031 C 
BRANCH   2   3
HETATM    3  C8  UNL     1     -25.216  19.263   6.712  1.00 20.00     0.114 C 
HETATM    4  C1  UNL     1     -26.251  18.514   5.884  1.00 20.00     0.039 C 
BRANCH   3   5
HETATM    5  O10 UNL     1     -23.915  18.844   6.305  1.00 20.00    -0.396 OA
HETATM    6  H30 UNL     1     -24.043  18.203   5.589  1.00 20.00     0.210 HD
ENDBRANCH   3   5
ENDBRANCH   2   3
ENDBRANCH   1   2
BRANCH   1   7
HETATM    7  C7  UNL     1     -23.663  18.482   9.966  1.00 20.00     0.008 C 
BRANCH   7   8
HETATM    8  C9  UNL     1     -23.977  17.785  11.316  1.00 20.00    -0.051 C 
HETATM    9  C2  UNL     1     -22.795  17.904  12.293  1.00 20.00     0.014 C 
HETATM   10  C3  UNL     1     -25.200  18.484  11.944  1.00 20.00     0.014 C 
HETATM   11  C4  UNL     1     -24.318  16.300  11.111  1.00 20.00     0.014 C 
ENDBRANCH   7   8
ENDBRANCH   1   7
TORSDOF 5
ENDMDL
