MODEL 1
REMARK VINA RESULT:      -4.2      0.000      0.000
REMARK  0 active torsions:
REMARK  status: ('A' for Active; 'I' for Inactive)
ROOT
HETATM    1  C1  UNL     1     -36.465  14.625  -3.987  1.00 20.00     0.005 C 
HETATM    2  C2  UNL     1     -35.068  14.011  -4.050  1.00 20.00     0.033 C 
HETATM    3  C3  UNL     1     -36.457  16.144  -3.848  1.00 20.00     0.033 C 
HETATM    4  C4  UNL     1     -33.986  14.956  -4.607  1.00 20.00     0.052 C 
HETATM    5  C5  UNL     1     -35.169  16.708  -3.218  1.00 20.00     0.052 C 
HETATM    6  C6  UNL     1     -34.193  15.183  -6.117  1.00 20.00     0.040 C 
HETATM    7  C7  UNL     1     -32.614  14.267  -4.431  1.00 20.00     0.040 C 
HETATM    8  C8  UNL     1     -35.074  16.331  -1.726  1.00 20.00     0.040 C 
HETATM    9  C9  UNL     1     -35.217  18.246  -3.314  1.00 20.00     0.040 C 
HETATM   10  N10 UNL     1     -33.975  16.278  -3.959  1.00 20.00    -0.234 N 
HETATM   11  F11 UNL     1     -32.808  16.570  -3.294  1.00 20.00    -0.103 F 
ENDROOT
TORSDOF 0
ENDMDL
MODEL 2
REMARK VINA RESULT:      -4.1      1.663      2.603
REMARK  0 active torsions:
REMARK  status: ('A' for Active; 'I' for Inactive)
ROOT
HETATM    1  C1  UNL     1     -35.957  13.929  -4.395  1.00 20.00     0.005 C 
HETATM    2  C2  UNL     1     -35.147  14.745  -3.391  1.00 20.00     0.033 C 
HETATM    3  C3  UNL     1     -35.866  14.458  -5.823  1.00 20.00     0.033 C 
HETATM    4  C4  UNL     1     -33.934  15.474  -3.999  1.00 20.00     0.052 C 
HETATM    5  C5  UNL     1     -35.513  15.954  -5.916  1.00 20.00     0.052 C 
HETATM    6  C6  UNL     1     -32.839  14.464  -4.396  1.00 20.00     0.040 C 
HETATM    7  C7  UNL     1     -33.336  16.395  -2.913  1.00 20.00     0.040 C 
HETATM    8  C8  UNL     1     -36.680  16.827  -5.413  1.00 20.00     0.040 C 
HETATM    9  C9  UNL     1     -35.267  16.303  -7.397  1.00 20.00     0.040 C 
HETATM   10  N10 UNL     1     -34.266  16.258  -5.200  1.00 20.00    -0.234 N 
HETATM   11  F11 UNL     1     -34.049  17.609  -5.069  1.00 20.00    -0.103 F 
ENDROOT
TORSDOF 0
ENDMDL
MODEL 3
REMARK VINA RESULT:      -4.1      1.490      3.240
REMARK  0 active torsions:
REMARK  status: ('A' for Active; 'I' for Inactive)
ROOT
HETATM    1  C1  UNL     1     -36.471  17.387  -4.316  1.00 20.00     0.005 C 
HETATM    2  C2  UNL     1     -35.034  17.605  -3.849  1.00 20.00     0.033 C 
HETATM    3  C3  UNL     1     -36.859  15.916  -4.428  1.00 20.00     0.033 C 
HETATM    4  C4  UNL     1     -34.469  16.463  -2.984  1.00 20.00     0.052 C 
HETATM    5  C5  UNL     1     -35.663  14.968  -4.639  1.00 20.00     0.052 C 
HETATM    6  C6  UNL     1     -35.149  16.446  -1.600  1.00 20.00     0.040 C 
HETATM    7  C7  UNL     1     -32.966  16.736  -2.753  1.00 20.00     0.040 C 
HETATM    8  C8  UNL     1     -35.048  15.159  -6.039  1.00 20.00     0.040 C 
HETATM    9  C9  UNL     1     -36.173  13.516  -4.541  1.00 20.00     0.040 C 
HETATM   10  N10 UNL     1     -34.655  15.130  -3.581  1.00 20.00    -0.234 N 
HETATM   11  F11 UNL     1     -33.482  14.471  -3.866  1.00 20.00    -0.103 F 
ENDROOT
TORSDOF 0
ENDMDL
MODEL 4
REMARK VINA RESULT:      -4.0     11.311     12.511
REMARK  0 active torsions:
REMARK  status: ('A' for Active; 'I' for Inactive)
ROOT
HETATM    1  C1  UNL     1     -43.097   5.781   1.567  1.00 20.00     0.005 C 
HETATM    2  C2  UNL     1     -42.094   5.028   0.697  1.00 20.00     0.033 C 
HETATM    3  C3  UNL     1     -43.417   7.182   1.055  1.00 20.00     0.033 C 
HETATM    4  C4  UNL     1     -42.084   5.465  -0.781  1.00 20.00     0.052 C 
HETATM    5  C5  UNL     1     -42.310   7.795   0.177  1.00 20.00     0.052 C 
HETATM    6  C6  UNL     1     -43.375   5.007  -1.488  1.00 20.00     0.040 C 
HETATM    7  C7  UNL     1     -40.902   4.759  -1.481  1.00 20.00     0.040 C 
HETATM    8  C8  UNL     1     -41.061   8.128   1.017  1.00 20.00     0.040 C 
HETATM    9  C9  UNL     1     -42.842   9.113  -0.421  1.00 20.00     0.040 C 
HETATM   10  N10 UNL     1     -41.979   6.923  -0.958  1.00 20.00    -0.234 N 
HETATM   11  F11 UNL     1     -40.846   7.329  -1.622  1.00 20.00    -0.103 F 
ENDROOT
TORSDOF 0
ENDMDL
MODEL 5
REMARK VINA RESULT:      -3.9      1.578      2.653
REMARK  0 active torsions:
REMARK  status: ('A' for Active; 'I' for Inactive)
ROOT
HETATM    1  C1  UNL     1     -35.992  13.699  -4.549  1.00 20.00     0.005 C 
HETATM    2  C2  UNL     1     -35.908  14.466  -5.867  1.00 20.00     0.033 C 
HETATM    3  C3  UNL     1     -35.397  14.455  -3.365  1.00 20.00     0.033 C 
HETATM    4  C4  UNL     1     -35.877  15.998  -5.707  1.00 20.00     0.052 C 
HETATM    5  C5  UNL     1     -34.340  15.504  -3.760  1.00 20.00     0.052 C 
HETATM    6  C6  UNL     1     -37.250  16.520  -5.237  1.00 20.00     0.040 C 
HETATM    7  C7  UNL     1     -35.602  16.619  -7.094  1.00 20.00     0.040 C 
HETATM    8  C8  UNL     1     -33.057  14.825  -4.278  1.00 20.00     0.040 C 
HETATM    9  C9  UNL     1     -33.970  16.315  -2.501  1.00 20.00     0.040 C 
HETATM   10  N10 UNL     1     -34.874  16.465  -4.736  1.00 20.00    -0.234 N 
HETATM   11  F11 UNL     1     -33.895  17.265  -5.277  1.00 20.00    -0.103 F 
ENDROOT
TORSDOF 0
ENDMDL
MODEL 6
REMARK VINA RESULT:      -3.9      1.781      3.692
REMARK  0 active torsions:
REMARK  status: ('A' for Active; 'I' for Inactive)
ROOT
HETATM    1  C1  UNL     1     -33.991  16.233  -2.313  1.00 20.00     0.005 C 
HETATM    2  C2  UNL     1     -35.490  16.520  -2.304  1.00 20.00     0.033 C 
HETATM    3  C3  UNL     1     -33.463  15.792  -3.675  1.00 20.00     0.033 C 
HETATM    4  C4  UNL     1     -36.060  16.954  -3.668  1.00 20.00     0.052 C 
HETATM    5  C5  UNL     1     -34.532  15.159  -4.585  1.00 20.00     0.052 C 
HETATM    6  C6  UNL     1     -35.568  18.369  -4.034  1.00 20.00     0.040 C 
HETATM    7  C7  UNL     1     -37.598  17.021  -3.544  1.00 20.00     0.040 C 
HETATM    8  C8  UNL     1     -34.973  13.784  -4.044  1.00 20.00     0.040 C 
HETATM    9  C9  UNL     1     -33.913  14.940  -5.980  1.00 20.00     0.040 C 
HETATM   10  N10 UNL     1     -35.681  16.057  -4.772  1.00 20.00    -0.234 N 
HETATM   11  F11 UNL     1     -36.743  15.434  -5.383  1.00 20.00    -0.103 F 
ENDROOT
TORSDOF 0
ENDMDL
MODEL 7
REMARK VINA RESULT:      -3.9      1.703      2.585
REMARK  0 active torsions:
REMARK  status: ('A' for Active; 'I' for Inactive)
ROOT
HETATM    1  C1  UNL     1     -33.885  16.276  -2.331  1.00 20.00     0.005 C 
HETATM    2  C2  UNL     1     -33.452  15.842  -3.730  1.00 20.00     0.033 C 
HETATM    3  C3  UNL     1     -35.370  16.609  -2.229  1.00 20.00     0.033 C 
HETATM    4  C4  UNL     1     -34.574  15.200  -4.569  1.00 20.00     0.052 C 
HETATM    5  C5  UNL     1     -36.012  17.023  -3.566  1.00 20.00     0.052 C 
HETATM    6  C6  UNL     1     -34.937  13.809  -4.011  1.00 20.00     0.040 C 
HETATM    7  C7  UNL     1     -34.039  14.993  -6.003  1.00 20.00     0.040 C 
HETATM    8  C8  UNL     1     -35.490  18.400  -4.025  1.00 20.00     0.040 C 
HETATM    9  C9  UNL     1     -37.535  17.142  -3.356  1.00 20.00     0.040 C 
HETATM   10  N10 UNL     1     -35.810  15.998  -4.601  1.00 20.00    -0.234 N 
HETATM   11  F11 UNL     1     -36.166  16.437  -5.854  1.00 20.00    -0.103 F 
ENDROOT
TORSDOF 0
ENDMDL
MODEL 8
REMARK VINA RESULT:      -3.9      1.607      2.288
REMARK  0 active torsions:
REMARK  status: ('A' for Active; 'I' for Inactive)
ROOT
HETATM    1  C1  UNL     1     -36.508  17.491  -4.401  1.00 20.00     0.005 C 
HETATM    2  C2  UNL     1     -36.920  16.031  -4.573  1.00 20.00     0.033 C 
HETATM    3  C3  UNL     1     -35.044  17.669  -4.010  1.00 20.00     0.033 C 
HETATM    4  C4  UNL     1     -35.766  15.091  -4.971  1.00 20.00     0.052 C 
HETATM    5  C5  UNL     1     -34.432  16.445  -3.303  1.00 20.00     0.052 C 
HETATM    6  C6  UNL     1     -35.321  15.365  -6.422  1.00 20.00     0.040 C 
HETATM    7  C7  UNL     1     -36.293  13.639  -4.921  1.00 20.00     0.040 C 
HETATM    8  C8  UNL     1     -35.034  16.263  -1.895  1.00 20.00     0.040 C 
HETATM    9  C9  UNL     1     -32.918  16.686  -3.140  1.00 20.00     0.040 C 
HETATM   10  N10 UNL     1     -34.578  15.227  -4.113  1.00 20.00    -0.234 N 
HETATM   11  F11 UNL     1     -34.253  14.088  -3.415  1.00 20.00    -0.103 F 
ENDROOT
TORSDOF 0
ENDMDL
MODEL 9
REMARK VINA RESULT:      -3.9      1.885      3.594
REMARK  0 active torsions:
REMARK  status: ('A' for Active; 'I' for Inactive)
ROOT
HETATM    1  C1  UNL     1     -33.235  15.118  -3.806  1.00 20.00     0.005 C 
HETATM    2  C2  UNL     1     -34.161  15.916  -2.891  1.00 20.00     0.033 C 
HETATM    3  C3  UNL     1     -33.822  14.858  -5.190  1.00 20.00     0.033 C 
HETATM    4  C4  UNL     1     -35.143  16.840  -3.635  1.00 20.00     0.052 C 
HETATM    5  C5  UNL     1     -35.361  14.891  -5.233  1.00 20.00     0.052 C 
HETATM    6  C6  UNL     1     -34.392  18.026  -4.273  1.00 20.00     0.040 C 
HETATM    7  C7  UNL     1     -36.127  17.426  -2.598  1.00 20.00     0.040 C 
HETATM    8  C8  UNL     1     -35.960  13.682  -4.488  1.00 20.00     0.040 C 
HETATM    9  C9  UNL     1     -35.806  14.806  -6.707  1.00 20.00     0.040 C 
HETATM   10  N10 UNL     1     -35.887  16.160  -4.709  1.00 20.00    -0.234 N 
HETATM   11  F11 UNL     1     -37.248  16.129  -4.520  1.00 20.00    -0.103 F 
ENDROOT
TORSDOF 0
ENDMDL
