MODEL 1
REMARK VINA RESULT:      -4.5      0.000      0.000
REMARK  0 active torsions:
REMARK  status: ('A' for Active; 'I' for Inactive)
ROOT
HETATM    1  C1  UNL     1     -32.940   6.926   2.842  1.00 20.00     0.124 C 
HETATM    2  C2  UNL     1     -34.440   5.401   3.990  1.00 20.00     0.024 C 
HETATM    3  C3  UNL     1     -33.600   6.432   3.989  1.00 20.00     0.145 C 
HETATM    4  C4  UNL     1     -34.885   5.156   5.379  1.00 20.00     0.057 C 
HETATM    5  C5  UNL     1     -34.336   6.391   6.087  1.00 20.00     0.180 C 
HETATM    6  N6  UNL     1     -32.397   7.332   1.900  1.00 20.00    -0.189 NA
HETATM    7  O7  UNL     1     -33.359   7.011   5.228  1.00 20.00    -0.341 OA
ENDROOT
TORSDOF 0
ENDMDL
MODEL 2
REMARK VINA RESULT:      -4.5      1.115      1.499
REMARK  0 active torsions:
REMARK  status: ('A' for Active; 'I' for Inactive)
ROOT
HETATM    1  C1  UNL     1     -32.939   6.921   2.891  1.00 20.00     0.124 C 
HETATM    2  C2  UNL     1     -33.672   6.795   5.202  1.00 20.00     0.024 C 
HETATM    3  C3  UNL     1     -33.663   6.336   3.954  1.00 20.00     0.145 C 
HETATM    4  C4  UNL     1     -34.580   5.951   6.009  1.00 20.00     0.057 C 
HETATM    5  C5  UNL     1     -34.860   4.808   5.039  1.00 20.00     0.180 C 
HETATM    6  N6  UNL     1     -32.345   7.400   2.017  1.00 20.00    -0.189 NA
HETATM    7  O7  UNL     1     -34.460   5.224   3.718  1.00 20.00    -0.341 OA
ENDROOT
TORSDOF 0
ENDMDL
MODEL 3
REMARK VINA RESULT:      -4.1     11.937     12.138
REMARK  0 active torsions:
REMARK  status: ('A' for Active; 'I' for Inactive)
ROOT
HETATM    1  C1  UNL     1     -36.593  14.174  -4.259  1.00 20.00     0.124 C 
HETATM    2  C2  UNL     1     -34.899  15.642  -3.327  1.00 20.00     0.024 C 
HETATM    3  C3  UNL     1     -35.257  14.586  -4.051  1.00 20.00     0.145 C 
HETATM    4  C4  UNL     1     -33.422  15.718  -3.302  1.00 20.00     0.057 C 
HETATM    5  C5  UNL     1     -33.055  14.669  -4.347  1.00 20.00     0.180 C 
HETATM    6  N6  UNL     1     -37.689  13.835  -4.431  1.00 20.00    -0.189 NA
HETATM    7  O7  UNL     1     -34.214  13.848  -4.594  1.00 20.00    -0.341 OA
ENDROOT
TORSDOF 0
ENDMDL
MODEL 4
REMARK VINA RESULT:      -4.1     11.442     11.877
REMARK  0 active torsions:
REMARK  status: ('A' for Active; 'I' for Inactive)
ROOT
HETATM    1  C1  UNL     1     -35.323  13.767  -4.101  1.00 20.00     0.124 C 
HETATM    2  C2  UNL     1     -35.120  15.633  -2.561  1.00 20.00     0.024 C 
HETATM    3  C3  UNL     1     -34.625  14.843  -3.510  1.00 20.00     0.145 C 
HETATM    4  C4  UNL     1     -34.079  16.604  -2.164  1.00 20.00     0.057 C 
HETATM    5  C5  UNL     1     -33.024  16.363  -3.239  1.00 20.00     0.180 C 
HETATM    6  N6  UNL     1     -35.896  12.883  -4.588  1.00 20.00    -0.189 NA
HETATM    7  O7  UNL     1     -33.316  15.110  -3.890  1.00 20.00    -0.341 OA
ENDROOT
TORSDOF 0
ENDMDL
MODEL 5
REMARK VINA RESULT:      -4.0     11.384     11.848
REMARK  0 active torsions:
REMARK  status: ('A' for Active; 'I' for Inactive)
ROOT
HETATM    1  C1  UNL     1     -35.356  13.767  -4.109  1.00 20.00     0.124 C 
HETATM    2  C2  UNL     1     -33.467  15.268  -3.834  1.00 20.00     0.024 C 
HETATM    3  C3  UNL     1     -34.693  14.864  -3.513  1.00 20.00     0.145 C 
HETATM    4  C4  UNL     1     -33.143  16.470  -3.035  1.00 20.00     0.057 C 
HETATM    5  C5  UNL     1     -34.306  16.491  -2.049  1.00 20.00     0.180 C 
HETATM    6  N6  UNL     1     -35.900  12.866  -4.597  1.00 20.00    -0.189 NA
HETATM    7  O7  UNL     1     -35.342  15.621  -2.547  1.00 20.00    -0.341 OA
ENDROOT
TORSDOF 0
ENDMDL
MODEL 6
REMARK VINA RESULT:      -3.9     16.034     16.483
REMARK  0 active torsions:
REMARK  status: ('A' for Active; 'I' for Inactive)
ROOT
HETATM    1  C1  UNL     1     -22.451  17.524   8.420  1.00 20.00     0.124 C 
HETATM    2  C2  UNL     1     -23.828  16.582  10.184  1.00 20.00     0.024 C 
HETATM    3  C3  UNL     1     -22.784  17.298   9.774  1.00 20.00     0.145 C 
HETATM    4  C4  UNL     1     -23.815  16.532  11.662  1.00 20.00     0.057 C 
HETATM    5  C5  UNL     1     -22.730  17.556  11.982  1.00 20.00     0.180 C 
HETATM    6  N6  UNL     1     -22.176  17.710   7.308  1.00 20.00    -0.189 NA
HETATM    7  O7  UNL     1     -21.977  17.812  10.780  1.00 20.00    -0.341 OA
ENDROOT
TORSDOF 0
ENDMDL
MODEL 7
REMARK VINA RESULT:      -3.8      9.172      9.261
REMARK  0 active torsions:
REMARK  status: ('A' for Active; 'I' for Inactive)
ROOT
HETATM    1  C1  UNL     1     -41.503   9.093   0.207  1.00 20.00     0.124 C 
HETATM    2  C2  UNL     1     -41.083   7.087  -1.095  1.00 20.00     0.024 C 
HETATM    3  C3  UNL     1     -41.544   7.697  -0.006  1.00 20.00     0.145 C 
HETATM    4  C4  UNL     1     -41.257   5.628  -0.927  1.00 20.00     0.057 C 
HETATM    5  C5  UNL     1     -42.119   5.575   0.329  1.00 20.00     0.180 C 
HETATM    6  N6  UNL     1     -41.470  10.240   0.384  1.00 20.00    -0.189 NA
HETATM    7  O7  UNL     1     -42.061   6.863   0.976  1.00 20.00    -0.341 OA
ENDROOT
TORSDOF 0
ENDMDL
MODEL 8
REMARK VINA RESULT:      -3.8     15.791     16.286
REMARK  0 active torsions:
REMARK  status: ('A' for Active; 'I' for Inactive)
ROOT
HETATM    1  C1  UNL     1     -22.406  17.051   8.657  1.00 20.00     0.124 C 
HETATM    2  C2  UNL     1     -22.470  17.792  10.969  1.00 20.00     0.024 C 
HETATM    3  C3  UNL     1     -22.948  17.065   9.962  1.00 20.00     0.145 C 
HETATM    4  C4  UNL     1     -23.329  17.579  12.153  1.00 20.00     0.057 C 
HETATM    5  C5  UNL     1     -24.201  16.420  11.682  1.00 20.00     0.180 C 
HETATM    6  N6  UNL     1     -21.962  17.039   7.585  1.00 20.00    -0.189 NA
HETATM    7  O7  UNL     1     -24.077  16.311  10.250  1.00 20.00    -0.341 OA
ENDROOT
TORSDOF 0
ENDMDL
MODEL 9
REMARK VINA RESULT:      -3.6     16.352     16.712
REMARK  0 active torsions:
REMARK  status: ('A' for Active; 'I' for Inactive)
ROOT
HETATM    1  C1  UNL     1     -23.486  18.355   8.447  1.00 20.00     0.124 C 
HETATM    2  C2  UNL     1     -22.371  17.797  10.531  1.00 20.00     0.024 C 
HETATM    3  C3  UNL     1     -23.452  18.161   9.847  1.00 20.00     0.145 C 
HETATM    4  C4  UNL     1     -22.717  17.748  11.968  1.00 20.00     0.057 C 
HETATM    5  C5  UNL     1     -24.234  17.901  11.912  1.00 20.00     0.180 C 
HETATM    6  N6  UNL     1     -23.515  18.515   7.298  1.00 20.00    -0.189 NA
HETATM    7  O7  UNL     1     -24.594  18.388  10.604  1.00 20.00    -0.341 OA
ENDROOT
TORSDOF 0
ENDMDL
