MODEL 1
REMARK VINA RESULT:      -3.8      0.000      0.000
REMARK  5 active torsions:
REMARK  status: ('A' for Active; 'I' for Inactive)
REMARK    1  A    between atoms: C2_2  and  C3_3 
REMARK    2  A    between atoms: C2_2  and  C4_4 
REMARK    3  A    between atoms: C3_3  and  C5_5 
REMARK    4  A    between atoms: C4_4  and  C6_6 
REMARK    5  A    between atoms: C5_5  and  S7_7 
ROOT
HETATM    1  C2  UNL     1     -34.046   4.084   3.892  1.00 20.00     0.002 C 
ENDROOT
BRANCH   1   2
HETATM    2  C3  UNL     1     -33.341   4.704   2.682  1.00 20.00     0.010 C 
BRANCH   2   3
HETATM    3  C5  UNL     1     -33.690   6.174   2.454  1.00 20.00     0.073 C 
BRANCH   3   4
HETATM    4  S7  UNL     1     -32.237   7.265   2.513  1.00 20.00    -0.173 SA
HETATM    5  C1  UNL     1     -32.616   8.280   1.067  1.00 20.00     0.089 C 
ENDBRANCH   3   4
ENDBRANCH   2   3
ENDBRANCH   1   2
BRANCH   1   6
HETATM    6  C4  UNL     1     -35.101   5.036   4.465  1.00 20.00     0.015 C 
BRANCH   6   7
HETATM    7  C6  UNL     1     -34.809   5.363   5.924  1.00 20.00     0.114 C 
HETATM    8 CL8  UNL     1     -33.858   6.860   6.046  1.00 20.00    -0.130 Cl
ENDBRANCH   6   7
ENDBRANCH   1   6
TORSDOF 5
ENDMDL
MODEL 2
REMARK VINA RESULT:      -3.8      2.712      3.997
REMARK  5 active torsions:
REMARK  status: ('A' for Active; 'I' for Inactive)
REMARK    1  A    between atoms: C2_2  and  C3_3 
REMARK    2  A    between atoms: C2_2  and  C4_4 
REMARK    3  A    between atoms: C3_3  and  C5_5 
REMARK    4  A    between atoms: C4_4  and  C6_6 
REMARK    5  A    between atoms: C5_5  and  S7_7 
ROOT
HETATM    1  C2  UNL     1     -33.165   5.131   2.500  1.00 20.00     0.002 C 
ENDROOT
BRANCH   1   2
HETATM    2  C3  UNL     1     -34.036   4.359   3.496  1.00 20.00     0.010 C 
BRANCH   2   3
HETATM    3  C5  UNL     1     -35.054   5.233   4.229  1.00 20.00     0.073 C 
BRANCH   3   4
HETATM    4  S7  UNL     1     -34.758   5.318   6.019  1.00 20.00    -0.173 SA
HETATM    5  C1  UNL     1     -33.873   6.893   6.063  1.00 20.00     0.089 C 
ENDBRANCH   3   4
ENDBRANCH   2   3
ENDBRANCH   1   2
BRANCH   1   6
HETATM    6  C4  UNL     1     -33.254   6.641   2.742  1.00 20.00     0.015 C 
BRANCH   6   7
HETATM    7  C6  UNL     1     -32.178   7.385   1.963  1.00 20.00     0.114 C 
HETATM    8 CL8  UNL     1     -32.911   8.622   0.917  1.00 20.00    -0.130 Cl
ENDBRANCH   6   7
ENDBRANCH   1   6
TORSDOF 5
ENDMDL
MODEL 3
REMARK VINA RESULT:      -3.7      1.248      1.756
REMARK  5 active torsions:
REMARK  status: ('A' for Active; 'I' for Inactive)
REMARK    1  A    between atoms: C2_2  and  C3_3 
REMARK    2  A    between atoms: C2_2  and  C4_4 
REMARK    3  A    between atoms: C3_3  and  C5_5 
REMARK    4  A    between atoms: C4_4  and  C6_6 
REMARK    5  A    between atoms: C5_5  and  S7_7 
ROOT
HETATM    1  C2  UNL     1     -33.392   5.159   2.579  1.00 20.00     0.002 C 
ENDROOT
BRANCH   1   2
HETATM    2  C3  UNL     1     -33.129   6.629   2.922  1.00 20.00     0.010 C 
BRANCH   2   3
HETATM    3  C5  UNL     1     -32.293   7.364   1.875  1.00 20.00     0.073 C 
BRANCH   3   4
HETATM    4  S7  UNL     1     -33.027   8.945   1.364  1.00 20.00    -0.173 SA
HETATM    5  C1  UNL     1     -33.336   8.539  -0.370  1.00 20.00     0.089 C 
ENDBRANCH   3   4
ENDBRANCH   2   3
ENDBRANCH   1   2
BRANCH   1   6
HETATM    6  C4  UNL     1     -34.126   4.447   3.719  1.00 20.00     0.015 C 
BRANCH   6   7
HETATM    7  C6  UNL     1     -35.106   5.386   4.410  1.00 20.00     0.114 C 
HETATM    8 CL8  UNL     1     -34.653   5.611   6.115  1.00 20.00    -0.130 Cl
ENDBRANCH   6   7
ENDBRANCH   1   6
TORSDOF 5
ENDMDL
MODEL 4
REMARK VINA RESULT:      -3.7      2.825      4.558
REMARK  5 active torsions:
REMARK  status: ('A' for Active; 'I' for Inactive)
REMARK    1  A    between atoms: C2_2  and  C3_3 
REMARK    2  A    between atoms: C2_2  and  C4_4 
REMARK    3  A    between atoms: C3_3  and  C5_5 
REMARK    4  A    between atoms: C4_4  and  C6_6 
REMARK    5  A    between atoms: C5_5  and  S7_7 
ROOT
HETATM    1  C2  UNL     1     -33.001   6.545   2.862  1.00 20.00     0.002 C 
ENDROOT
BRANCH   1   2
HETATM    2  C3  UNL     1     -33.145   5.045   2.585  1.00 20.00     0.010 C 
BRANCH   2   3
HETATM    3  C5  UNL     1     -34.060   4.323   3.574  1.00 20.00     0.073 C 
BRANCH   3   4
HETATM    4  S7  UNL     1     -35.251   5.434   4.380  1.00 20.00    -0.173 SA
HETATM    5  C1  UNL     1     -34.632   5.295   6.072  1.00 20.00     0.089 C 
ENDBRANCH   3   4
ENDBRANCH   2   3
ENDBRANCH   1   2
BRANCH   1   6
HETATM    6  C4  UNL     1     -32.273   7.252   1.716  1.00 20.00     0.015 C 
BRANCH   6   7
HETATM    7  C6  UNL     1     -32.937   8.582   1.383  1.00 20.00     0.114 C 
HETATM    8 CL8  UNL     1     -33.388   8.636  -0.337  1.00 20.00    -0.130 Cl
ENDBRANCH   6   7
ENDBRANCH   1   6
TORSDOF 5
ENDMDL
MODEL 5
REMARK VINA RESULT:      -3.2      1.932      2.382
REMARK  5 active torsions:
REMARK  status: ('A' for Active; 'I' for Inactive)
REMARK    1  A    between atoms: C2_2  and  C3_3 
REMARK    2  A    between atoms: C2_2  and  C4_4 
REMARK    3  A    between atoms: C3_3  and  C5_5 
REMARK    4  A    between atoms: C4_4  and  C6_6 
REMARK    5  A    between atoms: C5_5  and  S7_7 
ROOT
HETATM    1  C2  UNL     1     -33.681   6.478   5.975  1.00 20.00     0.002 C 
ENDROOT
BRANCH   1   2
HETATM    2  C3  UNL     1     -33.753   7.310   4.691  1.00 20.00     0.010 C 
BRANCH   2   3
HETATM    3  C5  UNL     1     -32.425   7.398   3.940  1.00 20.00     0.073 C 
BRANCH   3   4
HETATM    4  S7  UNL     1     -32.500   6.672   2.277  1.00 20.00    -0.173 SA
HETATM    5  C1  UNL     1     -32.634   8.205   1.330  1.00 20.00     0.089 C 
ENDBRANCH   3   4
ENDBRANCH   2   3
ENDBRANCH   1   2
BRANCH   1   6
HETATM    6  C4  UNL     1     -34.774   5.405   6.001  1.00 20.00     0.015 C 
BRANCH   6   7
HETATM    7  C6  UNL     1     -35.240   5.063   4.592  1.00 20.00     0.114 C 
HETATM    8 CL8  UNL     1     -34.125   3.905   3.833  1.00 20.00    -0.130 Cl
ENDBRANCH   6   7
ENDBRANCH   1   6
TORSDOF 5
ENDMDL
MODEL 6
REMARK VINA RESULT:      -3.1     12.116     12.486
REMARK  5 active torsions:
REMARK  status: ('A' for Active; 'I' for Inactive)
REMARK    1  A    between atoms: C2_2  and  C3_3 
REMARK    2  A    between atoms: C2_2  and  C4_4 
REMARK    3  A    between atoms: C3_3  and  C5_5 
REMARK    4  A    between atoms: C4_4  and  C6_6 
REMARK    5  A    between atoms: C5_5  and  S7_7 
ROOT
HETATM    1  C2  UNL     1     -33.392  15.776  -3.363  1.00 20.00     0.002 C 
ENDROOT
BRANCH   1   2
HETATM    2  C3  UNL     1     -33.730  14.604  -4.290  1.00 20.00     0.010 C 
BRANCH   2   3
HETATM    3  C5  UNL     1     -34.035  15.025  -5.727  1.00 20.00     0.073 C 
BRANCH   3   4
HETATM    4  S7  UNL     1     -35.747  14.669  -6.223  1.00 20.00    -0.173 SA
HETATM    5  C1  UNL     1     -36.259  13.756  -4.751  1.00 20.00     0.089 C 
ENDBRANCH   3   4
ENDBRANCH   2   3
ENDBRANCH   1   2
BRANCH   1   6
HETATM    6  C4  UNL     1     -34.529  16.045  -2.374  1.00 20.00     0.015 C 
BRANCH   6   7
HETATM    7  C6  UNL     1     -34.199  17.223  -1.467  1.00 20.00     0.114 C 
HETATM    8 CL8  UNL     1     -32.522  17.755  -1.726  1.00 20.00    -0.130 Cl
ENDBRANCH   6   7
ENDBRANCH   1   6
TORSDOF 5
ENDMDL
MODEL 7
REMARK VINA RESULT:      -3.1     11.977     12.556
REMARK  5 active torsions:
REMARK  status: ('A' for Active; 'I' for Inactive)
REMARK    1  A    between atoms: C2_2  and  C3_3 
REMARK    2  A    between atoms: C2_2  and  C4_4 
REMARK    3  A    between atoms: C3_3  and  C5_5 
REMARK    4  A    between atoms: C4_4  and  C6_6 
REMARK    5  A    between atoms: C5_5  and  S7_7 
ROOT
HETATM    1  C2  UNL     1     -34.301  16.091  -2.376  1.00 20.00     0.002 C 
ENDROOT
BRANCH   1   2
HETATM    2  C3  UNL     1     -33.277  15.821  -3.483  1.00 20.00     0.010 C 
BRANCH   2   3
HETATM    3  C5  UNL     1     -33.622  14.616  -4.358  1.00 20.00     0.073 C 
BRANCH   3   4
HETATM    4  S7  UNL     1     -35.084  14.893  -5.401  1.00 20.00    -0.173 SA
HETATM    5  C1  UNL     1     -36.199  13.716  -4.603  1.00 20.00     0.089 C 
ENDBRANCH   3   4
ENDBRANCH   2   3
ENDBRANCH   1   2
BRANCH   1   6
HETATM    6  C4  UNL     1     -33.871  17.273  -1.501  1.00 20.00     0.015 C 
BRANCH   6   7
HETATM    7  C6  UNL     1     -32.616  17.935  -2.054  1.00 20.00     0.114 C 
HETATM    8 CL8  UNL     1     -31.454  18.253  -0.745  1.00 20.00    -0.130 Cl
ENDBRANCH   6   7
ENDBRANCH   1   6
TORSDOF 5
ENDMDL
MODEL 8
REMARK VINA RESULT:      -3.0     11.587     12.364
REMARK  5 active torsions:
REMARK  status: ('A' for Active; 'I' for Inactive)
REMARK    1  A    between atoms: C2_2  and  C3_3 
REMARK    2  A    between atoms: C2_2  and  C4_4 
REMARK    3  A    between atoms: C3_3  and  C5_5 
REMARK    4  A    between atoms: C4_4  and  C6_6 
REMARK    5  A    between atoms: C5_5  and  S7_7 
ROOT
HETATM    1  C2  UNL     1     -33.252  15.936  -3.377  1.00 20.00     0.002 C 
ENDROOT
BRANCH   1   2
HETATM    2  C3  UNL     1     -33.587  14.766  -4.307  1.00 20.00     0.010 C 
BRANCH   2   3
HETATM    3  C5  UNL     1     -34.814  13.966  -3.871  1.00 20.00     0.073 C 
BRANCH   3   4
HETATM    4  S7  UNL     1     -36.203  14.106  -5.034  1.00 20.00    -0.173 SA
HETATM    5  C1  UNL     1     -35.299  14.805  -6.434  1.00 20.00     0.089 C 
ENDBRANCH   3   4
ENDBRANCH   2   3
ENDBRANCH   1   2
BRANCH   1   6
HETATM    6  C4  UNL     1     -34.348  16.140  -2.328  1.00 20.00     0.015 C 
BRANCH   6   7
HETATM    7  C6  UNL     1     -34.057  17.357  -1.459  1.00 20.00     0.114 C 
HETATM    8 CL8  UNL     1     -32.362  17.862  -1.648  1.00 20.00    -0.130 Cl
ENDBRANCH   6   7
ENDBRANCH   1   6
TORSDOF 5
ENDMDL
MODEL 9
REMARK VINA RESULT:      -3.0     11.707     12.483
REMARK  5 active torsions:
REMARK  status: ('A' for Active; 'I' for Inactive)
REMARK    1  A    between atoms: C2_2  and  C3_3 
REMARK    2  A    between atoms: C2_2  and  C4_4 
REMARK    3  A    between atoms: C3_3  and  C5_5 
REMARK    4  A    between atoms: C4_4  and  C6_6 
REMARK    5  A    between atoms: C5_5  and  S7_7 
ROOT
HETATM    1  C2  UNL     1     -34.614  15.421  -3.019  1.00 20.00     0.002 C 
ENDROOT
BRANCH   1   2
HETATM    2  C3  UNL     1     -34.695  14.129  -3.838  1.00 20.00     0.010 C 
BRANCH   2   3
HETATM    3  C5  UNL     1     -35.900  14.070  -4.776  1.00 20.00     0.073 C 
BRANCH   3   4
HETATM    4  S7  UNL     1     -35.908  15.407  -6.006  1.00 20.00    -0.173 SA
HETATM    5  C1  UNL     1     -34.293  15.085  -6.750  1.00 20.00     0.089 C 
ENDBRANCH   3   4
ENDBRANCH   2   3
ENDBRANCH   1   2
BRANCH   1   6
HETATM    6  C4  UNL     1     -33.270  16.124  -3.226  1.00 20.00     0.015 C 
BRANCH   6   7
HETATM    7  C6  UNL     1     -33.065  17.228  -2.197  1.00 20.00     0.114 C 
HETATM    8 CL8  UNL     1     -34.434  17.283  -1.064  1.00 20.00    -0.130 Cl
ENDBRANCH   6   7
ENDBRANCH   1   6
TORSDOF 5
ENDMDL
