MODEL 1
REMARK VINA RESULT:      -5.1      0.000      0.000
REMARK  1 active torsions:
REMARK  status: ('A' for Active; 'I' for Inactive)
REMARK    1  A    between atoms: C3_3  and  C4_4 
ROOT
HETATM    1  C1  UNL     1     -34.583   5.322   4.220  1.00 20.00     0.065 A 
HETATM    2  C2  UNL     1     -35.041   5.366   5.511  1.00 20.00     0.172 A 
HETATM    3  C3  UNL     1     -33.641   6.364   4.164  1.00 20.00     0.169 A 
HETATM    4  N5  UNL     1     -33.523   7.005   5.330  1.00 20.00    -0.124 NA
HETATM    5  O6  UNL     1     -34.415   6.366   6.183  1.00 20.00    -0.225 OA
ENDROOT
BRANCH   3   6
HETATM    6  C4  UNL     1     -32.828   6.782   3.011  1.00 20.00     0.436 C 
HETATM    7  F7  UNL     1     -33.410   7.750   2.228  1.00 20.00    -0.164 F 
HETATM    8  F8  UNL     1     -31.602   7.307   3.342  1.00 20.00    -0.164 F 
HETATM    9  F9  UNL     1     -32.545   5.756   2.144  1.00 20.00    -0.164 F 
ENDBRANCH   3   6
TORSDOF 1
ENDMDL
MODEL 2
REMARK VINA RESULT:      -5.1      0.013      1.253
REMARK  1 active torsions:
REMARK  status: ('A' for Active; 'I' for Inactive)
REMARK    1  A    between atoms: C3_3  and  C4_4 
ROOT
HETATM    1  C1  UNL     1     -34.584   5.326   4.216  1.00 20.00     0.065 A 
HETATM    2  C2  UNL     1     -35.037   5.371   5.509  1.00 20.00     0.172 A 
HETATM    3  C3  UNL     1     -33.639   6.364   4.157  1.00 20.00     0.169 A 
HETATM    4  N5  UNL     1     -33.514   7.005   5.323  1.00 20.00    -0.124 NA
HETATM    5  O6  UNL     1     -34.406   6.369   6.178  1.00 20.00    -0.225 OA
ENDROOT
BRANCH   3   6
HETATM    6  C4  UNL     1     -32.829   6.780   3.001  1.00 20.00     0.436 C 
HETATM    7  F7  UNL     1     -32.540   5.768   2.117  1.00 20.00    -0.164 F 
HETATM    8  F8  UNL     1     -33.409   7.753   2.224  1.00 20.00    -0.164 F 
HETATM    9  F9  UNL     1     -31.606   7.297   3.351  1.00 20.00    -0.164 F 
ENDBRANCH   3   6
TORSDOF 1
ENDMDL
MODEL 3
REMARK VINA RESULT:      -5.1      2.648      3.359
REMARK  1 active torsions:
REMARK  status: ('A' for Active; 'I' for Inactive)
REMARK    1  A    between atoms: C3_3  and  C4_4 
ROOT
HETATM    1  C1  UNL     1     -33.221   6.081   2.745  1.00 20.00     0.065 A 
HETATM    2  C2  UNL     1     -32.245   7.043   2.776  1.00 20.00     0.172 A 
HETATM    3  C3  UNL     1     -33.764   6.113   4.041  1.00 20.00     0.169 A 
HETATM    4  N5  UNL     1     -33.170   7.024   4.817  1.00 20.00    -0.124 NA
HETATM    5  O6  UNL     1     -32.206   7.612   4.008  1.00 20.00    -0.225 OA
ENDROOT
BRANCH   3   6
HETATM    6  C4  UNL     1     -34.854   5.287   4.581  1.00 20.00     0.436 C 
HETATM    7  F7  UNL     1     -35.030   5.397   5.940  1.00 20.00    -0.164 F 
HETATM    8  F8  UNL     1     -36.093   5.569   4.056  1.00 20.00    -0.164 F 
HETATM    9  F9  UNL     1     -34.681   3.943   4.360  1.00 20.00    -0.164 F 
ENDBRANCH   3   6
TORSDOF 1
ENDMDL
MODEL 4
REMARK VINA RESULT:      -5.1      1.275      1.337
REMARK  1 active torsions:
REMARK  status: ('A' for Active; 'I' for Inactive)
REMARK    1  A    between atoms: C3_3  and  C4_4 
ROOT
HETATM    1  C1  UNL     1     -33.996   6.507   5.398  1.00 20.00     0.065 A 
HETATM    2  C2  UNL     1     -34.866   5.552   5.857  1.00 20.00     0.172 A 
HETATM    3  C3  UNL     1     -33.749   6.123   4.069  1.00 20.00     0.169 A 
HETATM    4  N5  UNL     1     -34.414   5.015   3.729  1.00 20.00    -0.124 NA
HETATM    5  O6  UNL     1     -35.122   4.657   4.869  1.00 20.00    -0.225 OA
ENDROOT
BRANCH   3   6
HETATM    6  C4  UNL     1     -32.881   6.789   3.086  1.00 20.00     0.436 C 
HETATM    7  F7  UNL     1     -33.505   7.764   2.346  1.00 20.00    -0.164 F 
HETATM    8  F8  UNL     1     -31.790   7.424   3.631  1.00 20.00    -0.164 F 
HETATM    9  F9  UNL     1     -32.353   5.929   2.155  1.00 20.00    -0.164 F 
ENDBRANCH   3   6
TORSDOF 1
ENDMDL
MODEL 5
REMARK VINA RESULT:      -4.8      3.030      3.670
REMARK  1 active torsions:
REMARK  status: ('A' for Active; 'I' for Inactive)
REMARK    1  A    between atoms: C3_3  and  C4_4 
ROOT
HETATM    1  C1  UNL     1     -32.978   7.175   4.095  1.00 20.00     0.065 A 
HETATM    2  C2  UNL     1     -32.232   7.279   2.951  1.00 20.00     0.172 A 
HETATM    3  C3  UNL     1     -33.765   6.031   3.878  1.00 20.00     0.169 A 
HETATM    4  N5  UNL     1     -33.527   5.469   2.690  1.00 20.00    -0.124 NA
HETATM    5  O6  UNL     1     -32.552   6.267   2.105  1.00 20.00    -0.225 OA
ENDROOT
BRANCH   3   6
HETATM    6  C4  UNL     1     -34.762   5.439   4.783  1.00 20.00     0.436 C 
HETATM    7  F7  UNL     1     -34.528   4.123   5.103  1.00 20.00    -0.164 F 
HETATM    8  F8  UNL     1     -34.868   6.069   6.000  1.00 20.00    -0.164 F 
HETATM    9  F9  UNL     1     -36.037   5.451   4.273  1.00 20.00    -0.164 F 
ENDBRANCH   3   6
TORSDOF 1
ENDMDL
MODEL 6
REMARK VINA RESULT:      -4.8      3.026      3.665
REMARK  1 active torsions:
REMARK  status: ('A' for Active; 'I' for Inactive)
REMARK    1  A    between atoms: C3_3  and  C4_4 
ROOT
HETATM    1  C1  UNL     1     -32.974   7.183   4.085  1.00 20.00     0.065 A 
HETATM    2  C2  UNL     1     -32.227   7.292   2.941  1.00 20.00     0.172 A 
HETATM    3  C3  UNL     1     -33.762   6.040   3.862  1.00 20.00     0.169 A 
HETATM    4  N5  UNL     1     -33.522   5.483   2.672  1.00 20.00    -0.124 NA
HETATM    5  O6  UNL     1     -32.546   6.283   2.091  1.00 20.00    -0.225 OA
ENDROOT
BRANCH   3   6
HETATM    6  C4  UNL     1     -34.760   5.445   4.764  1.00 20.00     0.436 C 
HETATM    7  F7  UNL     1     -36.042   5.443   4.269  1.00 20.00    -0.164 F 
HETATM    8  F8  UNL     1     -34.520   4.131   5.086  1.00 20.00    -0.164 F 
HETATM    9  F9  UNL     1     -34.854   6.088   5.973  1.00 20.00    -0.164 F 
ENDBRANCH   3   6
TORSDOF 1
ENDMDL
MODEL 7
REMARK VINA RESULT:      -4.6     11.439     11.750
REMARK  1 active torsions:
REMARK  status: ('A' for Active; 'I' for Inactive)
REMARK    1  A    between atoms: C3_3  and  C4_4 
ROOT
HETATM    1  C1  UNL     1     -36.143  14.929  -4.289  1.00 20.00     0.065 A 
HETATM    2  C2  UNL     1     -36.732  13.725  -4.574  1.00 20.00     0.172 A 
HETATM    3  C3  UNL     1     -34.811  14.589  -3.997  1.00 20.00     0.169 A 
HETATM    4  N5  UNL     1     -34.590  13.275  -4.092  1.00 20.00    -0.124 NA
HETATM    5  O6  UNL     1     -35.815  12.731  -4.459  1.00 20.00    -0.225 OA
ENDROOT
BRANCH   3   6
HETATM    6  C4  UNL     1     -33.713  15.492  -3.620  1.00 20.00     0.436 C 
HETATM    7  F7  UNL     1     -33.696  15.842  -2.291  1.00 20.00    -0.164 F 
HETATM    8  F8  UNL     1     -32.457  14.985  -3.852  1.00 20.00    -0.164 F 
HETATM    9  F9  UNL     1     -33.735  16.688  -4.294  1.00 20.00    -0.164 F 
ENDBRANCH   3   6
TORSDOF 1
ENDMDL
MODEL 8
REMARK VINA RESULT:      -4.6      3.057      3.506
REMARK  1 active torsions:
REMARK  status: ('A' for Active; 'I' for Inactive)
REMARK    1  A    between atoms: C3_3  and  C4_4 
ROOT
HETATM    1  C1  UNL     1     -33.959   4.758   3.393  1.00 20.00     0.065 A 
HETATM    2  C2  UNL     1     -33.288   5.272   2.314  1.00 20.00     0.172 A 
HETATM    3  C3  UNL     1     -33.888   5.784   4.351  1.00 20.00     0.169 A 
HETATM    4  N5  UNL     1     -33.224   6.853   3.902  1.00 20.00    -0.124 NA
HETATM    5  O6  UNL     1     -32.845   6.521   2.607  1.00 20.00    -0.225 OA
ENDROOT
BRANCH   3   6
HETATM    6  C4  UNL     1     -34.443   5.784   5.713  1.00 20.00     0.436 C 
HETATM    7  F7  UNL     1     -34.344   6.990   6.366  1.00 20.00    -0.164 F 
HETATM    8  F8  UNL     1     -35.779   5.471   5.781  1.00 20.00    -0.164 F 
HETATM    9  F9  UNL     1     -33.832   4.884   6.550  1.00 20.00    -0.164 F 
ENDBRANCH   3   6
TORSDOF 1
ENDMDL
MODEL 9
REMARK VINA RESULT:      -4.5     11.313     12.002
REMARK  1 active torsions:
REMARK  status: ('A' for Active; 'I' for Inactive)
REMARK    1  A    between atoms: C3_3  and  C4_4 
ROOT
HETATM    1  C1  UNL     1     -37.176  15.754  -3.964  1.00 20.00     0.065 A 
HETATM    2  C2  UNL     1     -38.453  15.342  -4.244  1.00 20.00     0.172 A 
HETATM    3  C3  UNL     1     -36.412  14.580  -4.086  1.00 20.00     0.169 A 
HETATM    4  N5  UNL     1     -37.157  13.521  -4.417  1.00 20.00    -0.124 NA
HETATM    5  O6  UNL     1     -38.453  14.012  -4.515  1.00 20.00    -0.225 OA
ENDROOT
BRANCH   3   6
HETATM    6  C4  UNL     1     -34.961  14.426  -3.895  1.00 20.00     0.436 C 
HETATM    7  F7  UNL     1     -34.549  13.129  -3.703  1.00 20.00    -0.164 F 
HETATM    8  F8  UNL     1     -34.200  14.870  -4.950  1.00 20.00    -0.164 F 
HETATM    9  F9  UNL     1     -34.480  15.110  -2.807  1.00 20.00    -0.164 F 
ENDBRANCH   3   6
TORSDOF 1
ENDMDL
