MODEL 1
REMARK VINA RESULT:      -4.7      0.000      0.000
REMARK  1 active torsions:
REMARK  status: ('A' for Active; 'I' for Inactive)
REMARK    1  A    between atoms: C4_4  and  C7_7 
ROOT
HETATM    1  C1  UNL     1     -35.506  13.558  -4.302  1.00 20.00     0.035 A 
HETATM    2  C2  UNL     1     -34.415  14.294  -4.072  1.00 20.00    -0.008 A 
HETATM    3  C3  UNL     1     -36.739  14.352  -4.210  1.00 20.00     0.085 A 
HETATM    4  C4  UNL     1     -34.585  15.749  -3.772  1.00 20.00     0.080 A 
HETATM    5  N8  UNL     1     -37.937  13.920  -4.379  1.00 20.00    -0.293 NA
HETATM    6  S9  UNL     1     -36.391  16.024  -3.833  1.00 20.00    -0.102 SA
HETATM    7  H20 UNL     1     -37.913  12.916  -4.593  1.00 20.00     0.187 HD
ENDROOT
BRANCH   4   8
HETATM    8  C7  UNL     1     -34.037  16.127  -2.403  1.00 20.00    -0.005 C 
HETATM    9  C5  UNL     1     -32.989  17.234  -2.527  1.00 20.00     0.011 C 
HETATM   10  C6  UNL     1     -35.166  16.565  -1.469  1.00 20.00     0.011 C 
ENDBRANCH   4   8
TORSDOF 1
ENDMDL
MODEL 2
REMARK VINA RESULT:      -4.3      1.098      1.765
REMARK  1 active torsions:
REMARK  status: ('A' for Active; 'I' for Inactive)
REMARK    1  A    between atoms: C4_4  and  C7_7 
ROOT
HETATM    1  C1  UNL     1     -33.752  14.113  -4.149  1.00 20.00     0.035 A 
HETATM    2  C2  UNL     1     -33.346  15.369  -3.945  1.00 20.00    -0.008 A 
HETATM    3  C3  UNL     1     -35.214  14.013  -4.258  1.00 20.00     0.085 A 
HETATM    4  C4  UNL     1     -34.378  16.448  -3.865  1.00 20.00     0.080 A 
HETATM    5  N8  UNL     1     -35.892  12.940  -4.452  1.00 20.00    -0.293 NA
HETATM    6  S9  UNL     1     -35.971  15.582  -4.094  1.00 20.00    -0.102 SA
HETATM    7  H20 UNL     1     -35.254  12.138  -4.521  1.00 20.00     0.187 HD
ENDROOT
BRANCH   4   8
HETATM    8  C7  UNL     1     -34.357  17.172  -2.526  1.00 20.00    -0.005 C 
HETATM    9  C5  UNL     1     -35.153  16.394  -1.477  1.00 20.00     0.011 C 
HETATM   10  C6  UNL     1     -32.921  17.390  -2.049  1.00 20.00     0.011 C 
ENDBRANCH   4   8
TORSDOF 1
ENDMDL
MODEL 3
REMARK VINA RESULT:      -4.2      1.806      2.228
REMARK  1 active torsions:
REMARK  status: ('A' for Active; 'I' for Inactive)
REMARK    1  A    between atoms: C4_4  and  C7_7 
ROOT
HETATM    1  C1  UNL     1     -36.348  13.921  -4.927  1.00 20.00     0.035 A 
HETATM    2  C2  UNL     1     -35.668  14.187  -3.809  1.00 20.00    -0.008 A 
HETATM    3  C3  UNL     1     -35.644  14.388  -6.129  1.00 20.00     0.085 A 
HETATM    4  C4  UNL     1     -34.350  14.884  -3.924  1.00 20.00     0.080 A 
HETATM    5  N8  UNL     1     -36.050  14.275  -7.342  1.00 20.00    -0.293 NA
HETATM    6  S9  UNL     1     -34.122  15.146  -5.718  1.00 20.00    -0.102 SA
HETATM    7  H20 UNL     1     -36.961  13.801  -7.357  1.00 20.00     0.187 HD
ENDROOT
BRANCH   4   8
HETATM    8  C7  UNL     1     -34.332  16.216  -3.187  1.00 20.00    -0.005 C 
HETATM    9  C5  UNL     1     -35.106  16.118  -1.872  1.00 20.00     0.011 C 
HETATM   10  C6  UNL     1     -32.896  16.673  -2.927  1.00 20.00     0.011 C 
ENDBRANCH   4   8
TORSDOF 1
ENDMDL
MODEL 4
REMARK VINA RESULT:      -4.2     16.879     18.032
REMARK  1 active torsions:
REMARK  status: ('A' for Active; 'I' for Inactive)
REMARK    1  A    between atoms: C4_4  and  C7_7 
ROOT
HETATM    1  C1  UNL     1     -24.037  18.797   8.005  1.00 20.00     0.035 A 
HETATM    2  C2  UNL     1     -24.795  18.679   9.098  1.00 20.00    -0.008 A 
HETATM    3  C3  UNL     1     -22.884  17.886   8.029  1.00 20.00     0.085 A 
HETATM    4  C4  UNL     1     -24.394  17.687  10.142  1.00 20.00     0.080 A 
HETATM    5  N8  UNL     1     -21.982  17.775   7.122  1.00 20.00    -0.293 NA
HETATM    6  S9  UNL     1     -22.868  16.921   9.488  1.00 20.00    -0.102 SA
HETATM    7  H20 UNL     1     -22.183  18.429   6.356  1.00 20.00     0.187 HD
ENDROOT
BRANCH   4   8
HETATM    8  C7  UNL     1     -24.123  18.340  11.490  1.00 20.00    -0.005 C 
HETATM    9  C5  UNL     1     -25.398  18.394  12.332  1.00 20.00     0.011 C 
HETATM   10  C6  UNL     1     -23.019  17.596  12.242  1.00 20.00     0.011 C 
ENDBRANCH   4   8
TORSDOF 1
ENDMDL
MODEL 5
REMARK VINA RESULT:      -4.2      1.888      2.157
REMARK  1 active torsions:
REMARK  status: ('A' for Active; 'I' for Inactive)
REMARK    1  A    between atoms: C4_4  and  C7_7 
ROOT
HETATM    1  C1  UNL     1     -35.547  16.197  -5.957  1.00 20.00     0.035 A 
HETATM    2  C2  UNL     1     -35.600  16.680  -4.713  1.00 20.00    -0.008 A 
HETATM    3  C3  UNL     1     -35.832  14.757  -6.004  1.00 20.00     0.085 A 
HETATM    4  C4  UNL     1     -35.928  15.742  -3.596  1.00 20.00     0.080 A 
HETATM    5  N8  UNL     1     -35.853  14.019  -7.055  1.00 20.00    -0.293 NA
HETATM    6  S9  UNL     1     -36.161  14.121  -4.408  1.00 20.00    -0.102 SA
HETATM    7  H20 UNL     1     -35.635  14.590  -7.881  1.00 20.00     0.187 HD
ENDROOT
BRANCH   4   8
HETATM    8  C7  UNL     1     -34.816  15.660  -2.560  1.00 20.00    -0.005 C 
HETATM    9  C5  UNL     1     -33.460  15.975  -3.196  1.00 20.00     0.011 C 
HETATM   10  C6  UNL     1     -35.089  16.611  -1.394  1.00 20.00     0.011 C 
ENDBRANCH   4   8
TORSDOF 1
ENDMDL
MODEL 6
REMARK VINA RESULT:      -4.0     10.259     11.420
REMARK  1 active torsions:
REMARK  status: ('A' for Active; 'I' for Inactive)
REMARK    1  A    between atoms: C4_4  and  C7_7 
ROOT
HETATM    1  C1  UNL     1     -41.112   5.517  -0.769  1.00 20.00     0.035 A 
HETATM    2  C2  UNL     1     -40.914   6.833  -0.884  1.00 20.00    -0.008 A 
HETATM    3  C3  UNL     1     -42.474   5.126  -1.153  1.00 20.00     0.085 A 
HETATM    4  C4  UNL     1     -42.045   7.686  -1.365  1.00 20.00     0.080 A 
HETATM    5  N8  UNL     1     -42.955   3.935  -1.144  1.00 20.00    -0.293 NA
HETATM    6  S9  UNL     1     -43.417   6.513  -1.650  1.00 20.00    -0.102 SA
HETATM    7  H20 UNL     1     -42.237   3.276  -0.822  1.00 20.00     0.187 HD
ENDROOT
BRANCH   4   8
HETATM    8  C7  UNL     1     -42.452   8.740  -0.346  1.00 20.00    -0.005 C 
HETATM    9  C5  UNL     1     -43.413   8.151   0.688  1.00 20.00     0.011 C 
HETATM   10  C6  UNL     1     -41.222   9.329   0.346  1.00 20.00     0.011 C 
ENDBRANCH   4   8
TORSDOF 1
ENDMDL
MODEL 7
REMARK VINA RESULT:      -3.9     10.564     11.779
REMARK  1 active torsions:
REMARK  status: ('A' for Active; 'I' for Inactive)
REMARK    1  A    between atoms: C4_4  and  C7_7 
ROOT
HETATM    1  C1  UNL     1     -43.143   5.041   0.346  1.00 20.00     0.035 A 
HETATM    2  C2  UNL     1     -42.894   6.107   1.110  1.00 20.00    -0.008 A 
HETATM    3  C3  UNL     1     -42.334   5.037  -0.880  1.00 20.00     0.085 A 
HETATM    4  C4  UNL     1     -41.877   7.099   0.643  1.00 20.00     0.080 A 
HETATM    5  N8  UNL     1     -42.356   4.146  -1.805  1.00 20.00    -0.293 NA
HETATM    6  S9  UNL     1     -41.285   6.436  -0.954  1.00 20.00    -0.102 SA
HETATM    7  H20 UNL     1     -43.036   3.416  -1.562  1.00 20.00     0.187 HD
ENDROOT
BRANCH   4   8
HETATM    8  C7  UNL     1     -42.467   8.490   0.453  1.00 20.00    -0.005 C 
HETATM    9  C5  UNL     1     -41.359   9.532   0.299  1.00 20.00     0.011 C 
HETATM   10  C6  UNL     1     -43.401   8.522  -0.757  1.00 20.00     0.011 C 
ENDBRANCH   4   8
TORSDOF 1
ENDMDL
MODEL 8
REMARK VINA RESULT:      -3.9     16.843     18.179
REMARK  1 active torsions:
REMARK  status: ('A' for Active; 'I' for Inactive)
REMARK    1  A    between atoms: C4_4  and  C7_7 
ROOT
HETATM    1  C1  UNL     1     -25.094  17.286  11.216  1.00 20.00     0.035 A 
HETATM    2  C2  UNL     1     -24.994  18.367  10.437  1.00 20.00    -0.008 A 
HETATM    3  C3  UNL     1     -23.782  16.711  11.537  1.00 20.00     0.085 A 
HETATM    4  C4  UNL     1     -23.631  18.823  10.022  1.00 20.00     0.080 A 
HETATM    5  N8  UNL     1     -23.562  15.673  12.262  1.00 20.00    -0.293 NA
HETATM    6  S9  UNL     1     -22.487  17.629  10.801  1.00 20.00    -0.102 SA
HETATM    7  H20 UNL     1     -24.455  15.290  12.593  1.00 20.00     0.187 HD
ENDROOT
BRANCH   4   8
HETATM    8  C7  UNL     1     -23.453  18.819   8.510  1.00 20.00    -0.005 C 
HETATM    9  C5  UNL     1     -22.572  17.648   8.072  1.00 20.00     0.011 C 
HETATM   10  C6  UNL     1     -24.808  18.758   7.804  1.00 20.00     0.011 C 
ENDBRANCH   4   8
TORSDOF 1
ENDMDL
MODEL 9
REMARK VINA RESULT:      -3.8     11.550     12.007
REMARK  1 active torsions:
REMARK  status: ('A' for Active; 'I' for Inactive)
REMARK    1  A    between atoms: C4_4  and  C7_7 
ROOT
HETATM    1  C1  UNL     1     -34.111   4.148   3.871  1.00 20.00     0.035 A 
HETATM    2  C2  UNL     1     -33.692   4.782   2.773  1.00 20.00    -0.008 A 
HETATM    3  C3  UNL     1     -34.543   5.082   4.919  1.00 20.00     0.085 A 
HETATM    4  C4  UNL     1     -33.721   6.278   2.757  1.00 20.00     0.080 A 
HETATM    5  N8  UNL     1     -34.992   4.768   6.081  1.00 20.00    -0.293 NA
HETATM    6  S9  UNL     1     -34.380   6.744   4.397  1.00 20.00    -0.102 SA
HETATM    7  H20 UNL     1     -35.006   3.746   6.180  1.00 20.00     0.187 HD
ENDROOT
BRANCH   4   8
HETATM    8  C7  UNL     1     -32.340   6.883   2.549  1.00 20.00    -0.005 C 
HETATM    9  C5  UNL     1     -32.340   7.835   1.352  1.00 20.00     0.011 C 
HETATM   10  C6  UNL     1     -31.872   7.612   3.808  1.00 20.00     0.011 C 
ENDBRANCH   4   8
TORSDOF 1
ENDMDL
