MODEL 1
REMARK VINA RESULT:      -5.0      0.000      0.000
REMARK  2 active torsions:
REMARK  status: ('A' for Active; 'I' for Inactive)
REMARK    1  A    between atoms: C3_3  and  C7_7 
REMARK    2  A    between atoms: C3_3  and  O11_11 
ROOT
HETATM    1  C1  UNL     1     -35.179  15.630  -4.155  1.00 20.00    -0.070 C 
HETATM    2  C2  UNL     1     -35.305  15.946  -2.861  1.00 20.00    -0.027 C 
HETATM    3  C4  UNL     1     -33.894  15.742  -4.927  1.00 20.00     0.034 C 
HETATM    4  C5  UNL     1     -34.177  14.946  -6.194  1.00 20.00     0.005 C 
HETATM    5  C6  UNL     1     -35.670  15.147  -6.435  1.00 20.00     0.019 C 
HETATM    6  C7  UNL     1     -36.289  15.133  -5.039  1.00 20.00     0.114 C 
HETATM    7  C8  UNL     1     -34.186  16.452  -2.012  1.00 20.00     0.036 C 
ENDROOT
BRANCH   6   8
HETATM    8  C3  UNL     1     -36.664  13.743  -4.620  1.00 20.00     0.266 C 
HETATM    9  O10 UNL     1     -35.864  12.825  -4.495  1.00 20.00    -0.265 OA
BRANCH   8  10
HETATM   10  O11 UNL     1     -38.009  13.678  -4.409  1.00 20.00    -0.326 OA
HETATM   11  C9  UNL     1     -38.663  14.936  -4.214  1.00 20.00     0.213 C 
ENDBRANCH   8  10
ENDBRANCH   6   8
TORSDOF 2
ENDMDL
MODEL 2
REMARK VINA RESULT:      -5.0      1.007      1.222
REMARK  2 active torsions:
REMARK  status: ('A' for Active; 'I' for Inactive)
REMARK    1  A    between atoms: C3_3  and  C7_7 
REMARK    2  A    between atoms: C3_3  and  O11_11 
ROOT
HETATM    1  C1  UNL     1     -34.823  15.582  -3.420  1.00 20.00    -0.070 C 
HETATM    2  C2  UNL     1     -35.579  16.053  -2.422  1.00 20.00    -0.027 C 
HETATM    3  C4  UNL     1     -33.320  15.615  -3.426  1.00 20.00     0.034 C 
HETATM    4  C5  UNL     1     -32.955  14.664  -4.558  1.00 20.00     0.005 C 
HETATM    5  C6  UNL     1     -34.099  14.814  -5.556  1.00 20.00     0.019 C 
HETATM    6  C7  UNL     1     -35.347  14.965  -4.688  1.00 20.00     0.114 C 
HETATM    7  C8  UNL     1     -35.030  16.674  -1.181  1.00 20.00     0.036 C 
ENDROOT
BRANCH   6   8
HETATM    8  C3  UNL     1     -35.956  13.632  -4.370  1.00 20.00     0.266 C 
HETATM    9  O10 UNL     1     -35.309  12.621  -4.136  1.00 20.00    -0.265 OA
BRANCH   8  10
HETATM   10  O11 UNL     1     -37.315  13.738  -4.386  1.00 20.00    -0.326 OA
HETATM   11  C9  UNL     1     -37.833  14.937  -4.969  1.00 20.00     0.213 C 
ENDBRANCH   8  10
ENDBRANCH   6   8
TORSDOF 2
ENDMDL
MODEL 3
REMARK VINA RESULT:      -4.4      2.321      3.538
REMARK  2 active torsions:
REMARK  status: ('A' for Active; 'I' for Inactive)
REMARK    1  A    between atoms: C3_3  and  C7_7 
REMARK    2  A    between atoms: C3_3  and  O11_11 
ROOT
HETATM    1  C1  UNL     1     -33.943  15.902  -3.170  1.00 20.00    -0.070 C 
HETATM    2  C2  UNL     1     -32.912  16.703  -2.874  1.00 20.00    -0.027 C 
HETATM    3  C4  UNL     1     -35.241  15.886  -2.411  1.00 20.00     0.034 C 
HETATM    4  C5  UNL     1     -36.173  15.109  -3.331  1.00 20.00     0.005 C 
HETATM    5  C6  UNL     1     -35.257  14.115  -4.038  1.00 20.00     0.019 C 
HETATM    6  C7  UNL     1     -33.965  14.892  -4.283  1.00 20.00     0.114 C 
HETATM    7  C8  UNL     1     -32.915  17.686  -1.751  1.00 20.00     0.036 C 
ENDROOT
BRANCH   6   8
HETATM    8  C3  UNL     1     -34.001  15.612  -5.598  1.00 20.00     0.266 C 
HETATM    9  O10 UNL     1     -34.340  16.780  -5.730  1.00 20.00    -0.265 OA
BRANCH   8  10
HETATM   10  O11 UNL     1     -33.603  14.767  -6.591  1.00 20.00    -0.326 OA
HETATM   11  C9  UNL     1     -33.967  15.163  -7.917  1.00 20.00     0.213 C 
ENDBRANCH   8  10
ENDBRANCH   6   8
TORSDOF 2
ENDMDL
MODEL 4
REMARK VINA RESULT:      -4.3      1.215      2.854
REMARK  2 active torsions:
REMARK  status: ('A' for Active; 'I' for Inactive)
REMARK    1  A    between atoms: C3_3  and  C7_7 
REMARK    2  A    between atoms: C3_3  and  O11_11 
ROOT
HETATM    1  C1  UNL     1     -34.247  15.423  -5.376  1.00 20.00    -0.070 C 
HETATM    2  C2  UNL     1     -34.124  14.995  -6.638  1.00 20.00    -0.027 C 
HETATM    3  C4  UNL     1     -34.287  16.872  -4.979  1.00 20.00     0.034 C 
HETATM    4  C5  UNL     1     -34.792  16.827  -3.543  1.00 20.00     0.005 C 
HETATM    5  C6  UNL     1     -34.243  15.512  -2.996  1.00 20.00     0.019 C 
HETATM    6  C7  UNL     1     -34.348  14.537  -4.166  1.00 20.00     0.114 C 
HETATM    7  C8  UNL     1     -34.009  15.901  -7.819  1.00 20.00     0.036 C 
ENDROOT
BRANCH   6   8
HETATM    8  C3  UNL     1     -35.676  13.839  -4.179  1.00 20.00     0.266 C 
HETATM    9  O10 UNL     1     -35.843  12.689  -4.562  1.00 20.00    -0.265 OA
BRANCH   8  10
HETATM   10  O11 UNL     1     -36.637  14.682  -3.705  1.00 20.00    -0.326 OA
HETATM   11  C9  UNL     1     -37.907  14.597  -4.359  1.00 20.00     0.213 C 
ENDBRANCH   8  10
ENDBRANCH   6   8
TORSDOF 2
ENDMDL
MODEL 5
REMARK VINA RESULT:      -4.1      1.275      2.386
REMARK  2 active torsions:
REMARK  status: ('A' for Active; 'I' for Inactive)
REMARK    1  A    between atoms: C3_3  and  C7_7 
REMARK    2  A    between atoms: C3_3  and  O11_11 
ROOT
HETATM    1  C1  UNL     1     -35.869  15.762  -3.442  1.00 20.00    -0.070 C 
HETATM    2  C2  UNL     1     -34.743  15.507  -2.765  1.00 20.00    -0.027 C 
HETATM    3  C4  UNL     1     -36.276  17.130  -3.912  1.00 20.00     0.034 C 
HETATM    4  C5  UNL     1     -37.391  16.839  -4.908  1.00 20.00     0.005 C 
HETATM    5  C6  UNL     1     -38.057  15.578  -4.366  1.00 20.00     0.019 C 
HETATM    6  C7  UNL     1     -36.902  14.738  -3.824  1.00 20.00     0.114 C 
HETATM    7  C8  UNL     1     -33.743  16.548  -2.386  1.00 20.00     0.036 C 
ENDROOT
BRANCH   6   8
HETATM    8  C3  UNL     1     -36.335  13.841  -4.883  1.00 20.00     0.266 C 
HETATM    9  O10 UNL     1     -35.832  12.748  -4.658  1.00 20.00    -0.265 OA
BRANCH   8  10
HETATM   10  O11 UNL     1     -36.470  14.433  -6.103  1.00 20.00    -0.326 OA
HETATM   11  C9  UNL     1     -35.247  14.716  -6.789  1.00 20.00     0.213 C 
ENDBRANCH   8  10
ENDBRANCH   6   8
TORSDOF 2
ENDMDL
MODEL 6
REMARK VINA RESULT:      -4.0      2.021      3.375
REMARK  2 active torsions:
REMARK  status: ('A' for Active; 'I' for Inactive)
REMARK    1  A    between atoms: C3_3  and  C7_7 
REMARK    2  A    between atoms: C3_3  and  O11_11 
ROOT
HETATM    1  C1  UNL     1     -34.255  15.624  -3.126  1.00 20.00    -0.070 C 
HETATM    2  C2  UNL     1     -33.982  14.666  -4.018  1.00 20.00    -0.027 C 
HETATM    3  C4  UNL     1     -33.217  16.513  -2.500  1.00 20.00     0.034 C 
HETATM    4  C5  UNL     1     -34.043  17.627  -1.871  1.00 20.00     0.005 C 
HETATM    5  C6  UNL     1     -35.347  16.944  -1.470  1.00 20.00     0.019 C 
HETATM    6  C7  UNL     1     -35.625  15.954  -2.599  1.00 20.00     0.114 C 
HETATM    7  C8  UNL     1     -32.608  14.351  -4.510  1.00 20.00     0.036 C 
ENDROOT
BRANCH   6   8
HETATM    8  C3  UNL     1     -36.431  16.586  -3.694  1.00 20.00     0.266 C 
HETATM    9  O10 UNL     1     -36.017  17.476  -4.425  1.00 20.00    -0.265 OA
BRANCH   8  10
HETATM   10  O11 UNL     1     -37.669  16.017  -3.734  1.00 20.00    -0.326 OA
HETATM   11  C9  UNL     1     -37.728  14.712  -4.319  1.00 20.00     0.213 C 
ENDBRANCH   8  10
ENDBRANCH   6   8
TORSDOF 2
ENDMDL
MODEL 7
REMARK VINA RESULT:      -4.0      3.139      4.654
REMARK  2 active torsions:
REMARK  status: ('A' for Active; 'I' for Inactive)
REMARK    1  A    between atoms: C3_3  and  C7_7 
REMARK    2  A    between atoms: C3_3  and  O11_11 
ROOT
HETATM    1  C1  UNL     1     -34.414  16.182  -2.383  1.00 20.00    -0.070 C 
HETATM    2  C2  UNL     1     -35.179  15.207  -2.888  1.00 20.00    -0.027 C 
HETATM    3  C4  UNL     1     -33.030  16.504  -2.872  1.00 20.00     0.034 C 
HETATM    4  C5  UNL     1     -32.751  17.869  -2.256  1.00 20.00     0.005 C 
HETATM    5  C6  UNL     1     -33.513  17.844  -0.934  1.00 20.00     0.019 C 
HETATM    6  C7  UNL     1     -34.803  17.091  -1.250  1.00 20.00     0.114 C 
HETATM    7  C8  UNL     1     -34.758  14.309  -4.003  1.00 20.00     0.036 C 
ENDROOT
BRANCH   6   8
HETATM    8  C3  UNL     1     -35.881  18.023  -1.718  1.00 20.00     0.266 C 
HETATM    9  O10 UNL     1     -35.722  18.877  -2.580  1.00 20.00    -0.265 OA
BRANCH   8  10
HETATM   10  O11 UNL     1     -37.034  17.764  -1.038  1.00 20.00    -0.326 OA
HETATM   11  C9  UNL     1     -37.062  18.214   0.320  1.00 20.00     0.213 C 
ENDBRANCH   8  10
ENDBRANCH   6   8
TORSDOF 2
ENDMDL
MODEL 8
REMARK VINA RESULT:      -4.0      1.675      3.540
REMARK  2 active torsions:
REMARK  status: ('A' for Active; 'I' for Inactive)
REMARK    1  A    between atoms: C3_3  and  C7_7 
REMARK    2  A    between atoms: C3_3  and  O11_11 
ROOT
HETATM    1  C1  UNL     1     -35.707  16.271  -3.916  1.00 20.00    -0.070 C 
HETATM    2  C2  UNL     1     -36.865  16.156  -4.575  1.00 20.00    -0.027 C 
HETATM    3  C4  UNL     1     -35.599  16.628  -2.459  1.00 20.00     0.034 C 
HETATM    4  C5  UNL     1     -34.157  16.276  -2.119  1.00 20.00     0.005 C 
HETATM    5  C6  UNL     1     -33.394  16.539  -3.414  1.00 20.00     0.019 C 
HETATM    6  C7  UNL     1     -34.343  16.079  -4.518  1.00 20.00     0.114 C 
HETATM    7  C8  UNL     1     -38.205  16.369  -3.952  1.00 20.00     0.036 C 
ENDROOT
BRANCH   6   8
HETATM    8  C3  UNL     1     -34.148  14.627  -4.837  1.00 20.00     0.266 C 
HETATM    9  O10 UNL     1     -34.491  13.711  -4.102  1.00 20.00    -0.265 OA
BRANCH   8  10
HETATM   10  O11 UNL     1     -33.540  14.505  -6.051  1.00 20.00    -0.326 OA
HETATM   11  C9  UNL     1     -34.133  15.256  -7.115  1.00 20.00     0.213 C 
ENDBRANCH   8  10
ENDBRANCH   6   8
TORSDOF 2
ENDMDL
MODEL 9
REMARK VINA RESULT:      -3.9      3.232      4.486
REMARK  2 active torsions:
REMARK  status: ('A' for Active; 'I' for Inactive)
REMARK    1  A    between atoms: C3_3  and  C7_7 
REMARK    2  A    between atoms: C3_3  and  O11_11 
ROOT
HETATM    1  C1  UNL     1     -34.211  16.715  -1.917  1.00 20.00    -0.070 C 
HETATM    2  C2  UNL     1     -34.437  17.479  -0.842  1.00 20.00    -0.027 C 
HETATM    3  C4  UNL     1     -35.152  15.648  -2.404  1.00 20.00     0.034 C 
HETATM    4  C5  UNL     1     -34.639  15.344  -3.806  1.00 20.00     0.005 C 
HETATM    5  C6  UNL     1     -33.134  15.576  -3.711  1.00 20.00     0.019 C 
HETATM    6  C7  UNL     1     -32.990  16.788  -2.792  1.00 20.00     0.114 C 
HETATM    7  C8  UNL     1     -35.652  17.373   0.017  1.00 20.00     0.036 C 
ENDROOT
BRANCH   6   8
HETATM    8  C3  UNL     1     -33.020  18.070  -3.570  1.00 20.00     0.266 C 
HETATM    9  O10 UNL     1     -32.435  19.090  -3.232  1.00 20.00    -0.265 OA
BRANCH   8  10
HETATM   10  O11 UNL     1     -33.789  17.910  -4.684  1.00 20.00    -0.326 OA
HETATM   11  C9  UNL     1     -34.763  18.934  -4.912  1.00 20.00     0.213 C 
ENDBRANCH   8  10
ENDBRANCH   6   8
TORSDOF 2
ENDMDL
