MODEL 1
REMARK VINA RESULT:      -5.2      0.000      0.000
REMARK  0 active torsions:
REMARK  status: ('A' for Active; 'I' for Inactive)
ROOT
HETATM    1  C1  UNL     1     -33.949   4.460   3.554  1.00 20.00     0.222 C 
HETATM    2  C2  UNL     1     -34.212   6.635   6.310  1.00 20.00     0.001 C 
HETATM    3  C3  UNL     1     -34.878   5.391   5.729  1.00 20.00     0.014 C 
HETATM    4  C4  UNL     1     -33.209   7.053   5.248  1.00 20.00     0.007 C 
HETATM    5  C5  UNL     1     -33.112   6.519   2.747  1.00 20.00     0.128 C 
HETATM    6  C6  UNL     1     -34.782   5.543   4.211  1.00 20.00     0.083 C 
HETATM    7  C7  UNL     1     -33.980   6.827   3.950  1.00 20.00     0.016 C 
HETATM    8  N8  UNL     1     -33.013   5.085   2.739  1.00 20.00    -0.360 N 
HETATM    9  O9  UNL     1     -34.100   3.257   3.705  1.00 20.00    -0.273 OA
HETATM   10  H20 UNL     1     -32.326   4.579   2.190  1.00 20.00     0.162 HD
ENDROOT
TORSDOF 0
ENDMDL
MODEL 2
REMARK VINA RESULT:      -5.0      2.156      3.504
REMARK  0 active torsions:
REMARK  status: ('A' for Active; 'I' for Inactive)
ROOT
HETATM    1  C1  UNL     1     -33.484   6.906   5.170  1.00 20.00     0.222 C 
HETATM    2  C2  UNL     1     -33.376   4.631   2.485  1.00 20.00     0.001 C 
HETATM    3  C3  UNL     1     -33.111   6.103   2.787  1.00 20.00     0.014 C 
HETATM    4  C4  UNL     1     -33.971   4.086   3.772  1.00 20.00     0.007 C 
HETATM    5  C5  UNL     1     -35.121   5.290   5.716  1.00 20.00     0.128 C 
HETATM    6  C6  UNL     1     -34.127   6.494   3.860  1.00 20.00     0.083 C 
HETATM    7  C7  UNL     1     -34.897   5.214   4.220  1.00 20.00     0.016 C 
HETATM    8  N8  UNL     1     -34.093   6.177   6.184  1.00 20.00    -0.360 N 
HETATM    9  O9  UNL     1     -32.607   7.747   5.297  1.00 20.00    -0.273 OA
HETATM   10  H20 UNL     1     -33.836   6.264   7.162  1.00 20.00     0.162 HD
ENDROOT
TORSDOF 0
ENDMDL
MODEL 3
REMARK VINA RESULT:      -5.0      1.077      1.172
REMARK  0 active torsions:
REMARK  status: ('A' for Active; 'I' for Inactive)
ROOT
HETATM    1  C1  UNL     1     -33.317   5.187   2.798  1.00 20.00     0.222 C 
HETATM    2  C2  UNL     1     -34.684   5.481   6.029  1.00 20.00     0.001 C 
HETATM    3  C3  UNL     1     -34.862   4.670   4.749  1.00 20.00     0.014 C 
HETATM    4  C4  UNL     1     -33.651   6.534   5.665  1.00 20.00     0.007 C 
HETATM    5  C5  UNL     1     -32.938   7.447   3.382  1.00 20.00     0.128 C 
HETATM    6  C6  UNL     1     -34.524   5.625   3.605  1.00 20.00     0.083 C 
HETATM    7  C7  UNL     1     -34.069   6.941   4.254  1.00 20.00     0.016 C 
HETATM    8  N8  UNL     1     -32.451   6.270   2.716  1.00 20.00    -0.360 N 
HETATM    9  O9  UNL     1     -33.160   4.084   2.297  1.00 20.00    -0.273 OA
HETATM   10  H20 UNL     1     -31.560   6.234   2.231  1.00 20.00     0.162 HD
ENDROOT
TORSDOF 0
ENDMDL
MODEL 4
REMARK VINA RESULT:      -4.6      8.884      9.587
REMARK  0 active torsions:
REMARK  status: ('A' for Active; 'I' for Inactive)
ROOT
HETATM    1  C1  UNL     1     -41.501   5.587  -0.596  1.00 20.00     0.222 C 
HETATM    2  C2  UNL     1     -42.351   8.961  -0.058  1.00 20.00     0.001 C 
HETATM    3  C3  UNL     1     -41.161   8.103  -0.480  1.00 20.00     0.014 C 
HETATM    4  C4  UNL     1     -43.417   7.953   0.336  1.00 20.00     0.007 C 
HETATM    5  C5  UNL     1     -43.213   5.498   1.032  1.00 20.00     0.128 C 
HETATM    6  C6  UNL     1     -41.299   6.795   0.298  1.00 20.00     0.083 C 
HETATM    7  C7  UNL     1     -42.616   6.890   1.083  1.00 20.00     0.016 C 
HETATM    8  N8  UNL     1     -42.611   4.897  -0.126  1.00 20.00    -0.360 N 
HETATM    9  O9  UNL     1     -40.792   5.277  -1.541  1.00 20.00    -0.273 OA
HETATM   10  H20 UNL     1     -42.963   4.048  -0.558  1.00 20.00     0.162 HD
ENDROOT
TORSDOF 0
ENDMDL
MODEL 5
REMARK VINA RESULT:      -4.5     12.396     12.984
REMARK  0 active torsions:
REMARK  status: ('A' for Active; 'I' for Inactive)
ROOT
HETATM    1  C1  UNL     1     -34.395  14.789  -5.856  1.00 20.00     0.222 C 
HETATM    2  C2  UNL     1     -33.952  16.038  -2.594  1.00 20.00     0.001 C 
HETATM    3  C3  UNL     1     -33.139  15.693  -3.839  1.00 20.00     0.014 C 
HETATM    4  C4  UNL     1     -35.356  15.559  -2.919  1.00 20.00     0.007 C 
HETATM    5  C5  UNL     1     -36.175  13.835  -4.625  1.00 20.00     0.128 C 
HETATM    6  C6  UNL     1     -33.845  14.495  -4.473  1.00 20.00     0.083 C 
HETATM    7  C7  UNL     1     -35.103  14.232  -3.631  1.00 20.00     0.016 C 
HETATM    8  N8  UNL     1     -35.727  14.395  -5.871  1.00 20.00    -0.360 N 
HETATM    9  O9  UNL     1     -33.761  15.264  -6.786  1.00 20.00    -0.273 OA
HETATM   10  H20 UNL     1     -36.327  14.493  -6.683  1.00 20.00     0.162 HD
ENDROOT
TORSDOF 0
ENDMDL
MODEL 6
REMARK VINA RESULT:      -4.4     16.638     17.166
REMARK  0 active torsions:
REMARK  status: ('A' for Active; 'I' for Inactive)
ROOT
HETATM    1  C1  UNL     1     -22.411  17.381   8.549  1.00 20.00     0.222 C 
HETATM    2  C2  UNL     1     -25.359  19.263   8.956  1.00 20.00     0.001 C 
HETATM    3  C3  UNL     1     -24.158  19.151   8.021  1.00 20.00     0.014 C 
HETATM    4  C4  UNL     1     -25.042  18.303  10.090  1.00 20.00     0.007 C 
HETATM    5  C5  UNL     1     -22.805  17.340  10.880  1.00 20.00     0.128 C 
HETATM    6  C6  UNL     1     -22.983  18.740   8.907  1.00 20.00     0.083 C 
HETATM    7  C7  UNL     1     -23.550  18.534  10.320  1.00 20.00     0.016 C 
HETATM    8  N8  UNL     1     -22.344  16.633   9.717  1.00 20.00    -0.360 N 
HETATM    9  O9  UNL     1     -22.057  17.032   7.433  1.00 20.00    -0.273 OA
HETATM   10  H20 UNL     1     -22.001  15.678   9.747  1.00 20.00     0.162 HD
ENDROOT
TORSDOF 0
ENDMDL
MODEL 7
REMARK VINA RESULT:      -4.3     12.462     13.046
REMARK  0 active torsions:
REMARK  status: ('A' for Active; 'I' for Inactive)
ROOT
HETATM    1  C1  UNL     1     -36.424  14.320  -4.985  1.00 20.00     0.222 C 
HETATM    2  C2  UNL     1     -33.997  15.735  -2.863  1.00 20.00     0.001 C 
HETATM    3  C3  UNL     1     -35.504  15.505  -2.933  1.00 20.00     0.014 C 
HETATM    4  C4  UNL     1     -33.485  15.280  -4.219  1.00 20.00     0.007 C 
HETATM    5  C5  UNL     1     -34.704  15.009  -6.454  1.00 20.00     0.128 C 
HETATM    6  C6  UNL     1     -35.869  15.610  -4.413  1.00 20.00     0.083 C 
HETATM    7  C7  UNL     1     -34.551  15.809  -5.176  1.00 20.00     0.016 C 
HETATM    8  N8  UNL     1     -35.711  14.033  -6.142  1.00 20.00    -0.360 N 
HETATM    9  O9  UNL     1     -37.348  13.674  -4.515  1.00 20.00    -0.273 OA
HETATM   10  H20 UNL     1     -35.884  13.212  -6.713  1.00 20.00     0.162 HD
ENDROOT
TORSDOF 0
ENDMDL
MODEL 8
REMARK VINA RESULT:      -4.3      9.096      9.622
REMARK  0 active torsions:
REMARK  status: ('A' for Active; 'I' for Inactive)
ROOT
HETATM    1  C1  UNL     1     -42.760   5.717   0.851  1.00 20.00     0.222 C 
HETATM    2  C2  UNL     1     -42.259   9.082  -0.057  1.00 20.00     0.001 C 
HETATM    3  C3  UNL     1     -43.323   8.179   0.560  1.00 20.00     0.014 C 
HETATM    4  C4  UNL     1     -41.155   8.127  -0.476  1.00 20.00     0.007 C 
HETATM    5  C5  UNL     1     -41.216   5.609  -0.937  1.00 20.00     0.128 C 
HETATM    6  C6  UNL     1     -43.152   6.819  -0.115  1.00 20.00     0.083 C 
HETATM    7  C7  UNL     1     -41.932   6.941  -1.041  1.00 20.00     0.016 C 
HETATM    8  N8  UNL     1     -41.647   5.074   0.325  1.00 20.00    -0.360 N 
HETATM    9  O9  UNL     1     -43.343   5.443   1.889  1.00 20.00    -0.273 OA
HETATM   10  H20 UNL     1     -41.183   4.298   0.787  1.00 20.00     0.162 HD
ENDROOT
TORSDOF 0
ENDMDL
MODEL 9
REMARK VINA RESULT:      -4.2     15.845     16.609
REMARK  0 active torsions:
REMARK  status: ('A' for Active; 'I' for Inactive)
ROOT
HETATM    1  C1  UNL     1     -25.201  16.581  11.670  1.00 20.00     0.222 C 
HETATM    2  C2  UNL     1     -24.689  19.261   9.445  1.00 20.00     0.001 C 
HETATM    3  C3  UNL     1     -23.909  18.153  10.147  1.00 20.00     0.014 C 
HETATM    4  C4  UNL     1     -26.087  19.166  10.034  1.00 20.00     0.007 C 
HETATM    5  C5  UNL     1     -26.903  18.127  12.226  1.00 20.00     0.128 C 
HETATM    6  C6  UNL     1     -24.594  17.960  11.499  1.00 20.00     0.083 C 
HETATM    7  C7  UNL     1     -25.812  18.897  11.511  1.00 20.00     0.016 C 
HETATM    8  N8  UNL     1     -26.519  16.750  12.078  1.00 20.00    -0.360 N 
HETATM    9  O9  UNL     1     -24.618  15.522  11.498  1.00 20.00    -0.273 OA
HETATM   10  H20 UNL     1     -27.150  15.975  12.256  1.00 20.00     0.162 HD
ENDROOT
TORSDOF 0
ENDMDL
