MODEL 1
REMARK VINA RESULT:      -3.8      0.000      0.000
REMARK  2 active torsions:
REMARK  status: ('A' for Active; 'I' for Inactive)
REMARK    1  A    between atoms: C1_1  and  C3_3 
REMARK    2  A    between atoms: C1_1  and  C8_8 
ROOT
HETATM    1  C1  UNL     1     -35.721  13.946  -4.159  1.00 20.00     0.134 C 
HETATM    2  O9  UNL     1     -35.963  12.841  -4.645  1.00 20.00    -0.297 OA
ENDROOT
BRANCH   1   3
HETATM    3  C3  UNL     1     -36.839  14.903  -3.827  1.00 20.00     0.060 A 
HETATM    4  C2  UNL     1     -38.181  14.641  -4.415  1.00 20.00     0.017 A 
HETATM    5  C4  UNL     1     -37.366  15.814  -4.882  1.00 20.00    -0.007 A 
HETATM    6  C5  UNL     1     -36.841  15.849  -6.276  1.00 20.00     0.011 C 
ENDBRANCH   1   3
BRANCH   1   7
HETATM    7  C8  UNL     1     -34.303  14.403  -3.832  1.00 20.00     0.048 C 
HETATM    8  C6  UNL     1     -33.558  14.745  -5.116  1.00 20.00     0.017 C 
HETATM    9  C7  UNL     1     -34.319  15.595  -2.879  1.00 20.00     0.017 C 
ENDBRANCH   1   7
TORSDOF 2
ENDMDL
MODEL 2
REMARK VINA RESULT:      -3.8      1.930      3.233
REMARK  2 active torsions:
REMARK  status: ('A' for Active; 'I' for Inactive)
REMARK    1  A    between atoms: C1_1  and  C3_3 
REMARK    2  A    between atoms: C1_1  and  C8_8 
ROOT
HETATM    1  C1  UNL     1     -34.164  14.567  -4.496  1.00 20.00     0.134 C 
HETATM    2  O9  UNL     1     -33.177  13.830  -4.488  1.00 20.00    -0.297 OA
ENDROOT
BRANCH   1   3
HETATM    3  C3  UNL     1     -34.834  14.971  -3.206  1.00 20.00     0.060 A 
HETATM    4  C2  UNL     1     -35.536  16.283  -3.165  1.00 20.00     0.017 A 
HETATM    5  C4  UNL     1     -34.261  16.082  -2.396  1.00 20.00    -0.007 A 
HETATM    6  C5  UNL     1     -33.032  16.833  -2.780  1.00 20.00     0.011 C 
ENDBRANCH   1   3
BRANCH   1   7
HETATM    7  C8  UNL     1     -34.745  15.140  -5.784  1.00 20.00     0.048 C 
HETATM    8  C6  UNL     1     -33.705  15.081  -6.896  1.00 20.00     0.017 C 
HETATM    9  C7  UNL     1     -36.016  14.397  -6.188  1.00 20.00     0.017 C 
ENDBRANCH   1   7
TORSDOF 2
ENDMDL
MODEL 3
REMARK VINA RESULT:      -3.8      1.395      1.894
REMARK  2 active torsions:
REMARK  status: ('A' for Active; 'I' for Inactive)
REMARK    1  A    between atoms: C1_1  and  C3_3 
REMARK    2  A    between atoms: C1_1  and  C8_8 
ROOT
HETATM    1  C1  UNL     1     -34.280  14.827  -3.754  1.00 20.00     0.134 C 
HETATM    2  O9  UNL     1     -33.506  14.150  -4.430  1.00 20.00    -0.297 OA
ENDROOT
BRANCH   1   3
HETATM    3  C3  UNL     1     -35.767  14.578  -3.805  1.00 20.00     0.060 A 
HETATM    4  C2  UNL     1     -36.289  13.673  -4.866  1.00 20.00     0.017 A 
HETATM    5  C4  UNL     1     -36.571  15.148  -4.922  1.00 20.00    -0.007 A 
HETATM    6  C5  UNL     1     -35.990  15.977  -6.015  1.00 20.00     0.011 C 
ENDBRANCH   1   3
BRANCH   1   7
HETATM    7  C8  UNL     1     -33.797  15.922  -2.809  1.00 20.00     0.048 C 
HETATM    8  C6  UNL     1     -33.331  17.132  -3.609  1.00 20.00     0.017 C 
HETATM    9  C7  UNL     1     -34.892  16.314  -1.820  1.00 20.00     0.017 C 
ENDBRANCH   1   7
TORSDOF 2
ENDMDL
MODEL 4
REMARK VINA RESULT:      -3.7     18.347     19.608
REMARK  2 active torsions:
REMARK  status: ('A' for Active; 'I' for Inactive)
REMARK    1  A    between atoms: C1_1  and  C3_3 
REMARK    2  A    between atoms: C1_1  and  C8_8 
ROOT
HETATM    1  C1  UNL     1     -23.584  17.980  11.046  1.00 20.00     0.134 C 
HETATM    2  O9  UNL     1     -22.644  17.940  11.841  1.00 20.00    -0.297 OA
ENDROOT
BRANCH   1   3
HETATM    3  C3  UNL     1     -23.481  18.779   9.770  1.00 20.00     0.060 A 
HETATM    4  C2  UNL     1     -24.284  18.332   8.599  1.00 20.00     0.017 A 
HETATM    5  C4  UNL     1     -22.788  18.192   8.588  1.00 20.00    -0.007 A 
HETATM    6  C5  UNL     1     -22.166  16.837   8.587  1.00 20.00     0.011 C 
ENDBRANCH   1   3
BRANCH   1   7
HETATM    7  C8  UNL     1     -24.881  17.211  11.274  1.00 20.00     0.048 C 
HETATM    8  C6  UNL     1     -24.570  15.776  11.683  1.00 20.00     0.017 C 
HETATM    9  C7  UNL     1     -25.747  17.900  12.326  1.00 20.00     0.017 C 
ENDBRANCH   1   7
TORSDOF 2
ENDMDL
MODEL 5
REMARK VINA RESULT:      -3.7     19.143     19.896
REMARK  2 active torsions:
REMARK  status: ('A' for Active; 'I' for Inactive)
REMARK    1  A    between atoms: C1_1  and  C3_3 
REMARK    2  A    between atoms: C1_1  and  C8_8 
ROOT
HETATM    1  C1  UNL     1     -24.755  17.108  11.198  1.00 20.00     0.134 C 
HETATM    2  O9  UNL     1     -24.710  15.883  11.318  1.00 20.00    -0.297 OA
ENDROOT
BRANCH   1   3
HETATM    3  C3  UNL     1     -23.872  17.817  10.201  1.00 20.00     0.060 A 
HETATM    4  C2  UNL     1     -22.774  17.041   9.563  1.00 20.00     0.017 A 
HETATM    5  C4  UNL     1     -22.457  18.122  10.557  1.00 20.00    -0.007 A 
HETATM    6  C5  UNL     1     -21.845  17.771  11.869  1.00 20.00     0.011 C 
ENDBRANCH   1   3
BRANCH   1   7
HETATM    7  C8  UNL     1     -25.713  17.975  12.009  1.00 20.00     0.048 C 
HETATM    8  C6  UNL     1     -26.021  19.260  11.251  1.00 20.00     0.017 C 
HETATM    9  C7  UNL     1     -26.997  17.214  12.332  1.00 20.00     0.017 C 
ENDBRANCH   1   7
TORSDOF 2
ENDMDL
MODEL 6
REMARK VINA RESULT:      -3.6      1.967      2.461
REMARK  2 active torsions:
REMARK  status: ('A' for Active; 'I' for Inactive)
REMARK    1  A    between atoms: C1_1  and  C3_3 
REMARK    2  A    between atoms: C1_1  and  C8_8 
ROOT
HETATM    1  C1  UNL     1     -35.837  16.072  -3.677  1.00 20.00     0.134 C 
HETATM    2  O9  UNL     1     -36.094  17.218  -4.048  1.00 20.00    -0.297 OA
ENDROOT
BRANCH   1   3
HETATM    3  C3  UNL     1     -36.517  14.886  -4.313  1.00 20.00     0.060 A 
HETATM    4  C2  UNL     1     -35.788  13.587  -4.328  1.00 20.00     0.017 A 
HETATM    5  C4  UNL     1     -36.003  14.348  -5.605  1.00 20.00    -0.007 A 
HETATM    6  C5  UNL     1     -34.839  14.928  -6.333  1.00 20.00     0.011 C 
ENDBRANCH   1   3
BRANCH   1   7
HETATM    7  C8  UNL     1     -34.806  15.776  -2.592  1.00 20.00     0.048 C 
HETATM    8  C6  UNL     1     -33.408  16.112  -3.098  1.00 20.00     0.017 C 
HETATM    9  C7  UNL     1     -35.121  16.548  -1.314  1.00 20.00     0.017 C 
ENDBRANCH   1   7
TORSDOF 2
ENDMDL
MODEL 7
REMARK VINA RESULT:      -3.6      1.596      3.454
REMARK  2 active torsions:
REMARK  status: ('A' for Active; 'I' for Inactive)
REMARK    1  A    between atoms: C1_1  and  C3_3 
REMARK    2  A    between atoms: C1_1  and  C8_8 
ROOT
HETATM    1  C1  UNL     1     -34.436  14.948  -4.762  1.00 20.00     0.134 C 
HETATM    2  O9  UNL     1     -33.764  14.599  -5.733  1.00 20.00    -0.297 OA
ENDROOT
BRANCH   1   3
HETATM    3  C3  UNL     1     -33.795  15.143  -3.411  1.00 20.00     0.060 A 
HETATM    4  C2  UNL     1     -34.542  15.928  -2.390  1.00 20.00     0.017 A 
HETATM    5  C4  UNL     1     -33.301  16.494  -3.019  1.00 20.00    -0.007 A 
HETATM    6  C5  UNL     1     -33.392  17.691  -3.901  1.00 20.00     0.011 C 
ENDBRANCH   1   3
BRANCH   1   7
HETATM    7  C8  UNL     1     -35.931  15.236  -4.864  1.00 20.00     0.048 C 
HETATM    8  C6  UNL     1     -36.266  15.763  -6.254  1.00 20.00     0.017 C 
HETATM    9  C7  UNL     1     -36.751  13.989  -4.544  1.00 20.00     0.017 C 
ENDBRANCH   1   7
TORSDOF 2
ENDMDL
MODEL 8
REMARK VINA RESULT:      -3.6      0.919      3.560
REMARK  2 active torsions:
REMARK  status: ('A' for Active; 'I' for Inactive)
REMARK    1  A    between atoms: C1_1  and  C3_3 
REMARK    2  A    between atoms: C1_1  and  C8_8 
ROOT
HETATM    1  C1  UNL     1     -35.309  14.100  -4.720  1.00 20.00     0.134 C 
HETATM    2  O9  UNL     1     -35.143  13.011  -4.169  1.00 20.00    -0.297 OA
ENDROOT
BRANCH   1   3
HETATM    3  C3  UNL     1     -34.160  15.063  -4.883  1.00 20.00     0.060 A 
HETATM    4  C2  UNL     1     -32.889  14.763  -4.168  1.00 20.00     0.017 A 
HETATM    5  C4  UNL     1     -33.747  15.917  -3.734  1.00 20.00    -0.007 A 
HETATM    6  C5  UNL     1     -34.418  15.888  -2.404  1.00 20.00     0.011 C 
ENDBRANCH   1   3
BRANCH   1   7
HETATM    7  C8  UNL     1     -36.655  14.528  -5.297  1.00 20.00     0.048 C 
HETATM    8  C6  UNL     1     -37.649  14.773  -4.169  1.00 20.00     0.017 C 
HETATM    9  C7  UNL     1     -36.504  15.771  -6.169  1.00 20.00     0.017 C 
ENDBRANCH   1   7
TORSDOF 2
ENDMDL
MODEL 9
REMARK VINA RESULT:      -3.6      1.867      2.654
REMARK  2 active torsions:
REMARK  status: ('A' for Active; 'I' for Inactive)
REMARK    1  A    between atoms: C1_1  and  C3_3 
REMARK    2  A    between atoms: C1_1  and  C8_8 
ROOT
HETATM    1  C1  UNL     1     -34.732  15.866  -4.180  1.00 20.00     0.134 C 
HETATM    2  O9  UNL     1     -35.006  16.900  -4.790  1.00 20.00    -0.297 OA
ENDROOT
BRANCH   1   3
HETATM    3  C3  UNL     1     -34.932  14.516  -4.822  1.00 20.00     0.060 A 
HETATM    4  C2  UNL     1     -35.690  14.456  -6.102  1.00 20.00     0.017 A 
HETATM    5  C4  UNL     1     -36.290  13.903  -4.840  1.00 20.00    -0.007 A 
HETATM    6  C5  UNL     1     -37.492  14.549  -4.241  1.00 20.00     0.011 C 
ENDBRANCH   1   3
BRANCH   1   7
HETATM    7  C8  UNL     1     -34.149  15.879  -2.770  1.00 20.00     0.048 C 
HETATM    8  C6  UNL     1     -32.966  16.837  -2.705  1.00 20.00     0.017 C 
HETATM    9  C7  UNL     1     -35.212  16.257  -1.743  1.00 20.00     0.017 C 
ENDBRANCH   1   7
TORSDOF 2
ENDMDL
