MODEL 1
REMARK VINA RESULT:      -5.0      0.000      0.000
REMARK  2 active torsions:
REMARK  status: ('A' for Active; 'I' for Inactive)
REMARK    1  A    between atoms: C3_3  and  C7_7 
REMARK    2  A    between atoms: C3_3  and  O11_11 
ROOT
HETATM    1  C1  UNL     1     -35.011  15.251  -5.503  1.00 20.00    -0.070 C 
HETATM    2  C2  UNL     1     -35.164  15.188  -6.831  1.00 20.00    -0.027 C 
HETATM    3  C4  UNL     1     -33.690  15.458  -4.817  1.00 20.00     0.034 C 
HETATM    4  C5  UNL     1     -33.991  15.102  -3.366  1.00 20.00     0.005 C 
HETATM    5  C6  UNL     1     -35.449  15.507  -3.176  1.00 20.00     0.019 C 
HETATM    6  C7  UNL     1     -36.124  15.145  -4.497  1.00 20.00     0.114 C 
HETATM    7  C8  UNL     1     -34.044  15.330  -7.806  1.00 20.00     0.036 C 
ENDROOT
BRANCH   6   8
HETATM    8  C3  UNL     1     -36.637  13.736  -4.479  1.00 20.00     0.266 C 
HETATM    9  O10 UNL     1     -35.920  12.745  -4.528  1.00 20.00    -0.265 OA
BRANCH   8  10
HETATM   10  O11 UNL     1     -37.998  13.748  -4.403  1.00 20.00    -0.326 OA
HETATM   11  C9  UNL     1     -38.600  15.045  -4.355  1.00 20.00     0.213 C 
ENDBRANCH   8  10
ENDBRANCH   6   8
TORSDOF 2
ENDMDL
MODEL 2
REMARK VINA RESULT:      -4.7      1.775      3.247
REMARK  2 active torsions:
REMARK  status: ('A' for Active; 'I' for Inactive)
REMARK    1  A    between atoms: C3_3  and  C7_7 
REMARK    2  A    between atoms: C3_3  and  O11_11 
ROOT
HETATM    1  C1  UNL     1     -34.694  15.714  -2.604  1.00 20.00    -0.070 C 
HETATM    2  C2  UNL     1     -35.218  16.445  -1.613  1.00 20.00    -0.027 C 
HETATM    3  C4  UNL     1     -33.326  15.942  -3.184  1.00 20.00     0.034 C 
HETATM    4  C5  UNL     1     -33.351  15.123  -4.468  1.00 20.00     0.005 C 
HETATM    5  C6  UNL     1     -34.269  13.948  -4.145  1.00 20.00     0.019 C 
HETATM    6  C7  UNL     1     -35.370  14.550  -3.274  1.00 20.00     0.114 C 
HETATM    7  C8  UNL     1     -34.509  17.573  -0.944  1.00 20.00     0.036 C 
ENDROOT
BRANCH   6   8
HETATM    8  C3  UNL     1     -36.509  15.058  -4.107  1.00 20.00     0.266 C 
HETATM    9  O10 UNL     1     -36.485  16.109  -4.732  1.00 20.00    -0.265 OA
BRANCH   8  10
HETATM   10  O11 UNL     1     -37.546  14.174  -4.047  1.00 20.00    -0.326 OA
HETATM   11  C9  UNL     1     -38.848  14.741  -4.228  1.00 20.00     0.213 C 
ENDBRANCH   8  10
ENDBRANCH   6   8
TORSDOF 2
ENDMDL
MODEL 3
REMARK VINA RESULT:      -4.6     17.440     19.202
REMARK  2 active torsions:
REMARK  status: ('A' for Active; 'I' for Inactive)
REMARK    1  A    between atoms: C3_3  and  C7_7 
REMARK    2  A    between atoms: C3_3  and  O11_11 
ROOT
HETATM    1  C1  UNL     1     -23.693  18.468   8.789  1.00 20.00    -0.070 C 
HETATM    2  C2  UNL     1     -24.844  19.009   8.373  1.00 20.00    -0.027 C 
HETATM    3  C4  UNL     1     -22.658  17.883   7.870  1.00 20.00     0.034 C 
HETATM    4  C5  UNL     1     -21.751  17.106   8.816  1.00 20.00     0.005 C 
HETATM    5  C6  UNL     1     -21.799  17.900  10.118  1.00 20.00     0.019 C 
HETATM    6  C7  UNL     1     -23.246  18.377  10.222  1.00 20.00     0.114 C 
HETATM    7  C8  UNL     1     -25.245  19.115   6.940  1.00 20.00     0.036 C 
ENDROOT
BRANCH   6   8
HETATM    8  C3  UNL     1     -24.101  17.375  10.940  1.00 20.00     0.266 C 
HETATM    9  O10 UNL     1     -24.357  16.259  10.508  1.00 20.00    -0.265 OA
BRANCH   8  10
HETATM   10  O11 UNL     1     -24.532  17.906  12.120  1.00 20.00    -0.326 OA
HETATM   11  C9  UNL     1     -25.749  18.656  12.048  1.00 20.00     0.213 C 
ENDBRANCH   8  10
ENDBRANCH   6   8
TORSDOF 2
ENDMDL
MODEL 4
REMARK VINA RESULT:      -4.6      1.397      2.994
REMARK  2 active torsions:
REMARK  status: ('A' for Active; 'I' for Inactive)
REMARK    1  A    between atoms: C3_3  and  C7_7 
REMARK    2  A    between atoms: C3_3  and  O11_11 
ROOT
HETATM    1  C1  UNL     1     -34.353  15.809  -3.573  1.00 20.00    -0.070 C 
HETATM    2  C2  UNL     1     -34.436  15.946  -2.245  1.00 20.00    -0.027 C 
HETATM    3  C4  UNL     1     -34.274  16.961  -4.534  1.00 20.00     0.034 C 
HETATM    4  C5  UNL     1     -34.554  16.311  -5.884  1.00 20.00     0.005 C 
HETATM    5  C6  UNL     1     -33.984  14.903  -5.745  1.00 20.00     0.019 C 
HETATM    6  C7  UNL     1     -34.306  14.498  -4.308  1.00 20.00     0.114 C 
HETATM    7  C8  UNL     1     -34.447  17.261  -1.542  1.00 20.00     0.036 C 
ENDROOT
BRANCH   6   8
HETATM    8  C3  UNL     1     -35.649  13.835  -4.216  1.00 20.00     0.266 C 
HETATM    9  O10 UNL     1     -35.858  12.669  -4.521  1.00 20.00    -0.265 OA
BRANCH   8  10
HETATM   10  O11 UNL     1     -36.567  14.728  -3.749  1.00 20.00    -0.326 OA
HETATM   11  C9  UNL     1     -37.862  14.651  -4.353  1.00 20.00     0.213 C 
ENDBRANCH   8  10
ENDBRANCH   6   8
TORSDOF 2
ENDMDL
MODEL 5
REMARK VINA RESULT:      -4.5      1.307      1.326
REMARK  2 active torsions:
REMARK  status: ('A' for Active; 'I' for Inactive)
REMARK    1  A    between atoms: C3_3  and  C7_7 
REMARK    2  A    between atoms: C3_3  and  O11_11 
ROOT
HETATM    1  C1  UNL     1     -34.975  16.323  -4.701  1.00 20.00    -0.070 C 
HETATM    2  C2  UNL     1     -35.278  16.525  -5.989  1.00 20.00    -0.027 C 
HETATM    3  C4  UNL     1     -33.739  16.857  -4.034  1.00 20.00     0.034 C 
HETATM    4  C5  UNL     1     -33.683  16.077  -2.726  1.00 20.00     0.005 C 
HETATM    5  C6  UNL     1     -35.147  15.826  -2.378  1.00 20.00     0.019 C 
HETATM    6  C7  UNL     1     -35.820  15.556  -3.722  1.00 20.00     0.114 C 
HETATM    7  C8  UNL     1     -34.435  17.320  -6.928  1.00 20.00     0.036 C 
ENDROOT
BRANCH   6   8
HETATM    8  C3  UNL     1     -35.777  14.098  -4.072  1.00 20.00     0.266 C 
HETATM    9  O10 UNL     1     -34.745  13.446  -4.161  1.00 20.00    -0.265 OA
BRANCH   8  10
HETATM   10  O11 UNL     1     -37.045  13.639  -4.270  1.00 20.00    -0.326 OA
HETATM   11  C9  UNL     1     -38.064  14.644  -4.306  1.00 20.00     0.213 C 
ENDBRANCH   8  10
ENDBRANCH   6   8
TORSDOF 2
ENDMDL
MODEL 6
REMARK VINA RESULT:      -4.5      2.383      4.176
REMARK  2 active torsions:
REMARK  status: ('A' for Active; 'I' for Inactive)
REMARK    1  A    between atoms: C3_3  and  C7_7 
REMARK    2  A    between atoms: C3_3  and  O11_11 
ROOT
HETATM    1  C1  UNL     1     -34.571  16.624  -1.701  1.00 20.00    -0.070 C 
HETATM    2  C2  UNL     1     -35.395  16.835  -0.668  1.00 20.00    -0.027 C 
HETATM    3  C4  UNL     1     -33.331  17.431  -1.965  1.00 20.00     0.034 C 
HETATM    4  C5  UNL     1     -32.964  17.049  -3.394  1.00 20.00     0.005 C 
HETATM    5  C6  UNL     1     -33.431  15.603  -3.526  1.00 20.00     0.019 C 
HETATM    6  C7  UNL     1     -34.738  15.548  -2.738  1.00 20.00     0.114 C 
HETATM    7  C8  UNL     1     -35.185  17.890   0.365  1.00 20.00     0.036 C 
ENDROOT
BRANCH   6   8
HETATM    8  C3  UNL     1     -35.914  15.883  -3.607  1.00 20.00     0.266 C 
HETATM    9  O10 UNL     1     -36.088  16.973  -4.134  1.00 20.00    -0.265 OA
BRANCH   8  10
HETATM   10  O11 UNL     1     -36.732  14.796  -3.704  1.00 20.00    -0.326 OA
HETATM   11  C9  UNL     1     -36.396  13.864  -4.737  1.00 20.00     0.213 C 
ENDBRANCH   8  10
ENDBRANCH   6   8
TORSDOF 2
ENDMDL
MODEL 7
REMARK VINA RESULT:      -4.1     17.547     19.450
REMARK  2 active torsions:
REMARK  status: ('A' for Active; 'I' for Inactive)
REMARK    1  A    between atoms: C3_3  and  C7_7 
REMARK    2  A    between atoms: C3_3  and  O11_11 
ROOT
HETATM    1  C1  UNL     1     -24.678  17.904   9.624  1.00 20.00    -0.070 C 
HETATM    2  C2  UNL     1     -24.918  18.207   8.343  1.00 20.00    -0.027 C 
HETATM    3  C4  UNL     1     -25.347  18.578  10.788  1.00 20.00     0.034 C 
HETATM    4  C5  UNL     1     -24.497  18.146  11.977  1.00 20.00     0.005 C 
HETATM    5  C6  UNL     1     -24.004  16.753  11.598  1.00 20.00     0.019 C 
HETATM    6  C7  UNL     1     -23.727  16.839  10.099  1.00 20.00     0.114 C 
HETATM    7  C8  UNL     1     -25.893  19.246   7.902  1.00 20.00     0.036 C 
ENDROOT
BRANCH   6   8
HETATM    8  C3  UNL     1     -22.320  17.282   9.827  1.00 20.00     0.266 C 
HETATM    9  O10 UNL     1     -21.752  18.174  10.443  1.00 20.00    -0.265 OA
BRANCH   8  10
HETATM   10  O11 UNL     1     -21.798  16.543   8.807  1.00 20.00    -0.326 OA
HETATM   11  C9  UNL     1     -21.370  17.289   7.664  1.00 20.00     0.213 C 
ENDBRANCH   8  10
ENDBRANCH   6   8
TORSDOF 2
ENDMDL
MODEL 8
REMARK VINA RESULT:      -4.1     11.043     12.471
REMARK  2 active torsions:
REMARK  status: ('A' for Active; 'I' for Inactive)
REMARK    1  A    between atoms: C3_3  and  C7_7 
REMARK    2  A    between atoms: C3_3  and  O11_11 
ROOT
HETATM    1  C1  UNL     1     -33.960   5.867   3.824  1.00 20.00    -0.070 C 
HETATM    2  C2  UNL     1     -34.303   6.554   4.920  1.00 20.00    -0.027 C 
HETATM    3  C4  UNL     1     -33.811   4.372   3.782  1.00 20.00     0.034 C 
HETATM    4  C5  UNL     1     -33.085   4.131   2.464  1.00 20.00     0.005 C 
HETATM    5  C6  UNL     1     -33.578   5.252   1.555  1.00 20.00     0.019 C 
HETATM    6  C7  UNL     1     -33.692   6.467   2.472  1.00 20.00     0.114 C 
HETATM    7  C8  UNL     1     -34.596   5.926   6.240  1.00 20.00     0.036 C 
ENDROOT
BRANCH   6   8
HETATM    8  C3  UNL     1     -32.405   7.236   2.523  1.00 20.00     0.266 C 
HETATM    9  O10 UNL     1     -31.749   7.406   3.542  1.00 20.00    -0.265 OA
BRANCH   8  10
HETATM   10  O11 UNL     1     -32.101   7.700   1.278  1.00 20.00    -0.326 OA
HETATM   11  C9  UNL     1     -32.872   8.823   0.836  1.00 20.00     0.213 C 
ENDBRANCH   8  10
ENDBRANCH   6   8
TORSDOF 2
ENDMDL
MODEL 9
REMARK VINA RESULT:      -4.1      2.831      4.164
REMARK  2 active torsions:
REMARK  status: ('A' for Active; 'I' for Inactive)
REMARK    1  A    between atoms: C3_3  and  C7_7 
REMARK    2  A    between atoms: C3_3  and  O11_11 
ROOT
HETATM    1  C1  UNL     1     -33.873  16.598  -2.342  1.00 20.00    -0.070 C 
HETATM    2  C2  UNL     1     -33.520  17.568  -1.490  1.00 20.00    -0.027 C 
HETATM    3  C4  UNL     1     -32.940  15.976  -3.342  1.00 20.00     0.034 C 
HETATM    4  C5  UNL     1     -33.879  15.219  -4.273  1.00 20.00     0.005 C 
HETATM    5  C6  UNL     1     -35.033  14.790  -3.372  1.00 20.00     0.019 C 
HETATM    6  C7  UNL     1     -35.236  15.968  -2.422  1.00 20.00     0.114 C 
HETATM    7  C8  UNL     1     -32.149  18.150  -1.412  1.00 20.00     0.036 C 
ENDROOT
BRANCH   6   8
HETATM    8  C3  UNL     1     -36.205  16.964  -2.987  1.00 20.00     0.266 C 
HETATM    9  O10 UNL     1     -36.325  17.202  -4.181  1.00 20.00    -0.265 OA
BRANCH   8  10
HETATM   10  O11 UNL     1     -36.907  17.543  -1.972  1.00 20.00    -0.326 OA
HETATM   11  C9  UNL     1     -36.986  18.972  -2.016  1.00 20.00     0.213 C 
ENDBRANCH   8  10
ENDBRANCH   6   8
TORSDOF 2
ENDMDL
