MODEL 1
REMARK VINA RESULT:      -3.9      0.000      0.000
REMARK  0 active torsions:
REMARK  status: ('A' for Active; 'I' for Inactive)
ROOT
HETATM    1  C1  UNL     1     -41.157   6.606  -0.767  1.00 20.00     0.223 A 
HETATM    2  C2  UNL     1     -41.730   7.077   0.586  1.00 20.00     0.096 A 
HETATM    3  C3  UNL     1     -42.000   8.425  -0.145  1.00 20.00     0.093 A 
HETATM    4  C4  UNL     1     -42.946   6.320   1.083  1.00 20.00     0.022 C 
HETATM    5  C5  UNL     1     -41.236   9.638   0.342  1.00 20.00     0.033 C 
HETATM    6  N6  UNL     1     -41.369   7.830  -1.318  1.00 20.00    -0.356 N 
HETATM    7  O7  UNL     1     -40.694   5.581  -1.213  1.00 20.00    -0.273 OA
HETATM    8  H16 UNL     1     -41.200   8.159  -2.259  1.00 20.00     0.162 HD
ENDROOT
TORSDOF 0
ENDMDL
MODEL 2
REMARK VINA RESULT:      -3.9     23.203     23.619
REMARK  0 active torsions:
REMARK  status: ('A' for Active; 'I' for Inactive)
ROOT
HETATM    1  C1  UNL     1     -22.382  17.213   8.731  1.00 20.00     0.223 A 
HETATM    2  C2  UNL     1     -23.607  17.886   9.385  1.00 20.00     0.096 A 
HETATM    3  C3  UNL     1     -22.740  17.911  10.678  1.00 20.00     0.093 A 
HETATM    4  C4  UNL     1     -24.003  19.230   8.807  1.00 20.00     0.022 C 
HETATM    5  C5  UNL     1     -23.221  17.077  11.847  1.00 20.00     0.033 C 
HETATM    6  N6  UNL     1     -21.709  17.217   9.913  1.00 20.00    -0.356 N 
HETATM    7  O7  UNL     1     -22.083  16.820   7.627  1.00 20.00    -0.273 OA
HETATM    8  H16 UNL     1     -20.774  16.901  10.132  1.00 20.00     0.162 HD
ENDROOT
TORSDOF 0
ENDMDL
MODEL 3
REMARK VINA RESULT:      -3.8     22.637     23.330
REMARK  0 active torsions:
REMARK  status: ('A' for Active; 'I' for Inactive)
ROOT
HETATM    1  C1  UNL     1     -23.410  16.951  10.079  1.00 20.00     0.223 A 
HETATM    2  C2  UNL     1     -23.253  17.988  11.212  1.00 20.00     0.096 A 
HETATM    3  C3  UNL     1     -24.703  17.582  11.609  1.00 20.00     0.093 A 
HETATM    4  C4  UNL     1     -22.165  17.692  12.226  1.00 20.00     0.022 C 
HETATM    5  C5  UNL     1     -25.775  18.644  11.485  1.00 20.00     0.033 C 
HETATM    6  N6  UNL     1     -24.693  16.694  10.451  1.00 20.00    -0.356 N 
HETATM    7  O7  UNL     1     -22.715  16.508   9.195  1.00 20.00    -0.273 OA
HETATM    8  H16 UNL     1     -25.363  16.039  10.070  1.00 20.00     0.162 HD
ENDROOT
TORSDOF 0
ENDMDL
MODEL 4
REMARK VINA RESULT:      -3.7     22.475     23.216
REMARK  0 active torsions:
REMARK  status: ('A' for Active; 'I' for Inactive)
ROOT
HETATM    1  C1  UNL     1     -24.282  16.459  11.034  1.00 20.00     0.223 A 
HETATM    2  C2  UNL     1     -22.981  17.289  11.004  1.00 20.00     0.096 A 
HETATM    3  C3  UNL     1     -23.754  18.225  10.029  1.00 20.00     0.093 A 
HETATM    4  C4  UNL     1     -22.558  17.892  12.329  1.00 20.00     0.022 C 
HETATM    5  C5  UNL     1     -23.237  18.318   8.609  1.00 20.00     0.033 C 
HETATM    6  N6  UNL     1     -24.870  17.290  10.132  1.00 20.00    -0.356 N 
HETATM    7  O7  UNL     1     -24.676  15.468  11.604  1.00 20.00    -0.273 OA
HETATM    8  H16 UNL     1     -25.802  17.274   9.742  1.00 20.00     0.162 HD
ENDROOT
TORSDOF 0
ENDMDL
MODEL 5
REMARK VINA RESULT:      -3.7     23.200     23.746
REMARK  0 active torsions:
REMARK  status: ('A' for Active; 'I' for Inactive)
ROOT
HETATM    1  C1  UNL     1     -22.888  17.870  10.617  1.00 20.00     0.223 A 
HETATM    2  C2  UNL     1     -23.106  18.640   9.297  1.00 20.00     0.096 A 
HETATM    3  C3  UNL     1     -22.738  17.296   8.603  1.00 20.00     0.093 A 
HETATM    4  C4  UNL     1     -24.512  19.159   9.066  1.00 20.00     0.022 C 
HETATM    5  C5  UNL     1     -21.468  17.273   7.778  1.00 20.00     0.033 C 
HETATM    6  N6  UNL     1     -22.519  16.750   9.938  1.00 20.00    -0.356 N 
HETATM    7  O7  UNL     1     -22.987  18.109  11.798  1.00 20.00    -0.273 OA
HETATM    8  H16 UNL     1     -22.257  15.836  10.282  1.00 20.00     0.162 HD
ENDROOT
TORSDOF 0
ENDMDL
MODEL 6
REMARK VINA RESULT:      -3.7     23.045     23.497
REMARK  0 active torsions:
REMARK  status: ('A' for Active; 'I' for Inactive)
ROOT
HETATM    1  C1  UNL     1     -22.597  18.414   9.610  1.00 20.00     0.223 A 
HETATM    2  C2  UNL     1     -24.079  18.088   9.329  1.00 20.00     0.096 A 
HETATM    3  C3  UNL     1     -24.140  17.683  10.831  1.00 20.00     0.093 A 
HETATM    4  C4  UNL     1     -24.941  19.262   8.908  1.00 20.00     0.022 C 
HETATM    5  C5  UNL     1     -24.412  16.226  11.142  1.00 20.00     0.033 C 
HETATM    6  N6  UNL     1     -22.714  17.986  10.895  1.00 20.00    -0.356 N 
HETATM    7  O7  UNL     1     -21.666  18.866   8.985  1.00 20.00    -0.273 OA
HETATM    8  H16 UNL     1     -22.032  17.969  11.641  1.00 20.00     0.162 HD
ENDROOT
TORSDOF 0
ENDMDL
MODEL 7
REMARK VINA RESULT:      -3.7      2.167      3.074
REMARK  0 active torsions:
REMARK  status: ('A' for Active; 'I' for Inactive)
ROOT
HETATM    1  C1  UNL     1     -41.565   8.505   0.250  1.00 20.00     0.223 A 
HETATM    2  C2  UNL     1     -42.019   7.844  -1.069  1.00 20.00     0.096 A 
HETATM    3  C3  UNL     1     -41.863   6.500  -0.300  1.00 20.00     0.093 A 
HETATM    4  C4  UNL     1     -43.417   8.201  -1.535  1.00 20.00     0.022 C 
HETATM    5  C5  UNL     1     -40.795   5.545  -0.790  1.00 20.00     0.033 C 
HETATM    6  N6  UNL     1     -41.396   7.289   0.836  1.00 20.00    -0.356 N 
HETATM    7  O7  UNL     1     -41.406   9.632   0.656  1.00 20.00    -0.273 OA
HETATM    8  H16 UNL     1     -41.110   7.053   1.776  1.00 20.00     0.162 HD
ENDROOT
TORSDOF 0
ENDMDL
MODEL 8
REMARK VINA RESULT:      -3.6      9.783     10.303
REMARK  0 active torsions:
REMARK  status: ('A' for Active; 'I' for Inactive)
ROOT
HETATM    1  C1  UNL     1     -35.577  13.689  -4.201  1.00 20.00     0.223 A 
HETATM    2  C2  UNL     1     -36.380  14.956  -3.840  1.00 20.00     0.096 A 
HETATM    3  C3  UNL     1     -34.988  15.624  -3.638  1.00 20.00     0.093 A 
HETATM    4  C4  UNL     1     -37.248  15.520  -4.948  1.00 20.00     0.022 C 
HETATM    5  C5  UNL     1     -34.636  16.072  -2.235  1.00 20.00     0.033 C 
HETATM    6  N6  UNL     1     -34.401  14.324  -3.948  1.00 20.00    -0.356 N 
HETATM    7  O7  UNL     1     -35.831  12.564  -4.566  1.00 20.00    -0.273 OA
HETATM    8  H16 UNL     1     -33.450  13.992  -4.030  1.00 20.00     0.162 HD
ENDROOT
TORSDOF 0
ENDMDL
MODEL 9
REMARK VINA RESULT:      -3.6     10.909     11.856
REMARK  0 active torsions:
REMARK  status: ('A' for Active; 'I' for Inactive)
ROOT
HETATM    1  C1  UNL     1     -33.509  14.830  -4.039  1.00 20.00     0.223 A 
HETATM    2  C2  UNL     1     -34.506  15.429  -3.024  1.00 20.00     0.096 A 
HETATM    3  C3  UNL     1     -33.740  16.765  -3.257  1.00 20.00     0.093 A 
HETATM    4  C4  UNL     1     -35.963  15.402  -3.441  1.00 20.00     0.022 C 
HETATM    5  C5  UNL     1     -32.987  17.342  -2.077  1.00 20.00     0.033 C 
HETATM    6  N6  UNL     1     -32.855  16.017  -4.144  1.00 20.00    -0.356 N 
HETATM    7  O7  UNL     1     -33.332  13.755  -4.563  1.00 20.00    -0.273 OA
HETATM    8  H16 UNL     1     -32.063  16.277  -4.716  1.00 20.00     0.162 HD
ENDROOT
TORSDOF 0
ENDMDL
