MODEL 1
REMARK VINA RESULT:      -4.7      0.000      0.000
REMARK  2 active torsions:
REMARK  status: ('A' for Active; 'I' for Inactive)
REMARK    1  A    between atoms: C2_2  and  O12_12 
REMARK    2  A    between atoms: C7_7  and  O12_12 
ROOT
HETATM    1  C3  UNL     1     -33.953  17.569  -0.990  1.00 20.00     0.036 C 
HETATM    2  C4  UNL     1     -35.013  15.716  -2.367  1.00 20.00     0.013 C 
HETATM    3  C5  UNL     1     -32.776  16.711  -3.045  1.00 20.00     0.041 C 
HETATM    4  C6  UNL     1     -35.261  16.881  -1.391  1.00 20.00    -0.015 C 
HETATM    5  C7  UNL     1     -33.077  17.937  -2.185  1.00 20.00     0.128 C 
HETATM    6  C8  UNL     1     -34.043  15.986  -3.545  1.00 20.00    -0.045 C 
HETATM    7  C9  UNL     1     -36.304  17.884  -1.886  1.00 20.00     0.010 C 
HETATM    8  C10 UNL     1     -34.718  16.790  -4.671  1.00 20.00     0.015 C 
HETATM    9  C11 UNL     1     -33.627  14.626  -4.150  1.00 20.00     0.015 C 
ENDROOT
BRANCH   5  10
HETATM   10  O12 UNL     1     -31.839  18.466  -1.714  1.00 20.00    -0.359 OA
BRANCH  10  11
HETATM   11  C2  UNL     1     -31.765  18.633  -0.401  1.00 20.00     0.125 C 
HETATM   12  C1  UNL     1     -30.712  18.312   0.353  1.00 20.00     0.037 C 
ENDBRANCH  10  11
ENDBRANCH   5  10
TORSDOF 2
ENDMDL
MODEL 2
REMARK VINA RESULT:      -4.4      3.538      5.621
REMARK  2 active torsions:
REMARK  status: ('A' for Active; 'I' for Inactive)
REMARK    1  A    between atoms: C2_2  and  O12_12 
REMARK    2  A    between atoms: C7_7  and  O12_12 
ROOT
HETATM    1  C3  UNL     1     -36.838  15.967  -3.679  1.00 20.00     0.036 C 
HETATM    2  C4  UNL     1     -34.563  16.412  -4.719  1.00 20.00     0.013 C 
HETATM    3  C5  UNL     1     -35.933  14.392  -5.424  1.00 20.00     0.041 C 
HETATM    4  C6  UNL     1     -35.468  16.625  -3.491  1.00 20.00    -0.015 C 
HETATM    5  C7  UNL     1     -36.747  14.514  -4.137  1.00 20.00     0.128 C 
HETATM    6  C8  UNL     1     -34.511  14.980  -5.308  1.00 20.00    -0.045 C 
HETATM    7  C9  UNL     1     -34.815  16.216  -2.171  1.00 20.00     0.010 C 
HETATM    8  C10 UNL     1     -33.608  14.051  -4.477  1.00 20.00     0.015 C 
HETATM    9  C11 UNL     1     -33.894  15.060  -6.723  1.00 20.00     0.015 C 
ENDROOT
BRANCH   5  10
HETATM   10  O12 UNL     1     -38.061  14.021  -4.394  1.00 20.00    -0.359 OA
BRANCH  10  11
HETATM   11  C2  UNL     1     -39.039  14.882  -4.153  1.00 20.00     0.125 C 
HETATM   12  C1  UNL     1     -40.236  14.867  -4.744  1.00 20.00     0.037 C 
ENDBRANCH  10  11
ENDBRANCH   5  10
TORSDOF 2
ENDMDL
MODEL 3
REMARK VINA RESULT:      -4.4      2.169      4.695
REMARK  2 active torsions:
REMARK  status: ('A' for Active; 'I' for Inactive)
REMARK    1  A    between atoms: C2_2  and  O12_12 
REMARK    2  A    between atoms: C7_7  and  O12_12 
ROOT
HETATM    1  C3  UNL     1     -33.120  15.938  -3.384  1.00 20.00     0.036 C 
HETATM    2  C4  UNL     1     -33.528  17.633  -1.537  1.00 20.00     0.013 C 
HETATM    3  C5  UNL     1     -35.215  15.789  -1.993  1.00 20.00     0.041 C 
HETATM    4  C6  UNL     1     -32.824  17.352  -2.878  1.00 20.00    -0.015 C 
HETATM    5  C7  UNL     1     -34.609  15.599  -3.383  1.00 20.00     0.128 C 
HETATM    6  C8  UNL     1     -35.014  17.209  -1.426  1.00 20.00    -0.045 C 
HETATM    7  C9  UNL     1     -33.098  18.410  -3.947  1.00 20.00     0.010 C 
HETATM    8  C10 UNL     1     -35.949  18.210  -2.129  1.00 20.00     0.015 C 
HETATM    9  C11 UNL     1     -35.405  17.203   0.069  1.00 20.00     0.015 C 
ENDROOT
BRANCH   5  10
HETATM   10  O12 UNL     1     -34.779  14.234  -3.759  1.00 20.00    -0.359 OA
BRANCH  10  11
HETATM   11  C2  UNL     1     -35.787  14.004  -4.590  1.00 20.00     0.125 C 
HETATM   12  C1  UNL     1     -36.028  14.689  -5.710  1.00 20.00     0.037 C 
ENDBRANCH  10  11
ENDBRANCH   5  10
TORSDOF 2
ENDMDL
MODEL 4
REMARK VINA RESULT:      -4.3      3.456      5.909
REMARK  2 active torsions:
REMARK  status: ('A' for Active; 'I' for Inactive)
REMARK    1  A    between atoms: C2_2  and  O12_12 
REMARK    2  A    between atoms: C7_7  and  O12_12 
ROOT
HETATM    1  C3  UNL     1     -35.753  13.694  -4.354  1.00 20.00     0.036 C 
HETATM    2  C4  UNL     1     -34.295  15.328  -3.068  1.00 20.00     0.013 C 
HETATM    3  C5  UNL     1     -36.808  15.669  -3.201  1.00 20.00     0.041 C 
HETATM    4  C6  UNL     1     -34.352  14.293  -4.207  1.00 20.00    -0.015 C 
HETATM    5  C7  UNL     1     -36.854  14.750  -4.421  1.00 20.00     0.128 C 
HETATM    6  C8  UNL     1     -35.446  16.364  -3.007  1.00 20.00    -0.045 C 
HETATM    7  C9  UNL     1     -33.813  14.817  -5.538  1.00 20.00     0.010 C 
HETATM    8  C10 UNL     1     -35.259  17.489  -4.042  1.00 20.00     0.015 C 
HETATM    9  C11 UNL     1     -35.425  17.029  -1.612  1.00 20.00     0.015 C 
ENDROOT
BRANCH   5  10
HETATM   10  O12 UNL     1     -38.125  14.103  -4.443  1.00 20.00    -0.359 OA
BRANCH  10  11
HETATM   11  C2  UNL     1     -39.151  14.872  -4.108  1.00 20.00     0.125 C 
HETATM   12  C1  UNL     1     -40.298  14.956  -4.786  1.00 20.00     0.037 C 
ENDBRANCH  10  11
ENDBRANCH   5  10
TORSDOF 2
ENDMDL
MODEL 5
REMARK VINA RESULT:      -4.2      3.438      5.860
REMARK  2 active torsions:
REMARK  status: ('A' for Active; 'I' for Inactive)
REMARK    1  A    between atoms: C2_2  and  O12_12 
REMARK    2  A    between atoms: C7_7  and  O12_12 
ROOT
HETATM    1  C3  UNL     1     -35.911  14.130  -5.736  1.00 20.00     0.036 C 
HETATM    2  C4  UNL     1     -33.909  15.395  -4.816  1.00 20.00     0.013 C 
HETATM    3  C5  UNL     1     -36.069  15.253  -3.487  1.00 20.00     0.041 C 
HETATM    4  C6  UNL     1     -34.628  14.892  -6.081  1.00 20.00    -0.015 C 
HETATM    5  C7  UNL     1     -36.817  14.888  -4.769  1.00 20.00     0.128 C 
HETATM    6  C8  UNL     1     -34.789  16.076  -3.736  1.00 20.00    -0.045 C 
HETATM    7  C9  UNL     1     -34.876  15.986  -7.120  1.00 20.00     0.010 C 
HETATM    8  C10 UNL     1     -35.142  17.525  -4.116  1.00 20.00     0.015 C 
HETATM    9  C11 UNL     1     -33.979  16.139  -2.422  1.00 20.00     0.015 C 
ENDROOT
BRANCH   5  10
HETATM   10  O12 UNL     1     -37.924  14.061  -4.417  1.00 20.00    -0.359 OA
BRANCH  10  11
HETATM   11  C2  UNL     1     -39.064  14.707  -4.216  1.00 20.00     0.125 C 
HETATM   12  C1  UNL     1     -39.452  15.799  -4.878  1.00 20.00     0.037 C 
ENDBRANCH  10  11
ENDBRANCH   5  10
TORSDOF 2
ENDMDL
MODEL 6
REMARK VINA RESULT:      -4.1      3.489      5.625
REMARK  2 active torsions:
REMARK  status: ('A' for Active; 'I' for Inactive)
REMARK    1  A    between atoms: C2_2  and  O12_12 
REMARK    2  A    between atoms: C7_7  and  O12_12 
ROOT
HETATM    1  C3  UNL     1     -37.016  15.849  -5.493  1.00 20.00     0.036 C 
HETATM    2  C4  UNL     1     -34.495  16.070  -5.278  1.00 20.00     0.013 C 
HETATM    3  C5  UNL     1     -35.727  14.170  -4.128  1.00 20.00     0.041 C 
HETATM    4  C6  UNL     1     -35.822  16.807  -5.533  1.00 20.00    -0.015 C 
HETATM    5  C7  UNL     1     -37.030  14.958  -4.253  1.00 20.00     0.128 C 
HETATM    6  C8  UNL     1     -34.470  15.062  -4.101  1.00 20.00    -0.045 C 
HETATM    7  C9  UNL     1     -36.034  18.019  -4.625  1.00 20.00     0.010 C 
HETATM    8  C10 UNL     1     -34.340  15.773  -2.742  1.00 20.00     0.015 C 
HETATM    9  C11 UNL     1     -33.223  14.163  -4.260  1.00 20.00     0.015 C 
ENDROOT
BRANCH   5  10
HETATM   10  O12 UNL     1     -38.105  14.027  -4.357  1.00 20.00    -0.359 OA
BRANCH  10  11
HETATM   11  C2  UNL     1     -39.313  14.571  -4.416  1.00 20.00     0.125 C 
HETATM   12  C1  UNL     1     -39.793  15.466  -3.549  1.00 20.00     0.037 C 
ENDBRANCH  10  11
ENDBRANCH   5  10
TORSDOF 2
ENDMDL
MODEL 7
REMARK VINA RESULT:      -4.1      2.662      4.888
REMARK  2 active torsions:
REMARK  status: ('A' for Active; 'I' for Inactive)
REMARK    1  A    between atoms: C2_2  and  O12_12 
REMARK    2  A    between atoms: C7_7  and  O12_12 
ROOT
HETATM    1  C3  UNL     1     -33.729  14.928  -4.077  1.00 20.00     0.036 C 
HETATM    2  C4  UNL     1     -35.472  16.118  -2.663  1.00 20.00     0.013 C 
HETATM    3  C5  UNL     1     -35.867  15.730  -5.142  1.00 20.00     0.041 C 
HETATM    4  C6  UNL     1     -33.981  15.769  -2.822  1.00 20.00    -0.015 C 
HETATM    5  C7  UNL     1     -34.366  15.519  -5.333  1.00 20.00     0.128 C 
HETATM    6  C8  UNL     1     -36.213  16.618  -3.929  1.00 20.00    -0.045 C 
HETATM    7  C9  UNL     1     -33.057  16.985  -2.756  1.00 20.00     0.010 C 
HETATM    8  C10 UNL     1     -35.897  18.094  -4.231  1.00 20.00     0.015 C 
HETATM    9  C11 UNL     1     -37.733  16.527  -3.668  1.00 20.00     0.015 C 
ENDROOT
BRANCH   5  10
HETATM   10  O12 UNL     1     -34.178  14.618  -6.423  1.00 20.00    -0.359 OA
BRANCH  10  11
HETATM   11  C2  UNL     1     -33.916  15.195  -7.587  1.00 20.00     0.125 C 
HETATM   12  C1  UNL     1     -33.956  16.509  -7.817  1.00 20.00     0.037 C 
ENDBRANCH  10  11
ENDBRANCH   5  10
TORSDOF 2
ENDMDL
MODEL 8
REMARK VINA RESULT:      -4.0      1.989      4.277
REMARK  2 active torsions:
REMARK  status: ('A' for Active; 'I' for Inactive)
REMARK    1  A    between atoms: C2_2  and  O12_12 
REMARK    2  A    between atoms: C7_7  and  O12_12 
ROOT
HETATM    1  C3  UNL     1     -35.562  16.469  -2.179  1.00 20.00     0.036 C 
HETATM    2  C4  UNL     1     -34.472  18.752  -1.954  1.00 20.00     0.013 C 
HETATM    3  C5  UNL     1     -33.344  16.908  -3.288  1.00 20.00     0.041 C 
HETATM    4  C6  UNL     1     -35.443  17.735  -1.326  1.00 20.00    -0.015 C 
HETATM    5  C7  UNL     1     -34.209  15.876  -2.566  1.00 20.00     0.128 C 
HETATM    6  C8  UNL     1     -33.121  18.199  -2.474  1.00 20.00    -0.045 C 
HETATM    7  C9  UNL     1     -35.131  17.411   0.135  1.00 20.00     0.010 C 
HETATM    8  C10 UNL     1     -32.124  17.951  -1.327  1.00 20.00     0.015 C 
HETATM    9  C11 UNL     1     -32.487  19.263  -3.399  1.00 20.00     0.015 C 
ENDROOT
BRANCH   5  10
HETATM   10  O12 UNL     1     -34.415  14.774  -3.448  1.00 20.00    -0.359 OA
BRANCH  10  11
HETATM   11  C2  UNL     1     -35.672  14.585  -3.823  1.00 20.00     0.125 C 
HETATM   12  C1  UNL     1     -36.072  13.705  -4.744  1.00 20.00     0.037 C 
ENDBRANCH  10  11
ENDBRANCH   5  10
TORSDOF 2
ENDMDL
MODEL 9
REMARK VINA RESULT:      -4.0      2.097      3.721
REMARK  2 active torsions:
REMARK  status: ('A' for Active; 'I' for Inactive)
REMARK    1  A    between atoms: C2_2  and  O12_12 
REMARK    2  A    between atoms: C7_7  and  O12_12 
ROOT
HETATM    1  C3  UNL     1     -34.079  16.626  -4.613  1.00 20.00     0.036 C 
HETATM    2  C4  UNL     1     -36.195  15.723  -5.691  1.00 20.00     0.013 C 
HETATM    3  C5  UNL     1     -35.791  15.435  -3.200  1.00 20.00     0.041 C 
HETATM    4  C6  UNL     1     -34.723  16.119  -5.907  1.00 20.00    -0.015 C 
HETATM    5  C7  UNL     1     -34.302  15.691  -3.427  1.00 20.00     0.128 C 
HETATM    6  C8  UNL     1     -36.512  14.867  -4.439  1.00 20.00    -0.045 C 
HETATM    7  C9  UNL     1     -33.886  15.026  -6.571  1.00 20.00     0.010 C 
HETATM    8  C10 UNL     1     -36.142  13.387  -4.649  1.00 20.00     0.015 C 
HETATM    9  C11 UNL     1     -38.036  14.918  -4.190  1.00 20.00     0.015 C 
ENDROOT
BRANCH   5  10
HETATM   10  O12 UNL     1     -33.769  16.294  -2.249  1.00 20.00    -0.359 OA
BRANCH  10  11
HETATM   11  C2  UNL     1     -32.959  17.321  -2.463  1.00 20.00     0.125 C 
HETATM   12  C1  UNL     1     -32.349  18.027  -1.508  1.00 20.00     0.037 C 
ENDBRANCH  10  11
ENDBRANCH   5  10
TORSDOF 2
ENDMDL
