MODEL 1
REMARK VINA RESULT:      -4.1      0.000      0.000
REMARK  0 active torsions:
REMARK  status: ('A' for Active; 'I' for Inactive)
ROOT
HETATM    1  C1  UNL     1     -32.811   6.742   3.339  1.00 20.00     0.223 A 
HETATM    2  C2  UNL     1     -34.051   6.724   4.257  1.00 20.00     0.096 A 
HETATM    3  C3  UNL     1     -34.400   5.382   3.539  1.00 20.00     0.093 A 
HETATM    4  C4  UNL     1     -33.758   6.730   5.745  1.00 20.00     0.022 C 
HETATM    5  C5  UNL     1     -34.362   4.071   4.298  1.00 20.00     0.033 C 
HETATM    6  N6  UNL     1     -33.183   5.573   2.756  1.00 20.00    -0.356 N 
HETATM    7  O7  UNL     1     -31.860   7.470   3.165  1.00 20.00    -0.273 OA
HETATM    8  H16 UNL     1     -32.734   5.035   2.027  1.00 20.00     0.162 HD
ENDROOT
TORSDOF 0
ENDMDL
MODEL 2
REMARK VINA RESULT:      -4.1      1.774      2.008
REMARK  0 active torsions:
REMARK  status: ('A' for Active; 'I' for Inactive)
ROOT
HETATM    1  C1  UNL     1     -33.678   4.990   3.140  1.00 20.00     0.223 A 
HETATM    2  C2  UNL     1     -34.159   6.307   3.784  1.00 20.00     0.096 A 
HETATM    3  C3  UNL     1     -35.034   5.390   4.694  1.00 20.00     0.093 A 
HETATM    4  C4  UNL     1     -33.069   7.164   4.400  1.00 20.00     0.022 C 
HETATM    5  C5  UNL     1     -34.748   5.281   6.178  1.00 20.00     0.033 C 
HETATM    6  N6  UNL     1     -34.472   4.258   3.964  1.00 20.00    -0.356 N 
HETATM    7  O7  UNL     1     -32.909   4.674   2.261  1.00 20.00    -0.273 OA
HETATM    8  H16 UNL     1     -34.600   3.257   4.029  1.00 20.00     0.162 HD
ENDROOT
TORSDOF 0
ENDMDL
MODEL 3
REMARK VINA RESULT:      -3.9     11.617     12.038
REMARK  0 active torsions:
REMARK  status: ('A' for Active; 'I' for Inactive)
ROOT
HETATM    1  C1  UNL     1     -35.720  13.894  -4.294  1.00 20.00     0.223 A 
HETATM    2  C2  UNL     1     -34.632  14.944  -4.603  1.00 20.00     0.096 A 
HETATM    3  C3  UNL     1     -35.377  15.832  -3.558  1.00 20.00     0.093 A 
HETATM    4  C4  UNL     1     -33.206  14.499  -4.336  1.00 20.00     0.022 C 
HETATM    5  C5  UNL     1     -34.721  16.181  -2.237  1.00 20.00     0.033 C 
HETATM    6  N6  UNL     1     -36.318  14.726  -3.402  1.00 20.00    -0.356 N 
HETATM    7  O7  UNL     1     -35.984  12.772  -4.661  1.00 20.00    -0.273 OA
HETATM    8  H16 UNL     1     -37.139  14.588  -2.829  1.00 20.00     0.162 HD
ENDROOT
TORSDOF 0
ENDMDL
MODEL 4
REMARK VINA RESULT:      -3.8     16.246     16.617
REMARK  0 active torsions:
REMARK  status: ('A' for Active; 'I' for Inactive)
ROOT
HETATM    1  C1  UNL     1     -22.567  18.291   9.360  1.00 20.00     0.223 A 
HETATM    2  C2  UNL     1     -24.060  17.921   9.224  1.00 20.00     0.096 A 
HETATM    3  C3  UNL     1     -23.678  16.633  10.017  1.00 20.00     0.093 A 
HETATM    4  C4  UNL     1     -25.032  18.918   9.824  1.00 20.00     0.022 C 
HETATM    5  C5  UNL     1     -24.203  16.411  11.421  1.00 20.00     0.033 C 
HETATM    6  N6  UNL     1     -22.311  17.143  10.041  1.00 20.00    -0.356 N 
HETATM    7  O7  UNL     1     -21.858  19.211   9.023  1.00 20.00    -0.273 OA
HETATM    8  H16 UNL     1     -21.445  16.794  10.429  1.00 20.00     0.162 HD
ENDROOT
TORSDOF 0
ENDMDL
MODEL 5
REMARK VINA RESULT:      -3.8      2.292      3.180
REMARK  0 active torsions:
REMARK  status: ('A' for Active; 'I' for Inactive)
ROOT
HETATM    1  C1  UNL     1     -34.510   5.668   5.474  1.00 20.00     0.223 A 
HETATM    2  C2  UNL     1     -34.685   5.404   3.963  1.00 20.00     0.096 A 
HETATM    3  C3  UNL     1     -33.943   6.764   3.773  1.00 20.00     0.093 A 
HETATM    4  C4  UNL     1     -34.057   4.122   3.452  1.00 20.00     0.022 C 
HETATM    5  C5  UNL     1     -32.557   6.804   3.159  1.00 20.00     0.033 C 
HETATM    6  N6  UNL     1     -33.876   6.845   5.229  1.00 20.00    -0.356 N 
HETATM    7  O7  UNL     1     -34.796   5.098   6.502  1.00 20.00    -0.273 OA
HETATM    8  H16 UNL     1     -33.490   7.524   5.870  1.00 20.00     0.162 HD
ENDROOT
TORSDOF 0
ENDMDL
MODEL 6
REMARK VINA RESULT:      -3.8      9.170      9.573
REMARK  0 active torsions:
REMARK  status: ('A' for Active; 'I' for Inactive)
ROOT
HETATM    1  C1  UNL     1     -41.697   8.799  -0.157  1.00 20.00     0.223 A 
HETATM    2  C2  UNL     1     -42.733   7.656  -0.206  1.00 20.00     0.096 A 
HETATM    3  C3  UNL     1     -41.773   7.007  -1.251  1.00 20.00     0.093 A 
HETATM    4  C4  UNL     1     -42.994   6.960   1.116  1.00 20.00     0.022 C 
HETATM    5  C5  UNL     1     -41.029   5.728  -0.921  1.00 20.00     0.033 C 
HETATM    6  N6  UNL     1     -40.915   8.175  -1.077  1.00 20.00    -0.356 N 
HETATM    7  O7  UNL     1     -41.574   9.845   0.438  1.00 20.00    -0.273 OA
HETATM    8  H16 UNL     1     -40.031   8.454  -1.479  1.00 20.00     0.162 HD
ENDROOT
TORSDOF 0
ENDMDL
MODEL 7
REMARK VINA RESULT:      -3.8      9.027      9.588
REMARK  0 active torsions:
REMARK  status: ('A' for Active; 'I' for Inactive)
ROOT
HETATM    1  C1  UNL     1     -41.074   6.421  -0.821  1.00 20.00     0.223 A 
HETATM    2  C2  UNL     1     -41.555   6.926   0.556  1.00 20.00     0.096 A 
HETATM    3  C3  UNL     1     -41.684   8.315  -0.145  1.00 20.00     0.093 A 
HETATM    4  C4  UNL     1     -42.790   6.238   1.104  1.00 20.00     0.022 C 
HETATM    5  C5  UNL     1     -43.046   8.942  -0.362  1.00 20.00     0.033 C 
HETATM    6  N6  UNL     1     -41.206   7.661  -1.360  1.00 20.00    -0.356 N 
HETATM    7  O7  UNL     1     -40.715   5.365  -1.291  1.00 20.00    -0.273 OA
HETATM    8  H16 UNL     1     -41.030   7.987  -2.301  1.00 20.00     0.162 HD
ENDROOT
TORSDOF 0
ENDMDL
MODEL 8
REMARK VINA RESULT:      -3.8     16.059     16.767
REMARK  0 active torsions:
REMARK  status: ('A' for Active; 'I' for Inactive)
ROOT
HETATM    1  C1  UNL     1     -24.806  18.045  11.677  1.00 20.00     0.223 A 
HETATM    2  C2  UNL     1     -23.620  17.084  11.902  1.00 20.00     0.096 A 
HETATM    3  C3  UNL     1     -23.861  16.650  10.422  1.00 20.00     0.093 A 
HETATM    4  C4  UNL     1     -22.313  17.746  12.292  1.00 20.00     0.022 C 
HETATM    5  C5  UNL     1     -22.835  16.965   9.352  1.00 20.00     0.033 C 
HETATM    6  N6  UNL     1     -24.959  17.613  10.398  1.00 20.00    -0.356 N 
HETATM    7  O7  UNL     1     -25.401  18.871  12.332  1.00 20.00    -0.273 OA
HETATM    8  H16 UNL     1     -25.621  17.894   9.689  1.00 20.00     0.162 HD
ENDROOT
TORSDOF 0
ENDMDL
MODEL 9
REMARK VINA RESULT:      -3.8     15.687     16.375
REMARK  0 active torsions:
REMARK  status: ('A' for Active; 'I' for Inactive)
ROOT
HETATM    1  C1  UNL     1     -23.874  18.550   8.070  1.00 20.00     0.223 A 
HETATM    2  C2  UNL     1     -22.823  18.363   9.185  1.00 20.00     0.096 A 
HETATM    3  C3  UNL     1     -24.039  17.985  10.087  1.00 20.00     0.093 A 
HETATM    4  C4  UNL     1     -21.747  17.334   8.897  1.00 20.00     0.022 C 
HETATM    5  C5  UNL     1     -24.200  16.571  10.607  1.00 20.00     0.033 C 
HETATM    6  N6  UNL     1     -24.882  18.215   8.918  1.00 20.00    -0.356 N 
HETATM    7  O7  UNL     1     -23.865  18.862   6.901  1.00 20.00    -0.273 OA
HETATM    8  H16 UNL     1     -25.877  18.150   8.755  1.00 20.00     0.162 HD
ENDROOT
TORSDOF 0
ENDMDL
