MODEL 1
REMARK VINA RESULT:      -4.9      0.000      0.000
REMARK  1 active torsions:
REMARK  status: ('A' for Active; 'I' for Inactive)
REMARK    1  A    between atoms: C1_1  and  C5_5 
ROOT
HETATM    1  C2  UNL     1     -33.632   6.862   5.358  1.00 20.00     0.042 C 
HETATM    2  C3  UNL     1     -34.510   6.079   6.304  1.00 20.00     0.168 C 
HETATM    3  C4  UNL     1     -34.918   5.187   4.218  1.00 20.00     0.181 C 
HETATM    4  C5  UNL     1     -34.186   6.499   3.998  1.00 20.00     0.098 C 
HETATM    5  O7  UNL     1     -34.813   4.867   5.613  1.00 20.00    -0.390 OA
ENDROOT
BRANCH   4   6
HETATM    6  C1  UNL     1     -33.045   6.297   3.022  1.00 20.00     0.225 C 
HETATM    7  O6  UNL     1     -32.240   7.190   2.777  1.00 20.00    -0.279 OA
HETATM    8 CL8  UNL     1     -33.044   4.699   2.339  1.00 20.00    -0.043 Cl
ENDBRANCH   4   6
TORSDOF 1
ENDMDL
MODEL 2
REMARK VINA RESULT:      -4.8      1.353      1.353
REMARK  1 active torsions:
REMARK  status: ('A' for Active; 'I' for Inactive)
REMARK    1  A    between atoms: C1_1  and  C5_5 
ROOT
HETATM    1  C2  UNL     1     -33.647   6.832   5.070  1.00 20.00     0.042 C 
HETATM    2  C3  UNL     1     -34.389   6.211   6.230  1.00 20.00     0.168 C 
HETATM    3  C4  UNL     1     -34.927   4.914   4.402  1.00 20.00     0.181 C 
HETATM    4  C5  UNL     1     -34.298   6.189   3.866  1.00 20.00     0.098 C 
HETATM    5  O7  UNL     1     -34.678   4.875   5.815  1.00 20.00    -0.390 OA
ENDROOT
BRANCH   4   6
HETATM    6  C1  UNL     1     -33.239   5.849   2.837  1.00 20.00     0.225 C 
HETATM    7  O6  UNL     1     -33.045   4.695   2.468  1.00 20.00    -0.279 OA
HETATM    8 CL8  UNL     1     -32.385   7.259   2.287  1.00 20.00    -0.043 Cl
ENDBRANCH   4   6
TORSDOF 1
ENDMDL
MODEL 3
REMARK VINA RESULT:      -4.4      1.958      3.448
REMARK  1 active torsions:
REMARK  status: ('A' for Active; 'I' for Inactive)
REMARK    1  A    between atoms: C1_1  and  C5_5 
ROOT
HETATM    1  C2  UNL     1     -33.261   5.627   2.524  1.00 20.00     0.042 C 
HETATM    2  C3  UNL     1     -32.381   6.851   2.432  1.00 20.00     0.168 C 
HETATM    3  C4  UNL     1     -33.517   7.069   4.426  1.00 20.00     0.181 C 
HETATM    4  C5  UNL     1     -34.225   5.982   3.635  1.00 20.00     0.098 C 
HETATM    5  O7  UNL     1     -32.266   7.328   3.773  1.00 20.00    -0.390 OA
ENDROOT
BRANCH   4   6
HETATM    6  C1  UNL     1     -34.455   4.770   4.514  1.00 20.00     0.225 C 
HETATM    7  O6  UNL     1     -34.345   3.627   4.079  1.00 20.00    -0.279 OA
HETATM    8 CL8  UNL     1     -34.874   5.211   6.142  1.00 20.00    -0.043 Cl
ENDBRANCH   4   6
TORSDOF 1
ENDMDL
MODEL 4
REMARK VINA RESULT:      -4.3      1.929      3.597
REMARK  1 active torsions:
REMARK  status: ('A' for Active; 'I' for Inactive)
REMARK    1  A    between atoms: C1_1  and  C5_5 
ROOT
HETATM    1  C2  UNL     1     -34.125   4.371   3.642  1.00 20.00     0.042 C 
HETATM    2  C3  UNL     1     -33.306   4.712   2.419  1.00 20.00     0.168 C 
HETATM    3  C4  UNL     1     -33.623   6.715   3.515  1.00 20.00     0.181 C 
HETATM    4  C5  UNL     1     -34.602   5.724   4.121  1.00 20.00     0.098 C 
HETATM    5  O7  UNL     1     -32.692   5.966   2.720  1.00 20.00    -0.390 OA
ENDROOT
BRANCH   4   6
HETATM    6  C1  UNL     1     -34.528   5.782   5.633  1.00 20.00     0.225 C 
HETATM    7  O6  UNL     1     -35.038   4.917   6.338  1.00 20.00    -0.279 OA
HETATM    8 CL8  UNL     1     -33.660   7.180   6.192  1.00 20.00    -0.043 Cl
ENDBRANCH   4   6
TORSDOF 1
ENDMDL
MODEL 5
REMARK VINA RESULT:      -4.0     12.053     12.482
REMARK  1 active torsions:
REMARK  status: ('A' for Active; 'I' for Inactive)
REMARK    1  A    between atoms: C1_1  and  C5_5 
ROOT
HETATM    1  C2  UNL     1     -35.283  15.427  -2.909  1.00 20.00     0.042 C 
HETATM    2  C3  UNL     1     -33.904  16.021  -2.738  1.00 20.00     0.168 C 
HETATM    3  C4  UNL     1     -33.686  14.448  -4.409  1.00 20.00     0.181 C 
HETATM    4  C5  UNL     1     -35.021  14.187  -3.733  1.00 20.00     0.098 C 
HETATM    5  O7  UNL     1     -33.220  15.728  -3.956  1.00 20.00    -0.390 OA
ENDROOT
BRANCH   4   6
HETATM    6  C1  UNL     1     -36.107  14.033  -4.778  1.00 20.00     0.225 C 
HETATM    7  O6  UNL     1     -37.214  13.586  -4.496  1.00 20.00    -0.279 OA
HETATM    8 CL8  UNL     1     -35.581  14.553  -6.351  1.00 20.00    -0.043 Cl
ENDBRANCH   4   6
TORSDOF 1
ENDMDL
MODEL 6
REMARK VINA RESULT:      -4.0     16.226     16.923
REMARK  1 active torsions:
REMARK  status: ('A' for Active; 'I' for Inactive)
REMARK    1  A    between atoms: C1_1  and  C5_5 
ROOT
HETATM    1  C2  UNL     1     -23.993  16.671  10.195  1.00 20.00     0.042 C 
HETATM    2  C3  UNL     1     -23.576  16.693  11.647  1.00 20.00     0.168 C 
HETATM    3  C4  UNL     1     -21.921  17.837  10.521  1.00 20.00     0.181 C 
HETATM    4  C5  UNL     1     -22.737  17.102   9.472  1.00 20.00     0.098 C 
HETATM    5  O7  UNL     1     -22.656  17.780  11.753  1.00 20.00    -0.390 OA
ENDROOT
BRANCH   4   6
HETATM    6  C1  UNL     1     -23.099  18.046   8.344  1.00 20.00     0.225 C 
HETATM    7  O6  UNL     1     -22.570  17.963   7.240  1.00 20.00    -0.279 OA
HETATM    8 CL8  UNL     1     -24.307  19.201   8.819  1.00 20.00    -0.043 Cl
ENDBRANCH   4   6
TORSDOF 1
ENDMDL
MODEL 7
REMARK VINA RESULT:      -3.9     11.843     12.645
REMARK  1 active torsions:
REMARK  status: ('A' for Active; 'I' for Inactive)
REMARK    1  A    between atoms: C1_1  and  C5_5 
ROOT
HETATM    1  C2  UNL     1     -34.876  15.501  -2.840  1.00 20.00     0.042 C 
HETATM    2  C3  UNL     1     -34.013  16.663  -3.274  1.00 20.00     0.168 C 
HETATM    3  C4  UNL     1     -34.034  15.217  -5.069  1.00 20.00     0.181 C 
HETATM    4  C5  UNL     1     -34.573  14.444  -3.878  1.00 20.00     0.098 C 
HETATM    5  O7  UNL     1     -34.001  16.604  -4.700  1.00 20.00    -0.390 OA
ENDROOT
BRANCH   4   6
HETATM    6  C1  UNL     1     -35.851  13.729  -4.263  1.00 20.00     0.225 C 
HETATM    7  O6  UNL     1     -35.858  12.541  -4.573  1.00 20.00    -0.279 OA
HETATM    8 CL8  UNL     1     -37.234  14.780  -4.204  1.00 20.00    -0.043 Cl
ENDBRANCH   4   6
TORSDOF 1
ENDMDL
MODEL 8
REMARK VINA RESULT:      -3.9     16.530     16.984
REMARK  1 active torsions:
REMARK  status: ('A' for Active; 'I' for Inactive)
REMARK    1  A    between atoms: C1_1  and  C5_5 
ROOT
HETATM    1  C2  UNL     1     -24.613  18.719   9.101  1.00 20.00     0.042 C 
HETATM    2  C3  UNL     1     -24.245  19.015   7.666  1.00 20.00     0.168 C 
HETATM    3  C4  UNL     1     -22.379  18.014   8.577  1.00 20.00     0.181 C 
HETATM    4  C5  UNL     1     -23.277  18.405   9.738  1.00 20.00     0.098 C 
HETATM    5  O7  UNL     1     -23.153  18.143   7.374  1.00 20.00    -0.390 OA
ENDROOT
BRANCH   4   6
HETATM    6  C1  UNL     1     -23.430  17.236  10.689  1.00 20.00     0.225 C 
HETATM    7  O6  UNL     1     -24.101  16.250  10.397  1.00 20.00    -0.279 OA
HETATM    8 CL8  UNL     1     -22.562  17.482  12.174  1.00 20.00    -0.043 Cl
ENDBRANCH   4   6
TORSDOF 1
ENDMDL
MODEL 9
REMARK VINA RESULT:      -3.7     16.396     16.757
REMARK  1 active torsions:
REMARK  status: ('A' for Active; 'I' for Inactive)
REMARK    1  A    between atoms: C1_1  and  C5_5 
ROOT
HETATM    1  C2  UNL     1     -24.598  18.179   9.916  1.00 20.00     0.042 C 
HETATM    2  C3  UNL     1     -25.136  18.332  11.319  1.00 20.00     0.168 C 
HETATM    3  C4  UNL     1     -23.459  16.759  11.479  1.00 20.00     0.181 C 
HETATM    4  C5  UNL     1     -23.775  16.914  10.002  1.00 20.00     0.098 C 
HETATM    5  O7  UNL     1     -24.100  17.842  12.170  1.00 20.00    -0.390 OA
ENDROOT
BRANCH   4   6
HETATM    6  C1  UNL     1     -22.492  17.088   9.215  1.00 20.00     0.225 C 
HETATM    7  O6  UNL     1     -22.364  16.634   8.082  1.00 20.00    -0.279 OA
HETATM    8 CL8  UNL     1     -21.293  17.977  10.106  1.00 20.00    -0.043 Cl
ENDBRANCH   4   6
TORSDOF 1
ENDMDL
