MODEL 1
REMARK VINA RESULT:      -4.4      0.000      0.000
REMARK  0 active torsions:
REMARK  status: ('A' for Active; 'I' for Inactive)
ROOT
HETATM    1  C1  UNL     1     -34.123   4.943   3.792  1.00 20.00     0.223 A 
HETATM    2  C2  UNL     1     -34.279   6.411   4.242  1.00 20.00     0.096 A 
HETATM    3  C3  UNL     1     -33.383   6.747   3.008  1.00 20.00     0.093 A 
HETATM    4  C4  UNL     1     -33.783   6.719   5.642  1.00 20.00     0.022 C 
HETATM    5  C5  UNL     1     -31.981   7.288   3.201  1.00 20.00     0.033 C 
HETATM    6  N6  UNL     1     -33.359   5.315   2.731  1.00 20.00    -0.356 N 
HETATM    7  O7  UNL     1     -34.497   3.862   4.184  1.00 20.00    -0.273 OA
HETATM    8  H16 UNL     1     -32.922   4.752   2.014  1.00 20.00     0.162 HD
ENDROOT
TORSDOF 0
ENDMDL
MODEL 2
REMARK VINA RESULT:      -4.1     16.149     16.833
REMARK  0 active torsions:
REMARK  status: ('A' for Active; 'I' for Inactive)
ROOT
HETATM    1  C1  UNL     1     -22.446  17.627   8.359  1.00 20.00     0.223 A 
HETATM    2  C2  UNL     1     -23.158  18.512   9.402  1.00 20.00     0.096 A 
HETATM    3  C3  UNL     1     -23.031  17.275  10.346  1.00 20.00     0.093 A 
HETATM    4  C4  UNL     1     -24.530  19.017   9.000  1.00 20.00     0.022 C 
HETATM    5  C5  UNL     1     -24.265  16.513  10.785  1.00 20.00     0.033 C 
HETATM    6  N6  UNL     1     -22.361  16.596   9.241  1.00 20.00    -0.356 N 
HETATM    7  O7  UNL     1     -22.088  17.743   7.209  1.00 20.00    -0.273 OA
HETATM    8  H16 UNL     1     -21.969  15.672   9.128  1.00 20.00     0.162 HD
ENDROOT
TORSDOF 0
ENDMDL
MODEL 3
REMARK VINA RESULT:      -3.9      2.188      3.175
REMARK  0 active torsions:
REMARK  status: ('A' for Active; 'I' for Inactive)
ROOT
HETATM    1  C1  UNL     1     -32.929   6.804   3.476  1.00 20.00     0.223 A 
HETATM    2  C2  UNL     1     -33.868   5.719   2.910  1.00 20.00     0.096 A 
HETATM    3  C3  UNL     1     -34.653   5.885   4.249  1.00 20.00     0.093 A 
HETATM    4  C4  UNL     1     -33.209   4.394   2.581  1.00 20.00     0.022 C 
HETATM    5  C5  UNL     1     -34.679   4.765   5.268  1.00 20.00     0.033 C 
HETATM    6  N6  UNL     1     -33.670   6.901   4.611  1.00 20.00    -0.356 N 
HETATM    7  O7  UNL     1     -31.925   7.371   3.111  1.00 20.00    -0.273 OA
HETATM    8  H16 UNL     1     -33.542   7.487   5.425  1.00 20.00     0.162 HD
ENDROOT
TORSDOF 0
ENDMDL
MODEL 4
REMARK VINA RESULT:      -3.8      2.066      2.978
REMARK  0 active torsions:
REMARK  status: ('A' for Active; 'I' for Inactive)
ROOT
HETATM    1  C1  UNL     1     -34.150   6.528   5.549  1.00 20.00     0.223 A 
HETATM    2  C2  UNL     1     -34.249   6.514   4.009  1.00 20.00     0.096 A 
HETATM    3  C3  UNL     1     -34.842   5.081   4.192  1.00 20.00     0.093 A 
HETATM    4  C4  UNL     1     -32.937   6.699   3.272  1.00 20.00     0.022 C 
HETATM    5  C5  UNL     1     -34.070   3.864   3.724  1.00 20.00     0.033 C 
HETATM    6  N6  UNL     1     -34.686   5.281   5.629  1.00 20.00    -0.356 N 
HETATM    7  O7  UNL     1     -33.761   7.300   6.395  1.00 20.00    -0.273 OA
HETATM    8  H16 UNL     1     -34.881   4.707   6.437  1.00 20.00     0.162 HD
ENDROOT
TORSDOF 0
ENDMDL
MODEL 5
REMARK VINA RESULT:      -3.8     16.964     17.560
REMARK  0 active torsions:
REMARK  status: ('A' for Active; 'I' for Inactive)
ROOT
HETATM    1  C1  UNL     1     -22.917  18.679   9.576  1.00 20.00     0.223 A 
HETATM    2  C2  UNL     1     -23.155  17.545  10.595  1.00 20.00     0.096 A 
HETATM    3  C3  UNL     1     -24.656  17.970  10.519  1.00 20.00     0.093 A 
HETATM    4  C4  UNL     1     -22.399  17.677  11.903  1.00 20.00     0.022 C 
HETATM    5  C5  UNL     1     -25.336  18.604  11.715  1.00 20.00     0.033 C 
HETATM    6  N6  UNL     1     -24.242  18.983   9.553  1.00 20.00    -0.356 N 
HETATM    7  O7  UNL     1     -21.965  19.155   9.001  1.00 20.00    -0.273 OA
HETATM    8  H16 UNL     1     -24.739  19.694   9.035  1.00 20.00     0.162 HD
ENDROOT
TORSDOF 0
ENDMDL
MODEL 6
REMARK VINA RESULT:      -3.8     15.981     16.738
REMARK  0 active torsions:
REMARK  status: ('A' for Active; 'I' for Inactive)
ROOT
HETATM    1  C1  UNL     1     -24.387  16.530  11.267  1.00 20.00     0.223 A 
HETATM    2  C2  UNL     1     -23.771  17.866  11.732  1.00 20.00     0.096 A 
HETATM    3  C3  UNL     1     -23.965  18.320  10.251  1.00 20.00     0.093 A 
HETATM    4  C4  UNL     1     -22.375  17.770  12.316  1.00 20.00     0.022 C 
HETATM    5  C5  UNL     1     -22.765  18.572   9.361  1.00 20.00     0.033 C 
HETATM    6  N6  UNL     1     -24.536  17.001  10.001  1.00 20.00    -0.356 N 
HETATM    7  O7  UNL     1     -24.650  15.463  11.774  1.00 20.00    -0.273 OA
HETATM    8  H16 UNL     1     -24.910  16.549   9.178  1.00 20.00     0.162 HD
ENDROOT
TORSDOF 0
ENDMDL
MODEL 7
REMARK VINA RESULT:      -3.8      9.103      9.559
REMARK  0 active torsions:
REMARK  status: ('A' for Active; 'I' for Inactive)
ROOT
HETATM    1  C1  UNL     1     -41.835   8.488  -0.137  1.00 20.00     0.223 A 
HETATM    2  C2  UNL     1     -41.704   7.227   0.741  1.00 20.00     0.096 A 
HETATM    3  C3  UNL     1     -40.954   6.612  -0.482  1.00 20.00     0.093 A 
HETATM    4  C4  UNL     1     -43.014   6.619   1.207  1.00 20.00     0.022 C 
HETATM    5  C5  UNL     1     -41.571   5.475  -1.270  1.00 20.00     0.033 C 
HETATM    6  N6  UNL     1     -41.161   7.890  -1.155  1.00 20.00    -0.356 N 
HETATM    7  O7  UNL     1     -42.327   9.587  -0.024  1.00 20.00    -0.273 OA
HETATM    8  H16 UNL     1     -40.917   8.242  -2.070  1.00 20.00     0.162 HD
ENDROOT
TORSDOF 0
ENDMDL
MODEL 8
REMARK VINA RESULT:      -3.7      1.568      1.989
REMARK  0 active torsions:
REMARK  status: ('A' for Active; 'I' for Inactive)
ROOT
HETATM    1  C1  UNL     1     -33.440   5.370   2.967  1.00 20.00     0.223 A 
HETATM    2  C2  UNL     1     -34.647   5.536   3.914  1.00 20.00     0.096 A 
HETATM    3  C3  UNL     1     -34.007   6.914   4.275  1.00 20.00     0.093 A 
HETATM    4  C4  UNL     1     -34.789   4.467   4.981  1.00 20.00     0.022 C 
HETATM    5  C5  UNL     1     -33.437   7.158   5.657  1.00 20.00     0.033 C 
HETATM    6  N6  UNL     1     -32.951   6.588   3.322  1.00 20.00    -0.356 N 
HETATM    7  O7  UNL     1     -33.037   4.524   2.201  1.00 20.00    -0.273 OA
HETATM    8  H16 UNL     1     -32.117   7.069   3.016  1.00 20.00     0.162 HD
ENDROOT
TORSDOF 0
ENDMDL
MODEL 9
REMARK VINA RESULT:      -3.7      9.119      9.352
REMARK  0 active torsions:
REMARK  status: ('A' for Active; 'I' for Inactive)
ROOT
HETATM    1  C1  UNL     1     -41.249   6.338  -1.066  1.00 20.00     0.223 A 
HETATM    2  C2  UNL     1     -42.541   6.847  -0.392  1.00 20.00     0.096 A 
HETATM    3  C3  UNL     1     -42.032   8.269  -0.790  1.00 20.00     0.093 A 
HETATM    4  C4  UNL     1     -42.698   6.484   1.072  1.00 20.00     0.022 C 
HETATM    5  C5  UNL     1     -41.601   9.256   0.274  1.00 20.00     0.033 C 
HETATM    6  N6  UNL     1     -40.879   7.605  -1.390  1.00 20.00    -0.356 N 
HETATM    7  O7  UNL     1     -40.724   5.264  -1.255  1.00 20.00    -0.273 OA
HETATM    8  H16 UNL     1     -40.057   7.940  -1.874  1.00 20.00     0.162 HD
ENDROOT
TORSDOF 0
ENDMDL
