MODEL 1
REMARK VINA RESULT:      -4.4      0.000      0.000
REMARK  0 active torsions:
REMARK  status: ('A' for Active; 'I' for Inactive)
ROOT
HETATM    1  C1  UNL     1     -32.882  15.930  -3.442  1.00 20.00    -0.030 C 
HETATM    2  C2  UNL     1     -33.207  14.823  -4.121  1.00 20.00    -0.023 C 
HETATM    3  C3  UNL     1     -36.165  15.801  -4.548  1.00 20.00     0.150 C 
HETATM    4  C4  UNL     1     -33.861  16.764  -2.674  1.00 20.00     0.027 C 
HETATM    5  C5  UNL     1     -35.061  15.959  -2.181  1.00 20.00     0.016 C 
HETATM    6  C6  UNL     1     -34.620  14.355  -4.207  1.00 20.00     0.045 C 
HETATM    7  C7  UNL     1     -35.646  15.090  -3.283  1.00 20.00     0.067 C 
HETATM    8  C8  UNL     1     -35.419  14.819  -5.476  1.00 20.00     0.160 C 
HETATM    9  O9  UNL     1     -36.887  16.759  -4.736  1.00 20.00    -0.296 OA
HETATM   10 CL10 UNL     1     -34.602  15.589  -6.863  1.00 20.00    -0.116 Cl
ENDROOT
TORSDOF 0
ENDMDL
MODEL 2
REMARK VINA RESULT:      -4.3      2.224      2.895
REMARK  0 active torsions:
REMARK  status: ('A' for Active; 'I' for Inactive)
ROOT
HETATM    1  C1  UNL     1     -35.451  16.642  -2.782  1.00 20.00    -0.030 C 
HETATM    2  C2  UNL     1     -36.145  16.856  -3.907  1.00 20.00    -0.023 C 
HETATM    3  C3  UNL     1     -35.888  13.848  -4.788  1.00 20.00     0.150 C 
HETATM    4  C4  UNL     1     -34.435  15.554  -2.614  1.00 20.00     0.027 C 
HETATM    5  C5  UNL     1     -33.784  15.148  -3.933  1.00 20.00     0.016 C 
HETATM    6  C6  UNL     1     -35.988  15.968  -5.094  1.00 20.00     0.045 C 
HETATM    7  C7  UNL     1     -34.818  14.931  -5.027  1.00 20.00     0.067 C 
HETATM    8  C8  UNL     1     -37.027  14.797  -5.216  1.00 20.00     0.160 C 
HETATM    9  O9  UNL     1     -35.846  12.694  -4.413  1.00 20.00    -0.296 OA
HETATM   10 CL10 UNL     1     -38.478  14.726  -4.179  1.00 20.00    -0.116 Cl
ENDROOT
TORSDOF 0
ENDMDL
MODEL 3
REMARK VINA RESULT:      -4.3      1.927      2.752
REMARK  0 active torsions:
REMARK  status: ('A' for Active; 'I' for Inactive)
ROOT
HETATM    1  C1  UNL     1     -36.104  16.567  -3.174  1.00 20.00    -0.030 C 
HETATM    2  C2  UNL     1     -35.799  16.949  -4.421  1.00 20.00    -0.023 C 
HETATM    3  C3  UNL     1     -33.547  14.767  -4.672  1.00 20.00     0.150 C 
HETATM    4  C4  UNL     1     -35.142  15.900  -2.239  1.00 20.00     0.027 C 
HETATM    5  C5  UNL     1     -33.689  16.264  -2.530  1.00 20.00     0.016 C 
HETATM    6  C6  UNL     1     -34.452  16.682  -5.003  1.00 20.00     0.045 C 
HETATM    7  C7  UNL     1     -33.367  16.148  -4.012  1.00 20.00     0.067 C 
HETATM    8  C8  UNL     1     -34.324  15.373  -5.861  1.00 20.00     0.160 C 
HETATM    9  O9  UNL     1     -33.204  13.642  -4.373  1.00 20.00    -0.296 OA
HETATM   10 CL10 UNL     1     -35.761  14.439  -6.358  1.00 20.00    -0.116 Cl
ENDROOT
TORSDOF 0
ENDMDL
MODEL 4
REMARK VINA RESULT:      -4.2      1.113      1.552
REMARK  0 active torsions:
REMARK  status: ('A' for Active; 'I' for Inactive)
ROOT
HETATM    1  C1  UNL     1     -33.300  15.003  -4.012  1.00 20.00    -0.030 C 
HETATM    2  C2  UNL     1     -34.463  14.339  -3.976  1.00 20.00    -0.023 C 
HETATM    3  C3  UNL     1     -36.108  16.993  -3.594  1.00 20.00     0.150 C 
HETATM    4  C4  UNL     1     -33.066  16.328  -3.356  1.00 20.00     0.027 C 
HETATM    5  C5  UNL     1     -33.971  16.556  -2.147  1.00 20.00     0.016 C 
HETATM    6  C6  UNL     1     -35.661  14.916  -3.302  1.00 20.00     0.045 C 
HETATM    7  C7  UNL     1     -35.419  16.211  -2.457  1.00 20.00     0.067 C 
HETATM    8  C8  UNL     1     -36.659  15.698  -4.228  1.00 20.00     0.160 C 
HETATM    9  O9  UNL     1     -36.188  18.172  -3.873  1.00 20.00    -0.296 OA
HETATM   10 CL10 UNL     1     -36.526  15.633  -6.007  1.00 20.00    -0.116 Cl
ENDROOT
TORSDOF 0
ENDMDL
MODEL 5
REMARK VINA RESULT:      -4.2      0.952      1.086
REMARK  0 active torsions:
REMARK  status: ('A' for Active; 'I' for Inactive)
ROOT
HETATM    1  C1  UNL     1     -32.930  17.014  -2.638  1.00 20.00    -0.030 C 
HETATM    2  C2  UNL     1     -33.010  15.925  -3.414  1.00 20.00    -0.023 C 
HETATM    3  C3  UNL     1     -36.097  16.323  -3.869  1.00 20.00     0.150 C 
HETATM    4  C4  UNL     1     -34.073  17.566  -1.843  1.00 20.00     0.027 C 
HETATM    5  C5  UNL     1     -35.094  16.499  -1.458  1.00 20.00     0.016 C 
HETATM    6  C6  UNL     1     -34.297  15.193  -3.588  1.00 20.00     0.045 C 
HETATM    7  C7  UNL     1     -35.468  15.627  -2.646  1.00 20.00     0.067 C 
HETATM    8  C8  UNL     1     -35.149  15.592  -4.844  1.00 20.00     0.160 C 
HETATM    9  O9  UNL     1     -36.994  17.129  -4.007  1.00 20.00    -0.296 OA
HETATM   10 CL10 UNL     1     -34.479  16.625  -6.136  1.00 20.00    -0.116 Cl
ENDROOT
TORSDOF 0
ENDMDL
MODEL 6
REMARK VINA RESULT:      -4.2      1.971      3.216
REMARK  0 active torsions:
REMARK  status: ('A' for Active; 'I' for Inactive)
ROOT
HETATM    1  C1  UNL     1     -36.920  16.029  -3.785  1.00 20.00    -0.030 C 
HETATM    2  C2  UNL     1     -35.909  16.189  -2.921  1.00 20.00    -0.023 C 
HETATM    3  C3  UNL     1     -33.855  14.835  -4.880  1.00 20.00     0.150 C 
HETATM    4  C4  UNL     1     -36.974  14.954  -4.827  1.00 20.00     0.027 C 
HETATM    5  C5  UNL     1     -36.177  13.713  -4.435  1.00 20.00     0.016 C 
HETATM    6  C6  UNL     1     -34.704  15.313  -2.970  1.00 20.00     0.045 C 
HETATM    7  C7  UNL     1     -34.792  14.074  -3.922  1.00 20.00     0.067 C 
HETATM    8  C8  UNL     1     -33.487  15.867  -3.793  1.00 20.00     0.160 C 
HETATM    9  O9  UNL     1     -33.530  14.675  -6.039  1.00 20.00    -0.296 OA
HETATM   10 CL10 UNL     1     -33.439  17.557  -4.365  1.00 20.00    -0.116 Cl
ENDROOT
TORSDOF 0
ENDMDL
MODEL 7
REMARK VINA RESULT:      -4.2      1.992      2.627
REMARK  0 active torsions:
REMARK  status: ('A' for Active; 'I' for Inactive)
ROOT
HETATM    1  C1  UNL     1     -34.471  15.985  -2.306  1.00 20.00    -0.030 C 
HETATM    2  C2  UNL     1     -35.690  15.979  -2.860  1.00 20.00    -0.023 C 
HETATM    3  C3  UNL     1     -34.532  15.289  -5.702  1.00 20.00     0.150 C 
HETATM    4  C4  UNL     1     -33.208  16.281  -3.054  1.00 20.00     0.027 C 
HETATM    5  C5  UNL     1     -33.437  17.182  -4.265  1.00 20.00     0.016 C 
HETATM    6  C6  UNL     1     -35.877  16.224  -4.319  1.00 20.00     0.045 C 
HETATM    7  C7  UNL     1     -34.613  16.707  -5.103  1.00 20.00     0.067 C 
HETATM    8  C8  UNL     1     -35.959  14.944  -5.224  1.00 20.00     0.160 C 
HETATM    9  O9  UNL     1     -33.677  14.684  -6.316  1.00 20.00    -0.296 OA
HETATM   10 CL10 UNL     1     -36.127  13.313  -4.519  1.00 20.00    -0.116 Cl
ENDROOT
TORSDOF 0
ENDMDL
MODEL 8
REMARK VINA RESULT:      -4.2      2.113      3.394
REMARK  0 active torsions:
REMARK  status: ('A' for Active; 'I' for Inactive)
ROOT
HETATM    1  C1  UNL     1     -36.206  13.761  -4.626  1.00 20.00    -0.030 C 
HETATM    2  C2  UNL     1     -35.107  13.626  -3.873  1.00 20.00    -0.023 C 
HETATM    3  C3  UNL     1     -34.116  16.526  -4.579  1.00 20.00     0.150 C 
HETATM    4  C4  UNL     1     -36.310  14.676  -5.807  1.00 20.00     0.027 C 
HETATM    5  C5  UNL     1     -34.962  14.933  -6.475  1.00 20.00     0.016 C 
HETATM    6  C6  UNL     1     -33.886  14.441  -4.134  1.00 20.00     0.045 C 
HETATM    7  C7  UNL     1     -33.888  15.279  -5.456  1.00 20.00     0.067 C 
HETATM    8  C8  UNL     1     -33.749  15.759  -3.291  1.00 20.00     0.160 C 
HETATM    9  O9  UNL     1     -34.449  17.669  -4.816  1.00 20.00    -0.296 OA
HETATM   10 CL10 UNL     1     -34.818  16.093  -1.902  1.00 20.00    -0.116 Cl
ENDROOT
TORSDOF 0
ENDMDL
MODEL 9
REMARK VINA RESULT:      -4.1     11.800     12.787
REMARK  0 active torsions:
REMARK  status: ('A' for Active; 'I' for Inactive)
ROOT
HETATM    1  C1  UNL     1     -43.417   4.740   0.117  1.00 20.00    -0.030 C 
HETATM    2  C2  UNL     1     -42.752   5.453   1.035  1.00 20.00    -0.023 C 
HETATM    3  C3  UNL     1     -41.631   7.435  -1.136  1.00 20.00     0.150 C 
HETATM    4  C4  UNL     1     -43.021   4.646  -1.325  1.00 20.00     0.027 C 
HETATM    5  C5  UNL     1     -41.524   4.851  -1.540  1.00 20.00     0.016 C 
HETATM    6  C6  UNL     1     -41.562   6.272   0.664  1.00 20.00     0.045 C 
HETATM    7  C7  UNL     1     -41.011   6.067  -0.786  1.00 20.00     0.067 C 
HETATM    8  C8  UNL     1     -41.841   7.785   0.352  1.00 20.00     0.160 C 
HETATM    9  O9  UNL     1     -41.858   8.010  -2.180  1.00 20.00    -0.296 OA
HETATM   10 CL10 UNL     1     -43.417   8.537   0.719  1.00 20.00    -0.116 Cl
ENDROOT
TORSDOF 0
ENDMDL
