MODEL 1
REMARK VINA RESULT:      -4.3      0.000      0.000
REMARK  2 active torsions:
REMARK  status: ('A' for Active; 'I' for Inactive)
REMARK    1  A    between atoms: C2_2  and  O12_12 
REMARK    2  A    between atoms: C7_7  and  O12_12 
ROOT
HETATM    1  C3  UNL     1     -33.327  16.501  -3.613  1.00 20.00     0.036 C 
HETATM    2  C4  UNL     1     -35.655  16.141  -2.700  1.00 20.00     0.013 C 
HETATM    3  C5  UNL     1     -34.523  18.398  -2.426  1.00 20.00     0.041 C 
HETATM    4  C6  UNL     1     -34.290  15.490  -2.974  1.00 20.00    -0.015 C 
HETATM    5  C7  UNL     1     -33.171  17.767  -2.774  1.00 20.00     0.128 C 
HETATM    6  C8  UNL     1     -35.567  17.418  -1.834  1.00 20.00    -0.045 C 
HETATM    7  C9  UNL     1     -34.455  14.267  -3.876  1.00 20.00     0.010 C 
HETATM    8  C10 UNL     1     -36.945  18.114  -1.835  1.00 20.00     0.015 C 
HETATM    9  C11 UNL     1     -35.238  17.059  -0.371  1.00 20.00     0.015 C 
ENDROOT
BRANCH   5  10
HETATM   10  O12 UNL     1     -32.452  17.482  -1.579  1.00 20.00    -0.359 OA
BRANCH  10  11
HETATM   11  C2  UNL     1     -31.800  18.513  -1.059  1.00 20.00     0.125 C 
HETATM   12  C1  UNL     1     -31.031  18.460   0.030  1.00 20.00     0.037 C 
ENDBRANCH  10  11
ENDBRANCH   5  10
TORSDOF 2
ENDMDL
MODEL 2
REMARK VINA RESULT:      -4.1      1.487      3.721
REMARK  2 active torsions:
REMARK  status: ('A' for Active; 'I' for Inactive)
REMARK    1  A    between atoms: C2_2  and  O12_12 
REMARK    2  A    between atoms: C7_7  and  O12_12 
ROOT
HETATM    1  C3  UNL     1     -35.093  15.848  -2.179  1.00 20.00     0.036 C 
HETATM    2  C4  UNL     1     -32.798  16.794  -2.649  1.00 20.00     0.013 C 
HETATM    3  C5  UNL     1     -34.160  17.688  -0.701  1.00 20.00     0.041 C 
HETATM    4  C6  UNL     1     -34.075  16.206  -3.270  1.00 20.00    -0.015 C 
HETATM    5  C7  UNL     1     -35.421  17.038  -1.278  1.00 20.00     0.128 C 
HETATM    6  C8  UNL     1     -33.061  18.018  -1.741  1.00 20.00    -0.045 C 
HETATM    7  C9  UNL     1     -33.739  14.973  -4.110  1.00 20.00     0.010 C 
HETATM    8  C10 UNL     1     -31.760  18.362  -0.985  1.00 20.00     0.015 C 
HETATM    9  C11 UNL     1     -33.437  19.249  -2.589  1.00 20.00     0.015 C 
ENDROOT
BRANCH   5  10
HETATM   10  O12 UNL     1     -36.177  18.007  -1.995  1.00 20.00    -0.359 OA
BRANCH  10  11
HETATM   11  C2  UNL     1     -37.409  18.202  -1.543  1.00 20.00     0.125 C 
HETATM   12  C1  UNL     1     -37.756  18.218  -0.255  1.00 20.00     0.037 C 
ENDBRANCH  10  11
ENDBRANCH   5  10
TORSDOF 2
ENDMDL
MODEL 3
REMARK VINA RESULT:      -4.1      1.599      3.092
REMARK  2 active torsions:
REMARK  status: ('A' for Active; 'I' for Inactive)
REMARK    1  A    between atoms: C2_2  and  O12_12 
REMARK    2  A    between atoms: C7_7  and  O12_12 
ROOT
HETATM    1  C3  UNL     1     -34.816  18.066  -3.469  1.00 20.00     0.036 C 
HETATM    2  C4  UNL     1     -35.015  16.122  -5.070  1.00 20.00     0.013 C 
HETATM    3  C5  UNL     1     -34.823  15.692  -2.575  1.00 20.00     0.041 C 
HETATM    4  C6  UNL     1     -34.461  17.541  -4.867  1.00 20.00    -0.015 C 
HETATM    5  C7  UNL     1     -34.343  17.130  -2.359  1.00 20.00     0.128 C 
HETATM    6  C8  UNL     1     -34.553  15.119  -3.989  1.00 20.00    -0.045 C 
HETATM    7  C9  UNL     1     -35.002  18.483  -5.943  1.00 20.00     0.010 C 
HETATM    8  C10 UNL     1     -35.360  13.812  -4.148  1.00 20.00     0.015 C 
HETATM    9  C11 UNL     1     -33.066  14.764  -4.180  1.00 20.00     0.015 C 
ENDROOT
BRANCH   5  10
HETATM   10  O12 UNL     1     -32.923  17.155  -2.264  1.00 20.00    -0.359 OA
BRANCH  10  11
HETATM   11  C2  UNL     1     -32.416  18.266  -1.747  1.00 20.00     0.125 C 
HETATM   12  C1  UNL     1     -31.498  18.309  -0.780  1.00 20.00     0.037 C 
ENDBRANCH  10  11
ENDBRANCH   5  10
TORSDOF 2
ENDMDL
MODEL 4
REMARK VINA RESULT:      -4.0      1.764      4.022
REMARK  2 active torsions:
REMARK  status: ('A' for Active; 'I' for Inactive)
REMARK    1  A    between atoms: C2_2  and  O12_12 
REMARK    2  A    between atoms: C7_7  and  O12_12 
ROOT
HETATM    1  C3  UNL     1     -34.955  15.347  -2.839  1.00 20.00     0.036 C 
HETATM    2  C4  UNL     1     -32.700  16.481  -2.958  1.00 20.00     0.013 C 
HETATM    3  C5  UNL     1     -34.454  17.321  -1.325  1.00 20.00     0.041 C 
HETATM    4  C6  UNL     1     -33.794  15.753  -3.757  1.00 20.00    -0.015 C 
HETATM    5  C7  UNL     1     -35.534  16.535  -2.074  1.00 20.00     0.128 C 
HETATM    6  C8  UNL     1     -33.220  17.710  -2.178  1.00 20.00    -0.045 C 
HETATM    7  C9  UNL     1     -33.213  14.524  -4.457  1.00 20.00     0.010 C 
HETATM    8  C10 UNL     1     -32.106  18.202  -1.230  1.00 20.00     0.015 C 
HETATM    9  C11 UNL     1     -33.543  18.867  -3.144  1.00 20.00     0.015 C 
ENDROOT
BRANCH   5  10
HETATM   10  O12 UNL     1     -36.231  17.402  -2.963  1.00 20.00    -0.359 OA
BRANCH  10  11
HETATM   11  C2  UNL     1     -37.310  16.875  -3.527  1.00 20.00     0.125 C 
HETATM   12  C1  UNL     1     -37.613  16.960  -4.823  1.00 20.00     0.037 C 
ENDBRANCH  10  11
ENDBRANCH   5  10
TORSDOF 2
ENDMDL
MODEL 5
REMARK VINA RESULT:      -4.0      2.359      4.462
REMARK  2 active torsions:
REMARK  status: ('A' for Active; 'I' for Inactive)
REMARK    1  A    between atoms: C2_2  and  O12_12 
REMARK    2  A    between atoms: C7_7  and  O12_12 
ROOT
HETATM    1  C3  UNL     1     -34.493  15.938  -5.532  1.00 20.00     0.036 C 
HETATM    2  C4  UNL     1     -34.299  17.827  -3.865  1.00 20.00     0.013 C 
HETATM    3  C5  UNL     1     -33.117  15.624  -3.423  1.00 20.00     0.041 C 
HETATM    4  C6  UNL     1     -35.213  17.131  -4.887  1.00 20.00    -0.015 C 
HETATM    5  C7  UNL     1     -33.973  14.944  -4.495  1.00 20.00     0.128 C 
HETATM    6  C8  UNL     1     -33.757  16.877  -2.774  1.00 20.00    -0.045 C 
HETATM    7  C9  UNL     1     -35.665  18.123  -5.959  1.00 20.00     0.010 C 
HETATM    8  C10 UNL     1     -32.670  17.618  -1.966  1.00 20.00     0.015 C 
HETATM    9  C11 UNL     1     -34.877  16.492  -1.787  1.00 20.00     0.015 C 
ENDROOT
BRANCH   5  10
HETATM   10  O12 UNL     1     -35.059  14.258  -3.881  1.00 20.00    -0.359 OA
BRANCH  10  11
HETATM   11  C2  UNL     1     -36.080  13.994  -4.685  1.00 20.00     0.125 C 
HETATM   12  C1  UNL     1     -37.362  14.227  -4.394  1.00 20.00     0.037 C 
ENDBRANCH  10  11
ENDBRANCH   5  10
TORSDOF 2
ENDMDL
MODEL 6
REMARK VINA RESULT:      -3.9      2.684      5.196
REMARK  2 active torsions:
REMARK  status: ('A' for Active; 'I' for Inactive)
REMARK    1  A    between atoms: C2_2  and  O12_12 
REMARK    2  A    between atoms: C7_7  and  O12_12 
ROOT
HETATM    1  C3  UNL     1     -36.096  17.263  -3.069  1.00 20.00     0.036 C 
HETATM    2  C4  UNL     1     -34.134  15.738  -2.612  1.00 20.00     0.013 C 
HETATM    3  C5  UNL     1     -35.019  15.987  -4.980  1.00 20.00     0.041 C 
HETATM    4  C6  UNL     1     -35.455  16.300  -2.061  1.00 20.00    -0.015 C 
HETATM    5  C7  UNL     1     -36.305  16.618  -4.438  1.00 20.00     0.128 C 
HETATM    6  C8  UNL     1     -34.283  15.050  -3.989  1.00 20.00    -0.045 C 
HETATM    7  C9  UNL     1     -35.216  17.006  -0.726  1.00 20.00     0.010 C 
HETATM    8  C10 UNL     1     -32.876  14.754  -4.549  1.00 20.00     0.015 C 
HETATM    9  C11 UNL     1     -35.011  13.700  -3.843  1.00 20.00     0.015 C 
ENDROOT
BRANCH   5  10
HETATM   10  O12 UNL     1     -37.331  15.635  -4.369  1.00 20.00    -0.359 OA
BRANCH  10  11
HETATM   11  C2  UNL     1     -38.537  16.104  -4.077  1.00 20.00     0.125 C 
HETATM   12  C1  UNL     1     -39.642  15.363  -3.976  1.00 20.00     0.037 C 
ENDBRANCH  10  11
ENDBRANCH   5  10
TORSDOF 2
ENDMDL
MODEL 7
REMARK VINA RESULT:      -3.9      3.017      5.249
REMARK  2 active torsions:
REMARK  status: ('A' for Active; 'I' for Inactive)
REMARK    1  A    between atoms: C2_2  and  O12_12 
REMARK    2  A    between atoms: C7_7  and  O12_12 
ROOT
HETATM    1  C3  UNL     1     -36.143  14.894  -5.874  1.00 20.00     0.036 C 
HETATM    2  C4  UNL     1     -34.670  16.698  -4.894  1.00 20.00     0.013 C 
HETATM    3  C5  UNL     1     -34.771  14.411  -3.794  1.00 20.00     0.041 C 
HETATM    4  C6  UNL     1     -35.987  16.401  -5.629  1.00 20.00    -0.015 C 
HETATM    5  C7  UNL     1     -36.042  14.082  -4.583  1.00 20.00     0.128 C 
HETATM    6  C8  UNL     1     -34.517  15.922  -3.565  1.00 20.00    -0.045 C 
HETATM    7  C9  UNL     1     -36.040  17.164  -6.954  1.00 20.00     0.010 C 
HETATM    8  C10 UNL     1     -33.073  16.102  -3.050  1.00 20.00     0.015 C 
HETATM    9  C11 UNL     1     -35.461  16.497  -2.492  1.00 20.00     0.015 C 
ENDROOT
BRANCH   5  10
HETATM   10  O12 UNL     1     -37.187  14.307  -3.768  1.00 20.00    -0.359 OA
BRANCH  10  11
HETATM   11  C2  UNL     1     -38.320  14.491  -4.433  1.00 20.00     0.125 C 
HETATM   12  C1  UNL     1     -39.341  15.238  -4.011  1.00 20.00     0.037 C 
ENDBRANCH  10  11
ENDBRANCH   5  10
TORSDOF 2
ENDMDL
MODEL 8
REMARK VINA RESULT:      -3.8      2.238      3.924
REMARK  2 active torsions:
REMARK  status: ('A' for Active; 'I' for Inactive)
REMARK    1  A    between atoms: C2_2  and  O12_12 
REMARK    2  A    between atoms: C7_7  and  O12_12 
ROOT
HETATM    1  C3  UNL     1     -35.606  14.691  -3.340  1.00 20.00     0.036 C 
HETATM    2  C4  UNL     1     -35.913  15.040  -5.824  1.00 20.00     0.013 C 
HETATM    3  C5  UNL     1     -33.582  15.091  -4.817  1.00 20.00     0.041 C 
HETATM    4  C6  UNL     1     -36.519  15.271  -4.430  1.00 20.00    -0.015 C 
HETATM    5  C7  UNL     1     -34.184  15.244  -3.418  1.00 20.00     0.128 C 
HETATM    6  C8  UNL     1     -34.479  15.598  -5.974  1.00 20.00    -0.045 C 
HETATM    7  C9  UNL     1     -37.912  14.648  -4.346  1.00 20.00     0.010 C 
HETATM    8  C10 UNL     1     -33.888  15.095  -7.308  1.00 20.00     0.015 C 
HETATM    9  C11 UNL     1     -34.502  17.138  -6.036  1.00 20.00     0.015 C 
ENDROOT
BRANCH   5  10
HETATM   10  O12 UNL     1     -34.166  16.614  -3.033  1.00 20.00    -0.359 OA
BRANCH  10  11
HETATM   11  C2  UNL     1     -32.990  17.062  -2.613  1.00 20.00     0.125 C 
HETATM   12  C1  UNL     1     -32.804  17.823  -1.533  1.00 20.00     0.037 C 
ENDBRANCH  10  11
ENDBRANCH   5  10
TORSDOF 2
ENDMDL
MODEL 9
REMARK VINA RESULT:      -3.7      2.407      3.848
REMARK  2 active torsions:
REMARK  status: ('A' for Active; 'I' for Inactive)
REMARK    1  A    between atoms: C2_2  and  O12_12 
REMARK    2  A    between atoms: C7_7  and  O12_12 
ROOT
HETATM    1  C3  UNL     1     -36.004  15.972  -4.878  1.00 20.00     0.036 C 
HETATM    2  C4  UNL     1     -34.914  15.363  -2.682  1.00 20.00     0.013 C 
HETATM    3  C5  UNL     1     -35.291  17.804  -3.273  1.00 20.00     0.041 C 
HETATM    4  C6  UNL     1     -35.077  14.980  -4.162  1.00 20.00    -0.015 C 
HETATM    5  C7  UNL     1     -35.530  17.417  -4.735  1.00 20.00     0.128 C 
HETATM    6  C8  UNL     1     -34.414  16.810  -2.470  1.00 20.00    -0.045 C 
HETATM    7  C9  UNL     1     -35.622  13.557  -4.287  1.00 20.00     0.010 C 
HETATM    8  C10 UNL     1     -34.527  17.159  -0.971  1.00 20.00     0.015 C 
HETATM    9  C11 UNL     1     -32.927  16.931  -2.857  1.00 20.00     0.015 C 
ENDROOT
BRANCH   5  10
HETATM   10  O12 UNL     1     -34.340  17.623  -5.489  1.00 20.00    -0.359 OA
BRANCH  10  11
HETATM   11  C2  UNL     1     -34.527  17.815  -6.788  1.00 20.00     0.125 C 
HETATM   12  C1  UNL     1     -33.973  17.081  -7.755  1.00 20.00     0.037 C 
ENDBRANCH  10  11
ENDBRANCH   5  10
TORSDOF 2
ENDMDL
