MODEL 1
REMARK VINA RESULT:      -4.4      0.000      0.000
REMARK  2 active torsions:
REMARK  status: ('A' for Active; 'I' for Inactive)
REMARK    1  A    between atoms: C1_1  and  C3_3 
REMARK    2  A    between atoms: C5_5  and  O10_10 
ROOT
HETATM    1  C2  UNL     1     -34.972  14.652  -3.550  1.00 20.00     0.074 C 
HETATM    2  C3  UNL     1     -35.998  14.081  -4.499  1.00 20.00     0.080 C 
HETATM    3  C4  UNL     1     -35.434  14.470  -5.863  1.00 20.00     0.131 C 
HETATM    4  C5  UNL     1     -33.677  14.436  -4.308  1.00 20.00     0.260 C 
HETATM    5  C6  UNL     1     -35.871  15.830  -6.398  1.00 20.00     0.040 C 
HETATM    6  O9  UNL     1     -34.001  14.513  -5.704  1.00 20.00    -0.356 OA
ENDROOT
BRANCH   2   7
HETATM    7  C1  UNL     1     -37.380  14.578  -4.226  1.00 20.00     0.238 C 
HETATM    8  O8  UNL     1     -38.390  13.909  -4.423  1.00 20.00    -0.306 OA
ENDBRANCH   2   7
BRANCH   4   9
HETATM    9  O10 UNL     1     -32.727  15.416  -3.925  1.00 20.00    -0.366 OA
HETATM   10  C7  UNL     1     -33.272  16.326  -2.980  1.00 20.00     0.204 C 
ENDBRANCH   4   9
TORSDOF 2
ENDMDL
MODEL 2
REMARK VINA RESULT:      -4.3      1.595      2.210
REMARK  2 active torsions:
REMARK  status: ('A' for Active; 'I' for Inactive)
REMARK    1  A    between atoms: C1_1  and  C3_3 
REMARK    2  A    between atoms: C5_5  and  O10_10 
ROOT
HETATM    1  C2  UNL     1     -35.042  15.616  -2.829  1.00 20.00     0.074 C 
HETATM    2  C3  UNL     1     -34.713  14.360  -3.599  1.00 20.00     0.080 C 
HETATM    3  C4  UNL     1     -33.587  14.826  -4.518  1.00 20.00     0.131 C 
HETATM    4  C5  UNL     1     -33.678  16.257  -2.661  1.00 20.00     0.260 C 
HETATM    5  C6  UNL     1     -34.022  15.395  -5.864  1.00 20.00     0.040 C 
HETATM    6  O9  UNL     1     -32.904  15.879  -3.809  1.00 20.00    -0.356 OA
ENDROOT
BRANCH   2   7
HETATM    7  C1  UNL     1     -35.899  13.783  -4.303  1.00 20.00     0.238 C 
HETATM    8  O8  UNL     1     -35.970  12.612  -4.659  1.00 20.00    -0.306 OA
ENDBRANCH   2   7
BRANCH   4   9
HETATM    9  O10 UNL     1     -33.819  17.663  -2.550  1.00 20.00    -0.366 OA
HETATM   10  C7  UNL     1     -32.888  18.345  -3.378  1.00 20.00     0.204 C 
ENDBRANCH   4   9
TORSDOF 2
ENDMDL
MODEL 3
REMARK VINA RESULT:      -4.3      9.906     11.764
REMARK  2 active torsions:
REMARK  status: ('A' for Active; 'I' for Inactive)
REMARK    1  A    between atoms: C1_1  and  C3_3 
REMARK    2  A    between atoms: C5_5  and  O10_10 
ROOT
HETATM    1  C2  UNL     1     -41.190   7.118  -1.226  1.00 20.00     0.074 C 
HETATM    2  C3  UNL     1     -41.202   7.856   0.092  1.00 20.00     0.080 C 
HETATM    3  C4  UNL     1     -41.897   6.860   1.017  1.00 20.00     0.131 C 
HETATM    4  C5  UNL     1     -40.970   5.683  -0.788  1.00 20.00     0.260 C 
HETATM    5  C6  UNL     1     -43.417   6.964   1.081  1.00 20.00     0.040 C 
HETATM    6  O9  UNL     1     -41.579   5.551   0.504  1.00 20.00    -0.356 OA
ENDROOT
BRANCH   2   7
HETATM    7  C1  UNL     1     -41.861   9.194   0.002  1.00 20.00     0.238 C 
HETATM    8  O8  UNL     1     -41.345  10.231   0.406  1.00 20.00    -0.306 OA
ENDBRANCH   2   7
BRANCH   4   9
HETATM    9  O10 UNL     1     -41.539   4.800  -1.740  1.00 20.00    -0.366 OA
HETATM   10  C7  UNL     1     -42.941   4.667  -1.552  1.00 20.00     0.204 C 
ENDBRANCH   4   9
TORSDOF 2
ENDMDL
MODEL 4
REMARK VINA RESULT:      -4.1     17.189     18.754
REMARK  2 active torsions:
REMARK  status: ('A' for Active; 'I' for Inactive)
REMARK    1  A    between atoms: C1_1  and  C3_3 
REMARK    2  A    between atoms: C5_5  and  O10_10 
ROOT
HETATM    1  C2  UNL     1     -23.214  17.164  10.131  1.00 20.00     0.074 C 
HETATM    2  C3  UNL     1     -22.716  18.263   9.223  1.00 20.00     0.080 C 
HETATM    3  C4  UNL     1     -23.974  19.099   9.002  1.00 20.00     0.131 C 
HETATM    4  C5  UNL     1     -24.216  17.896  11.002  1.00 20.00     0.260 C 
HETATM    5  C6  UNL     1     -24.848  18.684   7.823  1.00 20.00     0.040 C 
HETATM    6  O9  UNL     1     -24.767  18.948  10.197  1.00 20.00    -0.356 OA
ENDROOT
BRANCH   2   7
HETATM    7  C1  UNL     1     -22.082  17.741   7.974  1.00 20.00     0.238 C 
HETATM    8  O8  UNL     1     -21.982  16.546   7.715  1.00 20.00    -0.306 OA
ENDBRANCH   2   7
BRANCH   4   9
HETATM    9  O10 UNL     1     -25.211  16.991  11.452  1.00 20.00    -0.366 OA
HETATM   10  C7  UNL     1     -24.654  15.722  11.766  1.00 20.00     0.204 C 
ENDBRANCH   4   9
TORSDOF 2
ENDMDL
MODEL 5
REMARK VINA RESULT:      -4.0     15.838     18.457
REMARK  2 active torsions:
REMARK  status: ('A' for Active; 'I' for Inactive)
REMARK    1  A    between atoms: C1_1  and  C3_3 
REMARK    2  A    between atoms: C5_5  and  O10_10 
ROOT
HETATM    1  C2  UNL     1     -24.612  18.076   9.304  1.00 20.00     0.074 C 
HETATM    2  C3  UNL     1     -23.558  18.097  10.384  1.00 20.00     0.080 C 
HETATM    3  C4  UNL     1     -22.283  18.371   9.590  1.00 20.00     0.131 C 
HETATM    4  C5  UNL     1     -24.118  19.145   8.350  1.00 20.00     0.260 C 
HETATM    5  C6  UNL     1     -21.551  17.140   9.066  1.00 20.00     0.040 C 
HETATM    6  O9  UNL     1     -22.686  19.149   8.445  1.00 20.00    -0.356 OA
ENDROOT
BRANCH   2   7
HETATM    7  C1  UNL     1     -23.533  16.844  11.197  1.00 20.00     0.238 C 
HETATM    8  O8  UNL     1     -24.397  15.975  11.126  1.00 20.00    -0.306 OA
ENDBRANCH   2   7
BRANCH   4   9
HETATM    9  O10 UNL     1     -24.566  18.860   7.036  1.00 20.00    -0.366 OA
HETATM   10  C7  UNL     1     -25.980  18.957   6.937  1.00 20.00     0.204 C 
ENDBRANCH   4   9
TORSDOF 2
ENDMDL
MODEL 6
REMARK VINA RESULT:      -4.0      1.704      3.742
REMARK  2 active torsions:
REMARK  status: ('A' for Active; 'I' for Inactive)
REMARK    1  A    between atoms: C1_1  and  C3_3 
REMARK    2  A    between atoms: C5_5  and  O10_10 
ROOT
HETATM    1  C2  UNL     1     -36.151  15.230  -5.533  1.00 20.00     0.074 C 
HETATM    2  C3  UNL     1     -34.672  15.518  -5.444  1.00 20.00     0.080 C 
HETATM    3  C4  UNL     1     -34.268  14.763  -4.179  1.00 20.00     0.131 C 
HETATM    4  C5  UNL     1     -36.232  13.802  -5.031  1.00 20.00     0.260 C 
HETATM    5  C6  UNL     1     -34.379  15.547  -2.875  1.00 20.00     0.040 C 
HETATM    6  O9  UNL     1     -35.168  13.641  -4.081  1.00 20.00    -0.356 OA
ENDROOT
BRANCH   2   7
HETATM    7  C1  UNL     1     -34.365  16.980  -5.426  1.00 20.00     0.238 C 
HETATM    8  O8  UNL     1     -35.202  17.849  -5.645  1.00 20.00    -0.306 OA
ENDBRANCH   2   7
BRANCH   4   9
HETATM    9  O10 UNL     1     -37.505  13.569  -4.452  1.00 20.00    -0.366 OA
HETATM   10  C7  UNL     1     -38.218  14.782  -4.261  1.00 20.00     0.204 C 
ENDBRANCH   4   9
TORSDOF 2
ENDMDL
MODEL 7
REMARK VINA RESULT:      -3.9     18.403     19.145
REMARK  2 active torsions:
REMARK  status: ('A' for Active; 'I' for Inactive)
REMARK    1  A    between atoms: C1_1  and  C3_3 
REMARK    2  A    between atoms: C5_5  and  O10_10 
ROOT
HETATM    1  C2  UNL     1     -24.788  18.551  10.216  1.00 20.00     0.074 C 
HETATM    2  C3  UNL     1     -24.822  18.279  11.700  1.00 20.00     0.080 C 
HETATM    3  C4  UNL     1     -23.900  17.068  11.832  1.00 20.00     0.131 C 
HETATM    4  C5  UNL     1     -23.353  18.216   9.860  1.00 20.00     0.260 C 
HETATM    5  C6  UNL     1     -24.570  15.706  11.687  1.00 20.00     0.040 C 
HETATM    6  O9  UNL     1     -22.936  17.186  10.766  1.00 20.00    -0.356 OA
ENDROOT
BRANCH   2   7
HETATM    7  C1  UNL     1     -26.207  18.072  12.221  1.00 20.00     0.238 C 
HETATM    8  O8  UNL     1     -27.185  18.681  11.801  1.00 20.00    -0.306 OA
ENDBRANCH   2   7
BRANCH   4   9
HETATM    9  O10 UNL     1     -23.279  17.800   8.507  1.00 20.00    -0.366 OA
HETATM   10  C7  UNL     1     -21.961  17.400   8.158  1.00 20.00     0.204 C 
ENDBRANCH   4   9
TORSDOF 2
ENDMDL
MODEL 8
REMARK VINA RESULT:      -3.9      1.524      3.685
REMARK  2 active torsions:
REMARK  status: ('A' for Active; 'I' for Inactive)
REMARK    1  A    between atoms: C1_1  and  C3_3 
REMARK    2  A    between atoms: C5_5  and  O10_10 
ROOT
HETATM    1  C2  UNL     1     -34.652  14.411  -4.049  1.00 20.00     0.074 C 
HETATM    2  C3  UNL     1     -34.927  15.302  -2.862  1.00 20.00     0.080 C 
HETATM    3  C4  UNL     1     -36.245  15.967  -3.251  1.00 20.00     0.131 C 
HETATM    4  C5  UNL     1     -36.044  13.952  -4.436  1.00 20.00     0.260 C 
HETATM    5  C6  UNL     1     -36.125  17.263  -4.045  1.00 20.00     0.040 C 
HETATM    6  O9  UNL     1     -36.939  15.017  -4.084  1.00 20.00    -0.356 OA
ENDROOT
BRANCH   2   7
HETATM    7  C1  UNL     1     -33.807  16.249  -2.575  1.00 20.00     0.238 C 
HETATM    8  O8  UNL     1     -32.779  16.302  -3.243  1.00 20.00    -0.306 OA
ENDBRANCH   2   7
BRANCH   4   9
HETATM    9  O10 UNL     1     -36.084  13.656  -5.822  1.00 20.00    -0.366 OA
HETATM   10  C7  UNL     1     -35.447  14.670  -6.587  1.00 20.00     0.204 C 
ENDBRANCH   4   9
TORSDOF 2
ENDMDL
MODEL 9
REMARK VINA RESULT:      -3.7      1.830      3.954
REMARK  2 active torsions:
REMARK  status: ('A' for Active; 'I' for Inactive)
REMARK    1  A    between atoms: C1_1  and  C3_3 
REMARK    2  A    between atoms: C5_5  and  O10_10 
ROOT
HETATM    1  C2  UNL     1     -33.455  15.531  -3.687  1.00 20.00     0.074 C 
HETATM    2  C3  UNL     1     -34.069  16.066  -2.417  1.00 20.00     0.080 C 
HETATM    3  C4  UNL     1     -35.564  15.999  -2.723  1.00 20.00     0.131 C 
HETATM    4  C5  UNL     1     -34.447  14.461  -4.098  1.00 20.00     0.260 C 
HETATM    5  C6  UNL     1     -36.159  17.234  -3.391  1.00 20.00     0.040 C 
HETATM    6  O9  UNL     1     -35.734  14.895  -3.635  1.00 20.00    -0.356 OA
ENDROOT
BRANCH   2   7
HETATM    7  C1  UNL     1     -33.564  17.425  -2.055  1.00 20.00     0.238 C 
HETATM    8  O8  UNL     1     -32.394  17.657  -1.767  1.00 20.00    -0.306 OA
ENDBRANCH   2   7
BRANCH   4   9
HETATM    9  O10 UNL     1     -34.415  14.292  -5.506  1.00 20.00    -0.366 OA
HETATM   10  C7  UNL     1     -35.697  14.495  -6.083  1.00 20.00     0.204 C 
ENDBRANCH   4   9
TORSDOF 2
ENDMDL
