MODEL 1
REMARK VINA RESULT:      -3.6      0.000      0.000
REMARK  0 active torsions:
REMARK  status: ('A' for Active; 'I' for Inactive)
ROOT
HETATM    1  C1  UNL     1     -33.158   7.108   4.929  1.00 20.00     0.026 C 
HETATM    2  C2  UNL     1     -34.022   5.295   3.356  1.00 20.00     0.026 C 
HETATM    3  C3  UNL     1     -34.176   6.792   6.019  1.00 20.00     0.075 C 
HETATM    4  C4  UNL     1     -35.109   4.832   4.319  1.00 20.00     0.075 C 
HETATM    5  C5  UNL     1     -33.672   6.770   3.531  1.00 20.00     0.059 C 
HETATM    6  S6  UNL     1     -34.606   5.028   6.052  1.00 20.00    -0.169 SA
HETATM    7 BR7  UNL     1     -32.291   7.247   2.223  1.00 20.00    -0.091 Br
ENDROOT
TORSDOF 0
ENDMDL
MODEL 2
REMARK VINA RESULT:      -3.5      0.890      2.157
REMARK  0 active torsions:
REMARK  status: ('A' for Active; 'I' for Inactive)
ROOT
HETATM    1  C1  UNL     1     -33.706   5.273   2.702  1.00 20.00     0.026 C 
HETATM    2  C2  UNL     1     -33.566   7.271   4.281  1.00 20.00     0.026 C 
HETATM    3  C3  UNL     1     -34.063   4.291   3.812  1.00 20.00     0.075 C 
HETATM    4  C4  UNL     1     -33.912   6.450   5.518  1.00 20.00     0.075 C 
HETATM    5  C5  UNL     1     -32.867   6.445   3.205  1.00 20.00     0.059 C 
HETATM    6  S6  UNL     1     -35.035   5.079   5.126  1.00 20.00    -0.169 SA
HETATM    7 BR7  UNL     1     -32.450   7.615   1.687  1.00 20.00    -0.091 Br
ENDROOT
TORSDOF 0
ENDMDL
MODEL 3
REMARK VINA RESULT:      -3.3      9.154      9.610
REMARK  0 active torsions:
REMARK  status: ('A' for Active; 'I' for Inactive)
ROOT
HETATM    1  C1  UNL     1     -41.227   6.985  -0.981  1.00 20.00     0.026 C 
HETATM    2  C2  UNL     1     -42.924   7.227   0.907  1.00 20.00     0.026 C 
HETATM    3  C3  UNL     1     -41.362   5.468  -1.047  1.00 20.00     0.075 C 
HETATM    4  C4  UNL     1     -43.197   5.730   0.993  1.00 20.00     0.075 C 
HETATM    5  C5  UNL     1     -41.515   7.539   0.411  1.00 20.00     0.059 C 
HETATM    6  S6  UNL     1     -43.040   4.920  -0.624  1.00 20.00    -0.169 SA
HETATM    7 BR7  UNL     1     -41.279   9.486   0.373  1.00 20.00    -0.091 Br
ENDROOT
TORSDOF 0
ENDMDL
MODEL 4
REMARK VINA RESULT:      -3.3     16.324     16.825
REMARK  0 active torsions:
REMARK  status: ('A' for Active; 'I' for Inactive)
ROOT
HETATM    1  C1  UNL     1     -22.810  17.466  11.135  1.00 20.00     0.026 C 
HETATM    2  C2  UNL     1     -24.514  18.307   9.434  1.00 20.00     0.026 C 
HETATM    3  C3  UNL     1     -23.585  18.005  12.332  1.00 20.00     0.075 C 
HETATM    4  C4  UNL     1     -25.427  18.914  10.493  1.00 20.00     0.075 C 
HETATM    5  C5  UNL     1     -23.051  18.280   9.866  1.00 20.00     0.059 C 
HETATM    6  S6  UNL     1     -25.377  17.974  12.046  1.00 20.00    -0.169 SA
HETATM    7 BR7  UNL     1     -21.981  17.509   8.414  1.00 20.00    -0.091 Br
ENDROOT
TORSDOF 0
ENDMDL
MODEL 5
REMARK VINA RESULT:      -3.3     16.664     17.021
REMARK  0 active torsions:
REMARK  status: ('A' for Active; 'I' for Inactive)
ROOT
HETATM    1  C1  UNL     1     -24.061  18.191  12.242  1.00 20.00     0.026 C 
HETATM    2  C2  UNL     1     -24.647  18.538   9.784  1.00 20.00     0.026 C 
HETATM    3  C3  UNL     1     -22.842  17.328  11.936  1.00 20.00     0.075 C 
HETATM    4  C4  UNL     1     -23.475  17.703   9.279  1.00 20.00     0.075 C 
HETATM    5  C5  UNL     1     -25.134  18.094  11.160  1.00 20.00     0.059 C 
HETATM    6  S6  UNL     1     -22.039  17.818  10.384  1.00 20.00    -0.169 SA
HETATM    7 BR7  UNL     1     -26.654  19.219  11.681  1.00 20.00    -0.091 Br
ENDROOT
TORSDOF 0
ENDMDL
MODEL 6
REMARK VINA RESULT:      -3.2     16.431     16.885
REMARK  0 active torsions:
REMARK  status: ('A' for Active; 'I' for Inactive)
ROOT
HETATM    1  C1  UNL     1     -25.051  18.222  10.711  1.00 20.00     0.026 C 
HETATM    2  C2  UNL     1     -22.868  18.570   9.440  1.00 20.00     0.026 C 
HETATM    3  C3  UNL     1     -24.407  17.352  11.785  1.00 20.00     0.075 C 
HETATM    4  C4  UNL     1     -22.047  17.730  10.411  1.00 20.00     0.075 C 
HETATM    5  C5  UNL     1     -24.327  18.130   9.370  1.00 20.00     0.059 C 
HETATM    6  S6  UNL     1     -22.688  17.837  12.106  1.00 20.00    -0.169 SA
HETATM    7 BR7  UNL     1     -25.264  19.263   8.072  1.00 20.00    -0.091 Br
ENDROOT
TORSDOF 0
ENDMDL
MODEL 7
REMARK VINA RESULT:      -3.2     15.891     16.254
REMARK  0 active torsions:
REMARK  status: ('A' for Active; 'I' for Inactive)
ROOT
HETATM    1  C1  UNL     1     -23.907  17.033  10.027  1.00 20.00     0.026 C 
HETATM    2  C2  UNL     1     -25.609  18.891  10.421  1.00 20.00     0.026 C 
HETATM    3  C3  UNL     1     -23.848  16.635  11.497  1.00 20.00     0.075 C 
HETATM    4  C4  UNL     1     -25.688  18.643  11.923  1.00 20.00     0.075 C 
HETATM    5  C5  UNL     1     -24.255  18.507   9.833  1.00 20.00     0.059 C 
HETATM    6  S6  UNL     1     -25.439  16.891  12.332  1.00 20.00    -0.169 SA
HETATM    7 BR7  UNL     1     -24.271  18.900   7.911  1.00 20.00    -0.091 Br
ENDROOT
TORSDOF 0
ENDMDL
MODEL 8
REMARK VINA RESULT:      -3.2     15.859     16.207
REMARK  0 active torsions:
REMARK  status: ('A' for Active; 'I' for Inactive)
ROOT
HETATM    1  C1  UNL     1     -24.386  18.767   9.792  1.00 20.00     0.026 C 
HETATM    2  C2  UNL     1     -23.925  16.625  11.096  1.00 20.00     0.026 C 
HETATM    3  C3  UNL     1     -25.747  18.993  10.442  1.00 20.00     0.075 C 
HETATM    4  C4  UNL     1     -25.247  16.677  11.853  1.00 20.00     0.075 C 
HETATM    5  C5  UNL     1     -24.006  17.291   9.726  1.00 20.00     0.059 C 
HETATM    6  S6  UNL     1     -25.788  18.384  12.152  1.00 20.00    -0.169 SA
HETATM    7 BR7  UNL     1     -22.260  17.131   8.846  1.00 20.00    -0.091 Br
ENDROOT
TORSDOF 0
ENDMDL
MODEL 9
REMARK VINA RESULT:      -3.1     15.931     16.910
REMARK  0 active torsions:
REMARK  status: ('A' for Active; 'I' for Inactive)
ROOT
HETATM    1  C1  UNL     1     -23.973  16.938   9.732  1.00 20.00     0.026 C 
HETATM    2  C2  UNL     1     -21.955  18.043  10.832  1.00 20.00     0.026 C 
HETATM    3  C3  UNL     1     -24.647  16.611  11.060  1.00 20.00     0.075 C 
HETATM    4  C4  UNL     1     -22.466  17.806  12.248  1.00 20.00     0.075 C 
HETATM    5  C5  UNL     1     -22.452  16.991   9.845  1.00 20.00     0.059 C 
HETATM    6  S6  UNL     1     -24.279  17.854  12.329  1.00 20.00    -0.169 SA
HETATM    7 BR7  UNL     1     -21.705  17.388   8.075  1.00 20.00    -0.091 Br
ENDROOT
TORSDOF 0
ENDMDL
