MODEL 1
REMARK VINA RESULT:      -5.0      0.000      0.000
REMARK  0 active torsions:
REMARK  status: ('A' for Active; 'I' for Inactive)
ROOT
HETATM    1  C1  UNL     1     -35.288  15.134  -3.540  1.00 20.00    -0.013 C 
HETATM    2  C2  UNL     1     -34.862  15.879  -2.520  1.00 20.00    -0.066 C 
HETATM    3  C3  UNL     1     -34.085  14.960  -4.385  1.00 20.00     0.156 C 
HETATM    4  C4  UNL     1     -35.605  16.669  -1.498  1.00 20.00     0.036 C 
HETATM    5  C5  UNL     1     -32.923  15.789  -3.887  1.00 20.00     0.093 C 
HETATM    6  C6  UNL     1     -34.573  17.736  -1.092  1.00 20.00     0.009 C 
HETATM    7  C7  UNL     1     -33.405  16.214  -2.512  1.00 20.00     0.026 C 
HETATM    8  C8  UNL     1     -33.483  17.700  -2.185  1.00 20.00    -0.010 C 
HETATM    9  C9  UNL     1     -36.639  14.673  -3.921  1.00 20.00     0.052 C 
HETATM   10  C10 UNL     1     -32.157  18.279  -1.722  1.00 20.00     0.010 C 
HETATM   11  O11 UNL     1     -34.062  14.270  -5.394  1.00 20.00    -0.293 OA
ENDROOT
TORSDOF 0
ENDMDL
MODEL 2
REMARK VINA RESULT:      -4.9      1.871      3.036
REMARK  0 active torsions:
REMARK  status: ('A' for Active; 'I' for Inactive)
ROOT
HETATM    1  C1  UNL     1     -36.815  15.740  -3.562  1.00 20.00    -0.013 C 
HETATM    2  C2  UNL     1     -35.512  15.777  -3.284  1.00 20.00    -0.066 C 
HETATM    3  C3  UNL     1     -37.017  14.404  -4.165  1.00 20.00     0.156 C 
HETATM    4  C4  UNL     1     -34.602  16.914  -2.968  1.00 20.00     0.036 C 
HETATM    5  C5  UNL     1     -35.708  13.680  -4.381  1.00 20.00     0.093 C 
HETATM    6  C6  UNL     1     -33.230  16.368  -3.400  1.00 20.00     0.009 C 
HETATM    7  C7  UNL     1     -34.742  14.529  -3.575  1.00 20.00     0.026 C 
HETATM    8  C8  UNL     1     -33.529  15.131  -4.273  1.00 20.00    -0.010 C 
HETATM    9  C9  UNL     1     -37.864  16.778  -3.482  1.00 20.00     0.052 C 
HETATM   10  C10 UNL     1     -32.355  14.170  -4.366  1.00 20.00     0.010 C 
HETATM   11  O11 UNL     1     -38.111  13.970  -4.495  1.00 20.00    -0.293 OA
ENDROOT
TORSDOF 0
ENDMDL
MODEL 3
REMARK VINA RESULT:      -4.9      1.077      2.545
REMARK  0 active torsions:
REMARK  status: ('A' for Active; 'I' for Inactive)
ROOT
HETATM    1  C1  UNL     1     -33.786  14.990  -3.948  1.00 20.00    -0.013 C 
HETATM    2  C2  UNL     1     -33.911  16.095  -3.214  1.00 20.00    -0.066 C 
HETATM    3  C3  UNL     1     -35.168  14.471  -4.056  1.00 20.00     0.156 C 
HETATM    4  C4  UNL     1     -32.903  16.909  -2.477  1.00 20.00     0.036 C 
HETATM    5  C5  UNL     1     -36.133  15.259  -3.199  1.00 20.00     0.093 C 
HETATM    6  C6  UNL     1     -33.756  17.578  -1.384  1.00 20.00     0.009 C 
HETATM    7  C7  UNL     1     -35.304  16.475  -2.827  1.00 20.00     0.026 C 
HETATM    8  C8  UNL     1     -35.085  16.795  -1.354  1.00 20.00    -0.010 C 
HETATM    9  C9  UNL     1     -32.593  14.274  -4.447  1.00 20.00     0.052 C 
HETATM   10  C10 UNL     1     -36.228  17.586  -0.738  1.00 20.00     0.010 C 
HETATM   11  O11 UNL     1     -35.472  13.491  -4.719  1.00 20.00    -0.293 OA
ENDROOT
TORSDOF 0
ENDMDL
MODEL 4
REMARK VINA RESULT:      -4.9      1.436      1.803
REMARK  0 active torsions:
REMARK  status: ('A' for Active; 'I' for Inactive)
ROOT
HETATM    1  C1  UNL     1     -36.798  14.780  -3.897  1.00 20.00    -0.013 C 
HETATM    2  C2  UNL     1     -36.184  15.749  -3.219  1.00 20.00    -0.066 C 
HETATM    3  C3  UNL     1     -35.724  13.802  -4.180  1.00 20.00     0.156 C 
HETATM    4  C4  UNL     1     -36.591  17.149  -2.911  1.00 20.00     0.036 C 
HETATM    5  C5  UNL     1     -34.368  14.319  -3.759  1.00 20.00     0.093 C 
HETATM    6  C6  UNL     1     -35.236  17.850  -2.710  1.00 20.00     0.009 C 
HETATM    7  C7  UNL     1     -34.737  15.525  -2.915  1.00 20.00     0.026 C 
HETATM    8  C8  UNL     1     -34.179  16.890  -3.296  1.00 20.00    -0.010 C 
HETATM    9  C9  UNL     1     -38.172  14.678  -4.433  1.00 20.00     0.052 C 
HETATM   10  C10 UNL     1     -32.782  17.138  -2.748  1.00 20.00     0.010 C 
HETATM   11  O11 UNL     1     -35.915  12.731  -4.737  1.00 20.00    -0.293 OA
ENDROOT
TORSDOF 0
ENDMDL
MODEL 5
REMARK VINA RESULT:      -4.8      2.029      4.396
REMARK  0 active torsions:
REMARK  status: ('A' for Active; 'I' for Inactive)
ROOT
HETATM    1  C1  UNL     1     -33.407  17.392  -1.899  1.00 20.00    -0.013 C 
HETATM    2  C2  UNL     1     -33.697  16.281  -2.576  1.00 20.00    -0.066 C 
HETATM    3  C3  UNL     1     -34.682  17.757  -1.242  1.00 20.00     0.156 C 
HETATM    4  C4  UNL     1     -32.981  15.583  -3.680  1.00 20.00     0.036 C 
HETATM    5  C5  UNL     1     -35.821  16.871  -1.693  1.00 20.00     0.093 C 
HETATM    6  C6  UNL     1     -34.121  14.827  -4.386  1.00 20.00     0.009 C 
HETATM    7  C7  UNL     1     -35.087  15.753  -2.410  1.00 20.00     0.026 C 
HETATM    8  C8  UNL     1     -35.427  15.462  -3.866  1.00 20.00    -0.010 C 
HETATM    9  C9  UNL     1     -32.192  18.232  -1.869  1.00 20.00     0.052 C 
HETATM   10  C10 UNL     1     -36.635  14.553  -4.026  1.00 20.00     0.010 C 
HETATM   11  O11 UNL     1     -34.800  18.697  -0.470  1.00 20.00    -0.293 OA
ENDROOT
TORSDOF 0
ENDMDL
MODEL 6
REMARK VINA RESULT:      -4.7      2.931      4.890
REMARK  0 active torsions:
REMARK  status: ('A' for Active; 'I' for Inactive)
ROOT
HETATM    1  C1  UNL     1     -32.379  18.423   0.800  1.00 20.00    -0.013 C 
HETATM    2  C2  UNL     1     -33.644  18.270   0.410  1.00 20.00    -0.066 C 
HETATM    3  C3  UNL     1     -31.597  18.281  -0.449  1.00 20.00     0.156 C 
HETATM    4  C4  UNL     1     -34.887  17.984   1.181  1.00 20.00     0.036 C 
HETATM    5  C5  UNL     1     -32.468  17.873  -1.614  1.00 20.00     0.093 C 
HETATM    6  C6  UNL     1     -35.782  17.312   0.126  1.00 20.00     0.009 C 
HETATM    7  C7  UNL     1     -33.863  18.094  -1.059  1.00 20.00     0.026 C 
HETATM    8  C8  UNL     1     -34.842  16.926  -1.035  1.00 20.00    -0.010 C 
HETATM    9  C9  UNL     1     -31.775  18.546   2.144  1.00 20.00     0.052 C 
HETATM   10  C10 UNL     1     -35.572  16.734  -2.354  1.00 20.00     0.010 C 
HETATM   11  O11 UNL     1     -30.385  18.427  -0.508  1.00 20.00    -0.293 OA
ENDROOT
TORSDOF 0
ENDMDL
MODEL 7
REMARK VINA RESULT:      -4.7      2.900      4.631
REMARK  0 active torsions:
REMARK  status: ('A' for Active; 'I' for Inactive)
ROOT
HETATM    1  C1  UNL     1     -33.418  18.242   0.653  1.00 20.00    -0.013 C 
HETATM    2  C2  UNL     1     -34.091  17.795  -0.407  1.00 20.00    -0.066 C 
HETATM    3  C3  UNL     1     -32.091  18.609   0.108  1.00 20.00     0.156 C 
HETATM    4  C4  UNL     1     -35.340  16.989  -0.515  1.00 20.00     0.036 C 
HETATM    5  C5  UNL     1     -31.947  18.206  -1.341  1.00 20.00     0.093 C 
HETATM    6  C6  UNL     1     -35.178  16.311  -1.886  1.00 20.00     0.009 C 
HETATM    7  C7  UNL     1     -33.378  17.870  -1.719  1.00 20.00     0.026 C 
HETATM    8  C8  UNL     1     -33.691  16.482  -2.263  1.00 20.00    -0.010 C 
HETATM    9  C9  UNL     1     -33.754  18.261   2.092  1.00 20.00     0.052 C 
HETATM   10  C10 UNL     1     -33.437  16.354  -3.756  1.00 20.00     0.010 C 
HETATM   11  O11 UNL     1     -31.207  19.127   0.774  1.00 20.00    -0.293 OA
ENDROOT
TORSDOF 0
ENDMDL
MODEL 8
REMARK VINA RESULT:      -4.5      1.751      3.368
REMARK  0 active torsions:
REMARK  status: ('A' for Active; 'I' for Inactive)
ROOT
HETATM    1  C1  UNL     1     -33.629  16.691  -2.434  1.00 20.00    -0.013 C 
HETATM    2  C2  UNL     1     -33.252  17.634  -1.571  1.00 20.00    -0.066 C 
HETATM    3  C3  UNL     1     -34.993  16.322  -1.992  1.00 20.00     0.156 C 
HETATM    4  C4  UNL     1     -31.910  18.197  -1.249  1.00 20.00     0.036 C 
HETATM    5  C5  UNL     1     -35.365  17.001  -0.694  1.00 20.00     0.093 C 
HETATM    6  C6  UNL     1     -32.103  18.703   0.191  1.00 20.00     0.009 C 
HETATM    7  C7  UNL     1     -34.271  18.044  -0.557  1.00 20.00     0.026 C 
HETATM    8  C8  UNL     1     -33.404  18.044   0.695  1.00 20.00    -0.010 C 
HETATM    9  C9  UNL     1     -32.891  15.991  -3.506  1.00 20.00     0.052 C 
HETATM   10  C10 UNL     1     -34.037  18.789   1.859  1.00 20.00     0.010 C 
HETATM   11  O11 UNL     1     -35.702  15.523  -2.584  1.00 20.00    -0.293 OA
ENDROOT
TORSDOF 0
ENDMDL
MODEL 9
REMARK VINA RESULT:      -4.5      1.915      2.619
REMARK  0 active torsions:
REMARK  status: ('A' for Active; 'I' for Inactive)
ROOT
HETATM    1  C1  UNL     1     -35.519  15.047  -5.634  1.00 20.00    -0.013 C 
HETATM    2  C2  UNL     1     -35.104  16.167  -5.043  1.00 20.00    -0.066 C 
HETATM    3  C3  UNL     1     -35.574  14.058  -4.534  1.00 20.00     0.156 C 
HETATM    4  C4  UNL     1     -34.541  17.428  -5.603  1.00 20.00     0.036 C 
HETATM    5  C5  UNL     1     -35.011  14.617  -3.247  1.00 20.00     0.093 C 
HETATM    6  C6  UNL     1     -33.713  17.971  -4.425  1.00 20.00     0.009 C 
HETATM    7  C7  UNL     1     -34.915  16.098  -3.561  1.00 20.00     0.026 C 
HETATM    8  C8  UNL     1     -33.564  16.792  -3.441  1.00 20.00    -0.010 C 
HETATM    9  C9  UNL     1     -35.741  14.714  -7.057  1.00 20.00     0.052 C 
HETATM   10  C10 UNL     1     -33.245  17.236  -2.023  1.00 20.00     0.010 C 
HETATM   11  O11 UNL     1     -35.979  12.914  -4.674  1.00 20.00    -0.293 OA
ENDROOT
TORSDOF 0
ENDMDL
