MODEL 1
REMARK VINA RESULT:      -3.9      0.000      0.000
REMARK  0 active torsions:
REMARK  status: ('A' for Active; 'I' for Inactive)
ROOT
HETATM    1  C1  UNL     1     -33.701   6.357   3.776  1.00 20.00     0.102 C 
HETATM    2  C2  UNL     1     -34.597   5.718   5.983  1.00 20.00     0.068 C 
HETATM    3  C3  UNL     1     -34.303   3.997   4.172  1.00 20.00     0.068 C 
HETATM    4  C4  UNL     1     -34.619   5.453   4.484  1.00 20.00     0.183 C 
HETATM    5  N5  UNL     1     -32.978   7.070   3.216  1.00 20.00    -0.194 NA
HETATM    6  F6  UNL     1     -35.880   5.712   4.034  1.00 20.00    -0.228 F 
ENDROOT
TORSDOF 0
ENDMDL
MODEL 2
REMARK VINA RESULT:      -3.6      1.388      1.519
REMARK  0 active torsions:
REMARK  status: ('A' for Active; 'I' for Inactive)
ROOT
HETATM    1  C1  UNL     1     -33.899   5.101   3.427  1.00 20.00     0.102 C 
HETATM    2  C2  UNL     1     -34.008   6.952   5.053  1.00 20.00     0.068 C 
HETATM    3  C3  UNL     1     -34.649   4.615   5.726  1.00 20.00     0.068 C 
HETATM    4  C4  UNL     1     -34.615   5.633   4.595  1.00 20.00     0.183 C 
HETATM    5  N5  UNL     1     -33.335   4.681   2.504  1.00 20.00    -0.194 NA
HETATM    6  F6  UNL     1     -35.901   5.876   4.214  1.00 20.00    -0.228 F 
ENDROOT
TORSDOF 0
ENDMDL
MODEL 3
REMARK VINA RESULT:      -3.6     12.097     12.353
REMARK  0 active torsions:
REMARK  status: ('A' for Active; 'I' for Inactive)
ROOT
HETATM    1  C1  UNL     1     -36.526  14.129  -4.278  1.00 20.00     0.102 C 
HETATM    2  C2  UNL     1     -34.916  15.411  -2.919  1.00 20.00     0.068 C 
HETATM    3  C3  UNL     1     -34.441  14.913  -5.339  1.00 20.00     0.068 C 
HETATM    4  C4  UNL     1     -35.102  14.420  -4.059  1.00 20.00     0.183 C 
HETATM    5  N5  UNL     1     -37.649  13.897  -4.450  1.00 20.00    -0.194 NA
HETATM    6  F6  UNL     1     -34.494  13.253  -3.700  1.00 20.00    -0.228 F 
ENDROOT
TORSDOF 0
ENDMDL
MODEL 4
REMARK VINA RESULT:      -3.6      8.540      8.839
REMARK  0 active torsions:
REMARK  status: ('A' for Active; 'I' for Inactive)
ROOT
HETATM    1  C1  UNL     1     -41.515   9.044   0.335  1.00 20.00     0.102 C 
HETATM    2  C2  UNL     1     -41.492   7.084  -1.161  1.00 20.00     0.068 C 
HETATM    3  C3  UNL     1     -42.917   7.098   0.911  1.00 20.00     0.068 C 
HETATM    4  C4  UNL     1     -41.623   7.580   0.272  1.00 20.00     0.183 C 
HETATM    5  N5  UNL     1     -41.429  10.200   0.385  1.00 20.00    -0.194 NA
HETATM    6  F6  UNL     1     -40.585   7.060   0.989  1.00 20.00    -0.228 F 
ENDROOT
TORSDOF 0
ENDMDL
MODEL 5
REMARK VINA RESULT:      -3.4     11.826     12.443
REMARK  0 active torsions:
REMARK  status: ('A' for Active; 'I' for Inactive)
ROOT
HETATM    1  C1  UNL     1     -35.348  13.837  -4.176  1.00 20.00     0.102 C 
HETATM    2  C2  UNL     1     -35.370  16.292  -4.412  1.00 20.00     0.068 C 
HETATM    3  C3  UNL     1     -33.205  15.055  -4.082  1.00 20.00     0.068 C 
HETATM    4  C4  UNL     1     -34.694  15.089  -3.769  1.00 20.00     0.183 C 
HETATM    5  N5  UNL     1     -35.865  12.849  -4.495  1.00 20.00    -0.194 NA
HETATM    6  F6  UNL     1     -34.834  15.206  -2.418  1.00 20.00    -0.228 F 
ENDROOT
TORSDOF 0
ENDMDL
MODEL 6
REMARK VINA RESULT:      -3.4     12.234     12.554
REMARK  0 active torsions:
REMARK  status: ('A' for Active; 'I' for Inactive)
ROOT
HETATM    1  C1  UNL     1     -35.428  13.824  -4.250  1.00 20.00     0.102 C 
HETATM    2  C2  UNL     1     -33.136  14.735  -4.286  1.00 20.00     0.068 C 
HETATM    3  C3  UNL     1     -34.833  15.599  -2.643  1.00 20.00     0.068 C 
HETATM    4  C4  UNL     1     -34.609  15.026  -4.035  1.00 20.00     0.183 C 
HETATM    5  N5  UNL     1     -36.075  12.876  -4.421  1.00 20.00    -0.194 NA
HETATM    6  F6  UNL     1     -35.009  15.964  -4.941  1.00 20.00    -0.228 F 
ENDROOT
TORSDOF 0
ENDMDL
MODEL 7
REMARK VINA RESULT:      -3.3      1.152      1.744
REMARK  0 active torsions:
REMARK  status: ('A' for Active; 'I' for Inactive)
ROOT
HETATM    1  C1  UNL     1     -33.572   6.166   3.703  1.00 20.00     0.102 C 
HETATM    2  C2  UNL     1     -35.948   5.542   3.926  1.00 20.00     0.068 C 
HETATM    3  C3  UNL     1     -34.481   5.751   5.958  1.00 20.00     0.068 C 
HETATM    4  C4  UNL     1     -34.540   5.382   4.483  1.00 20.00     0.183 C 
HETATM    5  N5  UNL     1     -32.808   6.783   3.086  1.00 20.00    -0.194 NA
HETATM    6  F6  UNL     1     -34.194   4.067   4.368  1.00 20.00    -0.228 F 
ENDROOT
TORSDOF 0
ENDMDL
MODEL 8
REMARK VINA RESULT:      -3.3      8.985      9.245
REMARK  0 active torsions:
REMARK  status: ('A' for Active; 'I' for Inactive)
ROOT
HETATM    1  C1  UNL     1     -41.538   9.016  -0.041  1.00 20.00     0.102 C 
HETATM    2  C2  UNL     1     -43.124   7.579  -1.266  1.00 20.00     0.068 C 
HETATM    3  C3  UNL     1     -41.609   6.608   0.491  1.00 20.00     0.068 C 
HETATM    4  C4  UNL     1     -41.765   7.671  -0.588  1.00 20.00     0.183 C 
HETATM    5  N5  UNL     1     -41.358  10.078   0.389  1.00 20.00    -0.194 NA
HETATM    6  F6  UNL     1     -40.810   7.445  -1.535  1.00 20.00    -0.228 F 
ENDROOT
TORSDOF 0
ENDMDL
MODEL 9
REMARK VINA RESULT:      -3.3     16.643     17.098
REMARK  0 active torsions:
REMARK  status: ('A' for Active; 'I' for Inactive)
ROOT
HETATM    1  C1  UNL     1     -22.847  16.938   9.615  1.00 20.00     0.102 C 
HETATM    2  C2  UNL     1     -22.605  17.643  11.967  1.00 20.00     0.068 C 
HETATM    3  C3  UNL     1     -24.491  16.131  11.269  1.00 20.00     0.068 C 
HETATM    4  C4  UNL     1     -23.571  17.270  10.850  1.00 20.00     0.183 C 
HETATM    5  N5  UNL     1     -22.276  16.677   8.640  1.00 20.00    -0.194 NA
HETATM    6  F6  UNL     1     -24.349  18.360  10.592  1.00 20.00    -0.228 F 
ENDROOT
TORSDOF 0
ENDMDL
