MODEL 1
REMARK VINA RESULT:      -4.8      0.000      0.000
REMARK  2 active torsions:
REMARK  status: ('A' for Active; 'I' for Inactive)
REMARK    1  A    between atoms: C7_7  and  C9_9 
REMARK    2  A    between atoms: C9_9  and  C10_10 
ROOT
HETATM    1  C1  UNL     1     -37.108  14.465  -4.475  1.00 20.00     0.064 C 
HETATM    2  C2  UNL     1     -35.782  16.598  -4.304  1.00 20.00     0.019 C 
HETATM    3  C3  UNL     1     -34.671  14.375  -3.846  1.00 20.00     0.019 C 
HETATM    4  C4  UNL     1     -34.408  17.257  -4.446  1.00 20.00     0.006 C 
HETATM    5  C5  UNL     1     -33.295  15.030  -3.987  1.00 20.00     0.006 C 
HETATM    6  C6  UNL     1     -35.737  15.109  -4.670  1.00 20.00     0.093 C 
HETATM    7  C7  UNL     1     -33.308  16.529  -3.664  1.00 20.00    -0.014 C 
HETATM    8  N11 UNL     1     -38.149  13.975  -4.326  1.00 20.00    -0.197 NA
ENDROOT
BRANCH   7   9
HETATM    9  C9  UNL     1     -33.453  16.756  -2.213  1.00 20.00     0.004 C 
BRANCH   9  10
HETATM   10  C10 UNL     1     -33.112  18.195  -1.844  1.00 20.00    -0.004 C 
HETATM   11  C8  UNL     1     -31.813  18.268  -1.055  1.00 20.00     0.005 C 
ENDBRANCH   9  10
ENDBRANCH   7   9
TORSDOF 2
ENDMDL
MODEL 2
REMARK VINA RESULT:      -4.8     10.789     13.529
REMARK  2 active torsions:
REMARK  status: ('A' for Active; 'I' for Inactive)
REMARK    1  A    between atoms: C7_7  and  C9_9 
REMARK    2  A    between atoms: C9_9  and  C10_10 
ROOT
HETATM    1  C1  UNL     1     -41.482   9.116   0.387  1.00 20.00     0.064 C 
HETATM    2  C2  UNL     1     -42.849   7.028   0.717  1.00 20.00     0.019 C 
HETATM    3  C3  UNL     1     -40.842   6.999  -0.818  1.00 20.00     0.019 C 
HETATM    4  C4  UNL     1     -42.848   5.498   0.750  1.00 20.00     0.006 C 
HETATM    5  C5  UNL     1     -40.837   5.469  -0.787  1.00 20.00     0.006 C 
HETATM    6  C6  UNL     1     -41.445   7.590   0.463  1.00 20.00     0.093 C 
HETATM    7  C7  UNL     1     -42.220   4.870  -0.499  1.00 20.00    -0.014 C 
HETATM    8  N11 UNL     1     -41.508  10.274   0.329  1.00 20.00    -0.197 NA
ENDROOT
BRANCH   7   9
HETATM    9  C9  UNL     1     -43.111   5.011  -1.667  1.00 20.00     0.004 C 
BRANCH   9  10
HETATM   10  C10 UNL     1     -43.416   3.655  -2.294  1.00 20.00    -0.004 C 
HETATM   11  C8  UNL     1     -42.217   3.120  -3.060  1.00 20.00     0.005 C 
ENDBRANCH   9  10
ENDBRANCH   7   9
TORSDOF 2
ENDMDL
MODEL 3
REMARK VINA RESULT:      -4.5      1.799      2.534
REMARK  2 active torsions:
REMARK  status: ('A' for Active; 'I' for Inactive)
REMARK    1  A    between atoms: C7_7  and  C9_9 
REMARK    2  A    between atoms: C9_9  and  C10_10 
ROOT
HETATM    1  C1  UNL     1     -34.498  14.302  -3.747  1.00 20.00     0.064 C 
HETATM    2  C2  UNL     1     -35.197  16.073  -2.101  1.00 20.00     0.019 C 
HETATM    3  C3  UNL     1     -33.154  16.422  -3.545  1.00 20.00     0.019 C 
HETATM    4  C4  UNL     1     -35.223  17.569  -1.774  1.00 20.00     0.006 C 
HETATM    5  C5  UNL     1     -33.176  17.917  -3.221  1.00 20.00     0.006 C 
HETATM    6  C6  UNL     1     -34.555  15.803  -3.467  1.00 20.00     0.093 C 
HETATM    7  C7  UNL     1     -33.844  18.231  -1.877  1.00 20.00    -0.014 C 
HETATM    8  N11 UNL     1     -34.454  13.163  -3.961  1.00 20.00    -0.197 NA
ENDROOT
BRANCH   7   9
HETATM    9  C9  UNL     1     -32.980  17.829  -0.750  1.00 20.00     0.004 C 
BRANCH   9  10
HETATM   10  C10 UNL     1     -31.660  18.590  -0.769  1.00 20.00    -0.004 C 
HETATM   11  C8  UNL     1     -30.824  18.275   0.462  1.00 20.00     0.005 C 
ENDBRANCH   9  10
ENDBRANCH   7   9
TORSDOF 2
ENDMDL
MODEL 4
REMARK VINA RESULT:      -4.4      3.096      5.236
REMARK  2 active torsions:
REMARK  status: ('A' for Active; 'I' for Inactive)
REMARK    1  A    between atoms: C7_7  and  C9_9 
REMARK    2  A    between atoms: C9_9  and  C10_10 
ROOT
HETATM    1  C1  UNL     1     -31.688  18.330  -0.975  1.00 20.00     0.064 C 
HETATM    2  C2  UNL     1     -32.836  17.438  -3.030  1.00 20.00     0.019 C 
HETATM    3  C3  UNL     1     -34.084  17.569  -0.837  1.00 20.00     0.019 C 
HETATM    4  C4  UNL     1     -34.162  17.272  -3.777  1.00 20.00     0.006 C 
HETATM    5  C5  UNL     1     -35.412  17.403  -1.579  1.00 20.00     0.006 C 
HETATM    6  C6  UNL     1     -33.016  18.221  -1.724  1.00 20.00     0.093 C 
HETATM    7  C7  UNL     1     -35.267  16.656  -2.910  1.00 20.00    -0.014 C 
HETATM    8  N11 UNL     1     -30.681  18.414  -0.406  1.00 20.00    -0.197 NA
ENDROOT
BRANCH   7   9
HETATM    9  C9  UNL     1     -35.022  15.218  -2.685  1.00 20.00     0.004 C 
BRANCH   9  10
HETATM   10  C10 UNL     1     -34.894  14.467  -4.006  1.00 20.00    -0.004 C 
HETATM   11  C8  UNL     1     -36.230  13.884  -4.439  1.00 20.00     0.005 C 
ENDBRANCH   9  10
ENDBRANCH   7   9
TORSDOF 2
ENDMDL
MODEL 5
REMARK VINA RESULT:      -4.3      1.744      1.978
REMARK  2 active torsions:
REMARK  status: ('A' for Active; 'I' for Inactive)
REMARK    1  A    between atoms: C7_7  and  C9_9 
REMARK    2  A    between atoms: C9_9  and  C10_10 
ROOT
HETATM    1  C1  UNL     1     -35.610  13.955  -4.381  1.00 20.00     0.064 C 
HETATM    2  C2  UNL     1     -36.173  16.209  -3.412  1.00 20.00     0.019 C 
HETATM    3  C3  UNL     1     -33.795  15.359  -3.345  1.00 20.00     0.019 C 
HETATM    4  C4  UNL     1     -35.676  17.626  -3.113  1.00 20.00     0.006 C 
HETATM    5  C5  UNL     1     -33.294  16.773  -3.046  1.00 20.00     0.006 C 
HETATM    6  C6  UNL     1     -35.108  15.377  -4.137  1.00 20.00     0.093 C 
HETATM    7  C7  UNL     1     -34.345  17.648  -2.352  1.00 20.00    -0.014 C 
HETATM    8  N11 UNL     1     -35.991  12.875  -4.567  1.00 20.00    -0.197 NA
ENDROOT
BRANCH   7   9
HETATM    9  C9  UNL     1     -34.532  17.237  -0.948  1.00 20.00     0.004 C 
BRANCH   9  10
HETATM   10  C10 UNL     1     -33.800  18.176   0.004  1.00 20.00    -0.004 C 
HETATM   11  C8  UNL     1     -34.286  18.000   1.434  1.00 20.00     0.005 C 
ENDBRANCH   9  10
ENDBRANCH   7   9
TORSDOF 2
ENDMDL
MODEL 6
REMARK VINA RESULT:      -4.3      2.454      4.400
REMARK  2 active torsions:
REMARK  status: ('A' for Active; 'I' for Inactive)
REMARK    1  A    between atoms: C7_7  and  C9_9 
REMARK    2  A    between atoms: C9_9  and  C10_10 
ROOT
HETATM    1  C1  UNL     1     -34.910  17.075  -1.426  1.00 20.00     0.064 C 
HETATM    2  C2  UNL     1     -35.626  15.388  -3.151  1.00 20.00     0.019 C 
HETATM    3  C3  UNL     1     -33.263  16.284  -3.158  1.00 20.00     0.019 C 
HETATM    4  C4  UNL     1     -35.193  14.234  -4.060  1.00 20.00     0.006 C 
HETATM    5  C5  UNL     1     -32.826  15.132  -4.067  1.00 20.00     0.006 C 
HETATM    6  C6  UNL     1     -34.465  15.894  -2.287  1.00 20.00     0.093 C 
HETATM    7  C7  UNL     1     -33.971  14.574  -4.921  1.00 20.00    -0.014 C 
HETATM    8  N11 UNL     1     -35.247  17.971  -0.771  1.00 20.00    -0.197 NA
ENDROOT
BRANCH   7   9
HETATM    9  C9  UNL     1     -34.330  15.512  -6.002  1.00 20.00     0.004 C 
BRANCH   9  10
HETATM   10  C10 UNL     1     -35.438  14.943  -6.881  1.00 20.00    -0.004 C 
HETATM   11  C8  UNL     1     -36.560  15.950  -7.074  1.00 20.00     0.005 C 
ENDBRANCH   9  10
ENDBRANCH   7   9
TORSDOF 2
ENDMDL
MODEL 7
REMARK VINA RESULT:      -4.3      1.676      2.224
REMARK  2 active torsions:
REMARK  status: ('A' for Active; 'I' for Inactive)
REMARK    1  A    between atoms: C7_7  and  C9_9 
REMARK    2  A    between atoms: C9_9  and  C10_10 
ROOT
HETATM    1  C1  UNL     1     -35.935  15.005  -6.892  1.00 20.00     0.064 C 
HETATM    2  C2  UNL     1     -33.761  14.911  -5.627  1.00 20.00     0.019 C 
HETATM    3  C3  UNL     1     -35.888  15.585  -4.442  1.00 20.00     0.019 C 
HETATM    4  C4  UNL     1     -33.084  14.667  -4.275  1.00 20.00     0.006 C 
HETATM    5  C5  UNL     1     -35.216  15.343  -3.089  1.00 20.00     0.006 C 
HETATM    6  C6  UNL     1     -35.279  14.709  -5.545  1.00 20.00     0.093 C 
HETATM    7  C7  UNL     1     -33.691  15.500  -3.140  1.00 20.00    -0.014 C 
HETATM    8  N11 UNL     1     -36.434  15.229  -7.915  1.00 20.00    -0.197 NA
ENDROOT
BRANCH   7   9
HETATM    9  C9  UNL     1     -33.309  16.920  -3.264  1.00 20.00     0.004 C 
BRANCH   9  10
HETATM   10  C10 UNL     1     -33.460  17.649  -1.934  1.00 20.00    -0.004 C 
HETATM   11  C8  UNL     1     -32.119  18.165  -1.434  1.00 20.00     0.005 C 
ENDBRANCH   9  10
ENDBRANCH   7   9
TORSDOF 2
ENDMDL
MODEL 8
REMARK VINA RESULT:      -4.2      2.873      5.015
REMARK  2 active torsions:
REMARK  status: ('A' for Active; 'I' for Inactive)
REMARK    1  A    between atoms: C7_7  and  C9_9 
REMARK    2  A    between atoms: C9_9  and  C10_10 
ROOT
HETATM    1  C1  UNL     1     -32.219  18.316  -1.847  1.00 20.00     0.064 C 
HETATM    2  C2  UNL     1     -34.549  17.393  -1.606  1.00 20.00     0.019 C 
HETATM    3  C3  UNL     1     -32.996  16.469  -3.372  1.00 20.00     0.019 C 
HETATM    4  C4  UNL     1     -35.455  16.170  -1.761  1.00 20.00     0.006 C 
HETATM    5  C5  UNL     1     -33.899  15.244  -3.529  1.00 20.00     0.006 C 
HETATM    6  C6  UNL     1     -33.093  17.068  -1.963  1.00 20.00     0.093 C 
HETATM    7  C7  UNL     1     -35.358  15.520  -3.146  1.00 20.00    -0.014 C 
HETATM    8  N11 UNL     1     -31.555  19.263  -1.759  1.00 20.00    -0.197 NA
ENDROOT
BRANCH   7   9
HETATM    9  C9  UNL     1     -36.024  16.352  -4.167  1.00 20.00     0.004 C 
BRANCH   9  10
HETATM   10  C10 UNL     1     -36.883  15.501  -5.096  1.00 20.00    -0.004 C 
HETATM   11  C8  UNL     1     -37.733  14.515  -4.311  1.00 20.00     0.005 C 
ENDBRANCH   9  10
ENDBRANCH   7   9
TORSDOF 2
ENDMDL
MODEL 9
REMARK VINA RESULT:      -4.2      3.563      5.451
REMARK  2 active torsions:
REMARK  status: ('A' for Active; 'I' for Inactive)
REMARK    1  A    between atoms: C7_7  and  C9_9 
REMARK    2  A    between atoms: C9_9  and  C10_10 
ROOT
HETATM    1  C1  UNL     1     -33.418  18.036   2.012  1.00 20.00     0.064 C 
HETATM    2  C2  UNL     1     -32.998  18.181  -0.466  1.00 20.00     0.019 C 
HETATM    3  C3  UNL     1     -35.204  17.300   0.396  1.00 20.00     0.019 C 
HETATM    4  C4  UNL     1     -33.617  18.377  -1.853  1.00 20.00     0.006 C 
HETATM    5  C5  UNL     1     -35.826  17.494  -0.988  1.00 20.00     0.006 C 
HETATM    6  C6  UNL     1     -34.052  18.283   0.644  1.00 20.00     0.093 C 
HETATM    7  C7  UNL     1     -34.796  17.435  -2.123  1.00 20.00    -0.014 C 
HETATM    8  N11 UNL     1     -32.937  17.850   3.051  1.00 20.00    -0.197 NA
ENDROOT
BRANCH   7   9
HETATM    9  C9  UNL     1     -34.329  16.053  -2.342  1.00 20.00     0.004 C 
BRANCH   9  10
HETATM   10  C10 UNL     1     -33.218  16.005  -3.384  1.00 20.00    -0.004 C 
HETATM   11  C8  UNL     1     -33.333  14.765  -4.256  1.00 20.00     0.005 C 
ENDBRANCH   9  10
ENDBRANCH   7   9
TORSDOF 2
ENDMDL
