MODEL 1
REMARK VINA RESULT:      -4.3      0.000      0.000
REMARK  2 active torsions:
REMARK  status: ('A' for Active; 'I' for Inactive)
REMARK    1  A    between atoms: C1_1  and  C3_3 
REMARK    2  A    between atoms: C2_2  and  C6_6 
ROOT
HETATM    1  C1  UNL     1     -35.046  14.740  -3.736  1.00 20.00     0.046 C 
HETATM    2  C2  UNL     1     -35.405  15.719  -2.896  1.00 20.00    -0.014 C 
ENDROOT
BRANCH   2   3
HETATM    3  C6  UNL     1     -34.437  16.700  -2.317  1.00 20.00    -0.026 A 
HETATM    4  C4  UNL     1     -34.703  17.137  -0.903  1.00 20.00     0.014 A 
HETATM    5  C5  UNL     1     -34.974  18.076  -2.038  1.00 20.00     0.014 A 
HETATM    6  C8  UNL     1     -33.025  16.550  -2.779  1.00 20.00     0.019 C 
ENDBRANCH   2   3
BRANCH   1   7
HETATM    7  C3  UNL     1     -36.061  13.795  -4.278  1.00 20.00     0.145 C 
HETATM    8  C7  UNL     1     -37.458  14.329  -4.463  1.00 20.00     0.096 C 
HETATM    9  O9  UNL     1     -35.788  12.628  -4.553  1.00 20.00    -0.294 OA
ENDBRANCH   1   7
TORSDOF 2
ENDMDL
MODEL 2
REMARK VINA RESULT:      -4.3     15.961     17.663
REMARK  2 active torsions:
REMARK  status: ('A' for Active; 'I' for Inactive)
REMARK    1  A    between atoms: C1_1  and  C3_3 
REMARK    2  A    between atoms: C2_2  and  C6_6 
ROOT
HETATM    1  C1  UNL     1     -23.284  18.002   9.382  1.00 20.00     0.046 C 
HETATM    2  C2  UNL     1     -24.297  17.542  10.126  1.00 20.00    -0.014 C 
ENDROOT
BRANCH   2   3
HETATM    3  C6  UNL     1     -24.143  17.119  11.552  1.00 20.00    -0.026 A 
HETATM    4  C4  UNL     1     -24.599  15.725  11.883  1.00 20.00     0.014 A 
HETATM    5  C5  UNL     1     -25.416  16.902  12.321  1.00 20.00     0.014 A 
HETATM    6  C8  UNL     1     -22.954  17.683  12.259  1.00 20.00     0.019 C 
ENDBRANCH   2   3
BRANCH   1   7
HETATM    7  C3  UNL     1     -23.505  18.407   7.966  1.00 20.00     0.145 C 
HETATM    8  C7  UNL     1     -24.801  19.108   7.653  1.00 20.00     0.096 C 
HETATM    9  O9  UNL     1     -22.682  18.175   7.083  1.00 20.00    -0.294 OA
ENDBRANCH   1   7
TORSDOF 2
ENDMDL
MODEL 3
REMARK VINA RESULT:      -4.2      0.985      1.663
REMARK  2 active torsions:
REMARK  status: ('A' for Active; 'I' for Inactive)
REMARK    1  A    between atoms: C1_1  and  C3_3 
REMARK    2  A    between atoms: C2_2  and  C6_6 
ROOT
HETATM    1  C1  UNL     1     -35.599  14.861  -3.560  1.00 20.00     0.046 C 
HETATM    2  C2  UNL     1     -34.522  15.655  -3.516  1.00 20.00    -0.014 C 
ENDROOT
BRANCH   2   3
HETATM    3  C6  UNL     1     -34.292  16.669  -2.441  1.00 20.00    -0.026 A 
HETATM    4  C4  UNL     1     -33.867  18.036  -2.899  1.00 20.00     0.014 A 
HETATM    5  C5  UNL     1     -32.872  17.123  -2.250  1.00 20.00     0.014 A 
HETATM    6  C8  UNL     1     -35.182  16.544  -1.248  1.00 20.00     0.019 C 
ENDBRANCH   2   3
BRANCH   1   7
HETATM    7  C3  UNL     1     -35.767  13.872  -4.660  1.00 20.00     0.145 C 
HETATM    8  C7  UNL     1     -35.827  14.417  -6.063  1.00 20.00     0.096 C 
HETATM    9  O9  UNL     1     -35.867  12.665  -4.445  1.00 20.00    -0.294 OA
ENDBRANCH   1   7
TORSDOF 2
ENDMDL
MODEL 4
REMARK VINA RESULT:      -4.2     10.581     11.309
REMARK  2 active torsions:
REMARK  status: ('A' for Active; 'I' for Inactive)
REMARK    1  A    between atoms: C1_1  and  C3_3 
REMARK    2  A    between atoms: C2_2  and  C6_6 
ROOT
HETATM    1  C1  UNL     1     -32.647   7.165   2.631  1.00 20.00     0.046 C 
HETATM    2  C2  UNL     1     -33.886   6.889   3.058  1.00 20.00    -0.014 C 
ENDROOT
BRANCH   2   3
HETATM    3  C6  UNL     1     -34.171   6.122   4.309  1.00 20.00    -0.026 A 
HETATM    4  C4  UNL     1     -34.160   4.624   4.185  1.00 20.00     0.014 A 
HETATM    5  C5  UNL     1     -35.462   5.351   4.335  1.00 20.00     0.014 A 
HETATM    6  C8  UNL     1     -33.676   6.753   5.570  1.00 20.00     0.019 C 
ENDBRANCH   2   3
BRANCH   1   7
HETATM    7  C3  UNL     1     -32.432   7.934   1.374  1.00 20.00     0.145 C 
HETATM    8  C7  UNL     1     -33.190   9.228   1.229  1.00 20.00     0.096 C 
HETATM    9  O9  UNL     1     -31.682   7.536   0.484  1.00 20.00    -0.294 OA
ENDBRANCH   1   7
TORSDOF 2
ENDMDL
MODEL 5
REMARK VINA RESULT:      -4.1      3.250      5.231
REMARK  2 active torsions:
REMARK  status: ('A' for Active; 'I' for Inactive)
REMARK    1  A    between atoms: C1_1  and  C3_3 
REMARK    2  A    between atoms: C2_2  and  C6_6 
ROOT
HETATM    1  C1  UNL     1     -33.101  17.412  -1.877  1.00 20.00     0.046 C 
HETATM    2  C2  UNL     1     -32.972  16.738  -3.026  1.00 20.00    -0.014 C 
ENDROOT
BRANCH   2   3
HETATM    3  C6  UNL     1     -33.962  15.722  -3.498  1.00 20.00    -0.026 A 
HETATM    4  C4  UNL     1     -33.398  14.543  -4.241  1.00 20.00     0.014 A 
HETATM    5  C5  UNL     1     -34.139  15.610  -4.987  1.00 20.00     0.014 A 
HETATM    6  C8  UNL     1     -35.146  15.525  -2.609  1.00 20.00     0.019 C 
ENDBRANCH   2   3
BRANCH   1   7
HETATM    7  C3  UNL     1     -32.078  18.412  -1.464  1.00 20.00     0.145 C 
HETATM    8  C7  UNL     1     -31.599  18.348  -0.037  1.00 20.00     0.096 C 
HETATM    9  O9  UNL     1     -31.645  19.263  -2.240  1.00 20.00    -0.294 OA
ENDBRANCH   1   7
TORSDOF 2
ENDMDL
MODEL 6
REMARK VINA RESULT:      -4.0      1.177      2.025
REMARK  2 active torsions:
REMARK  status: ('A' for Active; 'I' for Inactive)
REMARK    1  A    between atoms: C1_1  and  C3_3 
REMARK    2  A    between atoms: C2_2  and  C6_6 
ROOT
HETATM    1  C1  UNL     1     -36.651  15.651  -3.810  1.00 20.00     0.046 C 
HETATM    2  C2  UNL     1     -35.500  15.294  -3.226  1.00 20.00    -0.014 C 
ENDROOT
BRANCH   2   3
HETATM    3  C6  UNL     1     -34.468  16.278  -2.777  1.00 20.00    -0.026 A 
HETATM    4  C4  UNL     1     -33.858  17.135  -3.850  1.00 20.00     0.014 A 
HETATM    5  C5  UNL     1     -33.061  16.022  -3.241  1.00 20.00     0.014 A 
HETATM    6  C8  UNL     1     -34.690  16.859  -1.419  1.00 20.00     0.019 C 
ENDBRANCH   2   3
BRANCH   1   7
HETATM    7  C3  UNL     1     -37.638  14.620  -4.234  1.00 20.00     0.145 C 
HETATM    8  C7  UNL     1     -39.088  15.028  -4.242  1.00 20.00     0.096 C 
HETATM    9  O9  UNL     1     -37.298  13.482  -4.554  1.00 20.00    -0.294 OA
ENDBRANCH   1   7
TORSDOF 2
ENDMDL
MODEL 7
REMARK VINA RESULT:      -3.9      3.465      5.282
REMARK  2 active torsions:
REMARK  status: ('A' for Active; 'I' for Inactive)
REMARK    1  A    between atoms: C1_1  and  C3_3 
REMARK    2  A    between atoms: C2_2  and  C6_6 
ROOT
HETATM    1  C1  UNL     1     -32.328  17.919  -1.984  1.00 20.00     0.046 C 
HETATM    2  C2  UNL     1     -33.320  17.020  -2.008  1.00 20.00    -0.014 C 
ENDROOT
BRANCH   2   3
HETATM    3  C6  UNL     1     -33.977  16.556  -3.268  1.00 20.00    -0.026 A 
HETATM    4  C4  UNL     1     -34.871  15.354  -3.146  1.00 20.00     0.014 A 
HETATM    5  C5  UNL     1     -33.529  15.222  -3.798  1.00 20.00     0.014 A 
HETATM    6  C8  UNL     1     -34.338  17.637  -4.234  1.00 20.00     0.019 C 
ENDBRANCH   2   3
BRANCH   1   7
HETATM    7  C3  UNL     1     -31.716  18.339  -0.693  1.00 20.00     0.145 C 
HETATM    8  C7  UNL     1     -32.659  18.626   0.446  1.00 20.00     0.096 C 
HETATM    9  O9  UNL     1     -30.500  18.460  -0.554  1.00 20.00    -0.294 OA
ENDBRANCH   1   7
TORSDOF 2
ENDMDL
MODEL 8
REMARK VINA RESULT:      -3.9     11.158     11.975
REMARK  2 active torsions:
REMARK  status: ('A' for Active; 'I' for Inactive)
REMARK    1  A    between atoms: C1_1  and  C3_3 
REMARK    2  A    between atoms: C2_2  and  C6_6 
ROOT
HETATM    1  C1  UNL     1     -33.146   6.444   2.409  1.00 20.00     0.046 C 
HETATM    2  C2  UNL     1     -33.507   6.260   3.686  1.00 20.00    -0.014 C 
ENDROOT
BRANCH   2   3
HETATM    3  C6  UNL     1     -34.318   5.093   4.150  1.00 20.00    -0.026 A 
HETATM    4  C4  UNL     1     -35.773   5.360   4.416  1.00 20.00     0.014 A 
HETATM    5  C5  UNL     1     -34.829   5.160   5.562  1.00 20.00     0.014 A 
HETATM    6  C8  UNL     1     -33.912   3.771   3.586  1.00 20.00     0.019 C 
ENDBRANCH   2   3
BRANCH   1   7
HETATM    7  C3  UNL     1     -32.337   7.630   2.013  1.00 20.00     0.145 C 
HETATM    8  C7  UNL     1     -32.689   8.287   0.705  1.00 20.00     0.096 C 
HETATM    9  O9  UNL     1     -31.415   8.054   2.708  1.00 20.00    -0.294 OA
ENDBRANCH   1   7
TORSDOF 2
ENDMDL
MODEL 9
REMARK VINA RESULT:      -3.9      3.081      4.817
REMARK  2 active torsions:
REMARK  status: ('A' for Active; 'I' for Inactive)
REMARK    1  A    between atoms: C1_1  and  C3_3 
REMARK    2  A    between atoms: C2_2  and  C6_6 
ROOT
HETATM    1  C1  UNL     1     -32.843  17.371  -2.519  1.00 20.00     0.046 C 
HETATM    2  C2  UNL     1     -33.733  16.378  -2.408  1.00 20.00    -0.014 C 
ENDROOT
BRANCH   2   3
HETATM    3  C6  UNL     1     -34.209  15.566  -3.570  1.00 20.00    -0.026 A 
HETATM    4  C4  UNL     1     -35.322  16.164  -4.384  1.00 20.00     0.014 A 
HETATM    5  C5  UNL     1     -35.603  15.014  -3.467  1.00 20.00     0.014 A 
HETATM    6  C8  UNL     1     -33.156  14.759  -4.256  1.00 20.00     0.019 C 
ENDBRANCH   2   3
BRANCH   1   7
HETATM    7  C3  UNL     1     -32.411  18.142  -1.320  1.00 20.00     0.145 C 
HETATM    8  C7  UNL     1     -33.418  18.293  -0.210  1.00 20.00     0.096 C 
HETATM    9  O9  UNL     1     -31.293  18.645  -1.234  1.00 20.00    -0.294 OA
ENDBRANCH   1   7
TORSDOF 2
ENDMDL
