MODEL 1
REMARK VINA RESULT:      -4.5      0.000      0.000
REMARK  1 active torsions:
REMARK  status: ('A' for Active; 'I' for Inactive)
REMARK    1  A    between atoms: C1_1  and  C7_7 
ROOT
HETATM    1  C2  UNL     1     -33.779  15.833  -3.705  1.00 20.00     0.006 C 
HETATM    2  C3  UNL     1     -34.561  14.533  -3.495  1.00 20.00     0.017 C 
HETATM    3  C4  UNL     1     -34.442  16.531  -4.885  1.00 20.00     0.069 C 
HETATM    4  C5  UNL     1     -35.593  15.186  -7.899  1.00 20.00     0.197 C 
HETATM    5  C6  UNL     1     -34.093  15.111  -7.828  1.00 20.00     0.197 C 
HETATM    6  C7  UNL     1     -35.470  14.364  -4.720  1.00 20.00     0.109 C 
HETATM    7  C8  UNL     1     -34.945  15.377  -5.743  1.00 20.00     0.173 C 
HETATM    8  O10 UNL     1     -35.943  15.813  -6.666  1.00 20.00    -0.352 OA
HETATM    9  O11 UNL     1     -33.847  14.784  -6.460  1.00 20.00    -0.352 OA
ENDROOT
BRANCH   6  10
HETATM   10  C1  UNL     1     -36.899  14.617  -4.336  1.00 20.00     0.241 C 
HETATM   11  O9  UNL     1     -37.792  13.788  -4.473  1.00 20.00    -0.306 OA
ENDBRANCH   6  10
TORSDOF 1
ENDMDL
MODEL 2
REMARK VINA RESULT:      -4.4      2.222      2.867
REMARK  1 active torsions:
REMARK  status: ('A' for Active; 'I' for Inactive)
REMARK    1  A    between atoms: C1_1  and  C7_7 
ROOT
HETATM    1  C2  UNL     1     -33.893  15.634  -2.970  1.00 20.00     0.006 C 
HETATM    2  C3  UNL     1     -34.027  14.785  -4.238  1.00 20.00     0.017 C 
HETATM    3  C4  UNL     1     -35.310  16.053  -2.601  1.00 20.00     0.069 C 
HETATM    4  C5  UNL     1     -37.905  17.165  -4.661  1.00 20.00     0.197 C 
HETATM    5  C6  UNL     1     -36.795  18.178  -4.620  1.00 20.00     0.197 C 
HETATM    6  C7  UNL     1     -35.467  14.964  -4.737  1.00 20.00     0.109 C 
HETATM    7  C8  UNL     1     -36.012  16.159  -3.949  1.00 20.00     0.173 C 
HETATM    8  O10 UNL     1     -37.431  16.133  -3.798  1.00 20.00    -0.352 OA
HETATM    9  O11 UNL     1     -35.617  17.372  -4.614  1.00 20.00    -0.352 OA
ENDROOT
BRANCH   6  10
HETATM   10  C1  UNL     1     -36.251  13.706  -4.499  1.00 20.00     0.241 C 
HETATM   11  O9  UNL     1     -35.747  12.589  -4.477  1.00 20.00    -0.306 OA
ENDBRANCH   6  10
TORSDOF 1
ENDMDL
MODEL 3
REMARK VINA RESULT:      -4.3      1.712      3.199
REMARK  1 active torsions:
REMARK  status: ('A' for Active; 'I' for Inactive)
REMARK    1  A    between atoms: C1_1  and  C7_7 
ROOT
HETATM    1  C2  UNL     1     -34.316  15.051  -6.781  1.00 20.00     0.006 C 
HETATM    2  C3  UNL     1     -35.821  15.171  -6.523  1.00 20.00     0.017 C 
HETATM    3  C4  UNL     1     -33.682  14.772  -5.425  1.00 20.00     0.069 C 
HETATM    4  C5  UNL     1     -34.373  16.209  -2.314  1.00 20.00     0.197 C 
HETATM    5  C6  UNL     1     -33.746  17.220  -3.234  1.00 20.00     0.197 C 
HETATM    6  C7  UNL     1     -36.000  15.244  -5.001  1.00 20.00     0.109 C 
HETATM    7  C8  UNL     1     -34.595  15.505  -4.450  1.00 20.00     0.173 C 
HETATM    8  O10 UNL     1     -34.417  15.029  -3.115  1.00 20.00    -0.352 OA
HETATM    9  O11 UNL     1     -34.333  16.918  -4.499  1.00 20.00    -0.352 OA
ENDROOT
BRANCH   6  10
HETATM   10  C1  UNL     1     -36.593  13.962  -4.493  1.00 20.00     0.241 C 
HETATM   11  O9  UNL     1     -37.800  13.753  -4.431  1.00 20.00    -0.306 OA
ENDBRANCH   6  10
TORSDOF 1
ENDMDL
MODEL 4
REMARK VINA RESULT:      -4.1      2.302      3.363
REMARK  1 active torsions:
REMARK  status: ('A' for Active; 'I' for Inactive)
REMARK    1  A    between atoms: C1_1  and  C7_7 
ROOT
HETATM    1  C2  UNL     1     -33.735  16.673  -2.125  1.00 20.00     0.006 C 
HETATM    2  C3  UNL     1     -33.147  16.111  -3.423  1.00 20.00     0.017 C 
HETATM    3  C4  UNL     1     -35.154  16.127  -2.041  1.00 20.00     0.069 C 
HETATM    4  C5  UNL     1     -37.566  15.818  -4.552  1.00 20.00     0.197 C 
HETATM    5  C6  UNL     1     -37.308  17.267  -4.245  1.00 20.00     0.197 C 
HETATM    6  C7  UNL     1     -34.315  15.492  -4.201  1.00 20.00     0.109 C 
HETATM    7  C8  UNL     1     -35.575  16.008  -3.500  1.00 20.00     0.173 C 
HETATM    8  O10 UNL     1     -36.698  15.138  -3.647  1.00 20.00    -0.352 OA
HETATM    9  O11 UNL     1     -35.898  17.308  -4.025  1.00 20.00    -0.352 OA
ENDROOT
BRANCH   6  10
HETATM   10  C1  UNL     1     -34.211  13.995  -4.176  1.00 20.00     0.241 C 
HETATM   11  O9  UNL     1     -33.158  13.388  -4.337  1.00 20.00    -0.306 OA
ENDBRANCH   6  10
TORSDOF 1
ENDMDL
MODEL 5
REMARK VINA RESULT:      -4.0      2.235      4.096
REMARK  1 active torsions:
REMARK  status: ('A' for Active; 'I' for Inactive)
REMARK    1  A    between atoms: C1_1  and  C7_7 
ROOT
HETATM    1  C2  UNL     1     -36.756  14.872  -4.149  1.00 20.00     0.006 C 
HETATM    2  C3  UNL     1     -35.610  13.855  -4.129  1.00 20.00     0.017 C 
HETATM    3  C4  UNL     1     -36.095  16.243  -4.094  1.00 20.00     0.069 C 
HETATM    4  C5  UNL     1     -33.402  17.333  -2.151  1.00 20.00     0.197 C 
HETATM    5  C6  UNL     1     -34.596  17.048  -1.282  1.00 20.00     0.197 C 
HETATM    6  C7  UNL     1     -34.337  14.635  -3.777  1.00 20.00     0.109 C 
HETATM    7  C8  UNL     1     -34.833  15.996  -3.277  1.00 20.00     0.173 C 
HETATM    8  O10 UNL     1     -33.881  17.045  -3.462  1.00 20.00    -0.352 OA
HETATM    9  O11 UNL     1     -35.165  15.884  -1.882  1.00 20.00    -0.352 OA
ENDROOT
BRANCH   6  10
HETATM   10  C1  UNL     1     -33.455  14.749  -4.986  1.00 20.00     0.241 C 
HETATM   11  O9  UNL     1     -33.834  14.500  -6.125  1.00 20.00    -0.306 OA
ENDBRANCH   6  10
TORSDOF 1
ENDMDL
MODEL 6
REMARK VINA RESULT:      -4.0      1.447      1.514
REMARK  1 active torsions:
REMARK  status: ('A' for Active; 'I' for Inactive)
REMARK    1  A    between atoms: C1_1  and  C7_7 
ROOT
HETATM    1  C2  UNL     1     -34.554  16.583  -3.038  1.00 20.00     0.006 C 
HETATM    2  C3  UNL     1     -34.131  15.146  -3.361  1.00 20.00     0.017 C 
HETATM    3  C4  UNL     1     -35.722  16.890  -3.966  1.00 20.00     0.069 C 
HETATM    4  C5  UNL     1     -36.127  16.130  -7.353  1.00 20.00     0.197 C 
HETATM    5  C6  UNL     1     -35.036  17.148  -7.169  1.00 20.00     0.197 C 
HETATM    6  C7  UNL     1     -34.864  14.753  -4.650  1.00 20.00     0.109 C 
HETATM    7  C8  UNL     1     -35.412  16.069  -5.210  1.00 20.00     0.173 C 
HETATM    8  O10 UNL     1     -36.576  15.894  -6.020  1.00 20.00    -0.352 OA
HETATM    9  O11 UNL     1     -34.380  16.712  -5.979  1.00 20.00    -0.352 OA
ENDROOT
BRANCH   6  10
HETATM   10  C1  UNL     1     -35.946  13.759  -4.342  1.00 20.00     0.241 C 
HETATM   11  O9  UNL     1     -35.853  12.561  -4.587  1.00 20.00    -0.306 OA
ENDBRANCH   6  10
TORSDOF 1
ENDMDL
MODEL 7
REMARK VINA RESULT:      -4.0      1.975      3.093
REMARK  1 active torsions:
REMARK  status: ('A' for Active; 'I' for Inactive)
REMARK    1  A    between atoms: C1_1  and  C7_7 
ROOT
HETATM    1  C2  UNL     1     -37.083  16.977  -4.956  1.00 20.00     0.006 C 
HETATM    2  C3  UNL     1     -37.457  15.740  -4.134  1.00 20.00     0.017 C 
HETATM    3  C4  UNL     1     -35.683  16.711  -5.493  1.00 20.00     0.069 C 
HETATM    4  C5  UNL     1     -32.914  15.318  -3.877  1.00 20.00     0.197 C 
HETATM    5  C6  UNL     1     -33.243  16.663  -3.292  1.00 20.00     0.197 C 
HETATM    6  C7  UNL     1     -36.174  14.915  -3.973  1.00 20.00     0.109 C 
HETATM    7  C8  UNL     1     -35.044  15.854  -4.407  1.00 20.00     0.173 C 
HETATM    8  O10 UNL     1     -33.896  15.163  -4.900  1.00 20.00    -0.352 OA
HETATM    9  O11 UNL     1     -34.670  16.677  -3.288  1.00 20.00    -0.352 OA
ENDROOT
BRANCH   6  10
HETATM   10  C1  UNL     1     -36.252  13.675  -4.816  1.00 20.00     0.241 C 
HETATM   11  O9  UNL     1     -35.865  12.575  -4.437  1.00 20.00    -0.306 OA
ENDBRANCH   6  10
TORSDOF 1
ENDMDL
MODEL 8
REMARK VINA RESULT:      -3.9      2.409      3.229
REMARK  1 active torsions:
REMARK  status: ('A' for Active; 'I' for Inactive)
REMARK    1  A    between atoms: C1_1  and  C7_7 
ROOT
HETATM    1  C2  UNL     1     -33.207  16.413  -3.562  1.00 20.00     0.006 C 
HETATM    2  C3  UNL     1     -33.834  16.462  -2.165  1.00 20.00     0.017 C 
HETATM    3  C4  UNL     1     -34.373  16.359  -4.540  1.00 20.00     0.069 C 
HETATM    4  C5  UNL     1     -37.335  14.511  -4.362  1.00 20.00     0.197 C 
HETATM    5  C6  UNL     1     -36.156  13.599  -4.560  1.00 20.00     0.197 C 
HETATM    6  C7  UNL     1     -35.326  16.150  -2.343  1.00 20.00     0.109 C 
HETATM    7  C8  UNL     1     -35.447  15.602  -3.769  1.00 20.00     0.173 C 
HETATM    8  O10 UNL     1     -36.739  15.807  -4.342  1.00 20.00    -0.352 OA
HETATM    9  O11 UNL     1     -35.142  14.196  -3.753  1.00 20.00    -0.352 OA
ENDROOT
BRANCH   6  10
HETATM   10  C1  UNL     1     -36.139  17.393  -2.129  1.00 20.00     0.241 C 
HETATM   11  O9  UNL     1     -35.646  18.508  -1.994  1.00 20.00    -0.306 OA
ENDBRANCH   6  10
TORSDOF 1
ENDMDL
MODEL 9
REMARK VINA RESULT:      -3.8      1.567      2.598
REMARK  1 active torsions:
REMARK  status: ('A' for Active; 'I' for Inactive)
REMARK    1  A    between atoms: C1_1  and  C7_7 
ROOT
HETATM    1  C2  UNL     1     -35.881  15.041  -3.432  1.00 20.00     0.006 C 
HETATM    2  C3  UNL     1     -34.447  15.471  -3.107  1.00 20.00     0.017 C 
HETATM    3  C4  UNL     1     -35.843  14.517  -4.861  1.00 20.00     0.069 C 
HETATM    4  C5  UNL     1     -34.192  15.810  -7.657  1.00 20.00     0.197 C 
HETATM    5  C6  UNL     1     -35.303  16.728  -7.232  1.00 20.00     0.197 C 
HETATM    6  C7  UNL     1     -33.673  15.457  -4.432  1.00 20.00     0.109 C 
HETATM    7  C8  UNL     1     -34.750  15.351  -5.517  1.00 20.00     0.173 C 
HETATM    8  O10 UNL     1     -34.280  14.740  -6.719  1.00 20.00    -0.352 OA
HETATM    9  O11 UNL     1     -35.246  16.671  -5.806  1.00 20.00    -0.352 OA
ENDROOT
BRANCH   6  10
HETATM   10  C1  UNL     1     -32.715  14.301  -4.454  1.00 20.00     0.241 C 
HETATM   11  O9  UNL     1     -33.035  13.153  -4.169  1.00 20.00    -0.306 OA
ENDBRANCH   6  10
TORSDOF 1
ENDMDL
