MODEL 1
REMARK VINA RESULT:      -4.6      0.000      0.000
REMARK  0 active torsions:
REMARK  status: ('A' for Active; 'I' for Inactive)
ROOT
HETATM    1  C1  UNL     1     -32.418   8.162   1.181  1.00 20.00     0.015 C 
HETATM    2  C2  UNL     1     -32.617   7.360   2.052  1.00 20.00    -0.083 C 
HETATM    3  C3  UNL     1     -33.220   5.020   2.582  1.00 20.00     0.216 C 
HETATM    4  C4  UNL     1     -32.858   6.386   3.114  1.00 20.00     0.226 C 
HETATM    5  C5  UNL     1     -34.571   5.512   4.335  1.00 20.00     0.158 C 
HETATM    6  C6  UNL     1     -36.060   5.508   4.010  1.00 20.00     0.078 C 
HETATM    7  C7  UNL     1     -34.330   5.368   5.831  1.00 20.00     0.078 C 
HETATM    8  O8  UNL     1     -33.934   4.418   3.661  1.00 20.00    -0.352 OA
HETATM    9  O9  UNL     1     -34.009   6.754   3.883  1.00 20.00    -0.336 OA
ENDROOT
TORSDOF 0
ENDMDL
MODEL 2
REMARK VINA RESULT:      -4.3     16.213     17.092
REMARK  0 active torsions:
REMARK  status: ('A' for Active; 'I' for Inactive)
ROOT
HETATM    1  C1  UNL     1     -21.747  17.375   7.885  1.00 20.00     0.015 C 
HETATM    2  C2  UNL     1     -22.336  17.734   8.868  1.00 20.00    -0.083 C 
HETATM    3  C3  UNL     1     -22.341  17.799  11.341  1.00 20.00     0.216 C 
HETATM    4  C4  UNL     1     -23.053  18.171  10.063  1.00 20.00     0.226 C 
HETATM    5  C5  UNL     1     -24.558  17.394  11.586  1.00 20.00     0.158 C 
HETATM    6  C6  UNL     1     -24.907  15.949  11.921  1.00 20.00     0.078 C 
HETATM    7  C7  UNL     1     -25.694  18.338  11.956  1.00 20.00     0.078 C 
HETATM    8  O8  UNL     1     -23.385  17.782  12.314  1.00 20.00    -0.352 OA
HETATM    9  O9  UNL     1     -24.307  17.488  10.174  1.00 20.00    -0.336 OA
ENDROOT
TORSDOF 0
ENDMDL
MODEL 3
REMARK VINA RESULT:      -4.2     16.009     16.746
REMARK  0 active torsions:
REMARK  status: ('A' for Active; 'I' for Inactive)
ROOT
HETATM    1  C1  UNL     1     -25.285  19.179   6.958  1.00 20.00     0.015 C 
HETATM    2  C2  UNL     1     -24.589  18.941   7.907  1.00 20.00    -0.083 C 
HETATM    3  C3  UNL     1     -22.834  17.469   8.840  1.00 20.00     0.216 C 
HETATM    4  C4  UNL     1     -23.742  18.654   9.062  1.00 20.00     0.226 C 
HETATM    5  C5  UNL     1     -23.709  17.348  10.928  1.00 20.00     0.158 C 
HETATM    6  C6  UNL     1     -24.504  16.079  11.211  1.00 20.00     0.078 C 
HETATM    7  C7  UNL     1     -23.267  18.024  12.219  1.00 20.00     0.078 C 
HETATM    8  O8  UNL     1     -22.542  17.017  10.162  1.00 20.00    -0.352 OA
HETATM    9  O9  UNL     1     -24.540  18.251  10.182  1.00 20.00    -0.336 OA
ENDROOT
TORSDOF 0
ENDMDL
MODEL 4
REMARK VINA RESULT:      -3.9     16.005     17.199
REMARK  0 active torsions:
REMARK  status: ('A' for Active; 'I' for Inactive)
ROOT
HETATM    1  C1  UNL     1     -26.116  16.456  12.332  1.00 20.00     0.015 C 
HETATM    2  C2  UNL     1     -25.083  16.541  11.726  1.00 20.00    -0.083 C 
HETATM    3  C3  UNL     1     -22.877  17.650  11.588  1.00 20.00     0.216 C 
HETATM    4  C4  UNL     1     -23.827  16.643  10.987  1.00 20.00     0.226 C 
HETATM    5  C5  UNL     1     -22.862  17.875   9.332  1.00 20.00     0.158 C 
HETATM    6  C6  UNL     1     -23.255  19.259   8.829  1.00 20.00     0.078 C 
HETATM    7  C7  UNL     1     -22.092  17.098   8.273  1.00 20.00     0.078 C 
HETATM    8  O8  UNL     1     -22.033  18.009  10.494  1.00 20.00    -0.352 OA
HETATM    9  O9  UNL     1     -24.058  17.154   9.670  1.00 20.00    -0.336 OA
ENDROOT
TORSDOF 0
ENDMDL
MODEL 5
REMARK VINA RESULT:      -3.9     11.550     12.214
REMARK  0 active torsions:
REMARK  status: ('A' for Active; 'I' for Inactive)
ROOT
HETATM    1  C1  UNL     1     -32.894  17.641  -2.256  1.00 20.00     0.015 C 
HETATM    2  C2  UNL     1     -33.368  16.631  -2.700  1.00 20.00    -0.083 C 
HETATM    3  C3  UNL     1     -33.096  14.780  -4.319  1.00 20.00     0.216 C 
HETATM    4  C4  UNL     1     -33.946  15.402  -3.237  1.00 20.00     0.226 C 
HETATM    5  C5  UNL     1     -35.272  14.691  -4.948  1.00 20.00     0.158 C 
HETATM    6  C6  UNL     1     -35.582  15.397  -6.263  1.00 20.00     0.078 C 
HETATM    7  C7  UNL     1     -36.357  13.686  -4.590  1.00 20.00     0.078 C 
HETATM    8  O8  UNL     1     -34.023  13.994  -5.066  1.00 20.00    -0.352 OA
HETATM    9  O9  UNL     1     -35.180  15.679  -3.909  1.00 20.00    -0.336 OA
ENDROOT
TORSDOF 0
ENDMDL
MODEL 6
REMARK VINA RESULT:      -3.8     11.889     12.782
REMARK  0 active torsions:
REMARK  status: ('A' for Active; 'I' for Inactive)
ROOT
HETATM    1  C1  UNL     1     -34.070  16.981  -1.573  1.00 20.00     0.015 C 
HETATM    2  C2  UNL     1     -34.258  16.211  -2.475  1.00 20.00    -0.083 C 
HETATM    3  C3  UNL     1     -33.210  14.837  -4.245  1.00 20.00     0.216 C 
HETATM    4  C4  UNL     1     -34.488  15.275  -3.572  1.00 20.00     0.226 C 
HETATM    5  C5  UNL     1     -34.772  15.259  -5.832  1.00 20.00     0.158 C 
HETATM    6  C6  UNL     1     -34.377  16.328  -6.844  1.00 20.00     0.078 C 
HETATM    7  C7  UNL     1     -35.892  14.377  -6.367  1.00 20.00     0.078 C 
HETATM    8  O8  UNL     1     -33.636  14.432  -5.546  1.00 20.00    -0.352 OA
HETATM    9  O9  UNL     1     -35.216  15.909  -4.630  1.00 20.00    -0.336 OA
ENDROOT
TORSDOF 0
ENDMDL
MODEL 7
REMARK VINA RESULT:      -3.8     11.284     12.151
REMARK  0 active torsions:
REMARK  status: ('A' for Active; 'I' for Inactive)
ROOT
HETATM    1  C1  UNL     1     -32.958  17.091  -2.371  1.00 20.00     0.015 C 
HETATM    2  C2  UNL     1     -33.793  16.289  -2.691  1.00 20.00    -0.083 C 
HETATM    3  C3  UNL     1     -34.271  14.242  -3.995  1.00 20.00     0.216 C 
HETATM    4  C4  UNL     1     -34.810  15.314  -3.079  1.00 20.00     0.226 C 
HETATM    5  C5  UNL     1     -36.301  14.910  -4.753  1.00 20.00     0.158 C 
HETATM    6  C6  UNL     1     -36.300  15.456  -6.176  1.00 20.00     0.078 C 
HETATM    7  C7  UNL     1     -37.698  14.483  -4.324  1.00 20.00     0.078 C 
HETATM    8  O8  UNL     1     -35.432  13.771  -4.679  1.00 20.00    -0.352 OA
HETATM    9  O9  UNL     1     -35.829  15.939  -3.868  1.00 20.00    -0.336 OA
ENDROOT
TORSDOF 0
ENDMDL
MODEL 8
REMARK VINA RESULT:      -3.7     16.128     16.777
REMARK  0 active torsions:
REMARK  status: ('A' for Active; 'I' for Inactive)
ROOT
HETATM    1  C1  UNL     1     -24.247  19.247   7.307  1.00 20.00     0.015 C 
HETATM    2  C2  UNL     1     -24.557  18.658   8.306  1.00 20.00    -0.083 C 
HETATM    3  C3  UNL     1     -25.335  18.861  10.645  1.00 20.00     0.216 C 
HETATM    4  C4  UNL     1     -24.934  17.938   9.520  1.00 20.00     0.226 C 
HETATM    5  C5  UNL     1     -24.026  17.207  11.477  1.00 20.00     0.158 C 
HETATM    6  C6  UNL     1     -22.758  17.688  12.172  1.00 20.00     0.078 C 
HETATM    7  C7  UNL     1     -24.386  15.790  11.902  1.00 20.00     0.078 C 
HETATM    8  O8  UNL     1     -25.115  18.077  11.818  1.00 20.00    -0.352 OA
HETATM    9  O9  UNL     1     -23.808  17.234  10.058  1.00 20.00    -0.336 OA
ENDROOT
TORSDOF 0
ENDMDL
MODEL 9
REMARK VINA RESULT:      -3.7     16.291     17.276
REMARK  0 active torsions:
REMARK  status: ('A' for Active; 'I' for Inactive)
ROOT
HETATM    1  C1  UNL     1     -27.202  19.263  11.735  1.00 20.00     0.015 C 
HETATM    2  C2  UNL     1     -26.293  18.608  11.304  1.00 20.00    -0.083 C 
HETATM    3  C3  UNL     1     -24.965  16.536  11.550  1.00 20.00     0.216 C 
HETATM    4  C4  UNL     1     -25.187  17.813  10.776  1.00 20.00     0.226 C 
HETATM    5  C5  UNL     1     -22.956  17.484  11.098  1.00 20.00     0.158 C 
HETATM    6  C6  UNL     1     -22.117  17.812  12.327  1.00 20.00     0.078 C 
HETATM    7  C7  UNL     1     -22.096  17.410   9.844  1.00 20.00     0.078 C 
HETATM    8  O8  UNL     1     -23.600  16.215  11.286  1.00 20.00    -0.352 OA
HETATM    9  O9  UNL     1     -23.947  18.511  10.932  1.00 20.00    -0.336 OA
ENDROOT
TORSDOF 0
ENDMDL
