MODEL 1
REMARK VINA RESULT:      -4.8      0.000      0.000
REMARK  2 active torsions:
REMARK  status: ('A' for Active; 'I' for Inactive)
REMARK    1  A    between atoms: C2_2  and  C5_5 
REMARK    2  A    between atoms: C5_5  and  O6_6 
ROOT
HETATM    1  C1  UNL     1     -35.511   5.669   4.215  1.00 20.00     0.097 A 
HETATM    2  C2  UNL     1     -34.056   6.095   4.326  1.00 20.00     0.049 A 
HETATM    3  C3  UNL     1     -34.488   4.726   4.734  1.00 20.00     0.254 A 
HETATM    4  C4  UNL     1     -33.689   7.074   5.406  1.00 20.00     0.024 C 
HETATM    5  F7  UNL     1     -34.501   4.348   6.058  1.00 20.00    -0.205 F 
HETATM    6  F8  UNL     1     -34.131   3.617   4.000  1.00 20.00    -0.205 F 
ENDROOT
BRANCH   2   7
HETATM    7  C5  UNL     1     -33.265   6.239   3.054  1.00 20.00     0.179 C 
BRANCH   7   8
HETATM    8  O6  UNL     1     -32.193   7.151   3.266  1.00 20.00    -0.400 OA
HETATM    9  H16 UNL     1     -32.571   7.924   3.715  1.00 20.00     0.209 HD
ENDBRANCH   7   8
ENDBRANCH   2   7
TORSDOF 2
ENDMDL
MODEL 2
REMARK VINA RESULT:      -4.4      1.569      1.931
REMARK  2 active torsions:
REMARK  status: ('A' for Active; 'I' for Inactive)
REMARK    1  A    between atoms: C2_2  and  C5_5 
REMARK    2  A    between atoms: C5_5  and  O6_6 
ROOT
HETATM    1  C1  UNL     1     -35.598   5.522   3.845  1.00 20.00     0.097 A 
HETATM    2  C2  UNL     1     -34.484   5.742   4.855  1.00 20.00     0.049 A 
HETATM    3  C3  UNL     1     -34.299   4.817   3.697  1.00 20.00     0.254 A 
HETATM    4  C4  UNL     1     -34.644   5.141   6.223  1.00 20.00     0.024 C 
HETATM    5  F7  UNL     1     -34.226   3.454   3.879  1.00 20.00    -0.205 F 
HETATM    6  F8  UNL     1     -33.452   5.135   2.659  1.00 20.00    -0.205 F 
ENDROOT
BRANCH   2   7
HETATM    7  C5  UNL     1     -33.760   7.060   4.831  1.00 20.00     0.179 C 
BRANCH   7   8
HETATM    8  O6  UNL     1     -33.025   7.218   6.040  1.00 20.00    -0.400 OA
HETATM    9  H16 UNL     1     -33.607   6.924   6.758  1.00 20.00     0.209 HD
ENDBRANCH   7   8
ENDBRANCH   2   7
TORSDOF 2
ENDMDL
MODEL 3
REMARK VINA RESULT:      -4.3      1.598      2.007
REMARK  2 active torsions:
REMARK  status: ('A' for Active; 'I' for Inactive)
REMARK    1  A    between atoms: C2_2  and  C5_5 
REMARK    2  A    between atoms: C5_5  and  O6_6 
ROOT
HETATM    1  C1  UNL     1     -35.572   5.805   4.440  1.00 20.00     0.097 A 
HETATM    2  C2  UNL     1     -34.121   5.602   4.037  1.00 20.00     0.049 A 
HETATM    3  C3  UNL     1     -34.510   5.710   5.474  1.00 20.00     0.254 A 
HETATM    4  C4  UNL     1     -33.396   6.760   3.410  1.00 20.00     0.024 C 
HETATM    5  F7  UNL     1     -34.171   6.815   6.223  1.00 20.00    -0.205 F 
HETATM    6  F8  UNL     1     -34.454   4.619   6.312  1.00 20.00    -0.205 F 
ENDROOT
BRANCH   2   7
HETATM    7  C5  UNL     1     -33.718   4.252   3.511  1.00 20.00     0.179 C 
BRANCH   7   8
HETATM    8  O6  UNL     1     -33.001   4.414   2.292  1.00 20.00    -0.400 OA
HETATM    9  H16 UNL     1     -32.931   3.533   1.892  1.00 20.00     0.209 HD
ENDBRANCH   7   8
ENDBRANCH   2   7
TORSDOF 2
ENDMDL
MODEL 4
REMARK VINA RESULT:      -4.0     11.989     12.567
REMARK  2 active torsions:
REMARK  status: ('A' for Active; 'I' for Inactive)
REMARK    1  A    between atoms: C2_2  and  C5_5 
REMARK    2  A    between atoms: C5_5  and  O6_6 
ROOT
HETATM    1  C1  UNL     1     -34.711  16.386  -4.143  1.00 20.00     0.097 A 
HETATM    2  C2  UNL     1     -34.359  14.921  -3.943  1.00 20.00     0.049 A 
HETATM    3  C3  UNL     1     -34.355  15.875  -2.794  1.00 20.00     0.254 A 
HETATM    4  C4  UNL     1     -33.036  14.436  -4.466  1.00 20.00     0.024 C 
HETATM    5  F7  UNL     1     -33.177  16.263  -2.195  1.00 20.00    -0.205 F 
HETATM    6  F8  UNL     1     -35.309  15.804  -1.805  1.00 20.00    -0.205 F 
ENDROOT
BRANCH   2   7
HETATM    7  C5  UNL     1     -35.471  13.912  -4.020  1.00 20.00     0.179 C 
BRANCH   7   8
HETATM    8  O6  UNL     1     -34.923  12.599  -3.966  1.00 20.00    -0.400 OA
HETATM    9  H16 UNL     1     -34.840  12.372  -3.026  1.00 20.00     0.209 HD
ENDBRANCH   7   8
ENDBRANCH   2   7
TORSDOF 2
ENDMDL
MODEL 5
REMARK VINA RESULT:      -4.0      9.190      9.777
REMARK  2 active torsions:
REMARK  status: ('A' for Active; 'I' for Inactive)
REMARK    1  A    between atoms: C2_2  and  C5_5 
REMARK    2  A    between atoms: C5_5  and  O6_6 
ROOT
HETATM    1  C1  UNL     1     -42.856   7.458  -1.232  1.00 20.00     0.097 A 
HETATM    2  C2  UNL     1     -42.040   6.578  -0.299  1.00 20.00     0.049 A 
HETATM    3  C3  UNL     1     -41.852   8.059  -0.317  1.00 20.00     0.254 A 
HETATM    4  C4  UNL     1     -40.963   5.720  -0.902  1.00 20.00     0.024 C 
HETATM    5  F7  UNL     1     -40.704   8.625  -0.823  1.00 20.00    -0.205 F 
HETATM    6  F8  UNL     1     -42.259   8.842   0.740  1.00 20.00    -0.205 F 
ENDROOT
BRANCH   2   7
HETATM    7  C5  UNL     1     -42.739   5.967   0.885  1.00 20.00     0.179 C 
BRANCH   7   8
HETATM    8  O6  UNL     1     -41.973   4.871   1.371  1.00 20.00    -0.400 OA
HETATM    9  H16 UNL     1     -41.057   5.026   1.091  1.00 20.00     0.209 HD
ENDBRANCH   7   8
ENDBRANCH   2   7
TORSDOF 2
ENDMDL
MODEL 6
REMARK VINA RESULT:      -3.9     16.125     17.161
REMARK  2 active torsions:
REMARK  status: ('A' for Active; 'I' for Inactive)
REMARK    1  A    between atoms: C2_2  and  C5_5 
REMARK    2  A    between atoms: C5_5  and  O6_6 
ROOT
HETATM    1  C1  UNL     1     -22.865  17.751  12.208  1.00 20.00     0.097 A 
HETATM    2  C2  UNL     1     -24.299  17.495  11.774  1.00 20.00     0.049 A 
HETATM    3  C3  UNL     1     -23.217  17.705  10.767  1.00 20.00     0.254 A 
HETATM    4  C4  UNL     1     -25.303  18.596  11.975  1.00 20.00     0.024 C 
HETATM    5  F7  UNL     1     -23.167  18.850  10.003  1.00 20.00    -0.205 F 
HETATM    6  F8  UNL     1     -22.769  16.670   9.976  1.00 20.00    -0.205 F 
ENDROOT
BRANCH   2   7
HETATM    7  C5  UNL     1     -24.850  16.106  11.943  1.00 20.00     0.179 C 
BRANCH   7   8
HETATM    8  O6  UNL     1     -26.272  16.154  11.907  1.00 20.00    -0.400 OA
HETATM    9  H16 UNL     1     -26.573  16.181  12.829  1.00 20.00     0.209 HD
ENDBRANCH   7   8
ENDBRANCH   2   7
TORSDOF 2
ENDMDL
MODEL 7
REMARK VINA RESULT:      -3.8     16.990     17.731
REMARK  2 active torsions:
REMARK  status: ('A' for Active; 'I' for Inactive)
REMARK    1  A    between atoms: C2_2  and  C5_5 
REMARK    2  A    between atoms: C5_5  and  O6_6 
ROOT
HETATM    1  C1  UNL     1     -23.462  16.877   9.863  1.00 20.00     0.097 A 
HETATM    2  C2  UNL     1     -23.597  17.758  11.094  1.00 20.00     0.049 A 
HETATM    3  C3  UNL     1     -23.295  18.349   9.757  1.00 20.00     0.254 A 
HETATM    4  C4  UNL     1     -22.495  17.715  12.115  1.00 20.00     0.024 C 
HETATM    5  F7  UNL     1     -22.058  18.888   9.480  1.00 20.00    -0.205 F 
HETATM    6  F8  UNL     1     -24.228  19.107   9.086  1.00 20.00    -0.205 F 
ENDROOT
BRANCH   2   7
HETATM    7  C5  UNL     1     -24.973  17.965  11.666  1.00 20.00     0.179 C 
BRANCH   7   8
HETATM    8  O6  UNL     1     -25.023  19.222  12.331  1.00 20.00    -0.400 OA
HETATM    9  H16 UNL     1     -25.112  19.898  11.640  1.00 20.00     0.209 HD
ENDBRANCH   7   8
ENDBRANCH   2   7
TORSDOF 2
ENDMDL
MODEL 8
REMARK VINA RESULT:      -3.8      8.945      9.727
REMARK  2 active torsions:
REMARK  status: ('A' for Active; 'I' for Inactive)
REMARK    1  A    between atoms: C2_2  and  C5_5 
REMARK    2  A    between atoms: C5_5  and  O6_6 
ROOT
HETATM    1  C1  UNL     1     -42.780   6.178   1.045  1.00 20.00     0.097 A 
HETATM    2  C2  UNL     1     -42.266   6.365  -0.372  1.00 20.00     0.049 A 
HETATM    3  C3  UNL     1     -42.171   7.467   0.631  1.00 20.00     0.254 A 
HETATM    4  C4  UNL     1     -43.276   6.498  -1.477  1.00 20.00     0.024 C 
HETATM    5  F7  UNL     1     -42.949   8.598   0.522  1.00 20.00    -0.205 F 
HETATM    6  F8  UNL     1     -40.957   7.858   1.149  1.00 20.00    -0.205 F 
ENDROOT
BRANCH   2   7
HETATM    7  C5  UNL     1     -41.000   5.652  -0.762  1.00 20.00     0.179 C 
BRANCH   7   8
HETATM    8  O6  UNL     1     -41.322   4.531  -1.577  1.00 20.00    -0.400 OA
HETATM    9  H16 UNL     1     -40.629   4.472  -2.255  1.00 20.00     0.209 HD
ENDBRANCH   7   8
ENDBRANCH   2   7
TORSDOF 2
ENDMDL
MODEL 9
REMARK VINA RESULT:      -3.7     12.920     13.368
REMARK  2 active torsions:
REMARK  status: ('A' for Active; 'I' for Inactive)
REMARK    1  A    between atoms: C2_2  and  C5_5 
REMARK    2  A    between atoms: C5_5  and  O6_6 
ROOT
HETATM    1  C1  UNL     1     -34.494  15.724  -2.640  1.00 20.00     0.097 A 
HETATM    2  C2  UNL     1     -34.419  14.899  -3.914  1.00 20.00     0.049 A 
HETATM    3  C3  UNL     1     -34.798  16.342  -3.956  1.00 20.00     0.254 A 
HETATM    4  C4  UNL     1     -35.495  13.877  -4.155  1.00 20.00     0.024 C 
HETATM    5  F7  UNL     1     -36.083  16.733  -4.257  1.00 20.00    -0.205 F 
HETATM    6  F8  UNL     1     -33.951  17.286  -4.491  1.00 20.00    -0.205 F 
ENDROOT
BRANCH   2   7
HETATM    7  C5  UNL     1     -33.058  14.509  -4.423  1.00 20.00     0.179 C 
BRANCH   7   8
HETATM    8  O6  UNL     1     -33.071  14.499  -5.846  1.00 20.00    -0.400 OA
HETATM    9  H16 UNL     1     -32.470  15.205  -6.133  1.00 20.00     0.209 HD
ENDBRANCH   7   8
ENDBRANCH   2   7
TORSDOF 2
ENDMDL
