MODEL 1
REMARK VINA RESULT:      -4.2      0.000      0.000
REMARK  0 active torsions:
REMARK  status: ('A' for Active; 'I' for Inactive)
ROOT
HETATM    1  C1  UNL     1     -25.405  18.919   7.168  1.00 20.00     0.015 C 
HETATM    2  C2  UNL     1     -24.999  18.878   8.296  1.00 20.00    -0.083 C 
HETATM    3  C3  UNL     1     -25.613  18.862  10.693  1.00 20.00     0.216 C 
HETATM    4  C4  UNL     1     -24.504  18.827   9.670  1.00 20.00     0.226 C 
HETATM    5  C5  UNL     1     -24.072  17.324  11.325  1.00 20.00     0.158 C 
HETATM    6  C6  UNL     1     -24.613  15.908  11.490  1.00 20.00     0.078 C 
HETATM    7  C7  UNL     1     -22.757  17.505  12.071  1.00 20.00     0.078 C 
HETATM    8  O8  UNL     1     -25.027  18.261  11.846  1.00 20.00    -0.352 OA
HETATM    9  O9  UNL     1     -23.860  17.574   9.927  1.00 20.00    -0.336 OA
ENDROOT
TORSDOF 0
ENDMDL
MODEL 2
REMARK VINA RESULT:      -4.0     16.693     18.922
REMARK  0 active torsions:
REMARK  status: ('A' for Active; 'I' for Inactive)
ROOT
HETATM    1  C1  UNL     1     -35.050  16.291  -1.614  1.00 20.00     0.015 C 
HETATM    2  C2  UNL     1     -34.818  15.737  -2.652  1.00 20.00    -0.083 C 
HETATM    3  C3  UNL     1     -35.563  14.012  -4.263  1.00 20.00     0.216 C 
HETATM    4  C4  UNL     1     -34.535  15.063  -3.917  1.00 20.00     0.226 C 
HETATM    5  C5  UNL     1     -35.055  15.194  -6.130  1.00 20.00     0.158 C 
HETATM    6  C6  UNL     1     -36.241  15.888  -6.790  1.00 20.00     0.078 C 
HETATM    7  C7  UNL     1     -33.894  15.035  -7.104  1.00 20.00     0.078 C 
HETATM    8  O8  UNL     1     -35.457  13.891  -5.681  1.00 20.00    -0.352 OA
HETATM    9  O9  UNL     1     -34.626  15.983  -5.010  1.00 20.00    -0.336 OA
ENDROOT
TORSDOF 0
ENDMDL
MODEL 3
REMARK VINA RESULT:      -4.0      1.827      2.280
REMARK  0 active torsions:
REMARK  status: ('A' for Active; 'I' for Inactive)
ROOT
HETATM    1  C1  UNL     1     -26.397  18.885   5.765  1.00 20.00     0.015 C 
HETATM    2  C2  UNL     1     -25.565  19.048   6.615  1.00 20.00    -0.083 C 
HETATM    3  C3  UNL     1     -25.136  19.263   9.043  1.00 20.00     0.216 C 
HETATM    4  C4  UNL     1     -24.553  19.244   7.650  1.00 20.00     0.226 C 
HETATM    5  C5  UNL     1     -23.225  18.042   9.057  1.00 20.00     0.158 C 
HETATM    6  C6  UNL     1     -23.392  16.600   9.522  1.00 20.00     0.078 C 
HETATM    7  C7  UNL     1     -21.775  18.495   9.162  1.00 20.00     0.078 C 
HETATM    8  O8  UNL     1     -24.034  18.901   9.874  1.00 20.00    -0.352 OA
HETATM    9  O9  UNL     1     -23.650  18.133   7.688  1.00 20.00    -0.336 OA
ENDROOT
TORSDOF 0
ENDMDL
MODEL 4
REMARK VINA RESULT:      -3.9     15.934     18.206
REMARK  0 active torsions:
REMARK  status: ('A' for Active; 'I' for Inactive)
ROOT
HETATM    1  C1  UNL     1     -33.318  17.302  -1.877  1.00 20.00     0.015 C 
HETATM    2  C2  UNL     1     -33.523  16.766  -2.931  1.00 20.00    -0.083 C 
HETATM    3  C3  UNL     1     -33.150  14.742  -4.305  1.00 20.00     0.216 C 
HETATM    4  C4  UNL     1     -33.775  16.114  -4.214  1.00 20.00     0.226 C 
HETATM    5  C5  UNL     1     -35.236  14.666  -5.190  1.00 20.00     0.158 C 
HETATM    6  C6  UNL     1     -36.178  13.670  -4.523  1.00 20.00     0.078 C 
HETATM    7  C7  UNL     1     -35.723  15.040  -6.584  1.00 20.00     0.078 C 
HETATM    8  O8  UNL     1     -33.929  14.083  -5.302  1.00 20.00    -0.352 OA
HETATM    9  O9  UNL     1     -35.172  15.850  -4.379  1.00 20.00    -0.336 OA
ENDROOT
TORSDOF 0
ENDMDL
MODEL 5
REMARK VINA RESULT:      -3.7     14.009     16.348
REMARK  0 active torsions:
REMARK  status: ('A' for Active; 'I' for Inactive)
ROOT
HETATM    1  C1  UNL     1     -31.503  18.354  -0.770  1.00 20.00     0.015 C 
HETATM    2  C2  UNL     1     -32.411  17.988  -1.465  1.00 20.00    -0.083 C 
HETATM    3  C3  UNL     1     -33.322  17.901  -3.764  1.00 20.00     0.216 C 
HETATM    4  C4  UNL     1     -33.515  17.541  -2.310  1.00 20.00     0.226 C 
HETATM    5  C5  UNL     1     -34.118  15.783  -3.626  1.00 20.00     0.158 C 
HETATM    6  C6  UNL     1     -33.227  14.723  -4.265  1.00 20.00     0.078 C 
HETATM    7  C7  UNL     1     -35.547  15.281  -3.466  1.00 20.00     0.078 C 
HETATM    8  O8  UNL     1     -34.133  16.954  -4.456  1.00 20.00    -0.352 OA
HETATM    9  O9  UNL     1     -33.584  16.111  -2.334  1.00 20.00    -0.336 OA
ENDROOT
TORSDOF 0
ENDMDL
MODEL 6
REMARK VINA RESULT:      -3.5     15.680     16.495
REMARK  0 active torsions:
REMARK  status: ('A' for Active; 'I' for Inactive)
ROOT
HETATM    1  C1  UNL     1     -32.497   8.329   0.865  1.00 20.00     0.015 C 
HETATM    2  C2  UNL     1     -32.597   7.547   1.769  1.00 20.00    -0.083 C 
HETATM    3  C3  UNL     1     -33.072   7.256   4.180  1.00 20.00     0.216 C 
HETATM    4  C4  UNL     1     -32.720   6.593   2.870  1.00 20.00     0.226 C 
HETATM    5  C5  UNL     1     -34.296   5.360   3.956  1.00 20.00     0.158 C 
HETATM    6  C6  UNL     1     -35.806   5.567   3.994  1.00 20.00     0.078 C 
HETATM    7  C7  UNL     1     -33.927   3.914   4.259  1.00 20.00     0.078 C 
HETATM    8  O8  UNL     1     -33.676   6.207   4.936  1.00 20.00    -0.352 OA
HETATM    9  O9  UNL     1     -33.819   5.705   2.646  1.00 20.00    -0.336 OA
ENDROOT
TORSDOF 0
ENDMDL
MODEL 7
REMARK VINA RESULT:      -3.5     23.407     24.493
REMARK  0 active torsions:
REMARK  status: ('A' for Active; 'I' for Inactive)
ROOT
HETATM    1  C1  UNL     1     -42.550   3.485  -2.674  1.00 20.00     0.015 C 
HETATM    2  C2  UNL     1     -42.935   4.336  -1.920  1.00 20.00    -0.083 C 
HETATM    3  C3  UNL     1     -43.292   4.964   0.447  1.00 20.00     0.216 C 
HETATM    4  C4  UNL     1     -43.401   5.373  -1.003  1.00 20.00     0.226 C 
HETATM    5  C5  UNL     1     -42.604   7.114   0.231  1.00 20.00     0.158 C 
HETATM    6  C6  UNL     1     -41.175   7.377   0.693  1.00 20.00     0.078 C 
HETATM    7  C7  UNL     1     -43.415   8.401   0.179  1.00 20.00     0.078 C 
HETATM    8  O8  UNL     1     -43.240   6.207   1.145  1.00 20.00    -0.352 OA
HETATM    9  O9  UNL     1     -42.561   6.530  -1.081  1.00 20.00    -0.336 OA
ENDROOT
TORSDOF 0
ENDMDL
MODEL 8
REMARK VINA RESULT:      -3.4     15.140     17.292
REMARK  0 active torsions:
REMARK  status: ('A' for Active; 'I' for Inactive)
ROOT
HETATM    1  C1  UNL     1     -34.424  17.783  -0.310  1.00 20.00     0.015 C 
HETATM    2  C2  UNL     1     -34.850  17.191  -1.264  1.00 20.00    -0.083 C 
HETATM    3  C3  UNL     1     -35.086  17.178  -3.727  1.00 20.00     0.216 C 
HETATM    4  C4  UNL     1     -35.367  16.469  -2.424  1.00 20.00     0.226 C 
HETATM    5  C5  UNL     1     -34.698  14.960  -3.993  1.00 20.00     0.158 C 
HETATM    6  C6  UNL     1     -33.282  14.608  -4.432  1.00 20.00     0.078 C 
HETATM    7  C7  UNL     1     -35.669  13.825  -4.291  1.00 20.00     0.078 C 
HETATM    8  O8  UNL     1     -35.135  16.133  -4.697  1.00 20.00    -0.352 OA
HETATM    9  O9  UNL     1     -34.690  15.217  -2.580  1.00 20.00    -0.336 OA
ENDROOT
TORSDOF 0
ENDMDL
MODEL 9
REMARK VINA RESULT:      -3.4     17.407     19.155
REMARK  0 active torsions:
REMARK  status: ('A' for Active; 'I' for Inactive)
ROOT
HETATM    1  C1  UNL     1     -39.076  15.747  -4.812  1.00 20.00     0.015 C 
HETATM    2  C2  UNL     1     -37.976  15.407  -4.474  1.00 20.00    -0.083 C 
HETATM    3  C3  UNL     1     -36.284  13.601  -4.531  1.00 20.00     0.216 C 
HETATM    4  C4  UNL     1     -36.636  14.993  -4.063  1.00 20.00     0.226 C 
HETATM    5  C5  UNL     1     -34.495  14.959  -4.838  1.00 20.00     0.158 C 
HETATM    6  C6  UNL     1     -34.002  15.052  -6.278  1.00 20.00     0.078 C 
HETATM    7  C7  UNL     1     -33.417  15.397  -3.855  1.00 20.00     0.078 C 
HETATM    8  O8  UNL     1     -34.858  13.601  -4.547  1.00 20.00    -0.352 OA
HETATM    9  O9  UNL     1     -35.642  15.811  -4.691  1.00 20.00    -0.336 OA
ENDROOT
TORSDOF 0
ENDMDL
