MODEL 1
REMARK VINA RESULT:      -6.4      0.000      0.000
REMARK  1 active torsions:
REMARK  status: ('A' for Active; 'I' for Inactive)
REMARK    1  A    between atoms: C7_7  and  C11_11 
ROOT
HETATM    1  C1  UNL     1     -32.836   8.437   0.386  1.00 20.00     0.063 C 
HETATM    2  C11 UNL     1     -31.943   7.852   1.395  1.00 20.00     0.162 C 
HETATM    3  N12 UNL     1     -33.539   8.900  -0.413  1.00 20.00    -0.197 NA
ENDROOT
BRANCH   2   4
HETATM    4  C7  UNL     1     -32.707   6.962   2.319  1.00 20.00    -0.045 A 
HETATM    5  C3  UNL     1     -33.089   5.681   1.890  1.00 20.00     0.009 A 
HETATM    6  C2  UNL     1     -33.810   4.833   2.734  1.00 20.00     0.008 A 
HETATM    7  C5  UNL     1     -34.125   5.285   4.005  1.00 20.00    -0.052 A 
HETATM    8  C6  UNL     1     -33.745   6.563   4.432  1.00 20.00    -0.051 A 
HETATM    9  C8  UNL     1     -34.914   4.583   5.064  1.00 20.00     0.039 C 
HETATM   10  C4  UNL     1     -33.040   7.414   3.597  1.00 20.00     0.015 A 
HETATM   11  C9  UNL     1     -34.245   6.834   5.815  1.00 20.00     0.039 C 
HETATM   12  C10 UNL     1     -34.548   5.409   6.306  1.00 20.00     0.009 C 
ENDBRANCH   2   4
TORSDOF 1
ENDMDL
MODEL 2
REMARK VINA RESULT:      -6.0     10.935     11.601
REMARK  1 active torsions:
REMARK  status: ('A' for Active; 'I' for Inactive)
REMARK    1  A    between atoms: C7_7  and  C11_11 
ROOT
HETATM    1  C1  UNL     1     -36.595  13.999  -4.467  1.00 20.00     0.063 C 
HETATM    2  C11 UNL     1     -35.126  13.960  -4.439  1.00 20.00     0.162 C 
HETATM    3  N12 UNL     1     -37.755  14.028  -4.491  1.00 20.00    -0.197 NA
ENDROOT
BRANCH   2   4
HETATM    4  C7  UNL     1     -34.590  15.041  -3.559  1.00 20.00    -0.045 A 
HETATM    5  C3  UNL     1     -33.330  15.597  -3.833  1.00 20.00     0.009 A 
HETATM    6  C2  UNL     1     -32.804  16.604  -3.021  1.00 20.00     0.008 A 
HETATM    7  C5  UNL     1     -33.563  17.046  -1.950  1.00 20.00    -0.052 A 
HETATM    8  C6  UNL     1     -34.819  16.490  -1.676  1.00 20.00    -0.051 A 
HETATM    9  C8  UNL     1     -33.201  18.075  -0.927  1.00 20.00     0.039 C 
HETATM   10  C4  UNL     1     -35.342  15.484  -2.469  1.00 20.00     0.015 A 
HETATM   11  C9  UNL     1     -35.413  17.097  -0.444  1.00 20.00     0.039 C 
HETATM   12  C10 UNL     1     -34.575  18.378  -0.311  1.00 20.00     0.009 C 
ENDBRANCH   2   4
TORSDOF 1
ENDMDL
MODEL 3
REMARK VINA RESULT:      -5.9     10.736     11.714
REMARK  1 active torsions:
REMARK  status: ('A' for Active; 'I' for Inactive)
REMARK    1  A    between atoms: C7_7  and  C11_11 
ROOT
HETATM    1  C1  UNL     1     -35.132  13.654  -4.390  1.00 20.00     0.063 C 
HETATM    2  C11 UNL     1     -34.080  14.672  -4.518  1.00 20.00     0.162 C 
HETATM    3  N12 UNL     1     -35.961  12.848  -4.290  1.00 20.00    -0.197 NA
ENDROOT
BRANCH   2   4
HETATM    4  C7  UNL     1     -34.109  15.606  -3.354  1.00 20.00    -0.045 A 
HETATM    5  C3  UNL     1     -35.249  15.660  -2.536  1.00 20.00     0.009 A 
HETATM    6  C2  UNL     1     -35.302  16.531  -1.445  1.00 20.00     0.008 A 
HETATM    7  C5  UNL     1     -34.199  17.327  -1.187  1.00 20.00    -0.052 A 
HETATM    8  C6  UNL     1     -33.063  17.275  -2.004  1.00 20.00    -0.051 A 
HETATM    9  C8  UNL     1     -34.035  18.354  -0.112  1.00 20.00     0.039 C 
HETATM   10  C4  UNL     1     -33.007  16.422  -3.094  1.00 20.00     0.015 A 
HETATM   11  C9  UNL     1     -32.035  18.262  -1.551  1.00 20.00     0.039 C 
HETATM   12  C10 UNL     1     -32.512  18.552  -0.119  1.00 20.00     0.009 C 
ENDBRANCH   2   4
TORSDOF 1
ENDMDL
MODEL 4
REMARK VINA RESULT:      -5.7     10.963     12.045
REMARK  1 active torsions:
REMARK  status: ('A' for Active; 'I' for Inactive)
REMARK    1  A    between atoms: C7_7  and  C11_11 
ROOT
HETATM    1  C1  UNL     1     -31.382  18.535  -0.382  1.00 20.00     0.063 C 
HETATM    2  C11 UNL     1     -32.737  18.927  -0.791  1.00 20.00     0.162 C 
HETATM    3  N12 UNL     1     -30.311  18.227  -0.057  1.00 20.00    -0.197 NA
ENDROOT
BRANCH   2   4
HETATM    4  C7  UNL     1     -33.434  17.788  -1.460  1.00 20.00    -0.045 A 
HETATM    5  C3  UNL     1     -34.721  17.418  -1.040  1.00 20.00     0.009 A 
HETATM    6  C2  UNL     1     -35.389  16.352  -1.646  1.00 20.00     0.008 A 
HETATM    7  C5  UNL     1     -34.754  15.681  -2.677  1.00 20.00    -0.052 A 
HETATM    8  C6  UNL     1     -33.469  16.048  -3.095  1.00 20.00    -0.051 A 
HETATM    9  C8  UNL     1     -35.246  14.496  -3.447  1.00 20.00     0.039 C 
HETATM   10  C4  UNL     1     -32.795  17.097  -2.492  1.00 20.00     0.015 A 
HETATM   11  C9  UNL     1     -32.983  15.144  -4.182  1.00 20.00     0.039 C 
HETATM   12  C10 UNL     1     -34.302  14.516  -4.659  1.00 20.00     0.009 C 
ENDBRANCH   2   4
TORSDOF 1
ENDMDL
MODEL 5
REMARK VINA RESULT:      -5.4     11.128     12.099
REMARK  1 active torsions:
REMARK  status: ('A' for Active; 'I' for Inactive)
REMARK    1  A    between atoms: C7_7  and  C11_11 
ROOT
HETATM    1  C1  UNL     1     -34.033  18.187   2.088  1.00 20.00     0.063 C 
HETATM    2  C11 UNL     1     -34.983  18.375   0.983  1.00 20.00     0.162 C 
HETATM    3  N12 UNL     1     -33.284  18.038   2.963  1.00 20.00    -0.197 NA
ENDROOT
BRANCH   2   4
HETATM    4  C7  UNL     1     -34.468  17.740  -0.266  1.00 20.00    -0.045 A 
HETATM    5  C3  UNL     1     -33.199  18.094  -0.752  1.00 20.00     0.009 A 
HETATM    6  C2  UNL     1     -32.699  17.519  -1.922  1.00 20.00     0.008 A 
HETATM    7  C5  UNL     1     -33.481  16.584  -2.579  1.00 20.00    -0.052 A 
HETATM    8  C6  UNL     1     -34.747  16.232  -2.095  1.00 20.00    -0.051 A 
HETATM    9  C8  UNL     1     -33.181  15.866  -3.857  1.00 20.00     0.039 C 
HETATM   10  C4  UNL     1     -35.255  16.806  -0.942  1.00 20.00     0.015 A 
HETATM   11  C9  UNL     1     -35.410  15.247  -3.004  1.00 20.00     0.039 C 
HETATM   12  C10 UNL     1     -34.207  14.724  -3.805  1.00 20.00     0.009 C 
ENDBRANCH   2   4
TORSDOF 1
ENDMDL
MODEL 6
REMARK VINA RESULT:      -5.2     10.931     11.784
REMARK  1 active torsions:
REMARK  status: ('A' for Active; 'I' for Inactive)
REMARK    1  A    between atoms: C7_7  and  C11_11 
ROOT
HETATM    1  C1  UNL     1     -34.118  14.536  -4.001  1.00 20.00     0.063 C 
HETATM    2  C11 UNL     1     -35.133  15.337  -3.303  1.00 20.00     0.162 C 
HETATM    3  N12 UNL     1     -33.318  13.904  -4.554  1.00 20.00    -0.197 NA
ENDROOT
BRANCH   2   4
HETATM    4  C7  UNL     1     -34.488  16.285  -2.347  1.00 20.00    -0.045 A 
HETATM    5  C3  UNL     1     -33.232  16.833  -2.655  1.00 20.00     0.009 A 
HETATM    6  C2  UNL     1     -32.606  17.716  -1.773  1.00 20.00     0.008 A 
HETATM    7  C5  UNL     1     -33.261  18.046  -0.599  1.00 20.00    -0.052 A 
HETATM    8  C6  UNL     1     -34.513  17.499  -0.292  1.00 20.00    -0.051 A 
HETATM    9  C8  UNL     1     -32.781  18.931   0.507  1.00 20.00     0.039 C 
HETATM   10  C4  UNL     1     -35.135  16.613  -1.155  1.00 20.00     0.015 A 
HETATM   11  C9  UNL     1     -34.985  17.967   1.048  1.00 20.00     0.039 C 
HETATM   12  C10 UNL     1     -34.090  19.198   1.265  1.00 20.00     0.009 C 
ENDBRANCH   2   4
TORSDOF 1
ENDMDL
MODEL 7
REMARK VINA RESULT:      -5.1     11.055     12.076
REMARK  1 active torsions:
REMARK  status: ('A' for Active; 'I' for Inactive)
REMARK    1  A    between atoms: C7_7  and  C11_11 
ROOT
HETATM    1  C1  UNL     1     -36.642  18.130   0.342  1.00 20.00     0.063 C 
HETATM    2  C11 UNL     1     -35.177  18.108   0.448  1.00 20.00     0.162 C 
HETATM    3  N12 UNL     1     -37.800  18.148   0.260  1.00 20.00    -0.197 NA
ENDROOT
BRANCH   2   4
HETATM    4  C7  UNL     1     -34.574  17.445  -0.745  1.00 20.00    -0.045 A 
HETATM    5  C3  UNL     1     -33.307  17.849  -1.198  1.00 20.00     0.009 A 
HETATM    6  C2  UNL     1     -32.726  17.248  -2.316  1.00 20.00     0.008 A 
HETATM    7  C5  UNL     1     -33.425  16.239  -2.956  1.00 20.00    -0.052 A 
HETATM    8  C6  UNL     1     -34.689  15.837  -2.506  1.00 20.00    -0.051 A 
HETATM    9  C8  UNL     1     -33.031  15.479  -4.183  1.00 20.00     0.039 C 
HETATM   10  C4  UNL     1     -35.277  16.436  -1.405  1.00 20.00     0.015 A 
HETATM   11  C9  UNL     1     -35.256  14.773  -3.391  1.00 20.00     0.039 C 
HETATM   12  C10 UNL     1     -33.993  14.283  -4.115  1.00 20.00     0.009 C 
ENDBRANCH   2   4
TORSDOF 1
ENDMDL
MODEL 8
REMARK VINA RESULT:      -5.0     11.400     11.953
REMARK  1 active torsions:
REMARK  status: ('A' for Active; 'I' for Inactive)
REMARK    1  A    between atoms: C7_7  and  C11_11 
ROOT
HETATM    1  C1  UNL     1     -32.177  18.369  -0.819  1.00 20.00     0.063 C 
HETATM    2  C11 UNL     1     -33.600  18.006  -0.806  1.00 20.00     0.162 C 
HETATM    3  N12 UNL     1     -31.052  18.657  -0.826  1.00 20.00    -0.197 NA
ENDROOT
BRANCH   2   4
HETATM    4  C7  UNL     1     -33.906  17.045  -1.907  1.00 20.00    -0.045 A 
HETATM    5  C3  UNL     1     -32.873  16.602  -2.749  1.00 20.00     0.009 A 
HETATM    6  C2  UNL     1     -33.136  15.709  -3.789  1.00 20.00     0.008 A 
HETATM    7  C5  UNL     1     -34.437  15.264  -3.959  1.00 20.00    -0.052 A 
HETATM    8  C6  UNL     1     -35.467  15.707  -3.121  1.00 20.00    -0.051 A 
HETATM    9  C8  UNL     1     -34.966  14.346  -5.015  1.00 20.00     0.039 C 
HETATM   10  C4  UNL     1     -35.217  16.602  -2.094  1.00 20.00     0.015 A 
HETATM   11  C9  UNL     1     -36.781  15.126  -3.538  1.00 20.00     0.039 C 
HETATM   12  C10 UNL     1     -36.321  13.947  -4.410  1.00 20.00     0.009 C 
ENDBRANCH   2   4
TORSDOF 1
ENDMDL
MODEL 9
REMARK VINA RESULT:      -4.7      9.717     10.423
REMARK  1 active torsions:
REMARK  status: ('A' for Active; 'I' for Inactive)
REMARK    1  A    between atoms: C7_7  and  C11_11 
ROOT
HETATM    1  C1  UNL     1     -42.337   3.029  -3.435  1.00 20.00     0.063 C 
HETATM    2  C11 UNL     1     -43.308   3.636  -2.513  1.00 20.00     0.162 C 
HETATM    3  N12 UNL     1     -41.573   2.548  -4.164  1.00 20.00    -0.197 NA
ENDROOT
BRANCH   2   4
HETATM    4  C7  UNL     1     -42.681   4.760  -1.757  1.00 20.00    -0.045 A 
HETATM    5  C3  UNL     1     -41.358   4.638  -1.302  1.00 20.00     0.009 A 
HETATM    6  C2  UNL     1     -40.753   5.673  -0.586  1.00 20.00     0.008 A 
HETATM    7  C5  UNL     1     -41.486   6.824  -0.350  1.00 20.00    -0.052 A 
HETATM    8  C6  UNL     1     -42.806   6.945  -0.803  1.00 20.00    -0.051 A 
HETATM    9  C8  UNL     1     -41.072   8.040   0.417  1.00 20.00     0.039 C 
HETATM   10  C4  UNL     1     -43.417   5.919  -1.503  1.00 20.00     0.015 A 
HETATM   11  C9  UNL     1     -43.396   8.253  -0.380  1.00 20.00     0.039 C 
HETATM   12  C10 UNL     1     -42.130   9.055  -0.042  1.00 20.00     0.009 C 
ENDBRANCH   2   4
TORSDOF 1
ENDMDL
