MODEL 1
REMARK VINA RESULT:      -5.0      0.000      0.000
REMARK  1 active torsions:
REMARK  status: ('A' for Active; 'I' for Inactive)
REMARK    1  A    between atoms: C8_8  and  C11_11 
ROOT
HETATM    1  C1  UNL     1     -36.546  14.452  -4.345  1.00 20.00     0.136 C 
HETATM    2  C2  UNL     1     -35.166  15.848  -5.804  1.00 20.00     0.017 C 
HETATM    3  C3  UNL     1     -33.933  14.155  -4.210  1.00 20.00     0.018 C 
HETATM    4  C4  UNL     1     -36.077  16.688  -3.775  1.00 20.00     0.023 C 
HETATM    5  C5  UNL     1     -36.471  15.833  -4.987  1.00 20.00     0.057 C 
HETATM    6  C6  UNL     1     -35.246  14.411  -3.421  1.00 20.00     0.065 C 
HETATM    7  C7  UNL     1     -34.072  15.620  -4.727  1.00 20.00    -0.003 C 
HETATM    8  C8  UNL     1     -34.799  15.929  -3.374  1.00 20.00    -0.023 C 
HETATM    9  O12 UNL     1     -37.414  13.622  -4.557  1.00 20.00    -0.297 OA
ENDROOT
BRANCH   8  10
HETATM   10  C11 UNL     1     -34.045  16.478  -2.192  1.00 20.00    -0.013 C 
HETATM   11  C9  UNL     1     -33.152  17.657  -2.599  1.00 20.00     0.010 C 
HETATM   12  C10 UNL     1     -35.001  16.912  -1.073  1.00 20.00     0.010 C 
ENDBRANCH   8  10
TORSDOF 1
ENDMDL
MODEL 2
REMARK VINA RESULT:      -4.9      0.970      1.172
REMARK  1 active torsions:
REMARK  status: ('A' for Active; 'I' for Inactive)
REMARK    1  A    between atoms: C8_8  and  C11_11 
ROOT
HETATM    1  C1  UNL     1     -36.400  15.355  -5.285  1.00 20.00     0.136 C 
HETATM    2  C2  UNL     1     -34.078  15.074  -6.005  1.00 20.00     0.017 C 
HETATM    3  C3  UNL     1     -34.891  13.677  -3.928  1.00 20.00     0.018 C 
HETATM    4  C4  UNL     1     -34.758  16.933  -4.688  1.00 20.00     0.023 C 
HETATM    5  C5  UNL     1     -35.219  16.104  -5.894  1.00 20.00     0.057 C 
HETATM    6  C6  UNL     1     -35.846  14.900  -3.861  1.00 20.00     0.065 C 
HETATM    7  C7  UNL     1     -33.837  14.655  -4.531  1.00 20.00    -0.003 C 
HETATM    8  C8  UNL     1     -34.538  15.778  -3.694  1.00 20.00    -0.023 C 
HETATM    9  O12 UNL     1     -37.474  15.168  -5.833  1.00 20.00    -0.297 OA
ENDROOT
BRANCH   8  10
HETATM   10  C11 UNL     1     -34.034  16.164  -2.330  1.00 20.00    -0.013 C 
HETATM   11  C9  UNL     1     -32.940  17.237  -2.423  1.00 20.00     0.010 C 
HETATM   12  C10 UNL     1     -35.174  16.662  -1.433  1.00 20.00     0.010 C 
ENDBRANCH   8  10
TORSDOF 1
ENDMDL
MODEL 3
REMARK VINA RESULT:      -4.8      1.097      1.547
REMARK  1 active torsions:
REMARK  status: ('A' for Active; 'I' for Inactive)
REMARK    1  A    between atoms: C8_8  and  C11_11 
ROOT
HETATM    1  C1  UNL     1     -35.440  13.664  -4.275  1.00 20.00     0.136 C 
HETATM    2  C2  UNL     1     -36.505  15.618  -5.293  1.00 20.00     0.017 C 
HETATM    3  C3  UNL     1     -34.001  15.118  -5.933  1.00 20.00     0.018 C 
HETATM    4  C4  UNL     1     -35.651  15.679  -3.075  1.00 20.00     0.023 C 
HETATM    5  C5  UNL     1     -36.459  14.768  -4.009  1.00 20.00     0.057 C 
HETATM    6  C6  UNL     1     -34.087  14.471  -4.523  1.00 20.00     0.065 C 
HETATM    7  C7  UNL     1     -35.053  16.149  -5.418  1.00 20.00    -0.003 C 
HETATM    8  C8  UNL     1     -34.439  15.921  -3.994  1.00 20.00    -0.023 C 
HETATM    9  O12 UNL     1     -35.686  12.470  -4.300  1.00 20.00    -0.297 OA
ENDROOT
BRANCH   8  10
HETATM   10  C11 UNL     1     -33.368  16.829  -3.453  1.00 20.00    -0.013 C 
HETATM   11  C9  UNL     1     -33.414  18.209  -4.123  1.00 20.00     0.010 C 
HETATM   12  C10 UNL     1     -33.485  16.987  -1.932  1.00 20.00     0.010 C 
ENDBRANCH   8  10
TORSDOF 1
ENDMDL
MODEL 4
REMARK VINA RESULT:      -4.7      1.368      2.647
REMARK  1 active torsions:
REMARK  status: ('A' for Active; 'I' for Inactive)
REMARK    1  A    between atoms: C8_8  and  C11_11 
ROOT
HETATM    1  C1  UNL     1     -35.933  14.722  -6.101  1.00 20.00     0.136 C 
HETATM    2  C2  UNL     1     -37.533  14.488  -4.264  1.00 20.00     0.017 C 
HETATM    3  C3  UNL     1     -36.883  16.925  -5.017  1.00 20.00     0.018 C 
HETATM    4  C4  UNL     1     -35.192  14.255  -3.915  1.00 20.00     0.023 C 
HETATM    5  C5  UNL     1     -36.289  13.844  -4.906  1.00 20.00     0.057 C 
HETATM    6  C6  UNL     1     -35.613  16.133  -5.431  1.00 20.00     0.065 C 
HETATM    7  C7  UNL     1     -37.028  15.897  -3.854  1.00 20.00    -0.003 C 
HETATM    8  C8  UNL     1     -35.466  15.771  -3.896  1.00 20.00    -0.023 C 
HETATM    9  O12 UNL     1     -35.939  14.363  -7.267  1.00 20.00    -0.297 OA
ENDROOT
BRANCH   8  10
HETATM   10  C11 UNL     1     -34.593  16.591  -2.987  1.00 20.00    -0.013 C 
HETATM   11  C9  UNL     1     -35.008  16.429  -1.518  1.00 20.00     0.010 C 
HETATM   12  C10 UNL     1     -33.113  16.221  -3.151  1.00 20.00     0.010 C 
ENDBRANCH   8  10
TORSDOF 1
ENDMDL
MODEL 5
REMARK VINA RESULT:      -4.6      1.561      2.738
REMARK  1 active torsions:
REMARK  status: ('A' for Active; 'I' for Inactive)
REMARK    1  A    between atoms: C8_8  and  C11_11 
ROOT
HETATM    1  C1  UNL     1     -34.263  15.709  -5.589  1.00 20.00     0.136 C 
HETATM    2  C2  UNL     1     -34.770  14.007  -3.907  1.00 20.00     0.017 C 
HETATM    3  C3  UNL     1     -36.375  16.087  -4.062  1.00 20.00     0.018 C 
HETATM    4  C4  UNL     1     -33.097  15.656  -3.545  1.00 20.00     0.023 C 
HETATM    5  C5  UNL     1     -33.612  14.711  -4.638  1.00 20.00     0.057 C 
HETATM    6  C6  UNL     1     -35.049  16.688  -4.605  1.00 20.00     0.065 C 
HETATM    7  C7  UNL     1     -35.482  15.172  -3.170  1.00 20.00    -0.003 C 
HETATM    8  C8  UNL     1     -34.432  16.335  -3.190  1.00 20.00    -0.023 C 
HETATM    9  O12 UNL     1     -34.177  15.684  -6.806  1.00 20.00    -0.297 OA
ENDROOT
BRANCH   8  10
HETATM   10  C11 UNL     1     -34.383  17.360  -2.089  1.00 20.00    -0.013 C 
HETATM   11  C9  UNL     1     -35.135  16.876  -0.842  1.00 20.00     0.010 C 
HETATM   12  C10 UNL     1     -32.937  17.713  -1.719  1.00 20.00     0.010 C 
ENDBRANCH   8  10
TORSDOF 1
ENDMDL
MODEL 6
REMARK VINA RESULT:      -4.6      1.473      2.528
REMARK  1 active torsions:
REMARK  status: ('A' for Active; 'I' for Inactive)
REMARK    1  A    between atoms: C8_8  and  C11_11 
ROOT
HETATM    1  C1  UNL     1     -35.418  14.033  -4.400  1.00 20.00     0.136 C 
HETATM    2  C2  UNL     1     -33.178  14.974  -4.119  1.00 20.00     0.017 C 
HETATM    3  C3  UNL     1     -35.015  15.646  -2.358  1.00 20.00     0.018 C 
HETATM    4  C4  UNL     1     -34.722  15.879  -5.684  1.00 20.00     0.023 C 
HETATM    5  C5  UNL     1     -34.203  14.527  -5.178  1.00 20.00     0.057 C 
HETATM    6  C6  UNL     1     -35.890  15.330  -3.602  1.00 20.00     0.065 C 
HETATM    7  C7  UNL     1     -33.920  16.110  -3.366  1.00 20.00    -0.003 C 
HETATM    8  C8  UNL     1     -35.099  16.496  -4.324  1.00 20.00    -0.023 C 
HETATM    9  O12 UNL     1     -35.851  12.892  -4.417  1.00 20.00    -0.297 OA
ENDROOT
BRANCH   8  10
HETATM   10  C11 UNL     1     -35.646  17.897  -4.361  1.00 20.00    -0.013 C 
HETATM   11  C9  UNL     1     -34.596  18.894  -4.868  1.00 20.00     0.010 C 
HETATM   12  C10 UNL     1     -36.906  17.982  -5.232  1.00 20.00     0.010 C 
ENDBRANCH   8  10
TORSDOF 1
ENDMDL
MODEL 7
REMARK VINA RESULT:      -4.5      1.416      3.331
REMARK  1 active torsions:
REMARK  status: ('A' for Active; 'I' for Inactive)
REMARK    1  A    between atoms: C8_8  and  C11_11 
ROOT
HETATM    1  C1  UNL     1     -35.661  13.703  -4.477  1.00 20.00     0.136 C 
HETATM    2  C2  UNL     1     -35.107  15.524  -2.940  1.00 20.00     0.017 C 
HETATM    3  C3  UNL     1     -37.130  15.886  -4.584  1.00 20.00     0.018 C 
HETATM    4  C4  UNL     1     -33.881  15.172  -4.946  1.00 20.00     0.023 C 
HETATM    5  C5  UNL     1     -34.491  14.387  -3.777  1.00 20.00     0.057 C 
HETATM    6  C6  UNL     1     -36.272  14.866  -5.382  1.00 20.00     0.065 C 
HETATM    7  C7  UNL     1     -35.784  16.422  -4.008  1.00 20.00    -0.003 C 
HETATM    8  C8  UNL     1     -35.133  15.966  -5.359  1.00 20.00    -0.023 C 
HETATM    9  O12 UNL     1     -36.001  12.543  -4.313  1.00 20.00    -0.297 OA
ENDROOT
BRANCH   8  10
HETATM   10  C11 UNL     1     -34.961  16.926  -6.505  1.00 20.00    -0.013 C 
HETATM   11  C9  UNL     1     -34.222  18.197  -6.063  1.00 20.00     0.010 C 
HETATM   12  C10 UNL     1     -34.214  16.272  -7.674  1.00 20.00     0.010 C 
ENDBRANCH   8  10
TORSDOF 1
ENDMDL
MODEL 8
REMARK VINA RESULT:      -4.4      1.252      2.162
REMARK  1 active torsions:
REMARK  status: ('A' for Active; 'I' for Inactive)
REMARK    1  A    between atoms: C8_8  and  C11_11 
ROOT
HETATM    1  C1  UNL     1     -37.271  14.617  -4.422  1.00 20.00     0.136 C 
HETATM    2  C2  UNL     1     -37.142  16.998  -4.967  1.00 20.00     0.017 C 
HETATM    3  C3  UNL     1     -35.725  15.331  -6.430  1.00 20.00     0.018 C 
HETATM    4  C4  UNL     1     -35.899  16.063  -3.169  1.00 20.00     0.023 C 
HETATM    5  C5  UNL     1     -37.298  16.008  -3.797  1.00 20.00     0.057 C 
HETATM    6  C6  UNL     1     -35.826  14.548  -5.092  1.00 20.00     0.065 C 
HETATM    7  C7  UNL     1     -35.759  16.627  -5.562  1.00 20.00    -0.003 C 
HETATM    8  C8  UNL     1     -35.074  15.778  -4.437  1.00 20.00    -0.023 C 
HETATM    9  O12 UNL     1     -38.188  13.813  -4.393  1.00 20.00    -0.297 OA
ENDROOT
BRANCH   8  10
HETATM   10  C11 UNL     1     -33.579  15.771  -4.267  1.00 20.00    -0.013 C 
HETATM   11  C9  UNL     1     -33.162  16.459  -2.960  1.00 20.00     0.010 C 
HETATM   12  C10 UNL     1     -33.020  14.342  -4.302  1.00 20.00     0.010 C 
ENDBRANCH   8  10
TORSDOF 1
ENDMDL
MODEL 9
REMARK VINA RESULT:      -4.4      2.136      3.793
REMARK  1 active torsions:
REMARK  status: ('A' for Active; 'I' for Inactive)
REMARK    1  A    between atoms: C8_8  and  C11_11 
ROOT
HETATM    1  C1  UNL     1     -35.485  18.197  -2.473  1.00 20.00     0.136 C 
HETATM    2  C2  UNL     1     -33.323  17.516  -1.553  1.00 20.00     0.017 C 
HETATM    3  C3  UNL     1     -33.440  18.062  -4.126  1.00 20.00     0.018 C 
HETATM    4  C4  UNL     1     -35.008  15.925  -2.083  1.00 20.00     0.023 C 
HETATM    5  C5  UNL     1     -34.842  17.299  -1.421  1.00 20.00     0.057 C 
HETATM    6  C6  UNL     1     -34.903  17.625  -3.843  1.00 20.00     0.065 C 
HETATM    7  C7  UNL     1     -33.026  17.058  -3.006  1.00 20.00    -0.003 C 
HETATM    8  C8  UNL     1     -34.292  16.229  -3.412  1.00 20.00    -0.023 C 
HETATM    9  O12 UNL     1     -36.237  19.129  -2.240  1.00 20.00    -0.297 OA
ENDROOT
BRANCH   8  10
HETATM   10  C11 UNL     1     -34.198  15.089  -4.390  1.00 20.00    -0.013 C 
HETATM   11  C9  UNL     1     -32.801  14.453  -4.372  1.00 20.00     0.010 C 
HETATM   12  C10 UNL     1     -35.259  14.019  -4.105  1.00 20.00     0.010 C 
ENDBRANCH   8  10
TORSDOF 1
ENDMDL
