MODEL 1
REMARK VINA RESULT:      -4.3      0.000      0.000
REMARK  1 active torsions:
REMARK  status: ('A' for Active; 'I' for Inactive)
REMARK    1  A    between atoms: C1_1  and  C3_3 
ROOT
HETATM    1  C2  UNL     1     -33.466  14.361  -4.302  1.00 20.00     0.084 A 
HETATM    2  C3  UNL     1     -34.843  14.679  -4.849  1.00 20.00     0.087 A 
HETATM    3  C4  UNL     1     -34.258  15.480  -3.691  1.00 20.00     0.195 A 
HETATM    4  C5  UNL     1     -34.910  15.289  -6.227  1.00 20.00     0.029 C 
HETATM    5  F7  UNL     1     -34.790  15.213  -2.431  1.00 20.00    -0.224 F 
HETATM    6 CL9  UNL     1     -33.699  17.126  -3.920  1.00 20.00    -0.081 Cl
ENDROOT
BRANCH   2   7
HETATM    7  C1  UNL     1     -35.935  13.738  -4.501  1.00 20.00     0.231 C 
HETATM    8  O6  UNL     1     -35.737  12.531  -4.394  1.00 20.00    -0.279 OA
HETATM    9 CL8  UNL     1     -37.454  14.552  -4.279  1.00 20.00    -0.043 Cl
ENDBRANCH   2   7
TORSDOF 1
ENDMDL
MODEL 2
REMARK VINA RESULT:      -4.1      2.224      2.714
REMARK  1 active torsions:
REMARK  status: ('A' for Active; 'I' for Inactive)
REMARK    1  A    between atoms: C1_1  and  C3_3 
ROOT
HETATM    1  C2  UNL     1     -35.621  15.956  -5.641  1.00 20.00     0.084 A 
HETATM    2  C3  UNL     1     -35.099  14.654  -5.068  1.00 20.00     0.087 A 
HETATM    3  C4  UNL     1     -35.102  14.899  -6.572  1.00 20.00     0.195 A 
HETATM    4  C5  UNL     1     -33.803  14.714  -4.298  1.00 20.00     0.029 C 
HETATM    5  F7  UNL     1     -36.075  14.219  -7.302  1.00 20.00    -0.224 F 
HETATM    6 CL9  UNL     1     -33.610  15.207  -7.442  1.00 20.00    -0.081 Cl
ENDROOT
BRANCH   2   7
HETATM    7  C1  UNL     1     -36.109  13.691  -4.565  1.00 20.00     0.231 C 
HETATM    8  O6  UNL     1     -35.841  12.505  -4.395  1.00 20.00    -0.279 OA
HETATM    9 CL8  UNL     1     -37.643  14.449  -4.267  1.00 20.00    -0.043 Cl
ENDBRANCH   2   7
TORSDOF 1
ENDMDL
MODEL 3
REMARK VINA RESULT:      -3.9      2.085      2.287
REMARK  1 active torsions:
REMARK  status: ('A' for Active; 'I' for Inactive)
REMARK    1  A    between atoms: C1_1  and  C3_3 
ROOT
HETATM    1  C2  UNL     1     -33.064  15.540  -3.775  1.00 20.00     0.084 A 
HETATM    2  C3  UNL     1     -34.247  15.986  -4.610  1.00 20.00     0.087 A 
HETATM    3  C4  UNL     1     -34.455  15.224  -3.307  1.00 20.00     0.195 A 
HETATM    4  C5  UNL     1     -34.525  17.468  -4.668  1.00 20.00     0.029 C 
HETATM    5  F7  UNL     1     -34.836  13.889  -3.432  1.00 20.00    -0.224 F 
HETATM    6 CL9  UNL     1     -35.061  16.031  -1.873  1.00 20.00    -0.081 Cl
ENDROOT
BRANCH   2   7
HETATM    7  C1  UNL     1     -34.511  15.227  -5.856  1.00 20.00     0.231 C 
HETATM    8  O6  UNL     1     -33.618  14.628  -6.448  1.00 20.00    -0.279 OA
HETATM    9 CL8  UNL     1     -36.182  15.305  -6.327  1.00 20.00    -0.043 Cl
ENDBRANCH   2   7
TORSDOF 1
ENDMDL
MODEL 4
REMARK VINA RESULT:      -3.8      2.193      3.028
REMARK  1 active torsions:
REMARK  status: ('A' for Active; 'I' for Inactive)
REMARK    1  A    between atoms: C1_1  and  C3_3 
ROOT
HETATM    1  C2  UNL     1     -37.008  14.641  -4.085  1.00 20.00     0.084 A 
HETATM    2  C3  UNL     1     -35.554  14.945  -3.786  1.00 20.00     0.087 A 
HETATM    3  C4  UNL     1     -36.230  15.511  -5.029  1.00 20.00     0.195 A 
HETATM    4  C5  UNL     1     -35.271  15.845  -2.608  1.00 20.00     0.029 C 
HETATM    5  F7  UNL     1     -35.884  14.913  -6.240  1.00 20.00    -0.224 F 
HETATM    6 CL9  UNL     1     -36.647  17.210  -5.140  1.00 20.00    -0.081 Cl
ENDROOT
BRANCH   2   7
HETATM    7  C1  UNL     1     -34.580  13.852  -4.016  1.00 20.00     0.231 C 
HETATM    8  O6  UNL     1     -34.909  12.671  -3.951  1.00 20.00    -0.279 OA
HETATM    9 CL8  UNL     1     -32.991  14.456  -4.374  1.00 20.00    -0.043 Cl
ENDBRANCH   2   7
TORSDOF 1
ENDMDL
MODEL 5
REMARK VINA RESULT:      -3.8      2.100      2.299
REMARK  1 active torsions:
REMARK  status: ('A' for Active; 'I' for Inactive)
REMARK    1  A    between atoms: C1_1  and  C3_3 
ROOT
HETATM    1  C2  UNL     1     -34.977  16.285  -4.438  1.00 20.00     0.084 A 
HETATM    2  C3  UNL     1     -36.304  15.652  -4.073  1.00 20.00     0.087 A 
HETATM    3  C4  UNL     1     -35.080  15.464  -3.185  1.00 20.00     0.195 A 
HETATM    4  C5  UNL     1     -37.412  16.581  -3.641  1.00 20.00     0.029 C 
HETATM    5  F7  UNL     1     -34.468  14.214  -3.241  1.00 20.00    -0.224 F 
HETATM    6 CL9  UNL     1     -34.950  16.278  -1.637  1.00 20.00    -0.081 Cl
ENDROOT
BRANCH   2   7
HETATM    7  C1  UNL     1     -36.722  14.468  -4.862  1.00 20.00     0.231 C 
HETATM    8  O6  UNL     1     -37.599  13.706  -4.467  1.00 20.00    -0.279 OA
HETATM    9 CL8  UNL     1     -35.834  14.328  -6.349  1.00 20.00    -0.043 Cl
ENDBRANCH   2   7
TORSDOF 1
ENDMDL
MODEL 6
REMARK VINA RESULT:      -3.8     11.396     12.039
REMARK  1 active torsions:
REMARK  status: ('A' for Active; 'I' for Inactive)
REMARK    1  A    between atoms: C1_1  and  C3_3 
ROOT
HETATM    1  C2  UNL     1     -34.870   6.611   3.513  1.00 20.00     0.084 A 
HETATM    2  C3  UNL     1     -33.440   6.140   3.333  1.00 20.00     0.087 A 
HETATM    3  C4  UNL     1     -34.058   6.246   4.722  1.00 20.00     0.195 A 
HETATM    4  C5  UNL     1     -33.239   4.786   2.700  1.00 20.00     0.029 C 
HETATM    5  F7  UNL     1     -33.635   7.321   5.501  1.00 20.00    -0.224 F 
HETATM    6 CL9  UNL     1     -34.501   4.811   5.628  1.00 20.00    -0.081 Cl
ENDROOT
BRANCH   2   7
HETATM    7  C1  UNL     1     -32.434   7.173   2.990  1.00 20.00     0.231 C 
HETATM    8  O6  UNL     1     -31.500   7.439   3.740  1.00 20.00    -0.279 OA
HETATM    9 CL8  UNL     1     -32.754   7.911   1.450  1.00 20.00    -0.043 Cl
ENDBRANCH   2   7
TORSDOF 1
ENDMDL
MODEL 7
REMARK VINA RESULT:      -3.8     10.464     11.510
REMARK  1 active torsions:
REMARK  status: ('A' for Active; 'I' for Inactive)
REMARK    1  A    between atoms: C1_1  and  C3_3 
ROOT
HETATM    1  C2  UNL     1     -40.873   6.644   0.351  1.00 20.00     0.084 A 
HETATM    2  C3  UNL     1     -42.269   7.233   0.307  1.00 20.00     0.087 A 
HETATM    3  C4  UNL     1     -41.707   6.466  -0.884  1.00 20.00     0.195 A 
HETATM    4  C5  UNL     1     -43.311   6.594   1.191  1.00 20.00     0.029 C 
HETATM    5  F7  UNL     1     -41.319   7.233  -1.980  1.00 20.00    -0.224 F 
HETATM    6 CL9  UNL     1     -42.286   4.858  -1.280  1.00 20.00    -0.081 Cl
ENDROOT
BRANCH   2   7
HETATM    7  C1  UNL     1     -42.370   8.703   0.142  1.00 20.00     0.231 C 
HETATM    8  O6  UNL     1     -43.417   9.243  -0.203  1.00 20.00    -0.279 OA
HETATM    9 CL8  UNL     1     -40.870   9.506   0.493  1.00 20.00    -0.043 Cl
ENDBRANCH   2   7
TORSDOF 1
ENDMDL
MODEL 8
REMARK VINA RESULT:      -3.7      2.227      2.595
REMARK  1 active torsions:
REMARK  status: ('A' for Active; 'I' for Inactive)
REMARK    1  A    between atoms: C1_1  and  C3_3 
ROOT
HETATM    1  C2  UNL     1     -34.739  16.752  -4.177  1.00 20.00     0.084 A 
HETATM    2  C3  UNL     1     -34.842  15.251  -3.995  1.00 20.00     0.087 A 
HETATM    3  C4  UNL     1     -34.205  16.125  -2.922  1.00 20.00     0.195 A 
HETATM    4  C5  UNL     1     -36.223  14.680  -3.780  1.00 20.00     0.029 C 
HETATM    5  F7  UNL     1     -32.816  16.067  -2.829  1.00 20.00    -0.224 F 
HETATM    6 CL9  UNL     1     -35.031  16.446  -1.408  1.00 20.00    -0.081 Cl
ENDROOT
BRANCH   2   7
HETATM    7  C1  UNL     1     -33.910  14.414  -4.789  1.00 20.00     0.231 C 
HETATM    8  O6  UNL     1     -33.363  13.425  -4.310  1.00 20.00    -0.279 OA
HETATM    9 CL8  UNL     1     -33.719  15.007  -6.411  1.00 20.00    -0.043 Cl
ENDBRANCH   2   7
TORSDOF 1
ENDMDL
MODEL 9
REMARK VINA RESULT:      -3.7      1.978      3.149
REMARK  1 active torsions:
REMARK  status: ('A' for Active; 'I' for Inactive)
REMARK    1  A    between atoms: C1_1  and  C3_3 
ROOT
HETATM    1  C2  UNL     1     -35.436  15.274  -3.249  1.00 20.00     0.084 A 
HETATM    2  C3  UNL     1     -35.277  15.418  -4.749  1.00 20.00     0.087 A 
HETATM    3  C4  UNL     1     -36.205  14.362  -4.160  1.00 20.00     0.195 A 
HETATM    4  C5  UNL     1     -35.856  16.658  -5.384  1.00 20.00     0.029 C 
HETATM    5  F7  UNL     1     -35.746  13.047  -4.210  1.00 20.00    -0.224 F 
HETATM    6 CL9  UNL     1     -37.947  14.536  -4.248  1.00 20.00    -0.081 Cl
ENDROOT
BRANCH   2   7
HETATM    7  C1  UNL     1     -34.013  14.916  -5.339  1.00 20.00     0.231 C 
HETATM    8  O6  UNL     1     -33.921  14.644  -6.533  1.00 20.00    -0.279 OA
HETATM    9 CL8  UNL     1     -32.748  14.779  -4.156  1.00 20.00    -0.043 Cl
ENDBRANCH   2   7
TORSDOF 1
ENDMDL
