MODEL 1
REMARK VINA RESULT:      -5.3      0.000      0.000
REMARK  2 active torsions:
REMARK  status: ('A' for Active; 'I' for Inactive)
REMARK    1  A    between atoms: C2_2  and  C5_5 
REMARK    2  A    between atoms: C2_2  and  O9_9 
ROOT
HETATM    1  C1  UNL     1     -34.708   5.306   4.711  1.00 20.00     0.140 C 
HETATM    2  C3  UNL     1     -34.491   5.860   6.129  1.00 20.00     0.080 C 
HETATM    3  C4  UNL     1     -33.629   6.970   5.486  1.00 20.00     0.030 C 
HETATM    4  C5  UNL     1     -34.100   6.567   4.062  1.00 20.00     0.155 C 
HETATM    5  O7  UNL     1     -35.175   4.274   4.278  1.00 20.00    -0.297 OA
ENDROOT
BRANCH   4   6
HETATM    6  C2  UNL     1     -33.054   6.182   3.018  1.00 20.00     0.269 C 
HETATM    7  O8  UNL     1     -32.953   5.066   2.528  1.00 20.00    -0.264 OA
BRANCH   6   8
HETATM    8  O9  UNL     1     -32.274   7.264   2.732  1.00 20.00    -0.326 OA
HETATM    9  C6  UNL     1     -32.523   7.885   1.468  1.00 20.00     0.213 C 
ENDBRANCH   6   8
ENDBRANCH   4   6
TORSDOF 2
ENDMDL
MODEL 2
REMARK VINA RESULT:      -4.7     11.273     12.243
REMARK  2 active torsions:
REMARK  status: ('A' for Active; 'I' for Inactive)
REMARK    1  A    between atoms: C2_2  and  C5_5 
REMARK    2  A    between atoms: C2_2  and  O9_9 
ROOT
HETATM    1  C1  UNL     1     -34.073  14.321  -3.981  1.00 20.00     0.140 C 
HETATM    2  C3  UNL     1     -33.660  15.794  -3.820  1.00 20.00     0.080 C 
HETATM    3  C4  UNL     1     -35.159  16.152  -3.939  1.00 20.00     0.030 C 
HETATM    4  C5  UNL     1     -35.568  14.661  -3.804  1.00 20.00     0.155 C 
HETATM    5  O7  UNL     1     -33.456  13.295  -4.173  1.00 20.00    -0.297 OA
ENDROOT
BRANCH   4   6
HETATM    6  C2  UNL     1     -36.399  14.018  -4.913  1.00 20.00     0.269 C 
HETATM    7  O8  UNL     1     -36.002  13.852  -6.058  1.00 20.00    -0.264 OA
BRANCH   6   8
HETATM    8  O9  UNL     1     -37.623  13.669  -4.423  1.00 20.00    -0.326 OA
HETATM    9  C6  UNL     1     -38.551  14.746  -4.262  1.00 20.00     0.213 C 
ENDBRANCH   6   8
ENDBRANCH   4   6
TORSDOF 2
ENDMDL
MODEL 3
REMARK VINA RESULT:      -4.7     11.322     12.136
REMARK  2 active torsions:
REMARK  status: ('A' for Active; 'I' for Inactive)
REMARK    1  A    between atoms: C2_2  and  C5_5 
REMARK    2  A    between atoms: C2_2  and  O9_9 
ROOT
HETATM    1  C1  UNL     1     -34.762  15.350  -3.257  1.00 20.00     0.140 C 
HETATM    2  C3  UNL     1     -33.369  15.533  -3.882  1.00 20.00     0.080 C 
HETATM    3  C4  UNL     1     -33.924  14.836  -5.145  1.00 20.00     0.030 C 
HETATM    4  C5  UNL     1     -35.377  14.929  -4.607  1.00 20.00     0.155 C 
HETATM    5  O7  UNL     1     -35.199  15.486  -2.133  1.00 20.00    -0.297 OA
ENDROOT
BRANCH   4   6
HETATM    6  C2  UNL     1     -36.192  13.646  -4.449  1.00 20.00     0.269 C 
HETATM    7  O8  UNL     1     -35.702  12.526  -4.393  1.00 20.00    -0.264 OA
BRANCH   6   8
HETATM    8  O9  UNL     1     -37.518  13.952  -4.381  1.00 20.00    -0.326 OA
HETATM    9  C6  UNL     1     -37.865  15.280  -4.787  1.00 20.00     0.213 C 
ENDBRANCH   6   8
ENDBRANCH   4   6
TORSDOF 2
ENDMDL
MODEL 4
REMARK VINA RESULT:      -4.4     16.002     16.914
REMARK  2 active torsions:
REMARK  status: ('A' for Active; 'I' for Inactive)
REMARK    1  A    between atoms: C2_2  and  C5_5 
REMARK    2  A    between atoms: C2_2  and  O9_9 
ROOT
HETATM    1  C1  UNL     1     -23.721  18.595   7.942  1.00 20.00     0.140 C 
HETATM    2  C3  UNL     1     -25.106  19.239   7.763  1.00 20.00     0.080 C 
HETATM    3  C4  UNL     1     -25.269  19.145   9.297  1.00 20.00     0.030 C 
HETATM    4  C5  UNL     1     -23.772  18.775   9.474  1.00 20.00     0.155 C 
HETATM    5  O7  UNL     1     -22.910  18.128   7.171  1.00 20.00    -0.297 OA
ENDROOT
BRANCH   4   6
HETATM    6  C2  UNL     1     -23.411  17.468  10.179  1.00 20.00     0.269 C 
HETATM    7  O8  UNL     1     -24.050  16.431  10.069  1.00 20.00    -0.264 OA
BRANCH   6   8
HETATM    8  O9  UNL     1     -22.287  17.649  10.929  1.00 20.00    -0.326 OA
HETATM    9  C6  UNL     1     -22.505  17.826  12.332  1.00 20.00     0.213 C 
ENDBRANCH   6   8
ENDBRANCH   4   6
TORSDOF 2
ENDMDL
MODEL 5
REMARK VINA RESULT:      -4.4     11.345     12.363
REMARK  2 active torsions:
REMARK  status: ('A' for Active; 'I' for Inactive)
REMARK    1  A    between atoms: C2_2  and  C5_5 
REMARK    2  A    between atoms: C2_2  and  O9_9 
ROOT
HETATM    1  C1  UNL     1     -36.121  15.775  -3.541  1.00 20.00     0.140 C 
HETATM    2  C3  UNL     1     -34.998  15.888  -2.497  1.00 20.00     0.080 C 
HETATM    3  C4  UNL     1     -34.177  14.922  -3.381  1.00 20.00     0.030 C 
HETATM    4  C5  UNL     1     -35.195  15.059  -4.546  1.00 20.00     0.155 C 
HETATM    5  O7  UNL     1     -37.284  16.118  -3.559  1.00 20.00    -0.297 OA
ENDROOT
BRANCH   4   6
HETATM    6  C2  UNL     1     -35.867  13.800  -5.093  1.00 20.00     0.269 C 
HETATM    7  O8  UNL     1     -36.171  12.833  -4.408  1.00 20.00    -0.264 OA
BRANCH   6   8
HETATM    8  O9  UNL     1     -36.066  13.935  -6.435  1.00 20.00    -0.326 OA
HETATM    9  C6  UNL     1     -35.363  15.017  -7.055  1.00 20.00     0.213 C 
ENDBRANCH   6   8
ENDBRANCH   4   6
TORSDOF 2
ENDMDL
MODEL 6
REMARK VINA RESULT:      -4.3     11.041     12.484
REMARK  2 active torsions:
REMARK  status: ('A' for Active; 'I' for Inactive)
REMARK    1  A    between atoms: C2_2  and  C5_5 
REMARK    2  A    between atoms: C2_2  and  O9_9 
ROOT
HETATM    1  C1  UNL     1     -35.434  13.637  -4.116  1.00 20.00     0.140 C 
HETATM    2  C3  UNL     1     -34.163  14.500  -4.030  1.00 20.00     0.080 C 
HETATM    3  C4  UNL     1     -35.090  15.735  -3.994  1.00 20.00     0.030 C 
HETATM    4  C5  UNL     1     -36.342  14.840  -3.786  1.00 20.00     0.155 C 
HETATM    5  O7  UNL     1     -35.635  12.465  -4.352  1.00 20.00    -0.297 OA
ENDROOT
BRANCH   4   6
HETATM    6  C2  UNL     1     -37.493  14.933  -4.787  1.00 20.00     0.269 C 
HETATM    7  O8  UNL     1     -37.439  15.558  -5.837  1.00 20.00    -0.264 OA
BRANCH   6   8
HETATM    8  O9  UNL     1     -38.559  14.221  -4.323  1.00 20.00    -0.326 OA
HETATM    9  C6  UNL     1     -39.814  14.908  -4.341  1.00 20.00     0.213 C 
ENDBRANCH   6   8
ENDBRANCH   4   6
TORSDOF 2
ENDMDL
MODEL 7
REMARK VINA RESULT:      -4.1      9.175      9.890
REMARK  2 active torsions:
REMARK  status: ('A' for Active; 'I' for Inactive)
REMARK    1  A    between atoms: C2_2  and  C5_5 
REMARK    2  A    between atoms: C2_2  and  O9_9 
ROOT
HETATM    1  C1  UNL     1     -42.464   6.936   0.561  1.00 20.00     0.140 C 
HETATM    2  C3  UNL     1     -41.738   8.292   0.510  1.00 20.00     0.080 C 
HETATM    3  C4  UNL     1     -41.374   7.961  -0.955  1.00 20.00     0.030 C 
HETATM    4  C5  UNL     1     -42.349   6.753  -0.967  1.00 20.00     0.155 C 
HETATM    5  O7  UNL     1     -42.939   6.275   1.460  1.00 20.00    -0.297 OA
ENDROOT
BRANCH   4   6
HETATM    6  C2  UNL     1     -41.804   5.365  -1.300  1.00 20.00     0.269 C 
HETATM    7  O8  UNL     1     -40.621   5.060  -1.239  1.00 20.00    -0.264 OA
BRANCH   6   8
HETATM    8  O9  UNL     1     -42.832   4.547  -1.667  1.00 20.00    -0.326 OA
HETATM    9  C6  UNL     1     -42.499   3.527  -2.613  1.00 20.00     0.213 C 
ENDBRANCH   6   8
ENDBRANCH   4   6
TORSDOF 2
ENDMDL
MODEL 8
REMARK VINA RESULT:      -4.0     11.686     12.369
REMARK  2 active torsions:
REMARK  status: ('A' for Active; 'I' for Inactive)
REMARK    1  A    between atoms: C2_2  and  C5_5 
REMARK    2  A    between atoms: C2_2  and  O9_9 
ROOT
HETATM    1  C1  UNL     1     -33.711  15.940  -3.053  1.00 20.00     0.140 C 
HETATM    2  C3  UNL     1     -33.434  17.014  -1.988  1.00 20.00     0.080 C 
HETATM    3  C4  UNL     1     -34.937  16.946  -1.633  1.00 20.00     0.030 C 
HETATM    4  C5  UNL     1     -35.125  15.671  -2.499  1.00 20.00     0.155 C 
HETATM    5  O7  UNL     1     -33.062  15.486  -3.972  1.00 20.00    -0.297 OA
ENDROOT
BRANCH   4   6
HETATM    6  C2  UNL     1     -36.156  15.688  -3.627  1.00 20.00     0.269 C 
HETATM    7  O8  UNL     1     -36.387  16.663  -4.329  1.00 20.00    -0.264 OA
BRANCH   6   8
HETATM    8  O9  UNL     1     -36.756  14.467  -3.716  1.00 20.00    -0.326 OA
HETATM    9  C6  UNL     1     -36.170  13.560  -4.654  1.00 20.00     0.213 C 
ENDBRANCH   6   8
ENDBRANCH   4   6
TORSDOF 2
ENDMDL
MODEL 9
REMARK VINA RESULT:      -3.9     11.423     12.298
REMARK  2 active torsions:
REMARK  status: ('A' for Active; 'I' for Inactive)
REMARK    1  A    between atoms: C2_2  and  C5_5 
REMARK    2  A    between atoms: C2_2  and  O9_9 
ROOT
HETATM    1  C1  UNL     1     -34.561  14.272  -4.004  1.00 20.00     0.140 C 
HETATM    2  C3  UNL     1     -33.082  14.419  -4.398  1.00 20.00     0.080 C 
HETATM    3  C4  UNL     1     -33.085  15.761  -3.631  1.00 20.00     0.030 C 
HETATM    4  C5  UNL     1     -34.473  15.449  -3.010  1.00 20.00     0.155 C 
HETATM    5  O7  UNL     1     -35.448  13.520  -4.349  1.00 20.00    -0.297 OA
ENDROOT
BRANCH   4   6
HETATM    6  C2  UNL     1     -35.623  16.429  -3.236  1.00 20.00     0.269 C 
HETATM    7  O8  UNL     1     -35.981  16.823  -4.338  1.00 20.00    -0.264 OA
BRANCH   6   8
HETATM    8  O9  UNL     1     -36.166  16.781  -2.036  1.00 20.00    -0.326 OA
HETATM    9  C6  UNL     1     -35.233  16.948  -0.964  1.00 20.00     0.213 C 
ENDBRANCH   6   8
ENDBRANCH   4   6
TORSDOF 2
ENDMDL
