MODEL 1
REMARK VINA RESULT:      -3.7      0.000      0.000
REMARK  0 active torsions:
REMARK  status: ('A' for Active; 'I' for Inactive)
ROOT
HETATM    1  C1  UNL     1     -25.080  18.862   9.750  1.00 20.00     0.282 C 
HETATM    2  C2  UNL     1     -24.939  17.238  11.553  1.00 20.00     0.286 C 
HETATM    3  C3  UNL     1     -23.623  18.730   9.312  1.00 20.00     0.104 C 
HETATM    4  C4  UNL     1     -23.459  16.877  11.355  1.00 20.00     0.071 C 
HETATM    5  C5  UNL     1     -22.526  17.681  12.259  1.00 20.00     0.023 C 
HETATM    6  C6  UNL     1     -26.645  18.935  11.574  1.00 20.00     0.310 C 
HETATM    7  N7  UNL     1     -25.265  18.626  11.190  1.00 20.00     0.086 N 
HETATM    8  S8  UNL     1     -22.976  17.061   9.604  1.00 20.00    -0.161 SA
ENDROOT
TORSDOF 0
ENDMDL
MODEL 2
REMARK VINA RESULT:      -3.6      1.936      3.014
REMARK  0 active torsions:
REMARK  status: ('A' for Active; 'I' for Inactive)
ROOT
HETATM    1  C1  UNL     1     -23.532  18.816   9.366  1.00 20.00     0.282 C 
HETATM    2  C2  UNL     1     -22.772  17.705  11.390  1.00 20.00     0.286 C 
HETATM    3  C3  UNL     1     -25.019  18.575   9.610  1.00 20.00     0.104 C 
HETATM    4  C4  UNL     1     -24.163  17.318  11.916  1.00 20.00     0.071 C 
HETATM    5  C5  UNL     1     -24.575  15.902  11.519  1.00 20.00     0.023 C 
HETATM    6  C6  UNL     1     -21.293  17.950   9.508  1.00 20.00     0.310 C 
HETATM    7  N7  UNL     1     -22.684  17.751   9.922  1.00 20.00     0.086 N 
HETATM    8  S8  UNL     1     -25.418  18.529  11.379  1.00 20.00    -0.161 SA
ENDROOT
TORSDOF 0
ENDMDL
MODEL 3
REMARK VINA RESULT:      -3.2     17.407     18.396
REMARK  0 active torsions:
REMARK  status: ('A' for Active; 'I' for Inactive)
ROOT
HETATM    1  C1  UNL     1     -33.522  15.857  -3.163  1.00 20.00     0.282 C 
HETATM    2  C2  UNL     1     -35.888  16.021  -3.700  1.00 20.00     0.286 C 
HETATM    3  C3  UNL     1     -33.181  14.877  -4.283  1.00 20.00     0.104 C 
HETATM    4  C4  UNL     1     -35.867  15.066  -4.903  1.00 20.00     0.071 C 
HETATM    5  C5  UNL     1     -36.243  13.634  -4.531  1.00 20.00     0.023 C 
HETATM    6  C6  UNL     1     -35.104  16.537  -1.484  1.00 20.00     0.310 C 
HETATM    7  N7  UNL     1     -34.896  15.693  -2.663  1.00 20.00     0.086 N 
HETATM    8  S8  UNL     1     -34.243  15.110  -5.736  1.00 20.00    -0.161 SA
ENDROOT
TORSDOF 0
ENDMDL
MODEL 4
REMARK VINA RESULT:      -3.2      1.630      2.753
REMARK  0 active torsions:
REMARK  status: ('A' for Active; 'I' for Inactive)
ROOT
HETATM    1  C1  UNL     1     -25.040  18.143  10.424  1.00 20.00     0.282 C 
HETATM    2  C2  UNL     1     -23.351  19.119   8.973  1.00 20.00     0.286 C 
HETATM    3  C3  UNL     1     -24.102  17.144  11.098  1.00 20.00     0.104 C 
HETATM    4  C4  UNL     1     -22.177  18.254   9.457  1.00 20.00     0.071 C 
HETATM    5  C5  UNL     1     -21.946  17.023   8.583  1.00 20.00     0.023 C 
HETATM    6  C6  UNL     1     -25.682  19.263   8.395  1.00 20.00     0.310 C 
HETATM    7  N7  UNL     1     -24.654  18.439   9.036  1.00 20.00     0.086 N 
HETATM    8  S8  UNL     1     -22.403  17.772  11.203  1.00 20.00    -0.161 SA
ENDROOT
TORSDOF 0
ENDMDL
MODEL 5
REMARK VINA RESULT:      -3.0     18.630     19.644
REMARK  0 active torsions:
REMARK  status: ('A' for Active; 'I' for Inactive)
ROOT
HETATM    1  C1  UNL     1     -35.765  14.452  -6.197  1.00 20.00     0.282 C 
HETATM    2  C2  UNL     1     -34.576  16.438  -5.455  1.00 20.00     0.286 C 
HETATM    3  C3  UNL     1     -36.353  14.108  -4.832  1.00 20.00     0.104 C 
HETATM    4  C4  UNL     1     -35.011  16.369  -3.983  1.00 20.00     0.071 C 
HETATM    5  C5  UNL     1     -33.992  15.657  -3.096  1.00 20.00     0.023 C 
HETATM    6  C6  UNL     1     -33.872  15.269  -7.437  1.00 20.00     0.310 C 
HETATM    7  N7  UNL     1     -34.459  15.122  -6.102  1.00 20.00     0.086 N 
HETATM    8  S8  UNL     1     -36.655  15.590  -3.830  1.00 20.00    -0.161 SA
ENDROOT
TORSDOF 0
ENDMDL
MODEL 6
REMARK VINA RESULT:      -2.9     17.340     18.298
REMARK  0 active torsions:
REMARK  status: ('A' for Active; 'I' for Inactive)
ROOT
HETATM    1  C1  UNL     1     -34.839  16.543  -5.493  1.00 20.00     0.282 C 
HETATM    2  C2  UNL     1     -34.400  14.924  -3.733  1.00 20.00     0.286 C 
HETATM    3  C3  UNL     1     -34.485  17.772  -4.660  1.00 20.00     0.104 C 
HETATM    4  C4  UNL     1     -33.976  15.937  -2.658  1.00 20.00     0.071 C 
HETATM    5  C5  UNL     1     -35.127  16.342  -1.739  1.00 20.00     0.023 C 
HETATM    6  C6  UNL     1     -35.870  14.371  -5.556  1.00 20.00     0.310 C 
HETATM    7  N7  UNL     1     -35.394  15.448  -4.683  1.00 20.00     0.086 N 
HETATM    8  S8  UNL     1     -33.211  17.408  -3.421  1.00 20.00    -0.161 SA
ENDROOT
TORSDOF 0
ENDMDL
MODEL 7
REMARK VINA RESULT:      -2.9     18.830     19.686
REMARK  0 active torsions:
REMARK  status: ('A' for Active; 'I' for Inactive)
ROOT
HETATM    1  C1  UNL     1     -37.007  15.836  -5.769  1.00 20.00     0.282 C 
HETATM    2  C2  UNL     1     -36.321  14.081  -4.232  1.00 20.00     0.286 C 
HETATM    3  C3  UNL     1     -35.613  16.433  -5.949  1.00 20.00     0.104 C 
HETATM    4  C4  UNL     1     -34.826  14.436  -4.210  1.00 20.00     0.071 C 
HETATM    5  C5  UNL     1     -34.450  15.347  -3.042  1.00 20.00     0.023 C 
HETATM    6  C6  UNL     1     -38.603  14.842  -4.270  1.00 20.00     0.310 C 
HETATM    7  N7  UNL     1     -37.203  15.241  -4.439  1.00 20.00     0.086 N 
HETATM    8  S8  UNL     1     -34.312  15.178  -5.796  1.00 20.00    -0.161 SA
ENDROOT
TORSDOF 0
ENDMDL
MODEL 8
REMARK VINA RESULT:      -2.9     15.125     16.219
REMARK  0 active torsions:
REMARK  status: ('A' for Active; 'I' for Inactive)
ROOT
HETATM    1  C1  UNL     1     -34.784  16.297  -2.187  1.00 20.00     0.282 C 
HETATM    2  C2  UNL     1     -32.996  17.630  -3.157  1.00 20.00     0.286 C 
HETATM    3  C3  UNL     1     -34.907  17.117  -0.906  1.00 20.00     0.104 C 
HETATM    4  C4  UNL     1     -32.882  18.641  -2.006  1.00 20.00     0.071 C 
HETATM    5  C5  UNL     1     -31.800  18.268  -0.994  1.00 20.00     0.023 C 
HETATM    6  C6  UNL     1     -33.327  15.349  -3.850  1.00 20.00     0.310 C 
HETATM    7  N7  UNL     1     -33.415  16.286  -2.726  1.00 20.00     0.086 N 
HETATM    8  S8  UNL     1     -34.492  18.863  -1.175  1.00 20.00    -0.161 SA
ENDROOT
TORSDOF 0
ENDMDL
MODEL 9
REMARK VINA RESULT:      -2.8     16.558     17.542
REMARK  0 active torsions:
REMARK  status: ('A' for Active; 'I' for Inactive)
ROOT
HETATM    1  C1  UNL     1     -33.856  18.161  -3.850  1.00 20.00     0.282 C 
HETATM    2  C2  UNL     1     -33.889  16.103  -2.556  1.00 20.00     0.286 C 
HETATM    3  C3  UNL     1     -34.291  17.520  -5.165  1.00 20.00     0.104 C 
HETATM    4  C4  UNL     1     -34.339  15.179  -3.699  1.00 20.00     0.071 C 
HETATM    5  C5  UNL     1     -33.169  14.495  -4.404  1.00 20.00     0.023 C 
HETATM    6  C6  UNL     1     -32.546  17.967  -1.842  1.00 20.00     0.310 C 
HETATM    7  N7  UNL     1     -33.076  17.246  -3.002  1.00 20.00     0.086 N 
HETATM    8  S8  UNL     1     -35.372  16.088  -4.898  1.00 20.00    -0.161 SA
ENDROOT
TORSDOF 0
ENDMDL
