MODEL 1
REMARK VINA RESULT:      -3.5      0.000      0.000
REMARK  0 active torsions:
REMARK  status: ('A' for Active; 'I' for Inactive)
ROOT
HETATM    1  C1  UNL     1     -24.218  18.059  12.330  1.00 20.00     0.282 C 
HETATM    2  C2  UNL     1     -25.043  18.692  10.128  1.00 20.00     0.286 C 
HETATM    3  C3  UNL     1     -23.071  17.194  11.818  1.00 20.00     0.104 C 
HETATM    4  C4  UNL     1     -23.991  17.904   9.335  1.00 20.00     0.071 C 
HETATM    5  C5  UNL     1     -23.735  18.551   7.976  1.00 20.00     0.023 C 
HETATM    6  C6  UNL     1     -26.499  18.765  12.042  1.00 20.00     0.310 C 
HETATM    7  N7  UNL     1     -25.371  18.067  11.418  1.00 20.00     0.086 N 
HETATM    8  S8  UNL     1     -22.414  17.820  10.249  1.00 20.00    -0.161 SA
ENDROOT
TORSDOF 0
ENDMDL
MODEL 2
REMARK VINA RESULT:      -3.4      1.824      3.200
REMARK  0 active torsions:
REMARK  status: ('A' for Active; 'I' for Inactive)
ROOT
HETATM    1  C1  UNL     1     -23.575  16.638  10.404  1.00 20.00     0.282 C 
HETATM    2  C2  UNL     1     -25.022  18.569  10.069  1.00 20.00     0.286 C 
HETATM    3  C3  UNL     1     -23.891  16.471  11.887  1.00 20.00     0.104 C 
HETATM    4  C4  UNL     1     -25.523  18.642  11.518  1.00 20.00     0.071 C 
HETATM    5  C5  UNL     1     -26.916  19.262  11.581  1.00 20.00     0.023 C 
HETATM    6  C6  UNL     1     -23.172  18.159   8.586  1.00 20.00     0.310 C 
HETATM    7  N7  UNL     1     -23.653  18.039   9.965  1.00 20.00     0.086 N 
HETATM    8  S8  UNL     1     -25.588  16.980  12.269  1.00 20.00    -0.161 SA
ENDROOT
TORSDOF 0
ENDMDL
MODEL 3
REMARK VINA RESULT:      -3.3      1.649      3.271
REMARK  0 active torsions:
REMARK  status: ('A' for Active; 'I' for Inactive)
ROOT
HETATM    1  C1  UNL     1     -22.521  18.205  10.049  1.00 20.00     0.282 C 
HETATM    2  C2  UNL     1     -24.115  18.436  11.877  1.00 20.00     0.286 C 
HETATM    3  C3  UNL     1     -23.572  18.093   8.948  1.00 20.00     0.104 C 
HETATM    4  C4  UNL     1     -25.371  18.354  10.999  1.00 20.00     0.071 C 
HETATM    5  C5  UNL     1     -26.532  19.112  11.638  1.00 20.00     0.023 C 
HETATM    6  C6  UNL     1     -21.885  17.637  12.297  1.00 20.00     0.310 C 
HETATM    7  N7  UNL     1     -22.988  17.662  11.332  1.00 20.00     0.086 N 
HETATM    8  S8  UNL     1     -25.056  19.054   9.344  1.00 20.00    -0.161 SA
ENDROOT
TORSDOF 0
ENDMDL
MODEL 4
REMARK VINA RESULT:      -3.2      1.639      3.196
REMARK  0 active torsions:
REMARK  status: ('A' for Active; 'I' for Inactive)
ROOT
HETATM    1  C1  UNL     1     -23.014  17.775   8.723  1.00 20.00     0.282 C 
HETATM    2  C2  UNL     1     -25.092  18.579   9.706  1.00 20.00     0.286 C 
HETATM    3  C3  UNL     1     -22.291  17.569  10.050  1.00 20.00     0.104 C 
HETATM    4  C4  UNL     1     -24.627  18.471  11.165  1.00 20.00     0.071 C 
HETATM    5  C5  UNL     1     -25.812  18.237  12.098  1.00 20.00     0.023 C 
HETATM    6  C6  UNL     1     -24.521  19.136   7.436  1.00 20.00     0.310 C 
HETATM    7  N7  UNL     1     -23.990  18.873   8.776  1.00 20.00     0.086 N 
HETATM    8  S8  UNL     1     -23.442  17.100  11.370  1.00 20.00    -0.161 SA
ENDROOT
TORSDOF 0
ENDMDL
MODEL 5
REMARK VINA RESULT:      -3.0     18.091     19.445
REMARK  0 active torsions:
REMARK  status: ('A' for Active; 'I' for Inactive)
ROOT
HETATM    1  C1  UNL     1     -35.786  14.602  -6.278  1.00 20.00     0.282 C 
HETATM    2  C2  UNL     1     -33.936  15.788  -5.228  1.00 20.00     0.286 C 
HETATM    3  C3  UNL     1     -36.262  13.910  -5.005  1.00 20.00     0.104 C 
HETATM    4  C4  UNL     1     -34.183  15.242  -3.815  1.00 20.00     0.071 C 
HETATM    5  C5  UNL     1     -33.689  16.225  -2.757  1.00 20.00     0.023 C 
HETATM    6  C6  UNL     1     -33.915  15.346  -7.593  1.00 20.00     0.310 C 
HETATM    7  N7  UNL     1     -34.336  14.843  -6.282  1.00 20.00     0.086 N 
HETATM    8  S8  UNL     1     -35.960  14.931  -3.539  1.00 20.00    -0.161 SA
ENDROOT
TORSDOF 0
ENDMDL
MODEL 6
REMARK VINA RESULT:      -3.0     16.801     17.904
REMARK  0 active torsions:
REMARK  status: ('A' for Active; 'I' for Inactive)
ROOT
HETATM    1  C1  UNL     1     -33.293  16.306  -3.232  1.00 20.00     0.282 C 
HETATM    2  C2  UNL     1     -35.668  15.825  -2.988  1.00 20.00     0.286 C 
HETATM    3  C3  UNL     1     -33.000  15.138  -4.168  1.00 20.00     0.104 C 
HETATM    4  C4  UNL     1     -35.672  14.590  -3.900  1.00 20.00     0.071 C 
HETATM    5  C5  UNL     1     -37.042  14.391  -4.543  1.00 20.00     0.023 C 
HETATM    6  C6  UNL     1     -34.504  17.100  -1.313  1.00 20.00     0.310 C 
HETATM    7  N7  UNL     1     -34.386  16.017  -2.293  1.00 20.00     0.086 N 
HETATM    8  S8  UNL     1     -34.424  14.752  -5.220  1.00 20.00    -0.161 SA
ENDROOT
TORSDOF 0
ENDMDL
MODEL 7
REMARK VINA RESULT:      -2.9     23.498     23.973
REMARK  0 active torsions:
REMARK  status: ('A' for Active; 'I' for Inactive)
ROOT
HETATM    1  C1  UNL     1     -42.924   5.099  -0.058  1.00 20.00     0.282 C 
HETATM    2  C2  UNL     1     -41.420   6.893  -0.732  1.00 20.00     0.286 C 
HETATM    3  C3  UNL     1     -43.391   5.772   1.228  1.00 20.00     0.104 C 
HETATM    4  C4  UNL     1     -41.703   7.796   0.476  1.00 20.00     0.071 C 
HETATM    5  C5  UNL     1     -41.493   9.265   0.120  1.00 20.00     0.023 C 
HETATM    6  C6  UNL     1     -41.094   4.655  -1.554  1.00 20.00     0.310 C 
HETATM    7  N7  UNL     1     -41.544   5.461  -0.416  1.00 20.00     0.086 N 
HETATM    8  S8  UNL     1     -43.415   7.576   1.066  1.00 20.00    -0.161 SA
ENDROOT
TORSDOF 0
ENDMDL
MODEL 8
REMARK VINA RESULT:      -2.9     23.173     23.708
REMARK  0 active torsions:
REMARK  status: ('A' for Active; 'I' for Inactive)
ROOT
HETATM    1  C1  UNL     1     -41.482   7.715  -1.268  1.00 20.00     0.282 C 
HETATM    2  C2  UNL     1     -42.467   7.431   0.942  1.00 20.00     0.286 C 
HETATM    3  C3  UNL     1     -41.228   6.230  -1.510  1.00 20.00     0.104 C 
HETATM    4  C4  UNL     1     -42.337   5.902   0.975  1.00 20.00     0.071 C 
HETATM    5  C5  UNL     1     -43.417   5.283   1.858  1.00 20.00     0.023 C 
HETATM    6  C6  UNL     1     -41.481   9.532   0.307  1.00 20.00     0.310 C 
HETATM    7  N7  UNL     1     -41.404   8.076   0.155  1.00 20.00     0.086 N 
HETATM    8  S8  UNL     1     -42.481   5.200  -0.703  1.00 20.00    -0.161 SA
ENDROOT
TORSDOF 0
ENDMDL
MODEL 9
REMARK VINA RESULT:      -2.8     16.669     17.955
REMARK  0 active torsions:
REMARK  status: ('A' for Active; 'I' for Inactive)
ROOT
HETATM    1  C1  UNL     1     -35.317  15.417  -4.684  1.00 20.00     0.282 C 
HETATM    2  C2  UNL     1     -33.932  15.980  -2.761  1.00 20.00     0.286 C 
HETATM    3  C3  UNL     1     -36.645  15.760  -4.016  1.00 20.00     0.104 C 
HETATM    4  C4  UNL     1     -35.093  16.398  -1.849  1.00 20.00     0.071 C 
HETATM    5  C5  UNL     1     -34.635  17.429  -0.821  1.00 20.00     0.023 C 
HETATM    6  C6  UNL     1     -33.124  14.460  -4.442  1.00 20.00     0.310 C 
HETATM    7  N7  UNL     1     -34.311  14.936  -3.726  1.00 20.00     0.086 N 
HETATM    8  S8  UNL     1     -36.462  17.111  -2.822  1.00 20.00    -0.161 SA
ENDROOT
TORSDOF 0
ENDMDL
