MODEL 1
REMARK VINA RESULT:      -4.1      0.000      0.000
REMARK  1 active torsions:
REMARK  status: ('A' for Active; 'I' for Inactive)
REMARK    1  A    between atoms: C2_2  and  C5_5 
ROOT
HETATM    1  C1  UNL     1     -34.667   4.774   4.832  1.00 20.00     0.153 A 
HETATM    2  C2  UNL     1     -34.020   5.497   3.665  1.00 20.00     0.096 A 
HETATM    3  C3  UNL     1     -34.757   5.347   6.202  1.00 20.00     0.042 C 
HETATM    4  C4  UNL     1     -33.538   4.688   2.501  1.00 20.00     0.050 C 
HETATM    5  O6  UNL     1     -35.445   5.462   3.843  1.00 20.00    -0.369 OA
ENDROOT
BRANCH   2   6
HETATM    6  C5  UNL     1     -33.419   6.858   3.826  1.00 20.00     0.154 C 
HETATM    7 CL7  UNL     1     -32.383   7.269   2.434  1.00 20.00    -0.127 Cl
ENDBRANCH   2   6
TORSDOF 1
ENDMDL
MODEL 2
REMARK VINA RESULT:      -3.5     16.607     17.632
REMARK  1 active torsions:
REMARK  status: ('A' for Active; 'I' for Inactive)
REMARK    1  A    between atoms: C2_2  and  C5_5 
ROOT
HETATM    1  C1  UNL     1     -21.881  17.878   9.530  1.00 20.00     0.153 A 
HETATM    2  C2  UNL     1     -22.912  17.504  10.579  1.00 20.00     0.096 A 
HETATM    3  C3  UNL     1     -21.888  17.336   8.145  1.00 20.00     0.042 C 
HETATM    4  C4  UNL     1     -22.561  17.685  12.023  1.00 20.00     0.050 C 
HETATM    5  O6  UNL     1     -22.987  18.735   9.844  1.00 20.00    -0.369 OA
ENDROOT
BRANCH   2   6
HETATM    6  C5  UNL     1     -24.020  16.545  10.277  1.00 20.00     0.154 C 
HETATM    7 CL7  UNL     1     -24.548  15.691  11.750  1.00 20.00    -0.127 Cl
ENDBRANCH   2   6
TORSDOF 1
ENDMDL
MODEL 3
REMARK VINA RESULT:      -3.4     16.556     17.424
REMARK  1 active torsions:
REMARK  status: ('A' for Active; 'I' for Inactive)
REMARK    1  A    between atoms: C2_2  and  C5_5 
ROOT
HETATM    1  C1  UNL     1     -24.167  17.512   9.724  1.00 20.00     0.153 A 
HETATM    2  C2  UNL     1     -23.903  17.024  11.137  1.00 20.00     0.096 A 
HETATM    3  C3  UNL     1     -23.918  18.909   9.281  1.00 20.00     0.042 C 
HETATM    4  C4  UNL     1     -24.621  15.801  11.618  1.00 20.00     0.050 C 
HETATM    5  O6  UNL     1     -22.986  16.770  10.061  1.00 20.00    -0.369 OA
ENDROOT
BRANCH   2   6
HETATM    6  C5  UNL     1     -23.367  17.940  12.191  1.00 20.00     0.154 C 
HETATM    7 CL7  UNL     1     -21.593  17.801  12.319  1.00 20.00    -0.127 Cl
ENDBRANCH   2   6
TORSDOF 1
ENDMDL
MODEL 4
REMARK VINA RESULT:      -3.3     16.617     17.501
REMARK  1 active torsions:
REMARK  status: ('A' for Active; 'I' for Inactive)
REMARK    1  A    between atoms: C2_2  and  C5_5 
ROOT
HETATM    1  C1  UNL     1     -22.706  17.422  10.140  1.00 20.00     0.153 A 
HETATM    2  C2  UNL     1     -24.047  17.389  10.851  1.00 20.00     0.096 A 
HETATM    3  C3  UNL     1     -22.308  18.498   9.195  1.00 20.00     0.042 C 
HETATM    4  C4  UNL     1     -24.551  16.077  11.366  1.00 20.00     0.050 C 
HETATM    5  O6  UNL     1     -22.851  17.844  11.503  1.00 20.00    -0.369 OA
ENDROOT
BRANCH   2   6
HETATM    6  C5  UNL     1     -25.070  18.460  10.638  1.00 20.00     0.154 C 
HETATM    7 CL7  UNL     1     -25.854  18.912  12.174  1.00 20.00    -0.127 Cl
ENDBRANCH   2   6
TORSDOF 1
ENDMDL
MODEL 5
REMARK VINA RESULT:      -3.3     12.053     12.785
REMARK  1 active torsions:
REMARK  status: ('A' for Active; 'I' for Inactive)
REMARK    1  A    between atoms: C2_2  and  C5_5 
ROOT
HETATM    1  C1  UNL     1     -34.933  14.124  -3.864  1.00 20.00     0.153 A 
HETATM    2  C2  UNL     1     -34.063  15.245  -4.403  1.00 20.00     0.096 A 
HETATM    3  C3  UNL     1     -36.165  13.644  -4.545  1.00 20.00     0.042 C 
HETATM    4  C4  UNL     1     -33.170  15.977  -3.452  1.00 20.00     0.050 C 
HETATM    5  O6  UNL     1     -33.715  13.862  -4.575  1.00 20.00    -0.369 OA
ENDROOT
BRANCH   2   6
HETATM    6  C5  UNL     1     -34.402  15.950  -5.679  1.00 20.00     0.154 C 
HETATM    7 CL7  UNL     1     -33.783  15.053  -7.091  1.00 20.00    -0.127 Cl
ENDBRANCH   2   6
TORSDOF 1
ENDMDL
MODEL 6
REMARK VINA RESULT:      -3.3     16.984     17.485
REMARK  1 active torsions:
REMARK  status: ('A' for Active; 'I' for Inactive)
REMARK    1  A    between atoms: C2_2  and  C5_5 
ROOT
HETATM    1  C1  UNL     1     -24.539  18.420  10.122  1.00 20.00     0.153 A 
HETATM    2  C2  UNL     1     -23.085  18.033  10.322  1.00 20.00     0.096 A 
HETATM    3  C3  UNL     1     -25.024  19.207   8.957  1.00 20.00     0.042 C 
HETATM    4  C4  UNL     1     -22.618  17.698  11.704  1.00 20.00     0.050 C 
HETATM    5  O6  UNL     1     -24.053  17.110   9.800  1.00 20.00    -0.369 OA
ENDROOT
BRANCH   2   6
HETATM    6  C5  UNL     1     -22.030  18.430   9.338  1.00 20.00     0.154 C 
HETATM    7 CL7  UNL     1     -21.949  17.273   7.983  1.00 20.00    -0.127 Cl
ENDBRANCH   2   6
TORSDOF 1
ENDMDL
MODEL 7
REMARK VINA RESULT:      -3.3      9.017      9.276
REMARK  1 active torsions:
REMARK  status: ('A' for Active; 'I' for Inactive)
REMARK    1  A    between atoms: C2_2  and  C5_5 
ROOT
HETATM    1  C1  UNL     1     -41.226   7.918  -0.305  1.00 20.00     0.153 A 
HETATM    2  C2  UNL     1     -41.729   6.487  -0.268  1.00 20.00     0.096 A 
HETATM    3  C3  UNL     1     -42.078   9.094   0.018  1.00 20.00     0.042 C 
HETATM    4  C4  UNL     1     -40.994   5.449  -1.058  1.00 20.00     0.050 C 
HETATM    5  O6  UNL     1     -40.957   7.050   0.804  1.00 20.00    -0.369 OA
ENDROOT
BRANCH   2   6
HETATM    6  C5  UNL     1     -43.143   6.166   0.103  1.00 20.00     0.154 C 
HETATM    7 CL7  UNL     1     -43.235   5.482   1.747  1.00 20.00    -0.127 Cl
ENDBRANCH   2   6
TORSDOF 1
ENDMDL
MODEL 8
REMARK VINA RESULT:      -3.3     12.035     13.026
REMARK  1 active torsions:
REMARK  status: ('A' for Active; 'I' for Inactive)
REMARK    1  A    between atoms: C2_2  and  C5_5 
ROOT
HETATM    1  C1  UNL     1     -35.627  14.957  -6.272  1.00 20.00     0.153 A 
HETATM    2  C2  UNL     1     -35.927  14.438  -4.877  1.00 20.00     0.096 A 
HETATM    3  C3  UNL     1     -34.249  15.176  -6.786  1.00 20.00     0.042 C 
HETATM    4  C4  UNL     1     -37.274  14.713  -4.286  1.00 20.00     0.050 C 
HETATM    5  O6  UNL     1     -35.966  13.584  -6.031  1.00 20.00    -0.369 OA
ENDROOT
BRANCH   2   6
HETATM    6  C5  UNL     1     -34.829  14.111  -3.915  1.00 20.00     0.154 C 
HETATM    7 CL7  UNL     1     -34.552  15.456  -2.778  1.00 20.00    -0.127 Cl
ENDBRANCH   2   6
TORSDOF 1
ENDMDL
MODEL 9
REMARK VINA RESULT:      -3.3     16.834     17.320
REMARK  1 active torsions:
REMARK  status: ('A' for Active; 'I' for Inactive)
REMARK    1  A    between atoms: C2_2  and  C5_5 
ROOT
HETATM    1  C1  UNL     1     -22.813  17.784  10.870  1.00 20.00     0.153 A 
HETATM    2  C2  UNL     1     -24.256  18.056  10.483  1.00 20.00     0.096 A 
HETATM    3  C3  UNL     1     -22.337  17.739  12.278  1.00 20.00     0.042 C 
HETATM    4  C4  UNL     1     -24.544  18.565   9.105  1.00 20.00     0.050 C 
HETATM    5  O6  UNL     1     -23.712  16.727  10.507  1.00 20.00    -0.369 OA
ENDROOT
BRANCH   2   6
HETATM    6  C5  UNL     1     -25.308  18.302  11.519  1.00 20.00     0.154 C 
HETATM    7 CL7  UNL     1     -25.911  16.767  12.196  1.00 20.00    -0.127 Cl
ENDBRANCH   2   6
TORSDOF 1
ENDMDL
