MODEL 1
REMARK VINA RESULT:      -4.4      0.000      0.000
REMARK  1 active torsions:
REMARK  status: ('A' for Active; 'I' for Inactive)
REMARK    1  A    between atoms: C1_1  and  C9_9 
ROOT
HETATM    1  C1  UNL     1     -34.302  16.121  -4.159  1.00 20.00     0.020 C 
HETATM    2  C2  UNL     1     -35.194  17.138  -4.775  1.00 20.00     0.058 C 
HETATM    3  C3  UNL     1     -34.997  16.858  -6.263  1.00 20.00     0.038 C 
HETATM    4  C4  UNL     1     -34.653  15.364  -6.348  1.00 20.00     0.055 C 
HETATM    5  C5  UNL     1     -33.625  15.057  -7.427  1.00 20.00     0.041 C 
HETATM    6  C6  UNL     1     -35.882  14.465  -6.429  1.00 20.00     0.041 C 
HETATM    7  N10 UNL     1     -34.041  15.163  -5.010  1.00 20.00    -0.224 N 
HETATM    8  O11 UNL     1     -33.354  14.131  -4.728  1.00 20.00    -0.085 OA
ENDROOT
BRANCH   1   9
HETATM    9  C9  UNL     1     -33.851  16.090  -2.751  1.00 20.00     0.025 C 
HETATM   10  C7  UNL     1     -32.847  17.214  -2.471  1.00 20.00     0.016 C 
HETATM   11  C8  UNL     1     -35.034  16.187  -1.780  1.00 20.00     0.016 C 
ENDBRANCH   1   9
TORSDOF 1
ENDMDL
MODEL 2
REMARK VINA RESULT:      -4.0      1.887      2.740
REMARK  1 active torsions:
REMARK  status: ('A' for Active; 'I' for Inactive)
REMARK    1  A    between atoms: C1_1  and  C9_9 
ROOT
HETATM    1  C1  UNL     1     -34.422  16.302  -2.957  1.00 20.00     0.020 C 
HETATM    2  C2  UNL     1     -33.172  15.674  -3.461  1.00 20.00     0.058 C 
HETATM    3  C3  UNL     1     -33.718  14.447  -4.187  1.00 20.00     0.038 C 
HETATM    4  C4  UNL     1     -35.124  14.849  -4.654  1.00 20.00     0.055 C 
HETATM    5  C5  UNL     1     -36.121  13.702  -4.575  1.00 20.00     0.041 C 
HETATM    6  C6  UNL     1     -35.134  15.548  -6.009  1.00 20.00     0.041 C 
HETATM    7  N10 UNL     1     -35.457  15.866  -3.625  1.00 20.00    -0.224 N 
HETATM    8  O11 UNL     1     -36.645  16.284  -3.445  1.00 20.00    -0.085 OA
ENDROOT
BRANCH   1   9
HETATM    9  C9  UNL     1     -34.515  17.367  -1.934  1.00 20.00     0.025 C 
HETATM   10  C7  UNL     1     -35.210  16.852  -0.668  1.00 20.00     0.016 C 
HETATM   11  C8  UNL     1     -33.134  17.933  -1.584  1.00 20.00     0.016 C 
ENDBRANCH   1   9
TORSDOF 1
ENDMDL
MODEL 3
REMARK VINA RESULT:      -3.9      1.565      2.333
REMARK  1 active torsions:
REMARK  status: ('A' for Active; 'I' for Inactive)
REMARK    1  A    between atoms: C1_1  and  C9_9 
ROOT
HETATM    1  C1  UNL     1     -34.850  15.953  -4.022  1.00 20.00     0.020 C 
HETATM    2  C2  UNL     1     -35.048  14.480  -4.001  1.00 20.00     0.058 C 
HETATM    3  C3  UNL     1     -35.762  14.248  -5.330  1.00 20.00     0.038 C 
HETATM    4  C4  UNL     1     -35.269  15.373  -6.252  1.00 20.00     0.055 C 
HETATM    5  C5  UNL     1     -36.356  15.889  -7.183  1.00 20.00     0.041 C 
HETATM    6  C6  UNL     1     -33.976  15.031  -6.985  1.00 20.00     0.041 C 
HETATM    7  N10 UNL     1     -34.947  16.412  -5.242  1.00 20.00    -0.224 N 
HETATM    8  O11 UNL     1     -34.758  17.630  -5.559  1.00 20.00    -0.085 OA
ENDROOT
BRANCH   1   9
HETATM    9  C9  UNL     1     -34.469  16.801  -2.872  1.00 20.00     0.025 C 
HETATM   10  C7  UNL     1     -35.163  16.331  -1.589  1.00 20.00     0.016 C 
HETATM   11  C8  UNL     1     -32.949  16.825  -2.670  1.00 20.00     0.016 C 
ENDBRANCH   1   9
TORSDOF 1
ENDMDL
MODEL 4
REMARK VINA RESULT:      -3.8      1.755      4.083
REMARK  1 active torsions:
REMARK  status: ('A' for Active; 'I' for Inactive)
REMARK    1  A    between atoms: C1_1  and  C9_9 
ROOT
HETATM    1  C1  UNL     1     -34.394  16.160  -5.455  1.00 20.00     0.020 C 
HETATM    2  C2  UNL     1     -33.790  14.846  -5.110  1.00 20.00     0.058 C 
HETATM    3  C3  UNL     1     -33.041  15.181  -3.822  1.00 20.00     0.038 C 
HETATM    4  C4  UNL     1     -33.832  16.334  -3.187  1.00 20.00     0.055 C 
HETATM    5  C5  UNL     1     -32.935  17.355  -2.503  1.00 20.00     0.041 C 
HETATM    6  C6  UNL     1     -34.977  15.863  -2.298  1.00 20.00     0.041 C 
HETATM    7  N10 UNL     1     -34.431  16.937  -4.404  1.00 20.00    -0.224 N 
HETATM    8  O11 UNL     1     -34.955  18.097  -4.398  1.00 20.00    -0.085 OA
ENDROOT
BRANCH   1   9
HETATM    9  C9  UNL     1     -34.996  16.533  -6.753  1.00 20.00     0.025 C 
HETATM   10  C7  UNL     1     -34.090  16.117  -7.918  1.00 20.00     0.016 C 
HETATM   11  C8  UNL     1     -36.390  15.918  -6.923  1.00 20.00     0.016 C 
ENDBRANCH   1   9
TORSDOF 1
ENDMDL
MODEL 5
REMARK VINA RESULT:      -3.8      1.816      4.154
REMARK  1 active torsions:
REMARK  status: ('A' for Active; 'I' for Inactive)
REMARK    1  A    between atoms: C1_1  and  C9_9 
ROOT
HETATM    1  C1  UNL     1     -34.554  15.954  -4.516  1.00 20.00     0.020 C 
HETATM    2  C2  UNL     1     -33.348  15.449  -3.809  1.00 20.00     0.058 C 
HETATM    3  C3  UNL     1     -33.053  16.598  -2.848  1.00 20.00     0.038 C 
HETATM    4  C4  UNL     1     -34.416  17.248  -2.568  1.00 20.00     0.055 C 
HETATM    5  C5  UNL     1     -34.329  18.760  -2.433  1.00 20.00     0.041 C 
HETATM    6  C6  UNL     1     -35.172  16.593  -1.417  1.00 20.00     0.041 C 
HETATM    7  N10 UNL     1     -35.129  16.903  -3.824  1.00 20.00    -0.224 N 
HETATM    8  O11 UNL     1     -36.215  17.470  -4.164  1.00 20.00    -0.085 OA
ENDROOT
BRANCH   1   9
HETATM    9  C9  UNL     1     -35.131  15.406  -5.763  1.00 20.00     0.025 C 
HETATM   10  C7  UNL     1     -34.030  15.062  -6.772  1.00 20.00     0.016 C 
HETATM   11  C8  UNL     1     -35.998  14.173  -5.487  1.00 20.00     0.016 C 
ENDBRANCH   1   9
TORSDOF 1
ENDMDL
MODEL 6
REMARK VINA RESULT:      -3.7      2.080      3.171
REMARK  1 active torsions:
REMARK  status: ('A' for Active; 'I' for Inactive)
REMARK    1  A    between atoms: C1_1  and  C9_9 
ROOT
HETATM    1  C1  UNL     1     -33.991  17.410  -2.135  1.00 20.00     0.020 C 
HETATM    2  C2  UNL     1     -34.831  16.276  -1.669  1.00 20.00     0.058 C 
HETATM    3  C3  UNL     1     -35.369  15.730  -2.990  1.00 20.00     0.038 C 
HETATM    4  C4  UNL     1     -34.293  16.069  -4.032  1.00 20.00     0.055 C 
HETATM    5  C5  UNL     1     -34.881  16.447  -5.383  1.00 20.00     0.041 C 
HETATM    6  C6  UNL     1     -33.201  15.010  -4.137  1.00 20.00     0.041 C 
HETATM    7  N10 UNL     1     -33.691  17.270  -3.400  1.00 20.00    -0.224 N 
HETATM    8  O11 UNL     1     -32.930  18.062  -4.041  1.00 20.00    -0.085 OA
ENDROOT
BRANCH   1   9
HETATM    9  C9  UNL     1     -33.442  18.497  -1.295  1.00 20.00     0.025 C 
HETATM   10  C7  UNL     1     -34.324  18.736  -0.064  1.00 20.00     0.016 C 
HETATM   11  C8  UNL     1     -32.002  18.201  -0.862  1.00 20.00     0.016 C 
ENDBRANCH   1   9
TORSDOF 1
ENDMDL
MODEL 7
REMARK VINA RESULT:      -3.7      0.969      3.988
REMARK  1 active torsions:
REMARK  status: ('A' for Active; 'I' for Inactive)
REMARK    1  A    between atoms: C1_1  and  C9_9 
ROOT
HETATM    1  C1  UNL     1     -34.870  15.895  -5.770  1.00 20.00     0.020 C 
HETATM    2  C2  UNL     1     -34.857  17.375  -5.631  1.00 20.00     0.058 C 
HETATM    3  C3  UNL     1     -35.030  17.543  -4.123  1.00 20.00     0.038 C 
HETATM    4  C4  UNL     1     -34.411  16.281  -3.505  1.00 20.00     0.055 C 
HETATM    5  C5  UNL     1     -35.171  15.792  -2.282  1.00 20.00     0.041 C 
HETATM    6  C6  UNL     1     -32.911  16.403  -3.260  1.00 20.00     0.041 C 
HETATM    7  N10 UNL     1     -34.604  15.325  -4.624  1.00 20.00    -0.224 N 
HETATM    8  O11 UNL     1     -34.488  14.067  -4.467  1.00 20.00    -0.085 OA
ENDROOT
BRANCH   1   9
HETATM    9  C9  UNL     1     -35.030  15.136  -7.028  1.00 20.00     0.025 C 
HETATM   10  C7  UNL     1     -36.238  15.641  -7.825  1.00 20.00     0.016 C 
HETATM   11  C8  UNL     1     -33.764  15.204  -7.890  1.00 20.00     0.016 C 
ENDBRANCH   1   9
TORSDOF 1
ENDMDL
MODEL 8
REMARK VINA RESULT:      -3.6      1.603      2.175
REMARK  1 active torsions:
REMARK  status: ('A' for Active; 'I' for Inactive)
REMARK    1  A    between atoms: C1_1  and  C9_9 
ROOT
HETATM    1  C1  UNL     1     -34.851  15.369  -3.722  1.00 20.00     0.020 C 
HETATM    2  C2  UNL     1     -35.165  13.948  -4.024  1.00 20.00     0.058 C 
HETATM    3  C3  UNL     1     -36.026  14.084  -5.277  1.00 20.00     0.038 C 
HETATM    4  C4  UNL     1     -35.541  15.370  -5.960  1.00 20.00     0.055 C 
HETATM    5  C5  UNL     1     -36.671  16.155  -6.609  1.00 20.00     0.041 C 
HETATM    6  C6  UNL     1     -34.361  15.147  -6.900  1.00 20.00     0.041 C 
HETATM    7  N10 UNL     1     -35.035  16.115  -4.780  1.00 20.00    -0.224 N 
HETATM    8  O11 UNL     1     -34.782  17.361  -4.822  1.00 20.00    -0.085 OA
ENDROOT
BRANCH   1   9
HETATM    9  C9  UNL     1     -34.288  15.891  -2.458  1.00 20.00     0.025 C 
HETATM   10  C7  UNL     1     -33.041  16.742  -2.723  1.00 20.00     0.016 C 
HETATM   11  C8  UNL     1     -35.325  16.705  -1.674  1.00 20.00     0.016 C 
ENDBRANCH   1   9
TORSDOF 1
ENDMDL
MODEL 9
REMARK VINA RESULT:      -3.6      2.147      3.958
REMARK  1 active torsions:
REMARK  status: ('A' for Active; 'I' for Inactive)
REMARK    1  A    between atoms: C1_1  and  C9_9 
ROOT
HETATM    1  C1  UNL     1     -36.281  15.710  -5.372  1.00 20.00     0.020 C 
HETATM    2  C2  UNL     1     -36.774  14.483  -4.692  1.00 20.00     0.058 C 
HETATM    3  C3  UNL     1     -35.472  13.874  -4.177  1.00 20.00     0.038 C 
HETATM    4  C4  UNL     1     -34.532  15.066  -3.952  1.00 20.00     0.055 C 
HETATM    5  C5  UNL     1     -33.086  14.750  -4.303  1.00 20.00     0.041 C 
HETATM    6  C6  UNL     1     -34.680  15.700  -2.573  1.00 20.00     0.041 C 
HETATM    7  N10 UNL     1     -35.085  16.022  -4.944  1.00 20.00    -0.224 N 
HETATM    8  O11 UNL     1     -34.450  17.061  -5.311  1.00 20.00    -0.085 OA
ENDROOT
BRANCH   1   9
HETATM    9  C9  UNL     1     -37.047  16.559  -6.309  1.00 20.00     0.025 C 
HETATM   10  C7  UNL     1     -36.730  16.195  -7.764  1.00 20.00     0.016 C 
HETATM   11  C8  UNL     1     -38.555  16.456  -6.056  1.00 20.00     0.016 C 
ENDBRANCH   1   9
TORSDOF 1
ENDMDL
