MODEL 1
REMARK VINA RESULT:      -4.5      0.000      0.000
REMARK  3 active torsions:
REMARK  status: ('A' for Active; 'I' for Inactive)
REMARK    1  A    between atoms: C4_4  and  C10_10 
REMARK    2  A    between atoms: C8_8  and  C10_10 
REMARK    3  A    between atoms: C8_8  and  O11_11 
ROOT
HETATM    1  C1  UNL     1     -35.667  14.762  -6.609  1.00 20.00    -0.030 C 
HETATM    2  C2  UNL     1     -35.861  14.016  -5.513  1.00 20.00    -0.028 C 
HETATM    3  C5  UNL     1     -34.807  15.988  -6.626  1.00 20.00     0.030 C 
HETATM    4  C6  UNL     1     -35.213  14.309  -4.188  1.00 20.00     0.065 C 
HETATM    5  C7  UNL     1     -34.438  16.487  -5.223  1.00 20.00     0.042 C 
HETATM    6  C8  UNL     1     -34.065  15.334  -4.279  1.00 20.00     0.068 C 
ENDROOT
BRANCH   6   7
HETATM    7  C10 UNL     1     -33.704  15.866  -2.891  1.00 20.00     0.038 C 
HETATM    8  C9  UNL     1     -34.963  16.049  -2.043  1.00 20.00     0.017 C 
BRANCH   7   9
HETATM    9  C4  UNL     1     -32.963  17.171  -3.012  1.00 20.00    -0.030 C 
HETATM   10  C3  UNL     1     -32.605  17.927  -1.967  1.00 20.00     0.007 C 
ENDBRANCH   7   9
ENDBRANCH   6   7
BRANCH   6  11
HETATM   11  O11 UNL     1     -32.902  14.687  -4.809  1.00 20.00    -0.389 OA
HETATM   12  H27 UNL     1     -32.330  14.501  -4.051  1.00 20.00     0.210 HD
ENDBRANCH   6  11
TORSDOF 3
ENDMDL
MODEL 2
REMARK VINA RESULT:      -4.4      1.352      4.237
REMARK  3 active torsions:
REMARK  status: ('A' for Active; 'I' for Inactive)
REMARK    1  A    between atoms: C4_4  and  C10_10 
REMARK    2  A    between atoms: C8_8  and  C10_10 
REMARK    3  A    between atoms: C8_8  and  O11_11 
ROOT
HETATM    1  C1  UNL     1     -33.957  17.802  -1.151  1.00 20.00    -0.030 C 
HETATM    2  C2  UNL     1     -34.966  16.921  -1.162  1.00 20.00    -0.028 C 
HETATM    3  C5  UNL     1     -32.847  17.790  -2.158  1.00 20.00     0.030 C 
HETATM    4  C6  UNL     1     -35.114  15.844  -2.201  1.00 20.00     0.065 C 
HETATM    5  C7  UNL     1     -32.798  16.502  -2.989  1.00 20.00     0.042 C 
HETATM    6  C8  UNL     1     -34.198  16.043  -3.426  1.00 20.00     0.068 C 
ENDROOT
BRANCH   6   7
HETATM    7  C10 UNL     1     -34.112  14.757  -4.251  1.00 20.00     0.038 C 
HETATM    8  C9  UNL     1     -34.027  15.082  -5.741  1.00 20.00     0.017 C 
BRANCH   7   9
HETATM    9  C4  UNL     1     -35.307  13.883  -3.974  1.00 20.00    -0.030 C 
HETATM   10  C3  UNL     1     -36.325  13.718  -4.827  1.00 20.00     0.007 C 
ENDBRANCH   7   9
ENDBRANCH   6   7
BRANCH   6  11
HETATM   11  O11 UNL     1     -34.755  17.059  -4.266  1.00 20.00    -0.389 OA
HETATM   12  H27 UNL     1     -34.467  16.852  -5.166  1.00 20.00     0.210 HD
ENDBRANCH   6  11
TORSDOF 3
ENDMDL
MODEL 3
REMARK VINA RESULT:      -4.3     11.654     13.056
REMARK  3 active torsions:
REMARK  status: ('A' for Active; 'I' for Inactive)
REMARK    1  A    between atoms: C4_4  and  C10_10 
REMARK    2  A    between atoms: C8_8  and  C10_10 
REMARK    3  A    between atoms: C8_8  and  O11_11 
ROOT
HETATM    1  C1  UNL     1     -42.287   3.970  -2.183  1.00 20.00    -0.030 C 
HETATM    2  C2  UNL     1     -43.402   4.585  -1.768  1.00 20.00    -0.028 C 
HETATM    3  C5  UNL     1     -40.918   4.337  -1.695  1.00 20.00     0.030 C 
HETATM    4  C6  UNL     1     -43.409   5.687  -0.746  1.00 20.00     0.065 C 
HETATM    5  C7  UNL     1     -40.884   5.671  -0.939  1.00 20.00     0.042 C 
HETATM    6  C8  UNL     1     -42.076   5.825   0.017  1.00 20.00     0.068 C 
ENDROOT
BRANCH   6   7
HETATM    7  C10 UNL     1     -42.011   7.166   0.752  1.00 20.00     0.038 C 
HETATM    8  C9  UNL     1     -43.416   7.662   1.088  1.00 20.00     0.017 C 
BRANCH   7   9
HETATM    9  C4  UNL     1     -41.284   8.183  -0.088  1.00 20.00    -0.030 C 
HETATM   10  C3  UNL     1     -41.380   9.505   0.092  1.00 20.00     0.007 C 
ENDBRANCH   7   9
ENDBRANCH   6   7
BRANCH   6  11
HETATM   11  O11 UNL     1     -41.991   4.788   1.001  1.00 20.00    -0.389 OA
HETATM   12  H27 UNL     1     -41.048   4.609   1.123  1.00 20.00     0.210 HD
ENDBRANCH   6  11
TORSDOF 3
ENDMDL
MODEL 4
REMARK VINA RESULT:      -4.3     11.309     12.556
REMARK  3 active torsions:
REMARK  status: ('A' for Active; 'I' for Inactive)
REMARK    1  A    between atoms: C4_4  and  C10_10 
REMARK    2  A    between atoms: C8_8  and  C10_10 
REMARK    3  A    between atoms: C8_8  and  O11_11 
ROOT
HETATM    1  C1  UNL     1     -34.870   5.306   5.946  1.00 20.00    -0.030 C 
HETATM    2  C2  UNL     1     -34.785   4.600   4.811  1.00 20.00    -0.028 C 
HETATM    3  C5  UNL     1     -34.192   6.627   6.143  1.00 20.00     0.030 C 
HETATM    4  C6  UNL     1     -34.028   5.068   3.599  1.00 20.00     0.065 C 
HETATM    5  C7  UNL     1     -33.146   6.936   5.065  1.00 20.00     0.042 C 
HETATM    6  C8  UNL     1     -33.636   6.558   3.659  1.00 20.00     0.068 C 
ENDROOT
BRANCH   6   7
HETATM    7  C10 UNL     1     -32.568   6.878   2.610  1.00 20.00     0.038 C 
HETATM    8  C9  UNL     1     -31.423   7.672   3.236  1.00 20.00     0.017 C 
BRANCH   7   9
HETATM    9  C4  UNL     1     -33.177   7.651   1.470  1.00 20.00    -0.030 C 
HETATM   10  C3  UNL     1     -32.523   8.580   0.764  1.00 20.00     0.007 C 
ENDBRANCH   7   9
ENDBRANCH   6   7
BRANCH   6  11
HETATM   11  O11 UNL     1     -34.786   7.356   3.362  1.00 20.00    -0.389 OA
HETATM   12  H27 UNL     1     -35.043   7.778   4.194  1.00 20.00     0.210 HD
ENDBRANCH   6  11
TORSDOF 3
ENDMDL
MODEL 5
REMARK VINA RESULT:      -4.3      1.508      2.139
REMARK  3 active torsions:
REMARK  status: ('A' for Active; 'I' for Inactive)
REMARK    1  A    between atoms: C4_4  and  C10_10 
REMARK    2  A    between atoms: C8_8  and  C10_10 
REMARK    3  A    between atoms: C8_8  and  O11_11 
ROOT
HETATM    1  C1  UNL     1     -35.950  14.711  -6.098  1.00 20.00    -0.030 C 
HETATM    2  C2  UNL     1     -35.443  15.944  -5.965  1.00 20.00    -0.028 C 
HETATM    3  C5  UNL     1     -36.010  13.723  -4.973  1.00 20.00     0.030 C 
HETATM    4  C6  UNL     1     -34.908  16.483  -4.668  1.00 20.00     0.065 C 
HETATM    5  C7  UNL     1     -35.157  14.130  -3.765  1.00 20.00     0.042 C 
HETATM    6  C8  UNL     1     -35.288  15.626  -3.444  1.00 20.00     0.068 C 
ENDROOT
BRANCH   6   7
HETATM    7  C10 UNL     1     -34.424  15.998  -2.236  1.00 20.00     0.038 C 
HETATM    8  C9  UNL     1     -35.246  16.773  -1.208  1.00 20.00     0.017 C 
BRANCH   7   9
HETATM    9  C4  UNL     1     -33.237  16.813  -2.678  1.00 20.00    -0.030 C 
HETATM   10  C3  UNL     1     -32.610  17.702  -1.900  1.00 20.00     0.007 C 
ENDBRANCH   7   9
ENDBRANCH   6   7
BRANCH   6  11
HETATM   11  O11 UNL     1     -36.652  15.888  -3.096  1.00 20.00    -0.389 OA
HETATM   12  H27 UNL     1     -36.957  15.111  -2.605  1.00 20.00     0.210 HD
ENDBRANCH   6  11
TORSDOF 3
ENDMDL
MODEL 6
REMARK VINA RESULT:      -4.3      1.389      2.178
REMARK  3 active torsions:
REMARK  status: ('A' for Active; 'I' for Inactive)
REMARK    1  A    between atoms: C4_4  and  C10_10 
REMARK    2  A    between atoms: C8_8  and  C10_10 
REMARK    3  A    between atoms: C8_8  and  O11_11 
ROOT
HETATM    1  C1  UNL     1     -35.391  16.640  -7.917  1.00 20.00    -0.030 C 
HETATM    2  C2  UNL     1     -35.924  15.432  -7.689  1.00 20.00    -0.028 C 
HETATM    3  C5  UNL     1     -34.433  17.304  -6.976  1.00 20.00     0.030 C 
HETATM    4  C6  UNL     1     -35.598  14.598  -6.483  1.00 20.00     0.065 C 
HETATM    5  C7  UNL     1     -34.373  16.631  -5.600  1.00 20.00     0.042 C 
HETATM    6  C8  UNL     1     -34.364  15.099  -5.706  1.00 20.00     0.068 C 
ENDROOT
BRANCH   6   7
HETATM    7  C10 UNL     1     -34.305  14.461  -4.316  1.00 20.00     0.038 C 
HETATM    8  C9  UNL     1     -35.612  13.734  -4.004  1.00 20.00     0.017 C 
BRANCH   7   9
HETATM    9  C4  UNL     1     -34.031  15.513  -3.273  1.00 20.00    -0.030 C 
HETATM   10  C3  UNL     1     -34.869  15.810  -2.274  1.00 20.00     0.007 C 
ENDBRANCH   7   9
ENDBRANCH   6   7
BRANCH   6  11
HETATM   11  O11 UNL     1     -33.179  14.711  -6.409  1.00 20.00    -0.389 OA
HETATM   12  H27 UNL     1     -32.546  15.433  -6.289  1.00 20.00     0.210 HD
ENDBRANCH   6  11
TORSDOF 3
ENDMDL
MODEL 7
REMARK VINA RESULT:      -4.2      1.408      4.127
REMARK  3 active torsions:
REMARK  status: ('A' for Active; 'I' for Inactive)
REMARK    1  A    between atoms: C4_4  and  C10_10 
REMARK    2  A    between atoms: C8_8  and  C10_10 
REMARK    3  A    between atoms: C8_8  and  O11_11 
ROOT
HETATM    1  C1  UNL     1     -33.984  17.728  -1.084  1.00 20.00    -0.030 C 
HETATM    2  C2  UNL     1     -35.014  16.873  -1.133  1.00 20.00    -0.028 C 
HETATM    3  C5  UNL     1     -32.903  17.771  -2.121  1.00 20.00     0.030 C 
HETATM    4  C6  UNL     1     -35.217  15.884  -2.247  1.00 20.00     0.065 C 
HETATM    5  C7  UNL     1     -32.909  16.551  -3.050  1.00 20.00     0.042 C 
HETATM    6  C8  UNL     1     -34.331  16.158  -3.479  1.00 20.00     0.068 C 
ENDROOT
BRANCH   6   7
HETATM    7  C10 UNL     1     -34.299  14.938  -4.403  1.00 20.00     0.038 C 
HETATM    8  C9  UNL     1     -32.902  14.321  -4.429  1.00 20.00     0.017 C 
BRANCH   7   9
HETATM    9  C4  UNL     1     -34.723  15.330  -5.794  1.00 20.00    -0.030 C 
HETATM   10  C3  UNL     1     -33.975  15.134  -6.886  1.00 20.00     0.007 C 
ENDBRANCH   7   9
ENDBRANCH   6   7
BRANCH   6  11
HETATM   11  O11 UNL     1     -34.887  17.248  -4.222  1.00 20.00    -0.389 OA
HETATM   12  H27 UNL     1     -34.483  17.209  -5.100  1.00 20.00     0.210 HD
ENDBRANCH   6  11
TORSDOF 3
ENDMDL
MODEL 8
REMARK VINA RESULT:      -4.2      1.989      3.106
REMARK  3 active torsions:
REMARK  status: ('A' for Active; 'I' for Inactive)
REMARK    1  A    between atoms: C4_4  and  C10_10 
REMARK    2  A    between atoms: C8_8  and  C10_10 
REMARK    3  A    between atoms: C8_8  and  O11_11 
ROOT
HETATM    1  C1  UNL     1     -34.383  14.434  -4.126  1.00 20.00    -0.030 C 
HETATM    2  C2  UNL     1     -33.182  15.026  -4.081  1.00 20.00    -0.028 C 
HETATM    3  C5  UNL     1     -35.566  14.920  -3.346  1.00 20.00     0.030 C 
HETATM    4  C6  UNL     1     -32.897  16.259  -3.270  1.00 20.00     0.065 C 
HETATM    5  C7  UNL     1     -35.198  15.940  -2.262  1.00 20.00     0.042 C 
HETATM    6  C8  UNL     1     -34.169  16.966  -2.759  1.00 20.00     0.068 C 
ENDROOT
BRANCH   6   7
HETATM    7  C10 UNL     1     -33.823  17.966  -1.654  1.00 20.00     0.038 C 
HETATM    8  C9  UNL     1     -32.313  18.020  -1.433  1.00 20.00     0.017 C 
BRANCH   7   9
HETATM    9  C4  UNL     1     -34.525  17.589  -0.376  1.00 20.00    -0.030 C 
HETATM   10  C3  UNL     1     -34.288  18.170   0.806  1.00 20.00     0.007 C 
ENDBRANCH   7   9
ENDBRANCH   6   7
BRANCH   6  11
HETATM   11  O11 UNL     1     -34.760  17.700  -3.837  1.00 20.00    -0.389 OA
HETATM   12  H27 UNL     1     -34.248  17.476  -4.628  1.00 20.00     0.210 HD
ENDBRANCH   6  11
TORSDOF 3
ENDMDL
MODEL 9
REMARK VINA RESULT:      -4.0      1.037      1.671
REMARK  3 active torsions:
REMARK  status: ('A' for Active; 'I' for Inactive)
REMARK    1  A    between atoms: C4_4  and  C10_10 
REMARK    2  A    between atoms: C8_8  and  C10_10 
REMARK    3  A    between atoms: C8_8  and  O11_11 
ROOT
HETATM    1  C1  UNL     1     -35.529  14.407  -5.859  1.00 20.00    -0.030 C 
HETATM    2  C2  UNL     1     -35.622  13.986  -4.591  1.00 20.00    -0.028 C 
HETATM    3  C5  UNL     1     -35.028  15.767  -6.237  1.00 20.00     0.030 C 
HETATM    4  C6  UNL     1     -35.205  14.818  -3.410  1.00 20.00     0.065 C 
HETATM    5  C7  UNL     1     -34.941  16.732  -5.048  1.00 20.00     0.042 C 
HETATM    6  C8  UNL     1     -34.367  16.054  -3.795  1.00 20.00     0.068 C 
ENDROOT
BRANCH   6   7
HETATM    7  C10 UNL     1     -34.295  17.043  -2.629  1.00 20.00     0.038 C 
HETATM    8  C9  UNL     1     -32.844  17.273  -2.210  1.00 20.00     0.017 C 
BRANCH   7   9
HETATM    9  C4  UNL     1     -35.100  16.530  -1.464  1.00 20.00    -0.030 C 
HETATM   10  C3  UNL     1     -35.220  17.175  -0.298  1.00 20.00     0.007 C 
ENDBRANCH   7   9
ENDBRANCH   6   7
BRANCH   6  11
HETATM   11  O11 UNL     1     -33.029  15.637  -4.090  1.00 20.00    -0.389 OA
HETATM   12  H27 UNL     1     -32.550  16.436  -4.352  1.00 20.00     0.210 HD
ENDBRANCH   6  11
TORSDOF 3
ENDMDL
