MODEL 1
REMARK VINA RESULT:      -4.4      0.000      0.000
REMARK  2 active torsions:
REMARK  status: ('A' for Active; 'I' for Inactive)
REMARK    1  A    between atoms: C2_2  and  C4_4 
REMARK    2  A    between atoms: C3_3  and  C5_5 
ROOT
HETATM    1  C1  UNL     1     -33.284   5.492   2.323  1.00 20.00     0.133 A 
HETATM    2  C2  UNL     1     -32.801   6.770   2.511  1.00 20.00     0.016 A 
HETATM    3  C3  UNL     1     -33.929   5.788   4.398  1.00 20.00     0.181 A 
HETATM    4  N6  UNL     1     -33.931   4.928   3.405  1.00 20.00    -0.248 NA
HETATM    5  S10 UNL     1     -33.167   7.297   4.100  1.00 20.00    -0.068 SA
ENDROOT
BRANCH   3   6
HETATM    6  C5  UNL     1     -34.533   5.538   5.725  1.00 20.00     0.441 C 
HETATM    7  F7  UNL     1     -33.818   4.670   6.510  1.00 20.00    -0.164 F 
HETATM    8  F8  UNL     1     -34.676   6.663   6.496  1.00 20.00    -0.164 F 
HETATM    9  F9  UNL     1     -35.789   4.997   5.651  1.00 20.00    -0.164 F 
ENDBRANCH   3   6
BRANCH   2  10
HETATM   10  C4  UNL     1     -32.070   7.651   1.578  1.00 20.00     0.162 C 
HETATM   11 CL11 UNL     1     -33.150   8.886   0.879  1.00 20.00    -0.125 Cl
ENDBRANCH   2  10
TORSDOF 2
ENDMDL
MODEL 2
REMARK VINA RESULT:      -4.2      1.398      1.555
REMARK  2 active torsions:
REMARK  status: ('A' for Active; 'I' for Inactive)
REMARK    1  A    between atoms: C2_2  and  C4_4 
REMARK    2  A    between atoms: C3_3  and  C5_5 
ROOT
HETATM    1  C1  UNL     1     -32.318   7.666   3.720  1.00 20.00     0.133 A 
HETATM    2  C2  UNL     1     -32.543   7.194   2.443  1.00 20.00     0.016 A 
HETATM    3  C3  UNL     1     -33.760   6.085   4.200  1.00 20.00     0.181 A 
HETATM    4  N6  UNL     1     -33.017   7.031   4.728  1.00 20.00    -0.248 NA
HETATM    5  S10 UNL     1     -33.669   5.903   2.496  1.00 20.00    -0.068 SA
ENDROOT
BRANCH   3   6
HETATM    6  C5  UNL     1     -34.649   5.189   4.972  1.00 20.00     0.441 C 
HETATM    7  F7  UNL     1     -34.218   3.889   5.031  1.00 20.00    -0.164 F 
HETATM    8  F8  UNL     1     -34.813   5.557   6.282  1.00 20.00    -0.164 F 
HETATM    9  F9  UNL     1     -35.918   5.119   4.462  1.00 20.00    -0.164 F 
ENDBRANCH   3   6
BRANCH   2  10
HETATM   10  C4  UNL     1     -31.971   7.639   1.157  1.00 20.00     0.162 C 
HETATM   11 CL11 UNL     1     -32.918   8.980   0.460  1.00 20.00    -0.125 Cl
ENDBRANCH   2  10
TORSDOF 2
ENDMDL
MODEL 3
REMARK VINA RESULT:      -4.2     16.125     16.699
REMARK  2 active torsions:
REMARK  status: ('A' for Active; 'I' for Inactive)
REMARK    1  A    between atoms: C2_2  and  C4_4 
REMARK    2  A    between atoms: C3_3  and  C5_5 
ROOT
HETATM    1  C1  UNL     1     -25.440  19.078   8.897  1.00 20.00     0.133 A 
HETATM    2  C2  UNL     1     -24.536  18.945   7.863  1.00 20.00     0.016 A 
HETATM    3  C3  UNL     1     -23.753  18.262  10.036  1.00 20.00     0.181 A 
HETATM    4  N6  UNL     1     -24.993  18.685  10.143  1.00 20.00    -0.248 NA
HETATM    5  S10 UNL     1     -23.064  18.307   8.465  1.00 20.00    -0.068 SA
ENDROOT
BRANCH   3   6
HETATM    6  C5  UNL     1     -22.938  17.761  11.165  1.00 20.00     0.441 C 
HETATM    7  F7  UNL     1     -23.108  18.463  12.331  1.00 20.00    -0.164 F 
HETATM    8  F8  UNL     1     -23.195  16.459  11.505  1.00 20.00    -0.164 F 
HETATM    9  F9  UNL     1     -21.592  17.805  10.917  1.00 20.00    -0.164 F 
ENDBRANCH   3   6
BRANCH   2  10
HETATM   10  C4  UNL     1     -24.686  19.263   6.429  1.00 20.00     0.162 C 
HETATM   11 CL11 UNL     1     -26.369  19.023   5.889  1.00 20.00    -0.125 Cl
ENDBRANCH   2  10
TORSDOF 2
ENDMDL
MODEL 4
REMARK VINA RESULT:      -4.2     16.844     17.209
REMARK  2 active torsions:
REMARK  status: ('A' for Active; 'I' for Inactive)
REMARK    1  A    between atoms: C2_2  and  C4_4 
REMARK    2  A    between atoms: C3_3  and  C5_5 
ROOT
HETATM    1  C1  UNL     1     -24.354  17.821  12.101  1.00 20.00     0.133 A 
HETATM    2  C2  UNL     1     -25.343  18.480  11.401  1.00 20.00     0.016 A 
HETATM    3  C3  UNL     1     -23.335  17.986  10.166  1.00 20.00     0.181 A 
HETATM    4  N6  UNL     1     -23.203  17.536  11.394  1.00 20.00    -0.248 NA
HETATM    5  S10 UNL     1     -24.820  18.762   9.793  1.00 20.00    -0.068 SA
ENDROOT
BRANCH   3   6
HETATM    6  C5  UNL     1     -22.303  17.866   9.114  1.00 20.00     0.441 C 
HETATM    7  F7  UNL     1     -22.791  17.977   7.837  1.00 20.00    -0.164 F 
HETATM    8  F8  UNL     1     -21.315  18.813   9.188  1.00 20.00    -0.164 F 
HETATM    9  F9  UNL     1     -21.646  16.664   9.139  1.00 20.00    -0.164 F 
ENDBRANCH   3   6
BRANCH   2  10
HETATM   10  C4  UNL     1     -26.678  18.928  11.846  1.00 20.00     0.162 C 
HETATM   11 CL11 UNL     1     -27.694  17.544  12.329  1.00 20.00    -0.125 Cl
ENDBRANCH   2  10
TORSDOF 2
ENDMDL
MODEL 5
REMARK VINA RESULT:      -4.1     11.692     12.397
REMARK  2 active torsions:
REMARK  status: ('A' for Active; 'I' for Inactive)
REMARK    1  A    between atoms: C2_2  and  C4_4 
REMARK    2  A    between atoms: C3_3  and  C5_5 
ROOT
HETATM    1  C1  UNL     1     -34.953  16.752  -1.461  1.00 20.00     0.133 A 
HETATM    2  C2  UNL     1     -33.765  17.402  -1.725  1.00 20.00     0.016 A 
HETATM    3  C3  UNL     1     -34.251  15.499  -3.118  1.00 20.00     0.181 A 
HETATM    4  N6  UNL     1     -35.233  15.661  -2.259  1.00 20.00    -0.248 NA
HETATM    5  S10 UNL     1     -32.958  16.623  -3.020  1.00 20.00    -0.068 SA
ENDROOT
BRANCH   3   6
HETATM    6  C5  UNL     1     -34.198  14.428  -4.137  1.00 20.00     0.441 C 
HETATM    7  F7  UNL     1     -34.747  14.777  -5.344  1.00 20.00    -0.164 F 
HETATM    8  F8  UNL     1     -32.928  14.011  -4.444  1.00 20.00    -0.164 F 
HETATM    9  F9  UNL     1     -34.862  13.292  -3.759  1.00 20.00    -0.164 F 
ENDBRANCH   3   6
BRANCH   2  10
HETATM   10  C4  UNL     1     -33.170  18.586  -1.072  1.00 20.00     0.162 C 
HETATM   11 CL11 UNL     1     -31.442  18.324  -0.715  1.00 20.00    -0.125 Cl
ENDBRANCH   2  10
TORSDOF 2
ENDMDL
MODEL 6
REMARK VINA RESULT:      -4.0     11.667     12.386
REMARK  2 active torsions:
REMARK  status: ('A' for Active; 'I' for Inactive)
REMARK    1  A    between atoms: C2_2  and  C4_4 
REMARK    2  A    between atoms: C3_3  and  C5_5 
ROOT
HETATM    1  C1  UNL     1     -34.929  16.766  -1.482  1.00 20.00     0.133 A 
HETATM    2  C2  UNL     1     -33.737  17.401  -1.759  1.00 20.00     0.016 A 
HETATM    3  C3  UNL     1     -34.244  15.484  -3.124  1.00 20.00     0.181 A 
HETATM    4  N6  UNL     1     -35.222  15.667  -2.265  1.00 20.00    -0.248 NA
HETATM    5  S10 UNL     1     -32.941  16.597  -3.046  1.00 20.00    -0.068 SA
ENDROOT
BRANCH   3   6
HETATM    6  C5  UNL     1     -34.203  14.399  -4.129  1.00 20.00     0.441 C 
HETATM    7  F7  UNL     1     -34.839  13.249  -3.736  1.00 20.00    -0.164 F 
HETATM    8  F8  UNL     1     -34.786  14.723  -5.326  1.00 20.00    -0.164 F 
HETATM    9  F9  UNL     1     -32.930  14.009  -4.448  1.00 20.00    -0.164 F 
ENDBRANCH   3   6
BRANCH   2  10
HETATM   10  C4  UNL     1     -33.129  18.588  -1.124  1.00 20.00     0.162 C 
HETATM   11 CL11 UNL     1     -31.413  18.300  -0.730  1.00 20.00    -0.125 Cl
ENDBRANCH   2  10
TORSDOF 2
ENDMDL
MODEL 7
REMARK VINA RESULT:      -4.0     16.603     17.176
REMARK  2 active torsions:
REMARK  status: ('A' for Active; 'I' for Inactive)
REMARK    1  A    between atoms: C2_2  and  C4_4 
REMARK    2  A    between atoms: C3_3  and  C5_5 
ROOT
HETATM    1  C1  UNL     1     -25.634  19.227   9.960  1.00 20.00     0.133 A 
HETATM    2  C2  UNL     1     -25.794  18.569  11.162  1.00 20.00     0.016 A 
HETATM    3  C3  UNL     1     -23.652  18.298  10.096  1.00 20.00     0.181 A 
HETATM    4  N6  UNL     1     -24.405  19.074   9.348  1.00 20.00    -0.248 NA
HETATM    5  S10 UNL     1     -24.357  17.718  11.549  1.00 20.00    -0.068 SA
ENDROOT
BRANCH   3   6
HETATM    6  C5  UNL     1     -22.265  17.906   9.763  1.00 20.00     0.441 C 
HETATM    7  F7  UNL     1     -21.447  17.764  10.855  1.00 20.00    -0.164 F 
HETATM    8  F8  UNL     1     -22.166  16.710   9.101  1.00 20.00    -0.164 F 
HETATM    9  F9  UNL     1     -21.627  18.812   8.958  1.00 20.00    -0.164 F 
ENDBRANCH   3   6
BRANCH   2  10
HETATM   10  C4  UNL     1     -26.961  18.521  12.065  1.00 20.00     0.162 C 
HETATM   11 CL11 UNL     1     -28.462  18.952  11.203  1.00 20.00    -0.125 Cl
ENDBRANCH   2  10
TORSDOF 2
ENDMDL
MODEL 8
REMARK VINA RESULT:      -3.9     11.639     12.160
REMARK  2 active torsions:
REMARK  status: ('A' for Active; 'I' for Inactive)
REMARK    1  A    between atoms: C2_2  and  C4_4 
REMARK    2  A    between atoms: C3_3  and  C5_5 
ROOT
HETATM    1  C1  UNL     1     -32.958  15.805  -3.581  1.00 20.00     0.133 A 
HETATM    2  C2  UNL     1     -33.697  16.475  -2.629  1.00 20.00     0.016 A 
HETATM    3  C3  UNL     1     -34.886  14.811  -3.900  1.00 20.00     0.181 A 
HETATM    4  N6  UNL     1     -33.638  14.850  -4.310  1.00 20.00    -0.248 NA
HETATM    5  S10 UNL     1     -35.311  15.896  -2.640  1.00 20.00    -0.068 SA
ENDROOT
BRANCH   3   6
HETATM    6  C5  UNL     1     -35.921  13.908  -4.450  1.00 20.00     0.441 C 
HETATM    7  F7  UNL     1     -35.736  12.587  -4.132  1.00 20.00    -0.164 F 
HETATM    8  F8  UNL     1     -37.193  14.190  -4.025  1.00 20.00    -0.164 F 
HETATM    9  F9  UNL     1     -35.989  13.937  -5.818  1.00 20.00    -0.164 F 
ENDBRANCH   3   6
BRANCH   2  10
HETATM   10  C4  UNL     1     -33.288  17.538  -1.689  1.00 20.00     0.162 C 
HETATM   11 CL11 UNL     1     -34.430  17.668  -0.326  1.00 20.00    -0.125 Cl
ENDBRANCH   2  10
TORSDOF 2
ENDMDL
MODEL 9
REMARK VINA RESULT:      -3.9     12.129     12.679
REMARK  2 active torsions:
REMARK  status: ('A' for Active; 'I' for Inactive)
REMARK    1  A    between atoms: C2_2  and  C4_4 
REMARK    2  A    between atoms: C3_3  and  C5_5 
ROOT
HETATM    1  C1  UNL     1     -36.269  13.653  -4.585  1.00 20.00     0.133 A 
HETATM    2  C2  UNL     1     -37.154  14.648  -4.226  1.00 20.00     0.016 A 
HETATM    3  C3  UNL     1     -34.821  15.154  -3.907  1.00 20.00     0.181 A 
HETATM    4  N6  UNL     1     -34.931  13.942  -4.404  1.00 20.00    -0.248 NA
HETATM    5  S10 UNL     1     -36.288  16.003  -3.634  1.00 20.00    -0.068 SA
ENDROOT
BRANCH   3   6
HETATM    6  C5  UNL     1     -33.538  15.812  -3.578  1.00 20.00     0.441 C 
HETATM    7  F7  UNL     1     -33.335  17.001  -4.230  1.00 20.00    -0.164 F 
HETATM    8  F8  UNL     1     -33.392  16.118  -2.250  1.00 20.00    -0.164 F 
HETATM    9  F9  UNL     1     -32.446  15.046  -3.888  1.00 20.00    -0.164 F 
ENDBRANCH   3   6
BRANCH   2  10
HETATM   10  C4  UNL     1     -38.629  14.670  -4.291  1.00 20.00     0.162 C 
HETATM   11 CL11 UNL     1     -39.270  16.272  -3.841  1.00 20.00    -0.125 Cl
ENDBRANCH   2  10
TORSDOF 2
ENDMDL
