MODEL 1
REMARK VINA RESULT:      -4.2      0.000      0.000
REMARK  3 active torsions:
REMARK  status: ('A' for Active; 'I' for Inactive)
REMARK    1  A    between atoms: C1_1  and  C4_4 
REMARK    2  A    between atoms: C2_2  and  C5_5 
REMARK    3  A    between atoms: C2_2  and  O9_9 
ROOT
HETATM    1  C3  UNL     1     -34.093  14.838  -3.750  1.00 20.00     0.028 A 
HETATM    2  C4  UNL     1     -34.708  15.674  -4.840  1.00 20.00     0.061 A 
HETATM    3  C5  UNL     1     -35.586  14.847  -3.933  1.00 20.00     0.097 A 
ENDROOT
BRANCH   3   4
HETATM    4  C2  UNL     1     -36.256  13.639  -4.433  1.00 20.00     0.263 C 
HETATM    5  O8  UNL     1     -35.743  12.529  -4.448  1.00 20.00    -0.265 OA
BRANCH   4   6
HETATM    6  O9  UNL     1     -37.509  13.959  -4.866  1.00 20.00    -0.326 OA
HETATM    7  C6  UNL     1     -38.170  14.989  -4.124  1.00 20.00     0.213 C 
ENDBRANCH   4   6
ENDBRANCH   3   4
BRANCH   2   8
HETATM    8  C1  UNL     1     -34.502  15.291  -6.242  1.00 20.00     0.236 C 
HETATM    9  O7  UNL     1     -33.545  14.628  -6.628  1.00 20.00    -0.306 OA
ENDBRANCH   2   8
TORSDOF 3
ENDMDL
MODEL 2
REMARK VINA RESULT:      -4.0      1.483      1.706
REMARK  3 active torsions:
REMARK  status: ('A' for Active; 'I' for Inactive)
REMARK    1  A    between atoms: C1_1  and  C4_4 
REMARK    2  A    between atoms: C2_2  and  C5_5 
REMARK    3  A    between atoms: C2_2  and  O9_9 
ROOT
HETATM    1  C3  UNL     1     -33.807  14.355  -4.250  1.00 20.00     0.028 A 
HETATM    2  C4  UNL     1     -34.684  15.282  -3.454  1.00 20.00     0.061 A 
HETATM    3  C5  UNL     1     -35.208  13.938  -3.897  1.00 20.00     0.097 A 
ENDROOT
BRANCH   3   4
HETATM    4  C2  UNL     1     -36.216  13.837  -4.960  1.00 20.00     0.263 C 
HETATM    5  O8  UNL     1     -35.965  13.933  -6.153  1.00 20.00    -0.265 OA
BRANCH   4   6
HETATM    6  O9  UNL     1     -37.444  13.625  -4.406  1.00 20.00    -0.326 OA
HETATM    7  C6  UNL     1     -38.290  14.777  -4.327  1.00 20.00     0.213 C 
ENDBRANCH   4   6
ENDBRANCH   3   4
BRANCH   2   8
HETATM    8  C1  UNL     1     -35.170  16.521  -4.076  1.00 20.00     0.236 C 
HETATM    9  O7  UNL     1     -34.538  17.148  -4.919  1.00 20.00    -0.306 OA
ENDBRANCH   2   8
TORSDOF 3
ENDMDL
MODEL 3
REMARK VINA RESULT:      -3.9      1.826      2.414
REMARK  3 active torsions:
REMARK  status: ('A' for Active; 'I' for Inactive)
REMARK    1  A    between atoms: C1_1  and  C4_4 
REMARK    2  A    between atoms: C2_2  and  C5_5 
REMARK    3  A    between atoms: C2_2  and  O9_9 
ROOT
HETATM    1  C3  UNL     1     -33.788  14.761  -4.116  1.00 20.00     0.028 A 
HETATM    2  C4  UNL     1     -34.761  15.258  -3.082  1.00 20.00     0.061 A 
HETATM    3  C5  UNL     1     -35.019  13.957  -3.801  1.00 20.00     0.097 A 
ENDROOT
BRANCH   3   4
HETATM    4  C2  UNL     1     -36.084  13.852  -4.807  1.00 20.00     0.263 C 
HETATM    5  O8  UNL     1     -37.260  13.647  -4.540  1.00 20.00    -0.265 OA
BRANCH   4   6
HETATM    6  O9  UNL     1     -35.554  14.018  -6.052  1.00 20.00    -0.326 OA
HETATM    7  C6  UNL     1     -36.101  15.100  -6.814  1.00 20.00     0.213 C 
ENDBRANCH   4   6
ENDBRANCH   3   4
BRANCH   2   8
HETATM    8  C1  UNL     1     -35.568  16.450  -3.371  1.00 20.00     0.236 C 
HETATM    9  O7  UNL     1     -35.194  17.360  -4.104  1.00 20.00    -0.306 OA
ENDBRANCH   2   8
TORSDOF 3
ENDMDL
MODEL 4
REMARK VINA RESULT:      -3.9      1.212      3.592
REMARK  3 active torsions:
REMARK  status: ('A' for Active; 'I' for Inactive)
REMARK    1  A    between atoms: C1_1  and  C4_4 
REMARK    2  A    between atoms: C2_2  and  C5_5 
REMARK    3  A    between atoms: C2_2  and  O9_9 
ROOT
HETATM    1  C3  UNL     1     -34.682  15.450  -2.870  1.00 20.00     0.028 A 
HETATM    2  C4  UNL     1     -35.398  14.294  -3.513  1.00 20.00     0.061 A 
HETATM    3  C5  UNL     1     -34.106  14.806  -4.101  1.00 20.00     0.097 A 
ENDROOT
BRANCH   3   4
HETATM    4  C2  UNL     1     -34.100  15.553  -5.366  1.00 20.00     0.263 C 
HETATM    5  O8  UNL     1     -34.311  16.754  -5.453  1.00 20.00    -0.265 OA
BRANCH   4   6
HETATM    6  O9  UNL     1     -33.826  14.702  -6.396  1.00 20.00    -0.326 OA
HETATM    7  C6  UNL     1     -33.908  15.275  -7.705  1.00 20.00     0.213 C 
ENDBRANCH   4   6
ENDBRANCH   3   4
BRANCH   2   8
HETATM    8  C1  UNL     1     -36.678  14.530  -4.192  1.00 20.00     0.236 C 
HETATM    9  O7  UNL     1     -37.476  13.637  -4.460  1.00 20.00    -0.306 OA
ENDBRANCH   2   8
TORSDOF 3
ENDMDL
MODEL 5
REMARK VINA RESULT:      -3.8      1.775      3.523
REMARK  3 active torsions:
REMARK  status: ('A' for Active; 'I' for Inactive)
REMARK    1  A    between atoms: C1_1  and  C4_4 
REMARK    2  A    between atoms: C2_2  and  C5_5 
REMARK    3  A    between atoms: C2_2  and  O9_9 
ROOT
HETATM    1  C3  UNL     1     -35.151  14.840  -6.415  1.00 20.00     0.028 A 
HETATM    2  C4  UNL     1     -36.155  15.104  -5.327  1.00 20.00     0.061 A 
HETATM    3  C5  UNL     1     -34.717  15.529  -5.151  1.00 20.00     0.097 A 
ENDROOT
BRANCH   3   4
HETATM    4  C2  UNL     1     -33.834  14.821  -4.215  1.00 20.00     0.263 C 
HETATM    5  O8  UNL     1     -33.222  13.799  -4.490  1.00 20.00    -0.265 OA
BRANCH   4   6
HETATM    6  O9  UNL     1     -33.814  15.480  -3.021  1.00 20.00    -0.326 OA
HETATM    7  C6  UNL     1     -33.159  16.753  -3.033  1.00 20.00     0.213 C 
ENDBRANCH   4   6
ENDBRANCH   3   4
BRANCH   2   8
HETATM    8  C1  UNL     1     -36.704  13.974  -4.566  1.00 20.00     0.236 C 
HETATM    9  O7  UNL     1     -37.905  13.794  -4.396  1.00 20.00    -0.306 OA
ENDBRANCH   2   8
TORSDOF 3
ENDMDL
MODEL 6
REMARK VINA RESULT:      -3.7     18.087     19.175
REMARK  3 active torsions:
REMARK  status: ('A' for Active; 'I' for Inactive)
REMARK    1  A    between atoms: C1_1  and  C4_4 
REMARK    2  A    between atoms: C2_2  and  C5_5 
REMARK    3  A    between atoms: C2_2  and  O9_9 
ROOT
HETATM    1  C3  UNL     1     -22.005  17.123   9.055  1.00 20.00     0.028 A 
HETATM    2  C4  UNL     1     -22.606  18.496   8.924  1.00 20.00     0.061 A 
HETATM    3  C5  UNL     1     -22.602  17.795  10.261  1.00 20.00     0.097 A 
ENDROOT
BRANCH   3   4
HETATM    4  C2  UNL     1     -23.845  17.266  10.836  1.00 20.00     0.263 C 
HETATM    5  O8  UNL     1     -24.312  16.168  10.565  1.00 20.00    -0.265 OA
BRANCH   4   6
HETATM    6  O9  UNL     1     -24.374  18.181  11.698  1.00 20.00    -0.326 OA
HETATM    7  C6  UNL     1     -25.747  18.516  11.471  1.00 20.00     0.213 C 
ENDBRANCH   4   6
ENDBRANCH   3   4
BRANCH   2   8
HETATM    8  C1  UNL     1     -23.854  18.665   8.168  1.00 20.00     0.236 C 
HETATM    9  O7  UNL     1     -23.894  18.775   6.947  1.00 20.00    -0.306 OA
ENDBRANCH   2   8
TORSDOF 3
ENDMDL
MODEL 7
REMARK VINA RESULT:      -3.7      1.867      3.114
REMARK  3 active torsions:
REMARK  status: ('A' for Active; 'I' for Inactive)
REMARK    1  A    between atoms: C1_1  and  C4_4 
REMARK    2  A    between atoms: C2_2  and  C5_5 
REMARK    3  A    between atoms: C2_2  and  O9_9 
ROOT
HETATM    1  C3  UNL     1     -34.583  15.575  -2.789  1.00 20.00     0.028 A 
HETATM    2  C4  UNL     1     -34.495  14.394  -3.716  1.00 20.00     0.061 A 
HETATM    3  C5  UNL     1     -33.923  15.727  -4.132  1.00 20.00     0.097 A 
ENDROOT
BRANCH   3   4
HETATM    4  C2  UNL     1     -34.578  16.537  -5.166  1.00 20.00     0.263 C 
HETATM    5  O8  UNL     1     -34.371  16.415  -6.365  1.00 20.00    -0.265 OA
BRANCH   4   6
HETATM    6  O9  UNL     1     -35.433  17.422  -4.578  1.00 20.00    -0.326 OA
HETATM    7  C6  UNL     1     -36.742  17.488  -5.156  1.00 20.00     0.213 C 
ENDBRANCH   4   6
ENDBRANCH   3   4
BRANCH   2   8
HETATM    8  C1  UNL     1     -35.721  13.876  -4.337  1.00 20.00     0.236 C 
HETATM    9  O7  UNL     1     -35.922  12.684  -4.546  1.00 20.00    -0.306 OA
ENDBRANCH   2   8
TORSDOF 3
ENDMDL
MODEL 8
REMARK VINA RESULT:      -3.7     11.550     12.561
REMARK  3 active torsions:
REMARK  status: ('A' for Active; 'I' for Inactive)
REMARK    1  A    between atoms: C1_1  and  C4_4 
REMARK    2  A    between atoms: C2_2  and  C5_5 
REMARK    3  A    between atoms: C2_2  and  O9_9 
ROOT
HETATM    1  C3  UNL     1     -33.870   4.559   2.127  1.00 20.00     0.028 A 
HETATM    2  C4  UNL     1     -32.819   5.341   2.865  1.00 20.00     0.061 A 
HETATM    3  C5  UNL     1     -33.824   4.514   3.629  1.00 20.00     0.097 A 
ENDROOT
BRANCH   3   4
HETATM    4  C2  UNL     1     -34.895   5.158   4.400  1.00 20.00     0.263 C 
HETATM    5  O8  UNL     1     -35.953   5.538   3.917  1.00 20.00    -0.265 OA
BRANCH   4   6
HETATM    6  O9  UNL     1     -34.521   5.255   5.708  1.00 20.00    -0.326 OA
HETATM    7  C6  UNL     1     -34.161   6.569   6.148  1.00 20.00     0.213 C 
ENDBRANCH   4   6
ENDBRANCH   3   4
BRANCH   2   8
HETATM    8  C1  UNL     1     -32.889   6.808   2.875  1.00 20.00     0.236 C 
HETATM    9  O7  UNL     1     -32.469   7.511   1.962  1.00 20.00    -0.306 OA
ENDBRANCH   2   8
TORSDOF 3
ENDMDL
MODEL 9
REMARK VINA RESULT:      -3.6      9.747     11.071
REMARK  3 active torsions:
REMARK  status: ('A' for Active; 'I' for Inactive)
REMARK    1  A    between atoms: C1_1  and  C4_4 
REMARK    2  A    between atoms: C2_2  and  C5_5 
REMARK    3  A    between atoms: C2_2  and  O9_9 
ROOT
HETATM    1  C3  UNL     1     -40.878   8.484  -0.411  1.00 20.00     0.028 A 
HETATM    2  C4  UNL     1     -42.273   8.656   0.127  1.00 20.00     0.061 A 
HETATM    3  C5  UNL     1     -41.361   7.601   0.706  1.00 20.00     0.097 A 
ENDROOT
BRANCH   3   4
HETATM    4  C2  UNL     1     -41.599   6.176   0.444  1.00 20.00     0.263 C 
HETATM    5  O8  UNL     1     -42.335   5.469   1.117  1.00 20.00    -0.265 OA
BRANCH   4   6
HETATM    6  O9  UNL     1     -40.879   5.788  -0.648  1.00 20.00    -0.326 OA
HETATM    7  C6  UNL     1     -41.555   4.900  -1.545  1.00 20.00     0.213 C 
ENDBRANCH   4   6
ENDBRANCH   3   4
BRANCH   2   8
HETATM    8  C1  UNL     1     -43.417   8.281  -0.713  1.00 20.00     0.236 C 
HETATM    9  O7  UNL     1     -43.363   8.206  -1.936  1.00 20.00    -0.306 OA
ENDBRANCH   2   8
TORSDOF 3
ENDMDL
