MODEL 1
REMARK VINA RESULT:      -5.2      0.000      0.000
REMARK  1 active torsions:
REMARK  status: ('A' for Active; 'I' for Inactive)
REMARK    1  A    between atoms: C3_3  and  C7_7 
REMARK       I    between atoms: C3_3  and  N8_8 
ROOT
HETATM    1  C1  UNL     1     -34.964   5.315   5.840  1.00 20.00    -0.010 A 
HETATM    2  C2  UNL     1     -34.348   6.441   6.213  1.00 20.00    -0.010 A 
HETATM    3  C3  UNL     1     -33.154   6.068   2.774  1.00 20.00     0.219 C 
HETATM    4  C4  UNL     1     -34.622   4.951   4.438  1.00 20.00     0.153 A 
HETATM    5  C5  UNL     1     -33.508   6.991   5.113  1.00 20.00     0.153 A 
HETATM    6  N8  UNL     1     -33.718   6.022   4.038  1.00 20.00    -0.345 N 
HETATM    7  O9  UNL     1     -33.361   5.228   1.896  1.00 20.00    -0.273 OA
ENDROOT
BRANCH   3   8
HETATM    8  C7  UNL     1     -32.241   7.239   2.511  1.00 20.00     0.098 C 
HETATM    9  C6  UNL     1     -32.688   7.973   1.271  1.00 20.00     0.014 C 
ENDBRANCH   3   8
TORSDOF 1
ENDMDL
MODEL 2
REMARK VINA RESULT:      -4.9      1.437      1.888
REMARK  1 active torsions:
REMARK  status: ('A' for Active; 'I' for Inactive)
REMARK    1  A    between atoms: C3_3  and  C7_7 
REMARK       I    between atoms: C3_3  and  N8_8 
ROOT
HETATM    1  C1  UNL     1     -34.740   5.665   6.009  1.00 20.00    -0.010 A 
HETATM    2  C2  UNL     1     -35.181   5.013   4.929  1.00 20.00    -0.010 A 
HETATM    3  C3  UNL     1     -32.587   7.147   3.478  1.00 20.00     0.219 C 
HETATM    4  C4  UNL     1     -33.652   6.618   5.659  1.00 20.00     0.153 A 
HETATM    5  C5  UNL     1     -34.449   5.436   3.703  1.00 20.00     0.153 A 
HETATM    6  N8  UNL     1     -33.514   6.434   4.220  1.00 20.00    -0.345 N 
HETATM    7  O9  UNL     1     -31.815   7.981   3.957  1.00 20.00    -0.273 OA
ENDROOT
BRANCH   3   8
HETATM    8  C7  UNL     1     -32.564   6.844   2.001  1.00 20.00     0.098 C 
HETATM    9  C6  UNL     1     -32.613   8.129   1.210  1.00 20.00     0.014 C 
ENDBRANCH   3   8
TORSDOF 1
ENDMDL
MODEL 3
REMARK VINA RESULT:      -4.2     16.033     16.483
REMARK  1 active torsions:
REMARK  status: ('A' for Active; 'I' for Inactive)
REMARK    1  A    between atoms: C3_3  and  C7_7 
REMARK       I    between atoms: C3_3  and  N8_8 
ROOT
HETATM    1  C1  UNL     1     -23.051  17.528  11.700  1.00 20.00    -0.010 A 
HETATM    2  C2  UNL     1     -24.313  17.946  11.827  1.00 20.00    -0.010 A 
HETATM    3  C3  UNL     1     -23.770  18.367   8.233  1.00 20.00     0.219 C 
HETATM    4  C4  UNL     1     -22.593  17.610  10.286  1.00 20.00     0.153 A 
HETATM    5  C5  UNL     1     -24.881  18.366  10.516  1.00 20.00     0.153 A 
HETATM    6  N8  UNL     1     -23.767  18.135   9.598  1.00 20.00    -0.345 N 
HETATM    7  O9  UNL     1     -22.805  18.156   7.495  1.00 20.00    -0.273 OA
ENDROOT
BRANCH   3   8
HETATM    8  C7  UNL     1     -25.058  18.911   7.669  1.00 20.00     0.098 C 
HETATM    9  C6  UNL     1     -24.876  19.263   6.213  1.00 20.00     0.014 C 
ENDBRANCH   3   8
TORSDOF 1
ENDMDL
MODEL 4
REMARK VINA RESULT:      -3.9     11.350     11.949
REMARK  1 active torsions:
REMARK  status: ('A' for Active; 'I' for Inactive)
REMARK    1  A    between atoms: C3_3  and  C7_7 
REMARK       I    between atoms: C3_3  and  N8_8 
ROOT
HETATM    1  C1  UNL     1     -33.300  17.318  -1.981  1.00 20.00    -0.010 A 
HETATM    2  C2  UNL     1     -34.513  17.040  -1.493  1.00 20.00    -0.010 A 
HETATM    3  C3  UNL     1     -34.190  14.508  -4.115  1.00 20.00     0.219 C 
HETATM    4  C4  UNL     1     -32.938  16.394  -3.090  1.00 20.00     0.153 A 
HETATM    5  C5  UNL     1     -35.135  15.890  -2.206  1.00 20.00     0.153 A 
HETATM    6  N8  UNL     1     -34.110  15.532  -3.186  1.00 20.00    -0.345 N 
HETATM    7  O9  UNL     1     -33.299  14.240  -4.924  1.00 20.00    -0.273 OA
ENDROOT
BRANCH   3   8
HETATM    8  C7  UNL     1     -35.465  13.705  -4.090  1.00 20.00     0.098 C 
HETATM    9  C6  UNL     1     -36.346  14.099  -5.250  1.00 20.00     0.014 C 
ENDBRANCH   3   8
TORSDOF 1
ENDMDL
MODEL 5
REMARK VINA RESULT:      -3.9     16.628     16.945
REMARK  1 active torsions:
REMARK  status: ('A' for Active; 'I' for Inactive)
REMARK    1  A    between atoms: C3_3  and  C7_7 
REMARK       I    between atoms: C3_3  and  N8_8 
ROOT
HETATM    1  C1  UNL     1     -26.043  18.517  12.318  1.00 20.00    -0.010 A 
HETATM    2  C2  UNL     1     -26.430  19.009  11.137  1.00 20.00    -0.010 A 
HETATM    3  C3  UNL     1     -22.942  18.141  10.450  1.00 20.00     0.219 C 
HETATM    4  C4  UNL     1     -24.619  18.086  12.283  1.00 20.00     0.153 A 
HETATM    5  C5  UNL     1     -25.321  18.976  10.144  1.00 20.00     0.153 A 
HETATM    6  N8  UNL     1     -24.223  18.393  10.914  1.00 20.00    -0.345 N 
HETATM    7  O9  UNL     1     -22.046  17.646  11.137  1.00 20.00    -0.273 OA
ENDROOT
BRANCH   3   8
HETATM    8  C7  UNL     1     -22.687  18.513   9.012  1.00 20.00     0.098 C 
HETATM    9  C6  UNL     1     -22.207  17.305   8.244  1.00 20.00     0.014 C 
ENDBRANCH   3   8
TORSDOF 1
ENDMDL
MODEL 6
REMARK VINA RESULT:      -3.9     11.889     12.373
REMARK  1 active torsions:
REMARK  status: ('A' for Active; 'I' for Inactive)
REMARK    1  A    between atoms: C3_3  and  C7_7 
REMARK       I    between atoms: C3_3  and  N8_8 
ROOT
HETATM    1  C1  UNL     1     -33.092  15.701  -3.552  1.00 20.00    -0.010 A 
HETATM    2  C2  UNL     1     -33.934  16.088  -2.589  1.00 20.00    -0.010 A 
HETATM    3  C3  UNL     1     -36.203  14.361  -4.883  1.00 20.00     0.219 C 
HETATM    4  C4  UNL     1     -33.805  14.958  -4.627  1.00 20.00     0.153 A 
HETATM    5  C5  UNL     1     -35.330  15.658  -2.882  1.00 20.00     0.153 A 
HETATM    6  N8  UNL     1     -35.186  14.962  -4.160  1.00 20.00    -0.345 N 
HETATM    7  O9  UNL     1     -36.035  13.783  -5.959  1.00 20.00    -0.273 OA
ENDROOT
BRANCH   3   8
HETATM    8  C7  UNL     1     -37.576  14.449  -4.268  1.00 20.00     0.098 C 
HETATM    9  C6  UNL     1     -38.332  15.615  -4.857  1.00 20.00     0.014 C 
ENDBRANCH   3   8
TORSDOF 1
ENDMDL
MODEL 7
REMARK VINA RESULT:      -3.9     11.864     12.558
REMARK  1 active torsions:
REMARK  status: ('A' for Active; 'I' for Inactive)
REMARK    1  A    between atoms: C3_3  and  C7_7 
REMARK       I    between atoms: C3_3  and  N8_8 
ROOT
HETATM    1  C1  UNL     1     -34.979  15.296  -2.953  1.00 20.00    -0.010 A 
HETATM    2  C2  UNL     1     -33.847  15.404  -3.654  1.00 20.00    -0.010 A 
HETATM    3  C3  UNL     1     -33.335  17.933  -1.059  1.00 20.00     0.219 C 
HETATM    4  C4  UNL     1     -35.003  16.253  -1.813  1.00 20.00     0.153 A 
HETATM    5  C5  UNL     1     -32.951  16.448  -3.083  1.00 20.00     0.153 A 
HETATM    6  N8  UNL     1     -33.723  16.939  -1.942  1.00 20.00    -0.345 N 
HETATM    7  O9  UNL     1     -34.020  18.316  -0.109  1.00 20.00    -0.273 OA
ENDROOT
BRANCH   3   8
HETATM    8  C7  UNL     1     -31.984  18.547  -1.325  1.00 20.00     0.098 C 
HETATM    9  C6  UNL     1     -31.073  18.320  -0.143  1.00 20.00     0.014 C 
ENDBRANCH   3   8
TORSDOF 1
ENDMDL
MODEL 8
REMARK VINA RESULT:      -3.8     16.115     16.820
REMARK  1 active torsions:
REMARK  status: ('A' for Active; 'I' for Inactive)
REMARK    1  A    between atoms: C3_3  and  C7_7 
REMARK       I    between atoms: C3_3  and  N8_8 
ROOT
HETATM    1  C1  UNL     1     -23.220  18.143   8.279  1.00 20.00    -0.010 A 
HETATM    2  C2  UNL     1     -24.215  19.001   8.032  1.00 20.00    -0.010 A 
HETATM    3  C3  UNL     1     -24.862  18.129  11.527  1.00 20.00     0.219 C 
HETATM    4  C4  UNL     1     -23.276  17.638   9.679  1.00 20.00     0.153 A 
HETATM    5  C5  UNL     1     -25.078  19.192   9.231  1.00 20.00     0.153 A 
HETATM    6  N8  UNL     1     -24.445  18.321  10.220  1.00 20.00    -0.345 N 
HETATM    7  O9  UNL     1     -24.296  17.382  12.328  1.00 20.00    -0.273 OA
ENDROOT
BRANCH   3   8
HETATM    8  C7  UNL     1     -26.087  18.906  11.939  1.00 20.00     0.098 C 
HETATM    9  C6  UNL     1     -27.192  17.956  12.331  1.00 20.00     0.014 C 
ENDBRANCH   3   8
TORSDOF 1
ENDMDL
MODEL 9
REMARK VINA RESULT:      -3.8     11.793     12.677
REMARK  1 active torsions:
REMARK  status: ('A' for Active; 'I' for Inactive)
REMARK    1  A    between atoms: C3_3  and  C7_7 
REMARK       I    between atoms: C3_3  and  N8_8 
ROOT
HETATM    1  C1  UNL     1     -35.045  15.751  -2.352  1.00 20.00    -0.010 A 
HETATM    2  C2  UNL     1     -33.849  16.246  -2.686  1.00 20.00    -0.010 A 
HETATM    3  C3  UNL     1     -34.912  14.728  -5.842  1.00 20.00     0.219 C 
HETATM    4  C4  UNL     1     -35.689  15.067  -3.506  1.00 20.00     0.153 A 
HETATM    5  C5  UNL     1     -33.524  15.965  -4.112  1.00 20.00     0.153 A 
HETATM    6  N8  UNL     1     -34.703  15.230  -4.568  1.00 20.00    -0.345 N 
HETATM    7  O9  UNL     1     -35.925  14.114  -6.183  1.00 20.00    -0.273 OA
ENDROOT
BRANCH   3   8
HETATM    8  C7  UNL     1     -33.801  14.978  -6.829  1.00 20.00     0.098 C 
HETATM    9  C6  UNL     1     -34.231  16.015  -7.838  1.00 20.00     0.014 C 
ENDBRANCH   3   8
TORSDOF 1
ENDMDL
