MODEL 1
REMARK VINA RESULT:      -3.9      0.000      0.000
REMARK  3 active torsions:
REMARK  status: ('A' for Active; 'I' for Inactive)
REMARK    1  A    between atoms: C2_2  and  C3_3 
REMARK    2  A    between atoms: C3_3  and  N8_8 
REMARK    3  A    between atoms: C7_7  and  N8_8 
ROOT
HETATM    1  C3  UNL     1     -24.758  18.287  11.164  1.00 20.00     0.102 C 
HETATM    2  S9  UNL     1     -26.189  18.846  11.849  1.00 20.00    -0.060 SA
ENDROOT
BRANCH   1   3
HETATM    3  C2  UNL     1     -23.949  17.178  11.745  1.00 20.00    -0.034 C 
HETATM    4  C1  UNL     1     -22.735  17.484  12.222  1.00 20.00     0.021 C 
HETATM    5  C4  UNL     1     -24.534  15.802  11.743  1.00 20.00     0.050 C 
ENDBRANCH   1   3
BRANCH   1   6
HETATM    6  N8  UNL     1     -24.280  18.869  10.010  1.00 20.00    -0.377 N 
HETATM    7  H22 UNL     1     -23.923  19.816  10.094  1.00 20.00     0.160 HD
BRANCH   6   8
HETATM    8  C7  UNL     1     -24.210  18.268   8.692  1.00 20.00     0.074 C 
HETATM    9  C5  UNL     1     -22.761  17.931   8.373  1.00 20.00     0.031 C 
HETATM   10  C6  UNL     1     -24.800  19.236   7.676  1.00 20.00     0.031 C 
ENDBRANCH   6   8
ENDBRANCH   1   6
TORSDOF 3
ENDMDL
MODEL 2
REMARK VINA RESULT:      -3.7      1.903      3.678
REMARK  3 active torsions:
REMARK  status: ('A' for Active; 'I' for Inactive)
REMARK    1  A    between atoms: C2_2  and  C3_3 
REMARK    2  A    between atoms: C3_3  and  N8_8 
REMARK    3  A    between atoms: C7_7  and  N8_8 
ROOT
HETATM    1  C3  UNL     1     -23.494  18.512   9.135  1.00 20.00     0.102 C 
HETATM    2  S9  UNL     1     -24.468  19.005   7.855  1.00 20.00    -0.060 SA
ENDROOT
BRANCH   1   3
HETATM    3  C2  UNL     1     -22.127  17.948   8.955  1.00 20.00    -0.034 C 
HETATM    4  C1  UNL     1     -21.297  17.994  10.006  1.00 20.00     0.021 C 
HETATM    5  C4  UNL     1     -21.766  17.386   7.618  1.00 20.00     0.050 C 
ENDBRANCH   1   3
BRANCH   1   6
HETATM    6  N8  UNL     1     -23.961  18.617  10.428  1.00 20.00    -0.377 N 
HETATM    7  H22 UNL     1     -23.490  19.288  11.027  1.00 20.00     0.160 HD
BRANCH   6   8
HETATM    8  C7  UNL     1     -25.067  17.888  11.019  1.00 20.00     0.074 C 
HETATM    9  C5  UNL     1     -25.521  18.609  12.280  1.00 20.00     0.031 C 
HETATM   10  C6  UNL     1     -24.618  16.464  11.316  1.00 20.00     0.031 C 
ENDBRANCH   6   8
ENDBRANCH   1   6
TORSDOF 3
ENDMDL
MODEL 3
REMARK VINA RESULT:      -3.4     15.620     16.588
REMARK  3 active torsions:
REMARK  status: ('A' for Active; 'I' for Inactive)
REMARK    1  A    between atoms: C2_2  and  C3_3 
REMARK    2  A    between atoms: C3_3  and  N8_8 
REMARK    3  A    between atoms: C7_7  and  N8_8 
ROOT
HETATM    1  C3  UNL     1     -33.281   6.149   2.961  1.00 20.00     0.102 C 
HETATM    2  S9  UNL     1     -33.249   4.639   2.219  1.00 20.00    -0.060 SA
ENDROOT
BRANCH   1   3
HETATM    3  C2  UNL     1     -32.414   7.287   2.544  1.00 20.00    -0.034 C 
HETATM    4  C1  UNL     1     -31.505   7.726   3.425  1.00 20.00     0.021 C 
HETATM    5  C4  UNL     1     -32.624   7.871   1.184  1.00 20.00     0.050 C 
ENDBRANCH   1   3
BRANCH   1   6
HETATM    6  N8  UNL     1     -34.138   6.372   4.017  1.00 20.00    -0.377 N 
HETATM    7  H22 UNL     1     -35.001   6.864   3.805  1.00 20.00     0.160 HD
BRANCH   6   8
HETATM    8  C7  UNL     1     -33.953   5.962   5.396  1.00 20.00     0.074 C 
HETATM    9  C5  UNL     1     -35.083   5.024   5.794  1.00 20.00     0.031 C 
HETATM   10  C6  UNL     1     -33.912   7.201   6.279  1.00 20.00     0.031 C 
ENDBRANCH   6   8
ENDBRANCH   1   6
TORSDOF 3
ENDMDL
MODEL 4
REMARK VINA RESULT:      -3.4     15.508     16.885
REMARK  3 active torsions:
REMARK  status: ('A' for Active; 'I' for Inactive)
REMARK    1  A    between atoms: C2_2  and  C3_3 
REMARK    2  A    between atoms: C3_3  and  N8_8 
REMARK    3  A    between atoms: C7_7  and  N8_8 
ROOT
HETATM    1  C3  UNL     1     -35.438  16.099  -2.757  1.00 20.00     0.102 C 
HETATM    2  S9  UNL     1     -36.706  16.837  -3.580  1.00 20.00    -0.060 SA
ENDROOT
BRANCH   1   3
HETATM    3  C2  UNL     1     -34.410  15.252  -3.425  1.00 20.00    -0.034 C 
HETATM    4  C1  UNL     1     -33.170  15.751  -3.528  1.00 20.00     0.021 C 
HETATM    5  C4  UNL     1     -34.828  13.916  -3.948  1.00 20.00     0.050 C 
ENDBRANCH   1   3
BRANCH   1   6
HETATM    6  N8  UNL     1     -35.322  16.262  -1.393  1.00 20.00    -0.377 N 
HETATM    7  H22 UNL     1     -35.295  15.414  -0.836  1.00 20.00     0.160 HD
BRANCH   6   8
HETATM    8  C7  UNL     1     -35.211  17.515  -0.669  1.00 20.00     0.074 C 
HETATM    9  C5  UNL     1     -33.779  18.019  -0.761  1.00 20.00     0.031 C 
HETATM   10  C6  UNL     1     -35.637  17.289   0.775  1.00 20.00     0.031 C 
ENDBRANCH   6   8
ENDBRANCH   1   6
TORSDOF 3
ENDMDL
MODEL 5
REMARK VINA RESULT:      -3.4     13.928     15.723
REMARK  3 active torsions:
REMARK  status: ('A' for Active; 'I' for Inactive)
REMARK    1  A    between atoms: C2_2  and  C3_3 
REMARK    2  A    between atoms: C3_3  and  N8_8 
REMARK    3  A    between atoms: C7_7  and  N8_8 
ROOT
HETATM    1  C3  UNL     1     -32.708  17.930  -2.361  1.00 20.00     0.102 C 
HETATM    2  S9  UNL     1     -32.775  19.144  -3.525  1.00 20.00    -0.060 SA
ENDROOT
BRANCH   1   3
HETATM    3  C2  UNL     1     -32.516  18.197  -0.908  1.00 20.00    -0.034 C 
HETATM    4  C1  UNL     1     -31.260  18.366  -0.472  1.00 20.00     0.021 C 
HETATM    5  C4  UNL     1     -33.727  18.244  -0.034  1.00 20.00     0.050 C 
ENDBRANCH   1   3
BRANCH   1   6
HETATM    6  N8  UNL     1     -32.827  16.611  -2.743  1.00 20.00    -0.377 N 
HETATM    7  H22 UNL     1     -32.091  15.982  -2.435  1.00 20.00     0.160 HD
BRANCH   6   8
HETATM    8  C7  UNL     1     -33.900  16.019  -3.519  1.00 20.00     0.074 C 
HETATM    9  C5  UNL     1     -35.038  15.636  -2.585  1.00 20.00     0.031 C 
HETATM   10  C6  UNL     1     -33.357  14.811  -4.271  1.00 20.00     0.031 C 
ENDBRANCH   6   8
ENDBRANCH   1   6
TORSDOF 3
ENDMDL
MODEL 6
REMARK VINA RESULT:      -3.4     15.634     16.325
REMARK  3 active torsions:
REMARK  status: ('A' for Active; 'I' for Inactive)
REMARK    1  A    between atoms: C2_2  and  C3_3 
REMARK    2  A    between atoms: C3_3  and  N8_8 
REMARK    3  A    between atoms: C7_7  and  N8_8 
ROOT
HETATM    1  C3  UNL     1     -34.005   5.732   3.986  1.00 20.00     0.102 C 
HETATM    2  S9  UNL     1     -34.043   4.212   3.266  1.00 20.00    -0.060 SA
ENDROOT
BRANCH   1   3
HETATM    3  C2  UNL     1     -34.290   5.962   5.430  1.00 20.00    -0.034 C 
HETATM    4  C1  UNL     1     -34.994   5.024   6.078  1.00 20.00     0.021 C 
HETATM    5  C4  UNL     1     -33.789   7.224   6.055  1.00 20.00     0.050 C 
ENDBRANCH   1   3
BRANCH   1   6
HETATM    6  N8  UNL     1     -33.704   6.841   3.225  1.00 20.00    -0.377 N 
HETATM    7  H22 UNL     1     -34.402   7.578   3.202  1.00 20.00     0.160 HD
BRANCH   6   8
HETATM    8  C7  UNL     1     -32.488   7.079   2.469  1.00 20.00     0.074 C 
HETATM    9  C5  UNL     1     -31.416   7.615   3.407  1.00 20.00     0.031 C 
HETATM   10  C6  UNL     1     -32.791   8.056   1.342  1.00 20.00     0.031 C 
ENDBRANCH   6   8
ENDBRANCH   1   6
TORSDOF 3
ENDMDL
MODEL 7
REMARK VINA RESULT:      -3.3     13.472     15.421
REMARK  3 active torsions:
REMARK  status: ('A' for Active; 'I' for Inactive)
REMARK    1  A    between atoms: C2_2  and  C3_3 
REMARK    2  A    between atoms: C3_3  and  N8_8 
REMARK    3  A    between atoms: C7_7  and  N8_8 
ROOT
HETATM    1  C3  UNL     1     -33.015  17.562  -2.640  1.00 20.00     0.102 C 
HETATM    2  S9  UNL     1     -33.111  18.861  -3.705  1.00 20.00    -0.060 SA
ENDROOT
BRANCH   1   3
HETATM    3  C2  UNL     1     -33.752  16.282  -2.839  1.00 20.00    -0.034 C 
HETATM    4  C1  UNL     1     -34.823  16.059  -2.065  1.00 20.00     0.021 C 
HETATM    5  C4  UNL     1     -33.243  15.329  -3.872  1.00 20.00     0.050 C 
ENDBRANCH   1   3
BRANCH   1   6
HETATM    6  N8  UNL     1     -32.228  17.659  -1.513  1.00 20.00    -0.377 N 
HETATM    7  H22 UNL     1     -31.556  16.913  -1.363  1.00 20.00     0.160 HD
BRANCH   6   8
HETATM    8  C7  UNL     1     -32.240  18.724  -0.527  1.00 20.00     0.074 C 
HETATM    9  C5  UNL     1     -30.949  18.674   0.275  1.00 20.00     0.031 C 
HETATM   10  C6  UNL     1     -33.463  18.558   0.363  1.00 20.00     0.031 C 
ENDBRANCH   6   8
ENDBRANCH   1   6
TORSDOF 3
ENDMDL
MODEL 8
REMARK VINA RESULT:      -3.3     16.784     18.399
REMARK  3 active torsions:
REMARK  status: ('A' for Active; 'I' for Inactive)
REMARK    1  A    between atoms: C2_2  and  C3_3 
REMARK    2  A    between atoms: C3_3  and  N8_8 
REMARK    3  A    between atoms: C7_7  and  N8_8 
ROOT
HETATM    1  C3  UNL     1     -34.472  15.263  -4.226  1.00 20.00     0.102 C 
HETATM    2  S9  UNL     1     -35.565  13.985  -4.215  1.00 20.00    -0.060 SA
ENDROOT
BRANCH   1   3
HETATM    3  C2  UNL     1     -34.115  16.048  -3.010  1.00 20.00    -0.034 C 
HETATM    4  C1  UNL     1     -32.913  16.639  -2.987  1.00 20.00     0.021 C 
HETATM    5  C4  UNL     1     -35.109  16.111  -1.896  1.00 20.00     0.050 C 
ENDBRANCH   1   3
BRANCH   1   6
HETATM    6  N8  UNL     1     -33.863  15.632  -5.407  1.00 20.00    -0.377 N 
HETATM    7  H22 UNL     1     -32.849  15.580  -5.430  1.00 20.00     0.160 HD
BRANCH   6   8
HETATM    8  C7  UNL     1     -34.515  16.065  -6.628  1.00 20.00     0.074 C 
HETATM    9  C5  UNL     1     -33.881  15.350  -7.812  1.00 20.00     0.031 C 
HETATM   10  C6  UNL     1     -34.385  17.577  -6.748  1.00 20.00     0.031 C 
ENDBRANCH   6   8
ENDBRANCH   1   6
TORSDOF 3
ENDMDL
MODEL 9
REMARK VINA RESULT:      -3.3     16.569     18.271
REMARK  3 active torsions:
REMARK  status: ('A' for Active; 'I' for Inactive)
REMARK    1  A    between atoms: C2_2  and  C3_3 
REMARK    2  A    between atoms: C3_3  and  N8_8 
REMARK    3  A    between atoms: C7_7  and  N8_8 
ROOT
HETATM    1  C3  UNL     1     -34.940  15.353  -3.264  1.00 20.00     0.102 C 
HETATM    2  S9  UNL     1     -33.931  14.470  -4.281  1.00 20.00    -0.060 SA
ENDROOT
BRANCH   1   3
HETATM    3  C2  UNL     1     -34.438  16.328  -2.256  1.00 20.00    -0.034 C 
HETATM    4  C1  UNL     1     -35.245  16.623  -1.228  1.00 20.00     0.021 C 
HETATM    5  C4  UNL     1     -33.082  16.921  -2.463  1.00 20.00     0.050 C 
ENDBRANCH   1   3
BRANCH   1   6
HETATM    6  N8  UNL     1     -36.306  15.182  -3.341  1.00 20.00    -0.377 N 
HETATM    7  H22 UNL     1     -36.789  14.992  -2.468  1.00 20.00     0.160 HD
BRANCH   6   8
HETATM    8  C7  UNL     1     -37.132  15.266  -4.530  1.00 20.00     0.074 C 
HETATM    9  C5  UNL     1     -37.089  16.689  -5.067  1.00 20.00     0.031 C 
HETATM   10  C6  UNL     1     -38.550  14.840  -4.178  1.00 20.00     0.031 C 
ENDBRANCH   6   8
ENDBRANCH   1   6
TORSDOF 3
ENDMDL
