MODEL 1
REMARK VINA RESULT:      -4.5      0.000      0.000
REMARK  2 active torsions:
REMARK  status: ('A' for Active; 'I' for Inactive)
REMARK       I    between atoms: C1_1  and  N6_6 
REMARK    1  A    between atoms: C4_4  and  C5_5 
REMARK    2  A    between atoms: C5_5  and  N6_6 
ROOT
HETATM    1  C1  UNL     1     -34.360   5.933   4.423  1.00 20.00     0.316 C 
HETATM    2  C3  UNL     1     -33.296   4.866   2.392  1.00 20.00     0.154 C 
HETATM    3  N6  UNL     1     -33.457   5.989   3.326  1.00 20.00    -0.343 N 
HETATM    4  O7  UNL     1     -35.399   5.269   4.393  1.00 20.00    -0.254 OA
HETATM    5 CL8  UNL     1     -33.918   6.858   5.847  1.00 20.00    -0.020 Cl
ENDROOT
BRANCH   3   6
HETATM    6  C5  UNL     1     -32.648   7.146   3.065  1.00 20.00     0.126 C 
BRANCH   6   7
HETATM    7  C4  UNL     1     -32.371   7.339   1.578  1.00 20.00     0.015 C 
HETATM    8  C2  UNL     1     -32.892   8.669   1.050  1.00 20.00     0.006 C 
ENDBRANCH   6   7
ENDBRANCH   3   6
TORSDOF 2
ENDMDL
MODEL 2
REMARK VINA RESULT:      -3.6     11.212     11.584
REMARK  2 active torsions:
REMARK  status: ('A' for Active; 'I' for Inactive)
REMARK       I    between atoms: C1_1  and  N6_6 
REMARK    1  A    between atoms: C4_4  and  C5_5 
REMARK    2  A    between atoms: C5_5  and  N6_6 
ROOT
HETATM    1  C1  UNL     1     -35.553  13.951  -4.514  1.00 20.00     0.316 C 
HETATM    2  C3  UNL     1     -37.909  14.807  -4.180  1.00 20.00     0.154 C 
HETATM    3  N6  UNL     1     -36.453  14.957  -4.064  1.00 20.00    -0.343 N 
HETATM    4  O7  UNL     1     -35.846  12.753  -4.517  1.00 20.00    -0.254 OA
HETATM    5 CL8  UNL     1     -33.987  14.501  -5.084  1.00 20.00    -0.020 Cl
ENDROOT
BRANCH   3   6
HETATM    6  C5  UNL     1     -35.991  16.179  -3.467  1.00 20.00     0.126 C 
BRANCH   6   7
HETATM    7  C4  UNL     1     -35.180  15.937  -2.200  1.00 20.00     0.015 C 
HETATM    8  C2  UNL     1     -33.851  16.681  -2.201  1.00 20.00     0.006 C 
ENDBRANCH   6   7
ENDBRANCH   3   6
TORSDOF 2
ENDMDL
MODEL 3
REMARK VINA RESULT:      -3.6     16.124     16.653
REMARK  2 active torsions:
REMARK  status: ('A' for Active; 'I' for Inactive)
REMARK       I    between atoms: C1_1  and  N6_6 
REMARK    1  A    between atoms: C4_4  and  C5_5 
REMARK    2  A    between atoms: C5_5  and  N6_6 
ROOT
HETATM    1  C1  UNL     1     -23.307  17.237   9.732  1.00 20.00     0.316 C 
HETATM    2  C3  UNL     1     -24.663  15.837  11.344  1.00 20.00     0.154 C 
HETATM    3  N6  UNL     1     -23.978  17.084  10.977  1.00 20.00    -0.343 N 
HETATM    4  O7  UNL     1     -22.785  16.289   9.140  1.00 20.00    -0.254 OA
HETATM    5 CL8  UNL     1     -23.262  18.858   9.062  1.00 20.00    -0.020 Cl
ENDROOT
BRANCH   3   6
HETATM    6  C5  UNL     1     -24.026  18.139  11.950  1.00 20.00     0.126 C 
BRANCH   6   7
HETATM    7  C4  UNL     1     -25.453  18.514  12.332  1.00 20.00     0.015 C 
HETATM    8  C2  UNL     1     -26.183  19.257  11.221  1.00 20.00     0.006 C 
ENDBRANCH   6   7
ENDBRANCH   3   6
TORSDOF 2
ENDMDL
MODEL 4
REMARK VINA RESULT:      -3.6     16.262     16.875
REMARK  2 active torsions:
REMARK  status: ('A' for Active; 'I' for Inactive)
REMARK       I    between atoms: C1_1  and  N6_6 
REMARK    1  A    between atoms: C4_4  and  C5_5 
REMARK    2  A    between atoms: C5_5  and  N6_6 
ROOT
HETATM    1  C1  UNL     1     -24.184  18.817   7.524  1.00 20.00     0.316 C 
HETATM    2  C3  UNL     1     -22.263  17.308   8.177  1.00 20.00     0.154 C 
HETATM    3  N6  UNL     1     -23.363  18.220   8.520  1.00 20.00    -0.343 N 
HETATM    4  O7  UNL     1     -23.771  19.075   6.391  1.00 20.00    -0.254 OA
HETATM    5 CL8  UNL     1     -25.841  19.165   7.984  1.00 20.00    -0.020 Cl
ENDROOT
BRANCH   3   6
HETATM    6  C5  UNL     1     -23.558  18.474   9.920  1.00 20.00     0.126 C 
BRANCH   6   7
HETATM    7  C4  UNL     1     -22.535  17.753  10.790  1.00 20.00     0.015 C 
HETATM    8  C2  UNL     1     -22.845  17.864  12.276  1.00 20.00     0.006 C 
ENDBRANCH   6   7
ENDBRANCH   3   6
TORSDOF 2
ENDMDL
MODEL 5
REMARK VINA RESULT:      -3.5     11.721     12.259
REMARK  2 active torsions:
REMARK  status: ('A' for Active; 'I' for Inactive)
REMARK       I    between atoms: C1_1  and  N6_6 
REMARK    1  A    between atoms: C4_4  and  C5_5 
REMARK    2  A    between atoms: C5_5  and  N6_6 
ROOT
HETATM    1  C1  UNL     1     -35.464  14.584  -6.242  1.00 20.00     0.316 C 
HETATM    2  C3  UNL     1     -37.125  14.851  -4.354  1.00 20.00     0.154 C 
HETATM    3  N6  UNL     1     -35.772  14.573  -4.853  1.00 20.00    -0.343 N 
HETATM    4  O7  UNL     1     -36.292  14.289  -7.107  1.00 20.00    -0.254 OA
HETATM    5 CL8  UNL     1     -33.830  15.053  -6.676  1.00 20.00    -0.020 Cl
ENDROOT
BRANCH   3   6
HETATM    6  C5  UNL     1     -34.779  14.288  -3.856  1.00 20.00     0.126 C 
BRANCH   6   7
HETATM    7  C4  UNL     1     -34.568  15.452  -2.895  1.00 20.00     0.015 C 
HETATM    8  C2  UNL     1     -33.257  16.187  -3.141  1.00 20.00     0.006 C 
ENDBRANCH   6   7
ENDBRANCH   3   6
TORSDOF 2
ENDMDL
MODEL 6
REMARK VINA RESULT:      -3.5     16.484     16.882
REMARK  2 active torsions:
REMARK  status: ('A' for Active; 'I' for Inactive)
REMARK       I    between atoms: C1_1  and  N6_6 
REMARK    1  A    between atoms: C4_4  and  C5_5 
REMARK    2  A    between atoms: C5_5  and  N6_6 
ROOT
HETATM    1  C1  UNL     1     -24.663  18.037  10.996  1.00 20.00     0.316 C 
HETATM    2  C3  UNL     1     -22.541  17.705  12.332  1.00 20.00     0.154 C 
HETATM    3  N6  UNL     1     -23.243  17.992  11.074  1.00 20.00    -0.343 N 
HETATM    4  O7  UNL     1     -25.388  17.362  11.729  1.00 20.00    -0.254 OA
HETATM    5 CL8  UNL     1     -25.345  19.122   9.798  1.00 20.00    -0.020 Cl
ENDROOT
BRANCH   3   6
HETATM    6  C5  UNL     1     -22.410  18.221   9.926  1.00 20.00     0.126 C 
BRANCH   6   7
HETATM    7  C4  UNL     1     -22.360  17.017   8.994  1.00 20.00     0.015 C 
HETATM    8  C2  UNL     1     -21.641  17.316   7.685  1.00 20.00     0.006 C 
ENDBRANCH   6   7
ENDBRANCH   3   6
TORSDOF 2
ENDMDL
MODEL 7
REMARK VINA RESULT:      -3.4     11.721     12.292
REMARK  2 active torsions:
REMARK  status: ('A' for Active; 'I' for Inactive)
REMARK       I    between atoms: C1_1  and  N6_6 
REMARK    1  A    between atoms: C4_4  and  C5_5 
REMARK    2  A    between atoms: C5_5  and  N6_6 
ROOT
HETATM    1  C1  UNL     1     -35.814  14.541  -5.776  1.00 20.00     0.316 C 
HETATM    2  C3  UNL     1     -33.794  15.158  -7.168  1.00 20.00     0.154 C 
HETATM    3  N6  UNL     1     -34.423  14.823  -5.883  1.00 20.00    -0.343 N 
HETATM    4  O7  UNL     1     -36.652  15.043  -6.527  1.00 20.00    -0.254 OA
HETATM    5 CL8  UNL     1     -36.288  13.421  -4.511  1.00 20.00    -0.020 Cl
ENDROOT
BRANCH   3   6
HETATM    6  C5  UNL     1     -33.552  14.800  -4.742  1.00 20.00     0.126 C 
BRANCH   6   7
HETATM    7  C4  UNL     1     -33.656  16.069  -3.904  1.00 20.00     0.015 C 
HETATM    8  C2  UNL     1     -34.345  15.836  -2.567  1.00 20.00     0.006 C 
ENDBRANCH   6   7
ENDBRANCH   3   6
TORSDOF 2
ENDMDL
MODEL 8
REMARK VINA RESULT:      -3.4     11.097     12.055
REMARK  2 active torsions:
REMARK  status: ('A' for Active; 'I' for Inactive)
REMARK       I    between atoms: C1_1  and  N6_6 
REMARK    1  A    between atoms: C4_4  and  C5_5 
REMARK    2  A    between atoms: C5_5  and  N6_6 
ROOT
HETATM    1  C1  UNL     1     -35.970  13.723  -4.543  1.00 20.00     0.316 C 
HETATM    2  C3  UNL     1     -33.554  14.444  -4.347  1.00 20.00     0.154 C 
HETATM    3  N6  UNL     1     -34.927  14.646  -4.830  1.00 20.00    -0.343 N 
HETATM    4  O7  UNL     1     -35.764  12.519  -4.378  1.00 20.00    -0.254 OA
HETATM    5 CL8  UNL     1     -37.589  14.388  -4.421  1.00 20.00    -0.020 Cl
ENDROOT
BRANCH   3   6
HETATM    6  C5  UNL     1     -35.151  15.830  -5.612  1.00 20.00     0.126 C 
BRANCH   6   7
HETATM    7  C4  UNL     1     -35.321  15.524  -7.095  1.00 20.00     0.015 C 
HETATM    8  C2  UNL     1     -33.990  15.378  -7.821  1.00 20.00     0.006 C 
ENDBRANCH   6   7
ENDBRANCH   3   6
TORSDOF 2
ENDMDL
MODEL 9
REMARK VINA RESULT:      -3.3     10.779     11.400
REMARK  2 active torsions:
REMARK  status: ('A' for Active; 'I' for Inactive)
REMARK       I    between atoms: C1_1  and  N6_6 
REMARK    1  A    between atoms: C4_4  and  C5_5 
REMARK    2  A    between atoms: C5_5  and  N6_6 
ROOT
HETATM    1  C1  UNL     1     -35.212  13.815  -4.145  1.00 20.00     0.316 C 
HETATM    2  C3  UNL     1     -37.165  15.413  -3.991  1.00 20.00     0.154 C 
HETATM    3  N6  UNL     1     -35.833  14.958  -3.570  1.00 20.00    -0.343 N 
HETATM    4  O7  UNL     1     -35.857  12.858  -4.581  1.00 20.00    -0.254 OA
HETATM    5 CL8  UNL     1     -33.459  13.832  -4.216  1.00 20.00    -0.020 Cl
ENDROOT
BRANCH   3   6
HETATM    6  C5  UNL     1     -35.197  15.735  -2.544  1.00 20.00     0.126 C 
BRANCH   6   7
HETATM    7  C4  UNL     1     -34.470  16.953  -3.102  1.00 20.00     0.015 C 
HETATM    8  C2  UNL     1     -33.048  17.083  -2.573  1.00 20.00     0.006 C 
ENDBRANCH   6   7
ENDBRANCH   3   6
TORSDOF 2
ENDMDL
