MODEL 1
REMARK VINA RESULT:      -4.1      0.000      0.000
REMARK  2 active torsions:
REMARK  status: ('A' for Active; 'I' for Inactive)
REMARK    1  A    between atoms: C1_1  and  C3_3 
REMARK    2  A    between atoms: C2_2  and  N9_9 
ROOT
HETATM    1  C1  UNL     1     -24.555  16.466  11.638  1.00 20.00     0.050 C 
HETATM    2  C2  UNL     1     -25.699  17.143  11.847  1.00 20.00     0.002 C 
HETATM    3  C4  UNL     1     -25.714  18.637  11.649  1.00 20.00     0.068 C 
ENDROOT
BRANCH   1   4
HETATM    4  C3  UNL     1     -23.285  17.126  11.215  1.00 20.00     0.026 C 
HETATM    5  C5  UNL     1     -22.444  17.702  12.332  1.00 20.00     0.070 C 
HETATM    6  N8  UNL     1     -22.946  17.155   9.968  1.00 20.00    -0.299 NA
HETATM    7  C6  UNL     1     -21.692  17.796   9.600  1.00 20.00     0.177 C 
ENDBRANCH   1   4
BRANCH   2   8
HETATM    8  N9  UNL     1     -26.895  16.599  12.223  1.00 20.00    -0.398 N 
HETATM    9  C7  UNL     1     -28.067  17.419  12.331  1.00 20.00     0.146 C 
HETATM   10  H23 UNL     1     -26.902  15.625  12.411  1.00 20.00     0.158 HD
ENDBRANCH   2   8
TORSDOF 2
ENDMDL
MODEL 2
REMARK VINA RESULT:      -3.7     17.577     18.459
REMARK  2 active torsions:
REMARK  status: ('A' for Active; 'I' for Inactive)
REMARK    1  A    between atoms: C1_1  and  C3_3 
REMARK    2  A    between atoms: C2_2  and  N9_9 
ROOT
HETATM    1  C1  UNL     1     -33.357  15.398  -3.771  1.00 20.00     0.050 C 
HETATM    2  C2  UNL     1     -33.816  15.562  -5.025  1.00 20.00     0.002 C 
HETATM    3  C4  UNL     1     -34.832  16.642  -5.299  1.00 20.00     0.068 C 
ENDROOT
BRANCH   1   4
HETATM    4  C3  UNL     1     -33.807  16.241  -2.623  1.00 20.00     0.026 C 
HETATM    5  C5  UNL     1     -32.896  17.393  -2.263  1.00 20.00     0.070 C 
HETATM    6  N8  UNL     1     -34.923  15.988  -2.023  1.00 20.00    -0.299 NA
HETATM    7  C6  UNL     1     -35.331  16.843  -0.919  1.00 20.00     0.177 C 
ENDBRANCH   1   4
BRANCH   2   8
HETATM    8  N9  UNL     1     -33.439  14.835  -6.119  1.00 20.00    -0.398 N 
HETATM    9  C7  UNL     1     -33.889  15.202  -7.430  1.00 20.00     0.146 C 
HETATM   10  H23 UNL     1     -32.847  14.056  -5.953  1.00 20.00     0.158 HD
ENDBRANCH   2   8
TORSDOF 2
ENDMDL
MODEL 3
REMARK VINA RESULT:      -3.6     17.543     18.350
REMARK  2 active torsions:
REMARK  status: ('A' for Active; 'I' for Inactive)
REMARK    1  A    between atoms: C1_1  and  C3_3 
REMARK    2  A    between atoms: C2_2  and  N9_9 
ROOT
HETATM    1  C1  UNL     1     -33.347  15.409  -3.828  1.00 20.00     0.050 C 
HETATM    2  C2  UNL     1     -33.753  15.632  -5.091  1.00 20.00     0.002 C 
HETATM    3  C4  UNL     1     -34.612  16.836  -5.385  1.00 20.00     0.068 C 
ENDROOT
BRANCH   1   4
HETATM    4  C3  UNL     1     -33.705  16.305  -2.689  1.00 20.00     0.026 C 
HETATM    5  C5  UNL     1     -35.033  16.017  -2.025  1.00 20.00     0.070 C 
HETATM    6  N8  UNL     1     -32.893  17.234  -2.305  1.00 20.00    -0.299 NA
HETATM    7  C6  UNL     1     -33.275  18.075  -1.181  1.00 20.00     0.177 C 
ENDBRANCH   1   4
BRANCH   2   8
HETATM    8  N9  UNL     1     -33.452  14.860  -6.178  1.00 20.00    -0.398 N 
HETATM    9  C7  UNL     1     -33.905  15.234  -7.487  1.00 20.00     0.146 C 
HETATM   10  H23 UNL     1     -32.913  14.044  -6.010  1.00 20.00     0.158 HD
ENDBRANCH   2   8
TORSDOF 2
ENDMDL
MODEL 4
REMARK VINA RESULT:      -3.6     15.287     16.652
REMARK  2 active torsions:
REMARK  status: ('A' for Active; 'I' for Inactive)
REMARK    1  A    between atoms: C1_1  and  C3_3 
REMARK    2  A    between atoms: C2_2  and  N9_9 
ROOT
HETATM    1  C1  UNL     1     -33.615   6.226   2.440  1.00 20.00     0.050 C 
HETATM    2  C2  UNL     1     -32.622   7.129   2.342  1.00 20.00     0.002 C 
HETATM    3  C4  UNL     1     -31.869   7.530   3.585  1.00 20.00     0.068 C 
ENDROOT
BRANCH   1   4
HETATM    4  C3  UNL     1     -34.014   5.594   3.732  1.00 20.00     0.026 C 
HETATM    5  C5  UNL     1     -34.029   4.082   3.742  1.00 20.00     0.070 C 
HETATM    6  N8  UNL     1     -34.292   6.325   4.761  1.00 20.00    -0.299 NA
HETATM    7  C6  UNL     1     -34.663   5.667   6.005  1.00 20.00     0.177 C 
ENDBRANCH   1   4
BRANCH   2   8
HETATM    8  N9  UNL     1     -32.200   7.735   1.192  1.00 20.00    -0.398 N 
HETATM    9  C7  UNL     1     -32.889   8.885   0.679  1.00 20.00     0.146 C 
HETATM   10  H23 UNL     1     -31.407   7.340   0.746  1.00 20.00     0.158 HD
ENDBRANCH   2   8
TORSDOF 2
ENDMDL
MODEL 5
REMARK VINA RESULT:      -3.5     22.548     24.375
REMARK  2 active torsions:
REMARK  status: ('A' for Active; 'I' for Inactive)
REMARK    1  A    between atoms: C1_1  and  C3_3 
REMARK    2  A    between atoms: C2_2  and  N9_9 
ROOT
HETATM    1  C1  UNL     1     -41.186   5.696  -0.785  1.00 20.00     0.050 C 
HETATM    2  C2  UNL     1     -42.010   4.979  -1.570  1.00 20.00     0.002 C 
HETATM    3  C4  UNL     1     -43.417   5.468  -1.798  1.00 20.00     0.068 C 
ENDROOT
BRANCH   1   4
HETATM    4  C3  UNL     1     -41.599   6.968  -0.120  1.00 20.00     0.026 C 
HETATM    5  C5  UNL     1     -42.529   6.814   1.063  1.00 20.00     0.070 C 
HETATM    6  N8  UNL     1     -41.146   8.103  -0.539  1.00 20.00    -0.299 NA
HETATM    7  C6  UNL     1     -41.563   9.317   0.147  1.00 20.00     0.177 C 
ENDBRANCH   1   4
BRANCH   2   8
HETATM    8  N9  UNL     1     -41.692   3.817  -2.215  1.00 20.00    -0.398 N 
HETATM    9  C7  UNL     1     -42.696   3.077  -2.923  1.00 20.00     0.146 C 
HETATM   10  H23 UNL     1     -40.745   3.524  -2.165  1.00 20.00     0.158 HD
ENDBRANCH   2   8
TORSDOF 2
ENDMDL
MODEL 6
REMARK VINA RESULT:      -3.4     17.336     18.053
REMARK  2 active torsions:
REMARK  status: ('A' for Active; 'I' for Inactive)
REMARK    1  A    between atoms: C1_1  and  C3_3 
REMARK    2  A    between atoms: C2_2  and  N9_9 
ROOT
HETATM    1  C1  UNL     1     -34.985  15.161  -3.253  1.00 20.00     0.050 C 
HETATM    2  C2  UNL     1     -34.698  16.122  -2.358  1.00 20.00     0.002 C 
HETATM    3  C4  UNL     1     -33.566  17.076  -2.643  1.00 20.00     0.068 C 
ENDROOT
BRANCH   1   4
HETATM    4  C3  UNL     1     -34.232  14.987  -4.531  1.00 20.00     0.026 C 
HETATM    5  C5  UNL     1     -32.880  14.324  -4.407  1.00 20.00     0.070 C 
HETATM    6  N8  UNL     1     -34.751  15.365  -5.653  1.00 20.00    -0.299 NA
HETATM    7  C6  UNL     1     -33.989  15.165  -6.876  1.00 20.00     0.177 C 
ENDBRANCH   1   4
BRANCH   2   8
HETATM    8  N9  UNL     1     -35.353  16.342  -1.178  1.00 20.00    -0.398 N 
HETATM    9  C7  UNL     1     -34.998  17.452  -0.342  1.00 20.00     0.146 C 
HETATM   10  H23 UNL     1     -36.073  15.701  -0.943  1.00 20.00     0.158 HD
ENDBRANCH   2   8
TORSDOF 2
ENDMDL
MODEL 7
REMARK VINA RESULT:      -3.3     16.924     17.701
REMARK  2 active torsions:
REMARK  status: ('A' for Active; 'I' for Inactive)
REMARK    1  A    between atoms: C1_1  and  C3_3 
REMARK    2  A    between atoms: C2_2  and  N9_9 
ROOT
HETATM    1  C1  UNL     1     -33.183  16.736  -3.361  1.00 20.00     0.050 C 
HETATM    2  C2  UNL     1     -33.775  16.926  -2.168  1.00 20.00     0.002 C 
HETATM    3  C4  UNL     1     -35.033  16.161  -1.842  1.00 20.00     0.068 C 
ENDROOT
BRANCH   1   4
HETATM    4  C3  UNL     1     -33.714  15.794  -4.391  1.00 20.00     0.026 C 
HETATM    5  C5  UNL     1     -33.122  14.403  -4.371  1.00 20.00     0.070 C 
HETATM    6  N8  UNL     1     -34.640  16.173  -5.208  1.00 20.00    -0.299 NA
HETATM    7  C6  UNL     1     -35.139  15.220  -6.188  1.00 20.00     0.177 C 
ENDBRANCH   1   4
BRANCH   2   8
HETATM    8  N9  UNL     1     -33.336  17.762  -1.179  1.00 20.00    -0.398 N 
HETATM    9  C7  UNL     1     -31.988  18.252  -1.184  1.00 20.00     0.146 C 
HETATM   10  H23 UNL     1     -33.992  18.002  -0.475  1.00 20.00     0.158 HD
ENDBRANCH   2   8
TORSDOF 2
ENDMDL
MODEL 8
REMARK VINA RESULT:      -3.3     15.410     16.122
REMARK  2 active torsions:
REMARK  status: ('A' for Active; 'I' for Inactive)
REMARK    1  A    between atoms: C1_1  and  C3_3 
REMARK    2  A    between atoms: C2_2  and  N9_9 
ROOT
HETATM    1  C1  UNL     1     -32.420  18.879  -2.532  1.00 20.00     0.050 C 
HETATM    2  C2  UNL     1     -32.893  17.911  -3.338  1.00 20.00     0.002 C 
HETATM    3  C4  UNL     1     -33.148  16.540  -2.767  1.00 20.00     0.068 C 
ENDROOT
BRANCH   1   4
HETATM    4  C3  UNL     1     -32.131  18.663  -1.084  1.00 20.00     0.026 C 
HETATM    5  C5  UNL     1     -33.332  18.701  -0.165  1.00 20.00     0.070 C 
HETATM    6  N8  UNL     1     -30.924  18.430  -0.685  1.00 20.00    -0.299 NA
HETATM    7  C6  UNL     1     -30.689  18.210   0.734  1.00 20.00     0.177 C 
ENDBRANCH   1   4
BRANCH   2   8
HETATM    8  N9  UNL     1     -33.189  18.046  -4.666  1.00 20.00    -0.398 N 
HETATM    9  C7  UNL     1     -34.478  17.668  -5.168  1.00 20.00     0.146 C 
HETATM   10  H23 UNL     1     -32.473  18.414  -5.246  1.00 20.00     0.158 HD
ENDBRANCH   2   8
TORSDOF 2
ENDMDL
MODEL 9
REMARK VINA RESULT:      -3.3      1.420      2.117
REMARK  2 active torsions:
REMARK  status: ('A' for Active; 'I' for Inactive)
REMARK    1  A    between atoms: C1_1  and  C3_3 
REMARK    2  A    between atoms: C2_2  and  N9_9 
ROOT
HETATM    1  C1  UNL     1     -24.692  18.511  10.673  1.00 20.00     0.050 C 
HETATM    2  C2  UNL     1     -25.240  17.538  11.423  1.00 20.00     0.002 C 
HETATM    3  C4  UNL     1     -24.706  16.133  11.307  1.00 20.00     0.068 C 
ENDROOT
BRANCH   1   4
HETATM    4  C3  UNL     1     -23.568  18.269   9.721  1.00 20.00     0.026 C 
HETATM    5  C5  UNL     1     -23.945  18.251   8.257  1.00 20.00     0.070 C 
HETATM    6  N8  UNL     1     -22.361  18.119  10.157  1.00 20.00    -0.299 NA
HETATM    7  C6  UNL     1     -21.293  17.899   9.194  1.00 20.00     0.177 C 
ENDBRANCH   1   4
BRANCH   2   8
HETATM    8  N9  UNL     1     -26.260  17.695  12.319  1.00 20.00    -0.398 N 
HETATM    9  C7  UNL     1     -27.511  18.265  11.909  1.00 20.00     0.146 C 
HETATM   10  H23 UNL     1     -26.085  17.396  13.249  1.00 20.00     0.158 HD
ENDBRANCH   2   8
TORSDOF 2
ENDMDL
