MODEL 1
REMARK VINA RESULT:      -3.7      0.000      0.000
REMARK  1 active torsions:
REMARK  status: ('A' for Active; 'I' for Inactive)
REMARK    1  A    between atoms: C2_2  and  C5_5 
ROOT
HETATM    1  C1  UNL     1     -32.829   7.786   2.380  1.00 20.00     0.153 A 
HETATM    2  C2  UNL     1     -33.153   6.491   3.103  1.00 20.00     0.096 A 
HETATM    3  C3  UNL     1     -32.457   7.849   0.942  1.00 20.00     0.042 C 
HETATM    4  C4  UNL     1     -33.115   5.173   2.397  1.00 20.00     0.050 C 
HETATM    5  O6  UNL     1     -31.870   7.129   3.221  1.00 20.00    -0.369 OA
ENDROOT
BRANCH   2   6
HETATM    6  C5  UNL     1     -33.974   6.556   4.353  1.00 20.00     0.154 C 
HETATM    7 CL7  UNL     1     -35.032   5.128   4.499  1.00 20.00    -0.127 Cl
ENDBRANCH   2   6
TORSDOF 1
ENDMDL
MODEL 2
REMARK VINA RESULT:      -3.6      2.336      3.374
REMARK  1 active torsions:
REMARK  status: ('A' for Active; 'I' for Inactive)
REMARK    1  A    between atoms: C2_2  and  C5_5 
ROOT
HETATM    1  C1  UNL     1     -33.962   6.366   4.986  1.00 20.00     0.153 A 
HETATM    2  C2  UNL     1     -33.408   6.244   3.578  1.00 20.00     0.096 A 
HETATM    3  C3  UNL     1     -34.703   5.274   5.671  1.00 20.00     0.042 C 
HETATM    4  C4  UNL     1     -33.577   4.992   2.779  1.00 20.00     0.050 C 
HETATM    5  O6  UNL     1     -34.638   6.933   3.855  1.00 20.00    -0.369 OA
ENDROOT
BRANCH   2   6
HETATM    6  C5  UNL     1     -32.289   7.151   3.169  1.00 20.00     0.154 C 
HETATM    7 CL7  UNL     1     -32.517   7.737   1.500  1.00 20.00    -0.127 Cl
ENDBRANCH   2   6
TORSDOF 1
ENDMDL
MODEL 3
REMARK VINA RESULT:      -3.3     16.371     16.905
REMARK  1 active torsions:
REMARK  status: ('A' for Active; 'I' for Inactive)
REMARK    1  A    between atoms: C2_2  and  C5_5 
ROOT
HETATM    1  C1  UNL     1     -24.858  18.166  10.989  1.00 20.00     0.153 A 
HETATM    2  C2  UNL     1     -23.364  17.908  10.924  1.00 20.00     0.096 A 
HETATM    3  C3  UNL     1     -25.629  18.200  12.260  1.00 20.00     0.042 C 
HETATM    4  C4  UNL     1     -22.560  17.666  12.162  1.00 20.00     0.050 C 
HETATM    5  O6  UNL     1     -24.327  16.880  10.641  1.00 20.00    -0.369 OA
ENDROOT
BRANCH   2   6
HETATM    6  C5  UNL     1     -22.609  18.373   9.717  1.00 20.00     0.154 C 
HETATM    7 CL7  UNL     1     -22.384  17.044   8.551  1.00 20.00    -0.127 Cl
ENDBRANCH   2   6
TORSDOF 1
ENDMDL
MODEL 4
REMARK VINA RESULT:      -3.3     16.103     16.594
REMARK  1 active torsions:
REMARK  status: ('A' for Active; 'I' for Inactive)
REMARK    1  A    between atoms: C2_2  and  C5_5 
ROOT
HETATM    1  C1  UNL     1     -22.730  17.397   9.222  1.00 20.00     0.153 A 
HETATM    2  C2  UNL     1     -23.217  17.610  10.645  1.00 20.00     0.096 A 
HETATM    3  C3  UNL     1     -21.293  17.293   8.856  1.00 20.00     0.042 C 
HETATM    4  C4  UNL     1     -22.259  17.729  11.787  1.00 20.00     0.050 C 
HETATM    5  O6  UNL     1     -23.137  18.688   9.698  1.00 20.00    -0.369 OA
ENDROOT
BRANCH   2   6
HETATM    6  C5  UNL     1     -24.620  17.213  10.987  1.00 20.00     0.154 C 
HETATM    7 CL7  UNL     1     -24.660  15.605  11.756  1.00 20.00    -0.127 Cl
ENDBRANCH   2   6
TORSDOF 1
ENDMDL
MODEL 5
REMARK VINA RESULT:      -3.2     16.318     16.725
REMARK  1 active torsions:
REMARK  status: ('A' for Active; 'I' for Inactive)
REMARK    1  A    between atoms: C2_2  and  C5_5 
ROOT
HETATM    1  C1  UNL     1     -22.574  17.747  10.454  1.00 20.00     0.153 A 
HETATM    2  C2  UNL     1     -24.059  18.031  10.592  1.00 20.00     0.096 A 
HETATM    3  C3  UNL     1     -21.758  18.203   9.297  1.00 20.00     0.042 C 
HETATM    4  C4  UNL     1     -24.806  18.803   9.552  1.00 20.00     0.050 C 
HETATM    5  O6  UNL     1     -23.566  16.760  10.138  1.00 20.00    -0.369 OA
ENDROOT
BRANCH   2   6
HETATM    6  C5  UNL     1     -24.671  17.985  11.958  1.00 20.00     0.154 C 
HETATM    7 CL7  UNL     1     -26.033  19.129  12.088  1.00 20.00    -0.127 Cl
ENDBRANCH   2   6
TORSDOF 1
ENDMDL
MODEL 6
REMARK VINA RESULT:      -3.2      9.216      9.432
REMARK  1 active torsions:
REMARK  status: ('A' for Active; 'I' for Inactive)
REMARK    1  A    between atoms: C2_2  and  C5_5 
ROOT
HETATM    1  C1  UNL     1     -41.309   6.627  -0.792  1.00 20.00     0.153 A 
HETATM    2  C2  UNL     1     -42.219   7.133   0.312  1.00 20.00     0.096 A 
HETATM    3  C3  UNL     1     -41.145   5.186  -1.122  1.00 20.00     0.042 C 
HETATM    4  C4  UNL     1     -43.023   6.193   1.152  1.00 20.00     0.050 C 
HETATM    5  O6  UNL     1     -40.798   7.011   0.492  1.00 20.00    -0.369 OA
ENDROOT
BRANCH   2   6
HETATM    6  C5  UNL     1     -42.698   8.551   0.250  1.00 20.00     0.154 C 
HETATM    7 CL7  UNL     1     -41.338   9.693   0.411  1.00 20.00    -0.127 Cl
ENDBRANCH   2   6
TORSDOF 1
ENDMDL
MODEL 7
REMARK VINA RESULT:      -3.2      9.484      9.626
REMARK  1 active torsions:
REMARK  status: ('A' for Active; 'I' for Inactive)
REMARK    1  A    between atoms: C2_2  and  C5_5 
ROOT
HETATM    1  C1  UNL     1     -41.255   8.157  -0.656  1.00 20.00     0.153 A 
HETATM    2  C2  UNL     1     -41.774   6.770  -0.323  1.00 20.00     0.096 A 
HETATM    3  C3  UNL     1     -41.479   9.344   0.210  1.00 20.00     0.042 C 
HETATM    4  C4  UNL     1     -42.558   6.509   0.924  1.00 20.00     0.050 C 
HETATM    5  O6  UNL     1     -42.440   7.626  -1.266  1.00 20.00    -0.369 OA
ENDROOT
BRANCH   2   6
HETATM    6  C5  UNL     1     -41.107   5.586  -0.952  1.00 20.00     0.154 C 
HETATM    7 CL7  UNL     1     -42.291   4.562  -1.805  1.00 20.00    -0.127 Cl
ENDBRANCH   2   6
TORSDOF 1
ENDMDL
MODEL 8
REMARK VINA RESULT:      -3.2     16.075     16.536
REMARK  1 active torsions:
REMARK  status: ('A' for Active; 'I' for Inactive)
REMARK    1  A    between atoms: C2_2  and  C5_5 
ROOT
HETATM    1  C1  UNL     1     -24.043  19.070   8.986  1.00 20.00     0.153 A 
HETATM    2  C2  UNL     1     -23.091  18.041   9.566  1.00 20.00     0.096 A 
HETATM    3  C3  UNL     1     -24.667  18.942   7.642  1.00 20.00     0.042 C 
HETATM    4  C4  UNL     1     -22.716  16.809   8.806  1.00 20.00     0.050 C 
HETATM    5  O6  UNL     1     -22.621  19.262   8.972  1.00 20.00    -0.369 OA
ENDROOT
BRANCH   2   6
HETATM    6  C5  UNL     1     -22.914  17.988  11.052  1.00 20.00     0.154 C 
HETATM    7 CL7  UNL     1     -23.545  16.459  11.718  1.00 20.00    -0.127 Cl
ENDBRANCH   2   6
TORSDOF 1
ENDMDL
MODEL 9
REMARK VINA RESULT:      -3.2     15.750     16.369
REMARK  1 active torsions:
REMARK  status: ('A' for Active; 'I' for Inactive)
REMARK    1  A    between atoms: C2_2  and  C5_5 
ROOT
HETATM    1  C1  UNL     1     -23.899  16.787  10.643  1.00 20.00     0.153 A 
HETATM    2  C2  UNL     1     -24.385  18.203  10.392  1.00 20.00     0.096 A 
HETATM    3  C3  UNL     1     -24.574  15.841  11.571  1.00 20.00     0.042 C 
HETATM    4  C4  UNL     1     -25.599  18.743  11.078  1.00 20.00     0.050 C 
HETATM    5  O6  UNL     1     -23.289  17.919  11.277  1.00 20.00    -0.369 OA
ENDROOT
BRANCH   2   6
HETATM    6  C5  UNL     1     -23.974  18.886   9.125  1.00 20.00     0.154 C 
HETATM    7 CL7  UNL     1     -25.283  18.834   7.916  1.00 20.00    -0.127 Cl
ENDBRANCH   2   6
TORSDOF 1
ENDMDL
