MODEL 1
REMARK VINA RESULT:      -4.0      0.000      0.000
REMARK  0 active torsions:
REMARK  status: ('A' for Active; 'I' for Inactive)
ROOT
HETATM    1  C1  UNL     1     -22.201  17.107   8.882  1.00 20.00     0.280 C 
HETATM    2  C2  UNL     1     -23.028  18.064   8.033  1.00 20.00     0.104 C 
HETATM    3  C3  UNL     1     -24.741  18.036  10.164  1.00 20.00     0.114 C 
HETATM    4  C4  UNL     1     -23.764  17.022  10.799  1.00 20.00     0.159 C 
HETATM    5  C5  UNL     1     -24.599  15.975  11.568  1.00 20.00     0.049 C 
HETATM    6  C6  UNL     1     -22.819  17.694  11.816  1.00 20.00     0.049 C 
HETATM    7  N7  UNL     1     -23.007  16.276   9.777  1.00 20.00     0.093 N 
HETATM    8  S8  UNL     1     -23.938  19.242   9.066  1.00 20.00    -0.165 SA
HETATM    9  H21 UNL     1     -23.649  15.717   9.220  1.00 20.00     0.316 HD
ENDROOT
TORSDOF 0
ENDMDL
MODEL 2
REMARK VINA RESULT:      -3.4     17.968     19.114
REMARK  0 active torsions:
REMARK  status: ('A' for Active; 'I' for Inactive)
ROOT
HETATM    1  C1  UNL     1     -33.227  14.649  -4.326  1.00 20.00     0.280 C 
HETATM    2  C2  UNL     1     -33.262  15.997  -3.618  1.00 20.00     0.104 C 
HETATM    3  C3  UNL     1     -34.544  16.842  -5.881  1.00 20.00     0.114 C 
HETATM    4  C4  UNL     1     -34.335  15.405  -6.406  1.00 20.00     0.159 C 
HETATM    5  C5  UNL     1     -34.028  15.492  -7.917  1.00 20.00     0.049 C 
HETATM    6  C6  UNL     1     -35.604  14.543  -6.243  1.00 20.00     0.049 C 
HETATM    7  N7  UNL     1     -33.165  14.757  -5.784  1.00 20.00     0.093 N 
HETATM    8  S8  UNL     1     -34.737  16.944  -4.076  1.00 20.00    -0.165 SA
HETATM    9  H21 UNL     1     -32.321  15.263  -6.043  1.00 20.00     0.316 HD
ENDROOT
TORSDOF 0
ENDMDL
MODEL 3
REMARK VINA RESULT:      -3.2     17.695     18.646
REMARK  0 active torsions:
REMARK  status: ('A' for Active; 'I' for Inactive)
ROOT
HETATM    1  C1  UNL     1     -35.354  16.770  -5.427  1.00 20.00     0.280 C 
HETATM    2  C2  UNL     1     -36.558  15.853  -5.605  1.00 20.00     0.104 C 
HETATM    3  C3  UNL     1     -35.070  14.075  -4.156  1.00 20.00     0.114 C 
HETATM    4  C4  UNL     1     -33.968  15.157  -4.162  1.00 20.00     0.159 C 
HETATM    5  C5  UNL     1     -32.604  14.445  -4.298  1.00 20.00     0.049 C 
HETATM    6  C6  UNL     1     -33.940  15.957  -2.844  1.00 20.00     0.049 C 
HETATM    7  N7  UNL     1     -34.084  16.052  -5.328  1.00 20.00     0.093 N 
HETATM    8  S8  UNL     1     -36.760  14.746  -4.185  1.00 20.00    -0.165 SA
HETATM    9  H21 UNL     1     -33.939  15.517  -6.182  1.00 20.00     0.316 HD
ENDROOT
TORSDOF 0
ENDMDL
MODEL 4
REMARK VINA RESULT:      -3.2     18.220     19.112
REMARK  0 active torsions:
REMARK  status: ('A' for Active; 'I' for Inactive)
ROOT
HETATM    1  C1  UNL     1     -37.541  14.925  -4.355  1.00 20.00     0.280 C 
HETATM    2  C2  UNL     1     -37.582  15.932  -5.498  1.00 20.00     0.104 C 
HETATM    3  C3  UNL     1     -35.035  16.524  -4.701  1.00 20.00     0.114 C 
HETATM    4  C4  UNL     1     -35.258  15.484  -3.582  1.00 20.00     0.159 C 
HETATM    5  C5  UNL     1     -34.562  16.004  -2.305  1.00 20.00     0.049 C 
HETATM    6  C6  UNL     1     -34.624  14.122  -3.929  1.00 20.00     0.049 C 
HETATM    7  N7  UNL     1     -36.686  15.340  -3.243  1.00 20.00     0.093 N 
HETATM    8  S8  UNL     1     -35.943  16.162  -6.234  1.00 20.00    -0.165 SA
HETATM    9  H21 UNL     1     -37.036  16.218  -2.867  1.00 20.00     0.316 HD
ENDROOT
TORSDOF 0
ENDMDL
MODEL 5
REMARK VINA RESULT:      -3.2     17.579     18.511
REMARK  0 active torsions:
REMARK  status: ('A' for Active; 'I' for Inactive)
ROOT
HETATM    1  C1  UNL     1     -36.322  16.709  -4.859  1.00 20.00     0.280 C 
HETATM    2  C2  UNL     1     -36.586  15.396  -5.585  1.00 20.00     0.104 C 
HETATM    3  C3  UNL     1     -34.560  14.441  -4.018  1.00 20.00     0.114 C 
HETATM    4  C4  UNL     1     -34.449  15.880  -3.471  1.00 20.00     0.159 C 
HETATM    5  C5  UNL     1     -32.952  16.186  -3.242  1.00 20.00     0.049 C 
HETATM    6  C6  UNL     1     -35.163  16.036  -2.113  1.00 20.00     0.049 C 
HETATM    7  N7  UNL     1     -34.929  16.877  -4.446  1.00 20.00     0.093 N 
HETATM    8  S8  UNL     1     -36.244  13.972  -4.519  1.00 20.00    -0.165 SA
HETATM    9  H21 UNL     1     -34.335  16.857  -5.271  1.00 20.00     0.316 HD
ENDROOT
TORSDOF 0
ENDMDL
MODEL 6
REMARK VINA RESULT:      -3.1     17.820     18.773
REMARK  0 active torsions:
REMARK  status: ('A' for Active; 'I' for Inactive)
ROOT
HETATM    1  C1  UNL     1     -35.128  16.055  -6.314  1.00 20.00     0.280 C 
HETATM    2  C2  UNL     1     -35.577  14.601  -6.382  1.00 20.00     0.104 C 
HETATM    3  C3  UNL     1     -34.852  14.544  -3.746  1.00 20.00     0.114 C 
HETATM    4  C4  UNL     1     -34.413  16.011  -3.946  1.00 20.00     0.159 C 
HETATM    5  C5  UNL     1     -33.129  16.239  -3.119  1.00 20.00     0.049 C 
HETATM    6  C6  UNL     1     -35.475  17.004  -3.431  1.00 20.00     0.049 C 
HETATM    7  N7  UNL     1     -34.055  16.291  -5.349  1.00 20.00     0.093 N 
HETATM    8  S8  UNL     1     -36.251  14.045  -4.794  1.00 20.00    -0.165 SA
HETATM    9  H21 UNL     1     -33.246  15.731  -5.610  1.00 20.00     0.316 HD
ENDROOT
TORSDOF 0
ENDMDL
MODEL 7
REMARK VINA RESULT:      -3.1     17.330     18.314
REMARK  0 active torsions:
REMARK  status: ('A' for Active; 'I' for Inactive)
ROOT
HETATM    1  C1  UNL     1     -35.809  16.775  -2.516  1.00 20.00     0.280 C 
HETATM    2  C2  UNL     1     -34.390  16.627  -1.982  1.00 20.00     0.104 C 
HETATM    3  C3  UNL     1     -34.147  14.733  -3.939  1.00 20.00     0.114 C 
HETATM    4  C4  UNL     1     -35.629  15.026  -4.257  1.00 20.00     0.159 C 
HETATM    5  C5  UNL     1     -36.307  13.690  -4.631  1.00 20.00     0.049 C 
HETATM    6  C6  UNL     1     -35.782  15.974  -5.464  1.00 20.00     0.049 C 
HETATM    7  N7  UNL     1     -36.352  15.539  -3.079  1.00 20.00     0.093 N 
HETATM    8  S8  UNL     1     -33.234  16.170  -3.300  1.00 20.00    -0.165 SA
HETATM    9  H21 UNL     1     -36.369  14.825  -2.354  1.00 20.00     0.316 HD
ENDROOT
TORSDOF 0
ENDMDL
MODEL 8
REMARK VINA RESULT:      -3.1     16.028     17.054
REMARK  0 active torsions:
REMARK  status: ('A' for Active; 'I' for Inactive)
ROOT
HETATM    1  C1  UNL     1     -35.413  17.121  -1.414  1.00 20.00     0.280 C 
HETATM    2  C2  UNL     1     -34.039  17.631  -0.998  1.00 20.00     0.104 C 
HETATM    3  C3  UNL     1     -33.162  16.211  -3.163  1.00 20.00     0.114 C 
HETATM    4  C4  UNL     1     -34.635  15.784  -3.345  1.00 20.00     0.159 C 
HETATM    5  C5  UNL     1     -34.648  14.313  -3.816  1.00 20.00     0.049 C 
HETATM    6  C6  UNL     1     -35.348  16.620  -4.427  1.00 20.00     0.049 C 
HETATM    7  N7  UNL     1     -35.376  15.814  -2.070  1.00 20.00     0.093 N 
HETATM    8  S8  UNL     1     -32.960  17.865  -2.435  1.00 20.00    -0.165 SA
HETATM    9  H21 UNL     1     -34.976  15.133  -1.429  1.00 20.00     0.316 HD
ENDROOT
TORSDOF 0
ENDMDL
MODEL 9
REMARK VINA RESULT:      -3.1     16.805     17.684
REMARK  0 active torsions:
REMARK  status: ('A' for Active; 'I' for Inactive)
ROOT
HETATM    1  C1  UNL     1     -33.809  14.723  -4.657  1.00 20.00     0.280 C 
HETATM    2  C2  UNL     1     -34.584  15.379  -5.792  1.00 20.00     0.104 C 
HETATM    3  C3  UNL     1     -35.226  17.250  -3.905  1.00 20.00     0.114 C 
HETATM    4  C4  UNL     1     -34.422  16.374  -2.918  1.00 20.00     0.159 C 
HETATM    5  C5  UNL     1     -35.148  16.406  -1.556  1.00 20.00     0.049 C 
HETATM    6  C6  UNL     1     -32.998  16.920  -2.694  1.00 20.00     0.049 C 
HETATM    7  N7  UNL     1     -34.394  14.961  -3.337  1.00 20.00     0.093 N 
HETATM    8  S8  UNL     1     -34.614  17.182  -5.615  1.00 20.00    -0.165 SA
HETATM    9  H21 UNL     1     -35.339  14.584  -3.322  1.00 20.00     0.316 HD
ENDROOT
TORSDOF 0
ENDMDL
