MODEL 1
REMARK VINA RESULT:      -3.9      0.000      0.000
REMARK  3 active torsions:
REMARK  status: ('A' for Active; 'I' for Inactive)
REMARK    1  A    between atoms: C2_2  and  N9_9 
REMARK    2  A    between atoms: C3_3  and  C8_8 
REMARK    3  A    between atoms: C7_7  and  C8_8 
ROOT
HETATM    1  C3  UNL     1     -23.687  18.388   9.911  1.00 20.00     0.099 C 
HETATM    2  N9  UNL     1     -24.590  18.362   8.986  1.00 20.00    -0.277 NA
ENDROOT
BRANCH   1   3
HETATM    3  C8  UNL     1     -23.914  17.754  11.282  1.00 20.00    -0.001 C 
HETATM    4  C5  UNL     1     -24.461  16.340  11.026  1.00 20.00     0.021 C 
HETATM    5  C6  UNL     1     -22.616  17.642  12.096  1.00 20.00     0.021 C 
BRANCH   3   6
HETATM    6  C7  UNL     1     -24.989  18.567  12.032  1.00 20.00     0.129 C 
HETATM    7 CL10 UNL     1     -26.593  17.784  12.033  1.00 20.00    -0.129 Cl
ENDBRANCH   3   6
ENDBRANCH   1   3
BRANCH   2   8
HETATM    8  C2  UNL     1     -24.243  18.969   7.817  1.00 20.00     0.111 C 
HETATM    9  C1  UNL     1     -25.124  19.261   6.852  1.00 20.00    -0.012 C 
HETATM   10  C4  UNL     1     -26.583  18.958   6.938  1.00 20.00     0.037 C 
ENDBRANCH   2   8
TORSDOF 3
ENDMDL
MODEL 2
REMARK VINA RESULT:      -3.7     15.328     16.351
REMARK  3 active torsions:
REMARK  status: ('A' for Active; 'I' for Inactive)
REMARK    1  A    between atoms: C2_2  and  N9_9 
REMARK    2  A    between atoms: C3_3  and  C8_8 
REMARK    3  A    between atoms: C7_7  and  C8_8 
ROOT
HETATM    1  C3  UNL     1     -33.537   6.505   3.727  1.00 20.00     0.099 C 
HETATM    2  N9  UNL     1     -33.050   6.489   2.529  1.00 20.00    -0.277 NA
ENDROOT
BRANCH   1   3
HETATM    3  C8  UNL     1     -34.496   5.426   4.226  1.00 20.00    -0.001 C 
HETATM    4  C5  UNL     1     -35.879   5.766   3.646  1.00 20.00     0.021 C 
HETATM    5  C6  UNL     1     -34.093   4.021   3.750  1.00 20.00     0.021 C 
BRANCH   3   6
HETATM    6  C7  UNL     1     -34.574   5.506   5.764  1.00 20.00     0.129 C 
HETATM    7 CL10 UNL     1     -33.970   7.051   6.421  1.00 20.00    -0.129 Cl
ENDBRANCH   3   6
ENDBRANCH   1   3
BRANCH   2   8
HETATM    8  C2  UNL     1     -32.210   7.516   2.228  1.00 20.00     0.111 C 
HETATM    9  C1  UNL     1     -32.340   8.276   1.134  1.00 20.00    -0.012 C 
HETATM   10  C4  UNL     1     -33.417   8.090   0.116  1.00 20.00     0.037 C 
ENDBRANCH   2   8
TORSDOF 3
ENDMDL
MODEL 3
REMARK VINA RESULT:      -3.6      1.835      2.796
REMARK  3 active torsions:
REMARK  status: ('A' for Active; 'I' for Inactive)
REMARK    1  A    between atoms: C2_2  and  N9_9 
REMARK    2  A    between atoms: C3_3  and  C8_8 
REMARK    3  A    between atoms: C7_7  and  C8_8 
ROOT
HETATM    1  C3  UNL     1     -24.754  18.037  10.107  1.00 20.00     0.099 C 
HETATM    2  N9  UNL     1     -23.940  18.862   9.533  1.00 20.00    -0.277 NA
ENDROOT
BRANCH   1   3
HETATM    3  C8  UNL     1     -25.100  18.141  11.590  1.00 20.00    -0.001 C 
HETATM    4  C5  UNL     1     -23.788  18.459  12.326  1.00 20.00     0.021 C 
HETATM    5  C6  UNL     1     -26.111  19.262  11.877  1.00 20.00     0.021 C 
BRANCH   3   6
HETATM    6  C7  UNL     1     -25.616  16.771  12.076  1.00 20.00     0.129 C 
HETATM    7 CL10 UNL     1     -24.412  15.464  11.907  1.00 20.00    -0.129 Cl
ENDBRANCH   3   6
ENDBRANCH   1   3
BRANCH   2   8
HETATM    8  C2  UNL     1     -23.729  18.643   8.206  1.00 20.00     0.111 C 
HETATM    9  C1  UNL     1     -22.672  17.973   7.730  1.00 20.00    -0.012 C 
HETATM   10  C4  UNL     1     -21.602  17.388   8.592  1.00 20.00     0.037 C 
ENDBRANCH   2   8
TORSDOF 3
ENDMDL
MODEL 4
REMARK VINA RESULT:      -3.6     15.157     17.490
REMARK  3 active torsions:
REMARK  status: ('A' for Active; 'I' for Inactive)
REMARK    1  A    between atoms: C2_2  and  N9_9 
REMARK    2  A    between atoms: C3_3  and  C8_8 
REMARK    3  A    between atoms: C7_7  and  C8_8 
ROOT
HETATM    1  C3  UNL     1     -35.264  15.879  -3.462  1.00 20.00     0.099 C 
HETATM    2  N9  UNL     1     -34.777  15.746  -2.272  1.00 20.00    -0.277 NA
ENDROOT
BRANCH   1   3
HETATM    3  C8  UNL     1     -35.017  14.845  -4.558  1.00 20.00    -0.001 C 
HETATM    4  C5  UNL     1     -33.564  14.369  -4.394  1.00 20.00     0.021 C 
HETATM    5  C6  UNL     1     -35.951  13.630  -4.436  1.00 20.00     0.021 C 
BRANCH   3   6
HETATM    6  C7  UNL     1     -35.156  15.534  -5.931  1.00 20.00     0.129 C 
HETATM    7 CL10 UNL     1     -33.868  15.081  -7.081  1.00 20.00    -0.129 Cl
ENDBRANCH   3   6
ENDBRANCH   1   3
BRANCH   2   8
HETATM    8  C2  UNL     1     -35.081  16.748  -1.403  1.00 20.00     0.111 C 
HETATM    9  C1  UNL     1     -34.213  17.704  -1.049  1.00 20.00    -0.012 C 
HETATM   10  C4  UNL     1     -32.813  17.786  -1.562  1.00 20.00     0.037 C 
ENDBRANCH   2   8
TORSDOF 3
ENDMDL
MODEL 5
REMARK VINA RESULT:      -3.6     12.553     15.376
REMARK  3 active torsions:
REMARK  status: ('A' for Active; 'I' for Inactive)
REMARK    1  A    between atoms: C2_2  and  N9_9 
REMARK    2  A    between atoms: C3_3  and  C8_8 
REMARK    3  A    between atoms: C7_7  and  C8_8 
ROOT
HETATM    1  C3  UNL     1     -32.897  17.435  -2.624  1.00 20.00     0.099 C 
HETATM    2  N9  UNL     1     -32.761  17.753  -1.378  1.00 20.00    -0.277 NA
ENDROOT
BRANCH   1   3
HETATM    3  C8  UNL     1     -34.074  16.600  -3.123  1.00 20.00    -0.001 C 
HETATM    4  C5  UNL     1     -34.878  16.187  -1.879  1.00 20.00     0.021 C 
HETATM    5  C6  UNL     1     -34.994  17.393  -4.065  1.00 20.00     0.021 C 
BRANCH   3   6
HETATM    6  C7  UNL     1     -33.527  15.327  -3.800  1.00 20.00     0.129 C 
HETATM    7 CL10 UNL     1     -34.716  13.996  -3.862  1.00 20.00    -0.129 Cl
ENDBRANCH   3   6
ENDBRANCH   1   3
BRANCH   2   8
HETATM    8  C2  UNL     1     -31.662  18.500  -1.084  1.00 20.00     0.111 C 
HETATM    9  C1  UNL     1     -31.285  18.791   0.167  1.00 20.00    -0.012 C 
HETATM   10  C4  UNL     1     -32.020  18.336   1.384  1.00 20.00     0.037 C 
ENDBRANCH   2   8
TORSDOF 3
ENDMDL
MODEL 6
REMARK VINA RESULT:      -3.5      2.602      3.934
REMARK  3 active torsions:
REMARK  status: ('A' for Active; 'I' for Inactive)
REMARK    1  A    between atoms: C2_2  and  N9_9 
REMARK    2  A    between atoms: C3_3  and  C8_8 
REMARK    3  A    between atoms: C7_7  and  C8_8 
ROOT
HETATM    1  C3  UNL     1     -23.702  17.346  10.441  1.00 20.00     0.099 C 
HETATM    2  N9  UNL     1     -23.963  17.904  11.578  1.00 20.00    -0.277 NA
ENDROOT
BRANCH   1   3
HETATM    3  C8  UNL     1     -22.569  17.834   9.541  1.00 20.00    -0.001 C 
HETATM    4  C5  UNL     1     -21.349  18.051  10.451  1.00 20.00     0.021 C 
HETATM    5  C6  UNL     1     -22.201  16.809   8.458  1.00 20.00     0.021 C 
BRANCH   3   6
HETATM    6  C7  UNL     1     -22.972  19.191   8.928  1.00 20.00     0.129 C 
HETATM    7 CL10 UNL     1     -24.539  19.141   8.074  1.00 20.00    -0.129 Cl
ENDBRANCH   3   6
ENDBRANCH   1   3
BRANCH   2   8
HETATM    8  C2  UNL     1     -25.002  17.359  12.269  1.00 20.00     0.111 C 
HETATM    9  C1  UNL     1     -26.217  17.919  12.332  1.00 20.00    -0.012 C 
HETATM   10  C4  UNL     1     -26.577  19.201  11.657  1.00 20.00     0.037 C 
ENDBRANCH   2   8
TORSDOF 3
ENDMDL
MODEL 7
REMARK VINA RESULT:      -3.5     23.421     25.183
REMARK  3 active torsions:
REMARK  status: ('A' for Active; 'I' for Inactive)
REMARK    1  A    between atoms: C2_2  and  N9_9 
REMARK    2  A    between atoms: C3_3  and  C8_8 
REMARK    3  A    between atoms: C7_7  and  C8_8 
ROOT
HETATM    1  C3  UNL     1     -43.134   4.803  -1.468  1.00 20.00     0.099 C 
HETATM    2  N9  UNL     1     -42.567   3.944  -2.250  1.00 20.00    -0.277 NA
ENDROOT
BRANCH   1   3
HETATM    3  C8  UNL     1     -42.326   5.770  -0.605  1.00 20.00    -0.001 C 
HETATM    4  C5  UNL     1     -42.673   5.448   0.858  1.00 20.00     0.021 C 
HETATM    5  C6  UNL     1     -40.811   5.601  -0.802  1.00 20.00     0.021 C 
BRANCH   3   6
HETATM    6  C7  UNL     1     -42.784   7.211  -0.913  1.00 20.00     0.129 C 
HETATM    7 CL10 UNL     1     -41.524   8.434  -0.594  1.00 20.00    -0.129 Cl
ENDBRANCH   3   6
ENDBRANCH   1   3
BRANCH   2   8
HETATM    8  C2  UNL     1     -43.417   3.150  -2.957  1.00 20.00     0.111 C 
HETATM    9  C1  UNL     1     -43.036   2.420  -4.012  1.00 20.00    -0.012 C 
HETATM   10  C4  UNL     1     -41.639   2.390  -4.540  1.00 20.00     0.037 C 
ENDBRANCH   2   8
TORSDOF 3
ENDMDL
MODEL 8
REMARK VINA RESULT:      -3.4     13.679     16.068
REMARK  3 active torsions:
REMARK  status: ('A' for Active; 'I' for Inactive)
REMARK    1  A    between atoms: C2_2  and  N9_9 
REMARK    2  A    between atoms: C3_3  and  C8_8 
REMARK    3  A    between atoms: C7_7  and  C8_8 
ROOT
HETATM    1  C3  UNL     1     -32.952  17.041  -3.145  1.00 20.00     0.099 C 
HETATM    2  N9  UNL     1     -32.997  17.372  -1.896  1.00 20.00    -0.277 NA
ENDROOT
BRANCH   1   3
HETATM    3  C8  UNL     1     -33.915  16.020  -3.747  1.00 20.00    -0.001 C 
HETATM    4  C5  UNL     1     -33.062  14.816  -4.181  1.00 20.00     0.021 C 
HETATM    5  C6  UNL     1     -34.966  15.541  -2.734  1.00 20.00     0.021 C 
BRANCH   3   6
HETATM    6  C7  UNL     1     -34.570  16.635  -5.000  1.00 20.00     0.129 C 
HETATM    7 CL10 UNL     1     -34.524  15.556  -6.421  1.00 20.00    -0.129 Cl
ENDBRANCH   3   6
ENDBRANCH   1   3
BRANCH   2   8
HETATM    8  C2  UNL     1     -32.075  18.295  -1.504  1.00 20.00     0.111 C 
HETATM    9  C1  UNL     1     -32.037  18.819  -0.273  1.00 20.00    -0.012 C 
HETATM   10  C4  UNL     1     -32.994  18.457   0.814  1.00 20.00     0.037 C 
ENDBRANCH   2   8
TORSDOF 3
ENDMDL
MODEL 9
REMARK VINA RESULT:      -3.4     14.972     17.401
REMARK  3 active torsions:
REMARK  status: ('A' for Active; 'I' for Inactive)
REMARK    1  A    between atoms: C2_2  and  N9_9 
REMARK    2  A    between atoms: C3_3  and  C8_8 
REMARK    3  A    between atoms: C7_7  and  C8_8 
ROOT
HETATM    1  C3  UNL     1     -35.389  15.857  -3.368  1.00 20.00     0.099 C 
HETATM    2  N9  UNL     1     -34.770  15.825  -2.233  1.00 20.00    -0.277 NA
ENDROOT
BRANCH   1   3
HETATM    3  C8  UNL     1     -35.071  14.873  -4.491  1.00 20.00    -0.001 C 
HETATM    4  C5  UNL     1     -35.127  15.672  -5.804  1.00 20.00     0.021 C 
HETATM    5  C6  UNL     1     -33.670  14.256  -4.349  1.00 20.00     0.021 C 
BRANCH   3   6
HETATM    6  C7  UNL     1     -36.169  13.790  -4.527  1.00 20.00     0.129 C 
HETATM    7 CL10 UNL     1     -37.810  14.443  -4.269  1.00 20.00    -0.129 Cl
ENDBRANCH   3   6
ENDBRANCH   1   3
BRANCH   2   8
HETATM    8  C2  UNL     1     -35.161  16.765  -1.329  1.00 20.00     0.111 C 
HETATM    9  C1  UNL     1     -34.352  17.730  -0.875  1.00 20.00    -0.012 C 
HETATM   10  C4  UNL     1     -32.930  17.891  -1.302  1.00 20.00     0.037 C 
ENDBRANCH   2   8
TORSDOF 3
ENDMDL
