MODEL 1
REMARK VINA RESULT:      -5.2      0.000      0.000
REMARK  1 active torsions:
REMARK  status: ('A' for Active; 'I' for Inactive)
REMARK    1  A    between atoms: C5_5  and  C8_8 
ROOT
HETATM    1  C1  UNL     1     -37.268  14.419  -4.452  1.00 20.00     0.052 C 
HETATM    2  C2  UNL     1     -37.454  15.701  -4.105  1.00 20.00    -0.080 C 
HETATM    3  C3  UNL     1     -35.954  13.762  -4.239  1.00 20.00     0.150 C 
HETATM    4  C6  UNL     1     -36.391  16.532  -3.430  1.00 20.00     0.043 C 
HETATM    5  C7  UNL     1     -34.806  14.597  -3.718  1.00 20.00     0.092 C 
HETATM    6  C8  UNL     1     -35.306  15.677  -2.759  1.00 20.00     0.024 C 
HETATM    7  C9  UNL     1     -38.754  16.400  -4.378  1.00 20.00     0.043 C 
HETATM    8  O11 UNL     1     -35.805  12.581  -4.548  1.00 20.00    -0.293 OA
ENDROOT
BRANCH   6   9
HETATM    9  C5  UNL     1     -34.174  16.530  -2.272  1.00 20.00    -0.088 C 
HETATM   10  C4  UNL     1     -32.994  16.574  -2.908  1.00 20.00     0.014 C 
HETATM   11  C10 UNL     1     -34.437  17.334  -1.033  1.00 20.00     0.043 C 
ENDBRANCH   6   9
TORSDOF 1
ENDMDL
MODEL 2
REMARK VINA RESULT:      -5.1      1.761      2.448
REMARK  1 active torsions:
REMARK  status: ('A' for Active; 'I' for Inactive)
REMARK    1  A    between atoms: C5_5  and  C8_8 
ROOT
HETATM    1  C1  UNL     1     -35.820  14.388  -5.898  1.00 20.00     0.052 C 
HETATM    2  C2  UNL     1     -34.664  15.060  -5.999  1.00 20.00    -0.080 C 
HETATM    3  C3  UNL     1     -36.498  14.246  -4.585  1.00 20.00     0.150 C 
HETATM    4  C6  UNL     1     -34.015  15.760  -4.831  1.00 20.00     0.043 C 
HETATM    5  C7  UNL     1     -35.806  14.787  -3.354  1.00 20.00     0.092 C 
HETATM    6  C8  UNL     1     -34.998  16.041  -3.686  1.00 20.00     0.024 C 
HETATM    7  C9  UNL     1     -33.931  15.153  -7.307  1.00 20.00     0.043 C 
HETATM    8  O11 UNL     1     -37.566  13.641  -4.512  1.00 20.00    -0.293 OA
ENDROOT
BRANCH   6   9
HETATM    9  C5  UNL     1     -34.281  16.556  -2.476  1.00 20.00    -0.088 C 
HETATM   10  C4  UNL     1     -32.982  16.892  -2.510  1.00 20.00     0.014 C 
HETATM   11  C10 UNL     1     -35.098  16.676  -1.223  1.00 20.00     0.043 C 
ENDBRANCH   6   9
TORSDOF 1
ENDMDL
MODEL 3
REMARK VINA RESULT:      -5.0      2.878      4.661
REMARK  1 active torsions:
REMARK  status: ('A' for Active; 'I' for Inactive)
REMARK    1  A    between atoms: C5_5  and  C8_8 
ROOT
HETATM    1  C1  UNL     1     -33.791  18.155  -0.873  1.00 20.00     0.052 C 
HETATM    2  C2  UNL     1     -34.813  17.296  -0.736  1.00 20.00    -0.080 C 
HETATM    3  C3  UNL     1     -32.770  17.951  -1.930  1.00 20.00     0.150 C 
HETATM    4  C6  UNL     1     -35.033  16.126  -1.663  1.00 20.00     0.043 C 
HETATM    5  C7  UNL     1     -32.852  16.703  -2.781  1.00 20.00     0.092 C 
HETATM    6  C8  UNL     1     -34.306  16.288  -3.005  1.00 20.00     0.024 C 
HETATM    7  C9  UNL     1     -35.814  17.450   0.372  1.00 20.00     0.043 C 
HETATM    8  O11 UNL     1     -31.849  18.757  -2.052  1.00 20.00    -0.293 OA
ENDROOT
BRANCH   6   9
HETATM    9  C5  UNL     1     -34.387  15.030  -3.815  1.00 20.00    -0.088 C 
HETATM   10  C4  UNL     1     -35.543  14.372  -3.990  1.00 20.00     0.014 C 
HETATM   11  C10 UNL     1     -33.102  14.548  -4.421  1.00 20.00     0.043 C 
ENDBRANCH   6   9
TORSDOF 1
ENDMDL
MODEL 4
REMARK VINA RESULT:      -4.9      1.296      1.921
REMARK  1 active torsions:
REMARK  status: ('A' for Active; 'I' for Inactive)
REMARK    1  A    between atoms: C5_5  and  C8_8 
ROOT
HETATM    1  C1  UNL     1     -35.381  14.064  -4.369  1.00 20.00     0.052 C 
HETATM    2  C2  UNL     1     -36.314  14.907  -3.903  1.00 20.00    -0.080 C 
HETATM    3  C3  UNL     1     -33.944  14.292  -4.075  1.00 20.00     0.150 C 
HETATM    4  C6  UNL     1     -35.990  16.082  -3.013  1.00 20.00     0.043 C 
HETATM    5  C7  UNL     1     -33.551  15.545  -3.326  1.00 20.00     0.092 C 
HETATM    6  C8  UNL     1     -34.628  15.942  -2.318  1.00 20.00     0.024 C 
HETATM    7  C9  UNL     1     -37.764  14.731  -4.250  1.00 20.00     0.043 C 
HETATM    8  O11 UNL     1     -33.102  13.500  -4.496  1.00 20.00    -0.293 OA
ENDROOT
BRANCH   6   9
HETATM    9  C5  UNL     1     -34.258  17.206  -1.603  1.00 20.00    -0.088 C 
HETATM   10  C4  UNL     1     -35.122  17.848  -0.802  1.00 20.00     0.014 C 
HETATM   11  C10 UNL     1     -32.864  17.712  -1.833  1.00 20.00     0.043 C 
ENDBRANCH   6   9
TORSDOF 1
ENDMDL
MODEL 5
REMARK VINA RESULT:      -4.9      2.558      4.839
REMARK  1 active torsions:
REMARK  status: ('A' for Active; 'I' for Inactive)
REMARK    1  A    between atoms: C5_5  and  C8_8 
ROOT
HETATM    1  C1  UNL     1     -34.126  17.971  -0.583  1.00 20.00     0.052 C 
HETATM    2  C2  UNL     1     -33.080  17.734  -1.387  1.00 20.00    -0.080 C 
HETATM    3  C3  UNL     1     -35.439  17.328  -0.841  1.00 20.00     0.150 C 
HETATM    4  C6  UNL     1     -33.137  16.769  -2.547  1.00 20.00     0.043 C 
HETATM    5  C7  UNL     1     -35.595  16.483  -2.085  1.00 20.00     0.092 C 
HETATM    6  C8  UNL     1     -34.290  15.763  -2.426  1.00 20.00     0.024 C 
HETATM    7  C9  UNL     1     -31.766  18.430  -1.180  1.00 20.00     0.043 C 
HETATM    8  O11 UNL     1     -36.384  17.545  -0.085  1.00 20.00    -0.293 OA
ENDROOT
BRANCH   6   9
HETATM    9  C5  UNL     1     -34.433  14.955  -3.679  1.00 20.00    -0.088 C 
HETATM   10  C4  UNL     1     -35.624  14.509  -4.105  1.00 20.00     0.014 C 
HETATM   11  C10 UNL     1     -33.166  14.675  -4.433  1.00 20.00     0.043 C 
ENDBRANCH   6   9
TORSDOF 1
ENDMDL
MODEL 6
REMARK VINA RESULT:      -4.9      2.483      4.667
REMARK  1 active torsions:
REMARK  status: ('A' for Active; 'I' for Inactive)
REMARK    1  A    between atoms: C5_5  and  C8_8 
ROOT
HETATM    1  C1  UNL     1     -34.304  18.040  -0.938  1.00 20.00     0.052 C 
HETATM    2  C2  UNL     1     -33.171  17.693  -1.566  1.00 20.00    -0.080 C 
HETATM    3  C3  UNL     1     -35.600  17.430  -1.328  1.00 20.00     0.150 C 
HETATM    4  C6  UNL     1     -33.118  16.637  -2.642  1.00 20.00     0.043 C 
HETATM    5  C7  UNL     1     -35.627  16.489  -2.511  1.00 20.00     0.092 C 
HETATM    6  C8  UNL     1     -34.327  15.692  -2.606  1.00 20.00     0.024 C 
HETATM    7  C9  UNL     1     -31.864  18.352  -1.231  1.00 20.00     0.043 C 
HETATM    8  O11 UNL     1     -36.627  17.748  -0.731  1.00 20.00    -0.293 OA
ENDROOT
BRANCH   6   9
HETATM    9  C5  UNL     1     -34.337  14.787  -3.800  1.00 20.00    -0.088 C 
HETATM   10  C4  UNL     1     -33.229  14.547  -4.519  1.00 20.00     0.014 C 
HETATM   11  C10 UNL     1     -35.656  14.162  -4.146  1.00 20.00     0.043 C 
ENDBRANCH   6   9
TORSDOF 1
ENDMDL
MODEL 7
REMARK VINA RESULT:      -4.5      1.352      1.979
REMARK  1 active torsions:
REMARK  status: ('A' for Active; 'I' for Inactive)
REMARK    1  A    between atoms: C5_5  and  C8_8 
ROOT
HETATM    1  C1  UNL     1     -38.075  15.995  -3.906  1.00 20.00     0.052 C 
HETATM    2  C2  UNL     1     -37.381  17.105  -3.614  1.00 20.00    -0.080 C 
HETATM    3  C3  UNL     1     -37.374  14.718  -4.190  1.00 20.00     0.150 C 
HETATM    4  C6  UNL     1     -35.877  17.125  -3.490  1.00 20.00     0.043 C 
HETATM    5  C7  UNL     1     -35.863  14.722  -4.241  1.00 20.00     0.092 C 
HETATM    6  C8  UNL     1     -35.283  15.729  -3.249  1.00 20.00     0.024 C 
HETATM    7  C9  UNL     1     -38.072  18.419  -3.393  1.00 20.00     0.043 C 
HETATM    8  O11 UNL     1     -38.026  13.706  -4.440  1.00 20.00    -0.293 OA
ENDROOT
BRANCH   6   9
HETATM    9  C5  UNL     1     -33.787  15.762  -3.327  1.00 20.00    -0.088 C 
HETATM   10  C4  UNL     1     -33.060  16.653  -2.636  1.00 20.00     0.014 C 
HETATM   11  C10 UNL     1     -33.148  14.740  -4.220  1.00 20.00     0.043 C 
ENDBRANCH   6   9
TORSDOF 1
ENDMDL
MODEL 8
REMARK VINA RESULT:      -4.5      1.844      2.130
REMARK  1 active torsions:
REMARK  status: ('A' for Active; 'I' for Inactive)
REMARK    1  A    between atoms: C5_5  and  C8_8 
ROOT
HETATM    1  C1  UNL     1     -35.441  15.078  -5.851  1.00 20.00     0.052 C 
HETATM    2  C2  UNL     1     -34.863  16.288  -5.833  1.00 20.00    -0.080 C 
HETATM    3  C3  UNL     1     -35.552  14.276  -4.607  1.00 20.00     0.150 C 
HETATM    4  C6  UNL     1     -34.355  16.937  -4.569  1.00 20.00     0.043 C 
HETATM    5  C7  UNL     1     -34.912  14.809  -3.345  1.00 20.00     0.092 C 
HETATM    6  C8  UNL     1     -34.976  16.335  -3.301  1.00 20.00     0.024 C 
HETATM    7  C9  UNL     1     -34.680  17.081  -7.094  1.00 20.00     0.043 C 
HETATM    8  O11 UNL     1     -36.100  13.175  -4.638  1.00 20.00    -0.293 OA
ENDROOT
BRANCH   6   9
HETATM    9  C5  UNL     1     -34.307  16.866  -2.070  1.00 20.00    -0.088 C 
HETATM   10  C4  UNL     1     -33.022  17.253  -2.071  1.00 20.00     0.014 C 
HETATM   11  C10 UNL     1     -35.157  16.943  -0.836  1.00 20.00     0.043 C 
ENDBRANCH   6   9
TORSDOF 1
ENDMDL
MODEL 9
REMARK VINA RESULT:      -4.5      3.239      4.799
REMARK  1 active torsions:
REMARK  status: ('A' for Active; 'I' for Inactive)
REMARK    1  A    between atoms: C5_5  and  C8_8 
ROOT
HETATM    1  C1  UNL     1     -32.964  16.889  -2.557  1.00 20.00     0.052 C 
HETATM    2  C2  UNL     1     -34.120  16.210  -2.512  1.00 20.00    -0.080 C 
HETATM    3  C3  UNL     1     -32.748  18.070  -1.684  1.00 20.00     0.150 C 
HETATM    4  C6  UNL     1     -35.232  16.544  -1.549  1.00 20.00     0.043 C 
HETATM    5  C7  UNL     1     -33.893  18.547  -0.819  1.00 20.00     0.092 C 
HETATM    6  C8  UNL     1     -34.751  17.373  -0.349  1.00 20.00     0.024 C 
HETATM    7  C9  UNL     1     -34.380  15.056  -3.437  1.00 20.00     0.043 C 
HETATM    8  O11 UNL     1     -31.677  18.672  -1.727  1.00 20.00    -0.293 OA
ENDROOT
BRANCH   6   9
HETATM    9  C5  UNL     1     -35.908  17.847   0.475  1.00 20.00    -0.088 C 
HETATM   10  C4  UNL     1     -35.801  18.055   1.796  1.00 20.00     0.014 C 
HETATM   11  C10 UNL     1     -37.195  18.079  -0.261  1.00 20.00     0.043 C 
ENDBRANCH   6   9
TORSDOF 1
ENDMDL
