MODEL 1
REMARK VINA RESULT:      -5.3      0.000      0.000
REMARK  2 active torsions:
REMARK  status: ('A' for Active; 'I' for Inactive)
REMARK    1  A    between atoms: C4_4  and  C7_7 
REMARK    2  A    between atoms: C5_5  and  O8_8 
ROOT
HETATM    1  C1  UNL     1     -33.542   6.838   5.299  1.00 20.00     0.007 C 
HETATM    2  C2  UNL     1     -34.546   5.807   5.823  1.00 20.00     0.032 C 
HETATM    3  C3  UNL     1     -33.839   5.210   3.578  1.00 20.00     0.036 C 
HETATM    4  C4  UNL     1     -33.573   6.702   3.778  1.00 20.00    -0.012 C 
HETATM    5  C5  UNL     1     -34.889   4.902   4.638  1.00 20.00     0.118 C 
ENDROOT
BRANCH   4   6
HETATM    6  C7  UNL     1     -32.297   7.177   3.108  1.00 20.00     0.000 C 
HETATM    7  C6  UNL     1     -32.539   7.642   1.706  1.00 20.00     0.005 C 
ENDBRANCH   4   6
BRANCH   5   8
HETATM    8  O8  UNL     1     -36.175   5.243   4.127  1.00 20.00    -0.396 OA
HETATM    9  H22 UNL     1     -36.812   5.050   4.831  1.00 20.00     0.210 HD
ENDBRANCH   5   8
TORSDOF 2
ENDMDL
MODEL 2
REMARK VINA RESULT:      -4.9      1.900      3.630
REMARK  2 active torsions:
REMARK  status: ('A' for Active; 'I' for Inactive)
REMARK    1  A    between atoms: C4_4  and  C7_7 
REMARK    2  A    between atoms: C5_5  and  O8_8 
ROOT
HETATM    1  C1  UNL     1     -34.002   5.303   3.515  1.00 20.00     0.007 C 
HETATM    2  C2  UNL     1     -33.134   5.472   2.265  1.00 20.00     0.032 C 
HETATM    3  C3  UNL     1     -32.539   7.146   3.921  1.00 20.00     0.036 C 
HETATM    4  C4  UNL     1     -33.951   6.650   4.232  1.00 20.00    -0.012 C 
HETATM    5  C5  UNL     1     -32.362   6.780   2.452  1.00 20.00     0.118 C 
ENDROOT
BRANCH   4   6
HETATM    6  C7  UNL     1     -34.233   6.548   5.721  1.00 20.00     0.000 C 
HETATM    7  C6  UNL     1     -34.773   5.205   6.099  1.00 20.00     0.005 C 
ENDBRANCH   4   6
BRANCH   5   8
HETATM    8  O8  UNL     1     -32.945   7.802   1.648  1.00 20.00    -0.396 OA
HETATM    9  H22 UNL     1     -32.874   7.505   0.729  1.00 20.00     0.210 HD
ENDBRANCH   5   8
TORSDOF 2
ENDMDL
MODEL 3
REMARK VINA RESULT:      -4.4     11.528     12.217
REMARK  2 active torsions:
REMARK  status: ('A' for Active; 'I' for Inactive)
REMARK    1  A    between atoms: C4_4  and  C7_7 
REMARK    2  A    between atoms: C5_5  and  O8_8 
ROOT
HETATM    1  C1  UNL     1     -34.291  15.273  -5.585  1.00 20.00     0.007 C 
HETATM    2  C2  UNL     1     -35.569  14.508  -5.939  1.00 20.00     0.032 C 
HETATM    3  C3  UNL     1     -35.372  14.722  -3.528  1.00 20.00     0.036 C 
HETATM    4  C4  UNL     1     -33.981  14.902  -4.136  1.00 20.00    -0.012 C 
HETATM    5  C5  UNL     1     -36.130  13.976  -4.619  1.00 20.00     0.118 C 
ENDROOT
BRANCH   4   6
HETATM    6  C7  UNL     1     -33.145  15.944  -3.416  1.00 20.00     0.000 C 
HETATM    7  C6  UNL     1     -33.886  16.566  -2.274  1.00 20.00     0.005 C 
ENDBRANCH   4   6
BRANCH   5   8
HETATM    8  O8  UNL     1     -35.853  12.583  -4.504  1.00 20.00    -0.396 OA
HETATM    9  H22 UNL     1     -35.126  12.497  -3.870  1.00 20.00     0.210 HD
ENDBRANCH   5   8
TORSDOF 2
ENDMDL
MODEL 4
REMARK VINA RESULT:      -4.3      1.169      1.812
REMARK  2 active torsions:
REMARK  status: ('A' for Active; 'I' for Inactive)
REMARK    1  A    between atoms: C4_4  and  C7_7 
REMARK    2  A    between atoms: C5_5  and  O8_8 
ROOT
HETATM    1  C1  UNL     1     -33.644   5.312   2.996  1.00 20.00     0.007 C 
HETATM    2  C2  UNL     1     -34.769   4.704   3.839  1.00 20.00     0.032 C 
HETATM    3  C3  UNL     1     -34.095   6.843   4.772  1.00 20.00     0.036 C 
HETATM    4  C4  UNL     1     -32.948   6.318   3.909  1.00 20.00    -0.012 C 
HETATM    5  C5  UNL     1     -34.894   5.584   5.085  1.00 20.00     0.118 C 
ENDROOT
BRANCH   4   6
HETATM    6  C7  UNL     1     -32.222   7.415   3.150  1.00 20.00     0.000 C 
HETATM    7  C6  UNL     1     -32.591   7.432   1.700  1.00 20.00     0.005 C 
ENDBRANCH   4   6
BRANCH   5   8
HETATM    8  O8  UNL     1     -34.299   4.925   6.200  1.00 20.00    -0.396 OA
HETATM    9  H22 UNL     1     -34.661   4.027   6.216  1.00 20.00     0.210 HD
ENDBRANCH   5   8
TORSDOF 2
ENDMDL
MODEL 5
REMARK VINA RESULT:      -4.2     15.695     16.394
REMARK  2 active torsions:
REMARK  status: ('A' for Active; 'I' for Inactive)
REMARK    1  A    between atoms: C4_4  and  C7_7 
REMARK    2  A    between atoms: C5_5  and  O8_8 
ROOT
HETATM    1  C1  UNL     1     -24.550  18.127  10.316  1.00 20.00     0.007 C 
HETATM    2  C2  UNL     1     -23.997  16.709  10.145  1.00 20.00     0.032 C 
HETATM    3  C3  UNL     1     -25.549  16.773  12.012  1.00 20.00     0.036 C 
HETATM    4  C4  UNL     1     -25.054  18.196  11.757  1.00 20.00    -0.012 C 
HETATM    5  C5  UNL     1     -24.473  15.913  11.361  1.00 20.00     0.118 C 
ENDROOT
BRANCH   4   6
HETATM    6  C7  UNL     1     -26.127  19.249  11.967  1.00 20.00     0.000 C 
HETATM    7  C6  UNL     1     -27.502  18.697  11.757  1.00 20.00     0.005 C 
ENDBRANCH   4   6
BRANCH   5   8
HETATM    8  O8  UNL     1     -23.396  15.748  12.280  1.00 20.00    -0.396 OA
HETATM    9  H22 UNL     1     -22.989  14.893  12.078  1.00 20.00     0.210 HD
ENDBRANCH   5   8
TORSDOF 2
ENDMDL
MODEL 6
REMARK VINA RESULT:      -4.2     11.465     12.070
REMARK  2 active torsions:
REMARK  status: ('A' for Active; 'I' for Inactive)
REMARK    1  A    between atoms: C4_4  and  C7_7 
REMARK    2  A    between atoms: C5_5  and  O8_8 
ROOT
HETATM    1  C1  UNL     1     -33.835  15.347  -4.088  1.00 20.00     0.007 C 
HETATM    2  C2  UNL     1     -34.371  14.555  -5.285  1.00 20.00     0.032 C 
HETATM    3  C3  UNL     1     -36.179  15.049  -3.740  1.00 20.00     0.036 C 
HETATM    4  C4  UNL     1     -34.860  15.145  -2.974  1.00 20.00    -0.012 C 
HETATM    5  C5  UNL     1     -35.816  14.186  -4.942  1.00 20.00     0.118 C 
ENDROOT
BRANCH   4   6
HETATM    6  C7  UNL     1     -34.849  16.258  -1.941  1.00 20.00     0.000 C 
HETATM    7  C6  UNL     1     -33.610  17.091  -2.027  1.00 20.00     0.005 C 
ENDBRANCH   4   6
BRANCH   5   8
HETATM    8  O8  UNL     1     -35.886  12.814  -4.564  1.00 20.00    -0.396 OA
HETATM    9  H22 UNL     1     -36.808  12.541  -4.684  1.00 20.00     0.210 HD
ENDBRANCH   5   8
TORSDOF 2
ENDMDL
MODEL 7
REMARK VINA RESULT:      -4.2     16.275     17.017
REMARK  2 active torsions:
REMARK  status: ('A' for Active; 'I' for Inactive)
REMARK    1  A    between atoms: C4_4  and  C7_7 
REMARK    2  A    between atoms: C5_5  and  O8_8 
ROOT
HETATM    1  C1  UNL     1     -23.186  17.739  12.230  1.00 20.00     0.007 C 
HETATM    2  C2  UNL     1     -22.134  17.781  11.119  1.00 20.00     0.032 C 
HETATM    3  C3  UNL     1     -24.361  17.735  10.150  1.00 20.00     0.036 C 
HETATM    4  C4  UNL     1     -24.450  17.186  11.574  1.00 20.00    -0.012 C 
HETATM    5  C5  UNL     1     -22.887  17.558   9.806  1.00 20.00     0.118 C 
ENDROOT
BRANCH   4   6
HETATM    6  C7  UNL     1     -25.725  17.592  12.292  1.00 20.00     0.000 C 
HETATM    7  C6  UNL     1     -26.111  19.006  11.992  1.00 20.00     0.005 C 
ENDBRANCH   4   6
BRANCH   5   8
HETATM    8  O8  UNL     1     -22.676  16.224   9.351  1.00 20.00    -0.396 OA
HETATM    9  H22 UNL     1     -23.546  15.877   9.101  1.00 20.00     0.210 HD
ENDBRANCH   5   8
TORSDOF 2
ENDMDL
MODEL 8
REMARK VINA RESULT:      -4.2     11.374     12.039
REMARK  2 active torsions:
REMARK  status: ('A' for Active; 'I' for Inactive)
REMARK    1  A    between atoms: C4_4  and  C7_7 
REMARK    2  A    between atoms: C5_5  and  O8_8 
ROOT
HETATM    1  C1  UNL     1     -34.890  14.121  -3.819  1.00 20.00     0.007 C 
HETATM    2  C2  UNL     1     -36.101  13.738  -4.675  1.00 20.00     0.032 C 
HETATM    3  C3  UNL     1     -36.376  15.990  -3.806  1.00 20.00     0.036 C 
HETATM    4  C4  UNL     1     -35.369  15.258  -2.920  1.00 20.00    -0.012 C 
HETATM    5  C5  UNL     1     -37.133  14.851  -4.478  1.00 20.00     0.118 C 
ENDROOT
BRANCH   4   6
HETATM    6  C7  UNL     1     -34.242  16.152  -2.433  1.00 20.00     0.000 C 
HETATM    7  C6  UNL     1     -33.062  16.118  -3.351  1.00 20.00     0.005 C 
ENDBRANCH   4   6
BRANCH   5   8
HETATM    8  O8  UNL     1     -38.164  14.401  -3.603  1.00 20.00    -0.396 OA
HETATM    9  H22 UNL     1     -38.100  13.435  -3.573  1.00 20.00     0.210 HD
ENDBRANCH   5   8
TORSDOF 2
ENDMDL
MODEL 9
REMARK VINA RESULT:      -4.1     16.147     16.812
REMARK  2 active torsions:
REMARK  status: ('A' for Active; 'I' for Inactive)
REMARK    1  A    between atoms: C4_4  and  C7_7 
REMARK    2  A    between atoms: C5_5  and  O8_8 
ROOT
HETATM    1  C1  UNL     1     -25.003  18.459  10.870  1.00 20.00     0.007 C 
HETATM    2  C2  UNL     1     -24.597  17.975  12.265  1.00 20.00     0.032 C 
HETATM    3  C3  UNL     1     -22.707  17.813  10.747  1.00 20.00     0.036 C 
HETATM    4  C4  UNL     1     -23.987  17.842   9.912  1.00 20.00    -0.012 C 
HETATM    5  C5  UNL     1     -23.201  17.365  12.117  1.00 20.00     0.118 C 
ENDROOT
BRANCH   4   6
HETATM    6  C7  UNL     1     -23.837  18.618   8.616  1.00 20.00     0.000 C 
HETATM    7  C6  UNL     1     -25.159  18.904   7.976  1.00 20.00     0.005 C 
ENDBRANCH   4   6
BRANCH   5   8
HETATM    8  O8  UNL     1     -23.293  15.943  12.132  1.00 20.00    -0.396 OA
HETATM    9  H22 UNL     1     -23.911  15.698  11.426  1.00 20.00     0.210 HD
ENDBRANCH   5   8
TORSDOF 2
ENDMDL
