MODEL 1
REMARK VINA RESULT:      -4.6      0.000      0.000
REMARK  1 active torsions:
REMARK  status: ('A' for Active; 'I' for Inactive)
REMARK    1  A    between atoms: C1_1  and  C8_8 
ROOT
HETATM    1  C2  UNL     1     -34.594  17.640  -3.541  1.00 20.00     0.000 C 
HETATM    2  C3  UNL     1     -34.510  17.330  -5.031  1.00 20.00     0.001 C 
HETATM    3  C4  UNL     1     -33.942  16.535  -2.717  1.00 20.00     0.006 C 
HETATM    4  C5  UNL     1     -35.324  16.085  -5.377  1.00 20.00     0.019 C 
HETATM    5  C6  UNL     1     -33.688  14.431  -4.204  1.00 20.00     0.025 A 
HETATM    6  C7  UNL     1     -34.414  15.166  -3.108  1.00 20.00     0.004 A 
HETATM    7  C8  UNL     1     -35.104  14.911  -4.441  1.00 20.00     0.040 A 
ENDROOT
BRANCH   7   8
HETATM    8  C1  UNL     1     -36.150  13.859  -4.457  1.00 20.00     0.228 C 
HETATM    9  O9  UNL     1     -35.866  12.670  -4.558  1.00 20.00    -0.279 OA
HETATM   10 CL10 UNL     1     -37.748  14.524  -4.320  1.00 20.00    -0.043 Cl
ENDBRANCH   7   8
TORSDOF 1
ENDMDL
MODEL 2
REMARK VINA RESULT:      -4.6     18.082     18.865
REMARK  1 active torsions:
REMARK  status: ('A' for Active; 'I' for Inactive)
REMARK    1  A    between atoms: C1_1  and  C8_8 
ROOT
HETATM    1  C2  UNL     1     -25.811  16.551  11.966  1.00 20.00     0.000 C 
HETATM    2  C3  UNL     1     -25.666  18.024  12.331  1.00 20.00     0.001 C 
HETATM    3  C4  UNL     1     -24.447  15.900  11.771  1.00 20.00     0.006 C 
HETATM    4  C5  UNL     1     -25.043  18.812  11.181  1.00 20.00     0.019 C 
HETATM    5  C6  UNL     1     -22.675  17.762  11.462  1.00 20.00     0.025 A 
HETATM    6  C7  UNL     1     -23.551  16.692  10.866  1.00 20.00     0.004 A 
HETATM    7  C8  UNL     1     -23.824  18.158  10.559  1.00 20.00     0.040 A 
ENDROOT
BRANCH   7   8
HETATM    8  C1  UNL     1     -23.447  18.634   9.205  1.00 20.00     0.228 C 
HETATM    9  O9  UNL     1     -22.311  19.024   8.952  1.00 20.00    -0.279 OA
HETATM   10 CL10 UNL     1     -24.779  18.563   8.093  1.00 20.00    -0.043 Cl
ENDBRANCH   7   8
TORSDOF 1
ENDMDL
MODEL 3
REMARK VINA RESULT:      -4.2     10.803     12.268
REMARK  1 active torsions:
REMARK  status: ('A' for Active; 'I' for Inactive)
REMARK    1  A    between atoms: C1_1  and  C8_8 
ROOT
HETATM    1  C2  UNL     1     -43.048   4.746  -0.793  1.00 20.00     0.000 C 
HETATM    2  C3  UNL     1     -43.304   5.068   0.675  1.00 20.00     0.001 C 
HETATM    3  C4  UNL     1     -41.660   5.210  -1.219  1.00 20.00     0.006 C 
HETATM    4  C5  UNL     1     -43.335   6.578   0.905  1.00 20.00     0.019 C 
HETATM    5  C6  UNL     1     -40.776   6.901   0.531  1.00 20.00     0.025 A 
HETATM    6  C7  UNL     1     -41.377   6.628  -0.822  1.00 20.00     0.004 A 
HETATM    7  C8  UNL     1     -42.198   7.337   0.246  1.00 20.00     0.040 A 
ENDROOT
BRANCH   7   8
HETATM    8  C1  UNL     1     -42.404   8.795   0.068  1.00 20.00     0.228 C 
HETATM    9  O9  UNL     1     -43.417   9.243  -0.459  1.00 20.00    -0.279 OA
HETATM   10 CL10 UNL     1     -41.071   9.723   0.683  1.00 20.00    -0.043 Cl
ENDBRANCH   7   8
TORSDOF 1
ENDMDL
MODEL 4
REMARK VINA RESULT:      -4.2      1.570      1.843
REMARK  1 active torsions:
REMARK  status: ('A' for Active; 'I' for Inactive)
REMARK    1  A    between atoms: C1_1  and  C8_8 
ROOT
HETATM    1  C2  UNL     1     -36.417  17.609  -2.574  1.00 20.00     0.000 C 
HETATM    2  C3  UNL     1     -35.798  17.929  -3.930  1.00 20.00     0.001 C 
HETATM    3  C4  UNL     1     -35.377  17.024  -1.624  1.00 20.00     0.006 C 
HETATM    4  C5  UNL     1     -35.335  16.654  -4.632  1.00 20.00     0.019 C 
HETATM    5  C6  UNL     1     -33.339  16.232  -3.012  1.00 20.00     0.025 A 
HETATM    6  C7  UNL     1     -34.592  15.906  -2.243  1.00 20.00     0.004 A 
HETATM    7  C8  UNL     1     -34.549  15.701  -3.751  1.00 20.00     0.040 A 
ENDROOT
BRANCH   7   8
HETATM    8  C1  UNL     1     -34.451  14.301  -4.229  1.00 20.00     0.228 C 
HETATM    9  O9  UNL     1     -33.368  13.777  -4.472  1.00 20.00    -0.279 OA
HETATM   10 CL10 UNL     1     -36.011  13.553  -4.386  1.00 20.00    -0.043 Cl
ENDBRANCH   7   8
TORSDOF 1
ENDMDL
MODEL 5
REMARK VINA RESULT:      -4.2     17.708     18.646
REMARK  1 active torsions:
REMARK  status: ('A' for Active; 'I' for Inactive)
REMARK    1  A    between atoms: C1_1  and  C8_8 
ROOT
HETATM    1  C2  UNL     1     -22.408  18.865   9.006  1.00 20.00     0.000 C 
HETATM    2  C3  UNL     1     -23.731  18.513   8.336  1.00 20.00     0.001 C 
HETATM    3  C4  UNL     1     -22.003  17.792  10.010  1.00 20.00     0.006 C 
HETATM    4  C5  UNL     1     -24.872  18.509   9.350  1.00 20.00     0.019 C 
HETATM    5  C6  UNL     1     -24.076  16.342  10.557  1.00 20.00     0.025 A 
HETATM    6  C7  UNL     1     -23.114  17.431  10.950  1.00 20.00     0.004 A 
HETATM    7  C8  UNL     1     -24.564  17.773  10.640  1.00 20.00     0.040 A 
ENDROOT
BRANCH   7   8
HETATM    8  C1  UNL     1     -25.434  18.093  11.798  1.00 20.00     0.228 C 
HETATM    9  O9  UNL     1     -25.469  19.218  12.287  1.00 20.00    -0.279 OA
HETATM   10 CL10 UNL     1     -26.346  16.715  12.332  1.00 20.00    -0.043 Cl
ENDBRANCH   7   8
TORSDOF 1
ENDMDL
MODEL 6
REMARK VINA RESULT:      -4.2      1.783      2.075
REMARK  1 active torsions:
REMARK  status: ('A' for Active; 'I' for Inactive)
REMARK    1  A    between atoms: C1_1  and  C8_8 
ROOT
HETATM    1  C2  UNL     1     -33.938  16.691  -2.564  1.00 20.00     0.000 C 
HETATM    2  C3  UNL     1     -32.915  15.907  -3.378  1.00 20.00     0.001 C 
HETATM    3  C4  UNL     1     -35.154  15.829  -2.241  1.00 20.00     0.006 C 
HETATM    4  C5  UNL     1     -33.478  15.536  -4.749  1.00 20.00     0.019 C 
HETATM    5  C6  UNL     1     -35.159  13.776  -3.818  1.00 20.00     0.025 A 
HETATM    6  C7  UNL     1     -35.705  15.130  -3.447  1.00 20.00     0.004 A 
HETATM    7  C8  UNL     1     -34.882  14.963  -4.717  1.00 20.00     0.040 A 
ENDROOT
BRANCH   7   8
HETATM    8  C1  UNL     1     -35.627  14.990  -6.000  1.00 20.00     0.228 C 
HETATM    9  O9  UNL     1     -36.000  13.959  -6.551  1.00 20.00    -0.279 OA
HETATM   10 CL10 UNL     1     -35.880  16.609  -6.575  1.00 20.00    -0.043 Cl
ENDBRANCH   7   8
TORSDOF 1
ENDMDL
MODEL 7
REMARK VINA RESULT:      -4.2     18.371     19.386
REMARK  1 active torsions:
REMARK  status: ('A' for Active; 'I' for Inactive)
REMARK    1  A    between atoms: C1_1  and  C8_8 
ROOT
HETATM    1  C2  UNL     1     -25.990  17.793  12.331  1.00 20.00     0.000 C 
HETATM    2  C3  UNL     1     -25.516  16.402  11.925  1.00 20.00     0.001 C 
HETATM    3  C4  UNL     1     -25.868  18.772  11.169  1.00 20.00     0.006 C 
HETATM    4  C5  UNL     1     -24.023  16.407  11.604  1.00 20.00     0.019 C 
HETATM    5  C6  UNL     1     -24.287  17.754   9.389  1.00 20.00     0.025 A 
HETATM    6  C7  UNL     1     -24.519  18.727  10.514  1.00 20.00     0.004 A 
HETATM    7  C8  UNL     1     -23.576  17.549  10.711  1.00 20.00     0.040 A 
ENDROOT
BRANCH   7   8
HETATM    8  C1  UNL     1     -22.124  17.853  10.718  1.00 20.00     0.228 C 
HETATM    9  O9  UNL     1     -21.495  18.017   9.678  1.00 20.00    -0.279 OA
HETATM   10 CL10 UNL     1     -21.483  17.939  12.330  1.00 20.00    -0.043 Cl
ENDBRANCH   7   8
TORSDOF 1
ENDMDL
MODEL 8
REMARK VINA RESULT:      -4.1      1.502      2.592
REMARK  1 active torsions:
REMARK  status: ('A' for Active; 'I' for Inactive)
REMARK    1  A    between atoms: C1_1  and  C8_8 
ROOT
HETATM    1  C2  UNL     1     -33.386  14.550  -4.335  1.00 20.00     0.000 C 
HETATM    2  C3  UNL     1     -33.925  15.493  -3.266  1.00 20.00     0.001 C 
HETATM    3  C4  UNL     1     -33.884  14.952  -5.718  1.00 20.00     0.006 C 
HETATM    4  C5  UNL     1     -35.445  15.383  -3.157  1.00 20.00     0.019 C 
HETATM    5  C6  UNL     1     -35.906  16.545  -5.443  1.00 20.00     0.025 A 
HETATM    6  C7  UNL     1     -35.366  15.176  -5.758  1.00 20.00     0.004 A 
HETATM    7  C8  UNL     1     -36.173  15.401  -4.487  1.00 20.00     0.040 A 
ENDROOT
BRANCH   7   8
HETATM    8  C1  UNL     1     -37.561  14.877  -4.479  1.00 20.00     0.228 C 
HETATM    9  O9  UNL     1     -37.796  13.679  -4.352  1.00 20.00    -0.279 OA
HETATM   10 CL10 UNL     1     -38.738  16.139  -4.666  1.00 20.00    -0.043 Cl
ENDBRANCH   7   8
TORSDOF 1
ENDMDL
MODEL 9
REMARK VINA RESULT:      -4.1     17.837     18.843
REMARK  1 active torsions:
REMARK  status: ('A' for Active; 'I' for Inactive)
REMARK    1  A    between atoms: C1_1  and  C8_8 
ROOT
HETATM    1  C2  UNL     1     -21.491  17.363   8.892  1.00 20.00     0.000 C 
HETATM    2  C3  UNL     1     -21.349  18.120  10.208  1.00 20.00     0.001 C 
HETATM    3  C4  UNL     1     -22.808  17.708   8.205  1.00 20.00     0.006 C 
HETATM    4  C5  UNL     1     -22.414  17.677  11.210  1.00 20.00     0.019 C 
HETATM    5  C6  UNL     1     -24.385  18.809   9.937  1.00 20.00     0.025 A 
HETATM    6  C7  UNL     1     -23.986  17.605   9.126  1.00 20.00     0.004 A 
HETATM    7  C8  UNL     1     -23.817  17.594  10.639  1.00 20.00     0.040 A 
ENDROOT
BRANCH   7   8
HETATM    8  C1  UNL     1     -24.788  16.780  11.411  1.00 20.00     0.228 C 
HETATM    9  O9  UNL     1     -24.639  15.572  11.563  1.00 20.00    -0.279 OA
HETATM   10 CL10 UNL     1     -26.096  17.739  12.032  1.00 20.00    -0.043 Cl
ENDBRANCH   7   8
TORSDOF 1
ENDMDL
