MODEL 1
REMARK VINA RESULT:      -4.9      0.000      0.000
REMARK  2 active torsions:
REMARK  status: ('A' for Active; 'I' for Inactive)
REMARK    1  A    between atoms: C4_4  and  C8_8 
REMARK    2  A    between atoms: C5_5  and  O9_9 
ROOT
HETATM    1  C1  UNL     1     -33.321   7.017   4.953  1.00 20.00     0.007 C 
HETATM    2  C2  UNL     1     -34.195   6.802   6.181  1.00 20.00     0.032 C 
HETATM    3  C3  UNL     1     -35.000   5.363   4.382  1.00 20.00     0.036 C 
HETATM    4  C4  UNL     1     -34.227   6.563   3.812  1.00 20.00    -0.009 C 
HETATM    5  C5  UNL     1     -34.868   5.462   5.905  1.00 20.00     0.118 C 
ENDROOT
BRANCH   4   6
HETATM    6  C8  UNL     1     -33.462   6.233   2.540  1.00 20.00    -0.019 C 
HETATM    7  C6  UNL     1     -32.216   7.110   2.412  1.00 20.00     0.010 C 
HETATM    8  C7  UNL     1     -33.076   4.753   2.505  1.00 20.00     0.010 C 
ENDBRANCH   4   6
BRANCH   5   9
HETATM    9  O9  UNL     1     -34.033   4.402   6.360  1.00 20.00    -0.396 OA
HETATM   10  H25 UNL     1     -34.623   3.714   6.707  1.00 20.00     0.210 HD
ENDBRANCH   5   9
TORSDOF 2
ENDMDL
MODEL 2
REMARK VINA RESULT:      -4.4     11.713     12.816
REMARK  2 active torsions:
REMARK  status: ('A' for Active; 'I' for Inactive)
REMARK    1  A    between atoms: C4_4  and  C8_8 
REMARK    2  A    between atoms: C5_5  and  O9_9 
ROOT
HETATM    1  C1  UNL     1     -35.396  15.976  -4.895  1.00 20.00     0.007 C 
HETATM    2  C2  UNL     1     -36.000  14.972  -5.867  1.00 20.00     0.032 C 
HETATM    3  C3  UNL     1     -35.109  13.764  -3.944  1.00 20.00     0.036 C 
HETATM    4  C4  UNL     1     -34.410  15.124  -4.101  1.00 20.00    -0.009 C 
HETATM    5  C5  UNL     1     -36.210  13.730  -5.009  1.00 20.00     0.118 C 
ENDROOT
BRANCH   4   6
HETATM    6  C8  UNL     1     -34.015  15.752  -2.774  1.00 20.00    -0.019 C 
HETATM    7  C6  UNL     1     -33.080  16.942  -2.992  1.00 20.00     0.010 C 
HETATM    8  C7  UNL     1     -35.253  16.187  -1.988  1.00 20.00     0.010 C 
ENDBRANCH   4   6
BRANCH   5   9
HETATM    9  O9  UNL     1     -37.475  13.804  -4.358  1.00 20.00    -0.396 OA
HETATM   10  H25 UNL     1     -37.607  12.953  -3.912  1.00 20.00     0.210 HD
ENDBRANCH   5   9
TORSDOF 2
ENDMDL
MODEL 3
REMARK VINA RESULT:      -4.4     15.485     16.190
REMARK  2 active torsions:
REMARK  status: ('A' for Active; 'I' for Inactive)
REMARK    1  A    between atoms: C4_4  and  C8_8 
REMARK    2  A    between atoms: C5_5  and  O9_9 
ROOT
HETATM    1  C1  UNL     1     -24.112  16.447  10.433  1.00 20.00     0.007 C 
HETATM    2  C2  UNL     1     -24.547  15.856  11.767  1.00 20.00     0.032 C 
HETATM    3  C3  UNL     1     -24.997  18.254  11.786  1.00 20.00     0.036 C 
HETATM    4  C4  UNL     1     -23.892  17.918  10.773  1.00 20.00    -0.009 C 
HETATM    5  C5  UNL     1     -25.494  16.910  12.328  1.00 20.00     0.118 C 
ENDROOT
BRANCH   4   6
HETATM    6  C8  UNL     1     -23.906  18.820   9.549  1.00 20.00    -0.019 C 
HETATM    7  C6  UNL     1     -23.272  18.117   8.348  1.00 20.00     0.010 C 
HETATM    8  C7  UNL     1     -25.332  19.262   9.215  1.00 20.00     0.010 C 
ENDBRANCH   4   6
BRANCH   5   9
HETATM    9  O9  UNL     1     -26.812  16.680  11.840  1.00 20.00    -0.396 OA
HETATM   10  H25 UNL     1     -26.972  17.344  11.150  1.00 20.00     0.210 HD
ENDBRANCH   5   9
TORSDOF 2
ENDMDL
MODEL 4
REMARK VINA RESULT:      -4.4     12.224     12.854
REMARK  2 active torsions:
REMARK  status: ('A' for Active; 'I' for Inactive)
REMARK    1  A    between atoms: C4_4  and  C8_8 
REMARK    2  A    between atoms: C5_5  and  O9_9 
ROOT
HETATM    1  C1  UNL     1     -35.395  15.716  -2.895  1.00 20.00     0.007 C 
HETATM    2  C2  UNL     1     -34.093  16.238  -2.304  1.00 20.00     0.032 C 
HETATM    3  C3  UNL     1     -33.574  14.825  -4.225  1.00 20.00     0.036 C 
HETATM    4  C4  UNL     1     -34.948  14.462  -3.640  1.00 20.00    -0.009 C 
HETATM    5  C5  UNL     1     -33.090  16.045  -3.435  1.00 20.00     0.118 C 
ENDROOT
BRANCH   4   6
HETATM    6  C8  UNL     1     -35.947  14.008  -4.693  1.00 20.00    -0.019 C 
HETATM    7  C6  UNL     1     -37.369  14.412  -4.304  1.00 20.00     0.010 C 
HETATM    8  C7  UNL     1     -35.588  14.580  -6.066  1.00 20.00     0.010 C 
ENDBRANCH   4   6
BRANCH   5   9
HETATM    9  O9  UNL     1     -33.110  17.181  -4.295  1.00 20.00    -0.396 OA
HETATM   10  H25 UNL     1     -33.691  17.836  -3.876  1.00 20.00     0.210 HD
ENDBRANCH   5   9
TORSDOF 2
ENDMDL
MODEL 5
REMARK VINA RESULT:      -4.3     12.319     13.324
REMARK  2 active torsions:
REMARK  status: ('A' for Active; 'I' for Inactive)
REMARK    1  A    between atoms: C4_4  and  C8_8 
REMARK    2  A    between atoms: C5_5  and  O9_9 
ROOT
HETATM    1  C1  UNL     1     -35.332  14.214  -4.186  1.00 20.00     0.007 C 
HETATM    2  C2  UNL     1     -35.635  14.254  -5.678  1.00 20.00     0.032 C 
HETATM    3  C3  UNL     1     -34.317  16.222  -5.090  1.00 20.00     0.036 C 
HETATM    4  C4  UNL     1     -35.060  15.679  -3.859  1.00 20.00    -0.009 C 
HETATM    5  C5  UNL     1     -34.598  15.229  -6.223  1.00 20.00     0.118 C 
ENDROOT
BRANCH   4   6
HETATM    6  C8  UNL     1     -34.287  15.865  -2.562  1.00 20.00    -0.019 C 
HETATM    7  C6  UNL     1     -33.033  16.709  -2.793  1.00 20.00     0.010 C 
HETATM    8  C7  UNL     1     -35.169  16.506  -1.490  1.00 20.00     0.010 C 
ENDBRANCH   4   6
BRANCH   5   9
HETATM    9  O9  UNL     1     -33.393  14.530  -6.525  1.00 20.00    -0.396 OA
HETATM   10  H25 UNL     1     -33.645  13.613  -6.714  1.00 20.00     0.210 HD
ENDBRANCH   5   9
TORSDOF 2
ENDMDL
MODEL 6
REMARK VINA RESULT:      -4.0     12.386     12.982
REMARK  2 active torsions:
REMARK  status: ('A' for Active; 'I' for Inactive)
REMARK    1  A    between atoms: C4_4  and  C8_8 
REMARK    2  A    between atoms: C5_5  and  O9_9 
ROOT
HETATM    1  C1  UNL     1     -33.119  15.822  -3.484  1.00 20.00     0.007 C 
HETATM    2  C2  UNL     1     -33.439  14.624  -4.368  1.00 20.00     0.032 C 
HETATM    3  C3  UNL     1     -35.501  15.400  -3.319  1.00 20.00     0.036 C 
HETATM    4  C4  UNL     1     -34.278  15.826  -2.491  1.00 20.00    -0.009 C 
HETATM    5  C5  UNL     1     -34.944  14.735  -4.582  1.00 20.00     0.118 C 
ENDROOT
BRANCH   4   6
HETATM    6  C8  UNL     1     -34.462  17.167  -1.798  1.00 20.00    -0.019 C 
HETATM    7  C6  UNL     1     -35.305  17.012  -0.531  1.00 20.00     0.010 C 
HETATM    8  C7  UNL     1     -33.109  17.795  -1.462  1.00 20.00     0.010 C 
ENDBRANCH   4   6
BRANCH   5   9
HETATM    9  O9  UNL     1     -35.210  15.582  -5.697  1.00 20.00    -0.396 OA
HETATM   10  H25 UNL     1     -34.380  15.654  -6.194  1.00 20.00     0.210 HD
ENDBRANCH   5   9
TORSDOF 2
ENDMDL
MODEL 7
REMARK VINA RESULT:      -4.0      9.249      9.904
REMARK  2 active torsions:
REMARK  status: ('A' for Active; 'I' for Inactive)
REMARK    1  A    between atoms: C4_4  and  C8_8 
REMARK    2  A    between atoms: C5_5  and  O9_9 
ROOT
HETATM    1  C1  UNL     1     -41.151   6.949  -1.046  1.00 20.00     0.007 C 
HETATM    2  C2  UNL     1     -41.017   5.433  -1.026  1.00 20.00     0.032 C 
HETATM    3  C3  UNL     1     -42.558   6.110   0.741  1.00 20.00     0.036 C 
HETATM    4  C4  UNL     1     -41.614   7.266   0.373  1.00 20.00    -0.009 C 
HETATM    5  C5  UNL     1     -42.246   4.980  -0.246  1.00 20.00     0.118 C 
ENDROOT
BRANCH   4   6
HETATM    6  C8  UNL     1     -42.266   8.634   0.495  1.00 20.00    -0.019 C 
HETATM    7  C6  UNL     1     -41.226   9.746   0.351  1.00 20.00     0.010 C 
HETATM    8  C7  UNL     1     -43.373   8.804  -0.547  1.00 20.00     0.010 C 
ENDBRANCH   4   6
BRANCH   5   9
HETATM    9  O9  UNL     1     -43.351   4.833  -1.133  1.00 20.00    -0.396 OA
HETATM   10  H25 UNL     1     -44.068   5.379  -0.775  1.00 20.00     0.210 HD
ENDBRANCH   5   9
TORSDOF 2
ENDMDL
MODEL 8
REMARK VINA RESULT:      -4.0     12.306     13.733
REMARK  2 active torsions:
REMARK  status: ('A' for Active; 'I' for Inactive)
REMARK    1  A    between atoms: C4_4  and  C8_8 
REMARK    2  A    between atoms: C5_5  and  O9_9 
ROOT
HETATM    1  C1  UNL     1     -35.756  16.402  -4.875  1.00 20.00     0.007 C 
HETATM    2  C2  UNL     1     -35.959  16.184  -6.368  1.00 20.00     0.032 C 
HETATM    3  C3  UNL     1     -33.954  14.985  -5.665  1.00 20.00     0.036 C 
HETATM    4  C4  UNL     1     -34.263  16.138  -4.696  1.00 20.00    -0.009 C 
HETATM    5  C5  UNL     1     -35.116  14.949  -6.663  1.00 20.00     0.118 C 
ENDROOT
BRANCH   4   6
HETATM    6  C8  UNL     1     -33.881  15.831  -3.257  1.00 20.00    -0.019 C 
HETATM    7  C6  UNL     1     -32.926  16.892  -2.710  1.00 20.00     0.010 C 
HETATM    8  C7  UNL     1     -35.126  15.731  -2.374  1.00 20.00     0.010 C 
ENDBRANCH   4   6
BRANCH   5   9
HETATM    9  O9  UNL     1     -35.885  13.774  -6.425  1.00 20.00    -0.396 OA
HETATM   10  H25 UNL     1     -35.913  13.287  -7.263  1.00 20.00     0.210 HD
ENDBRANCH   5   9
TORSDOF 2
ENDMDL
MODEL 9
REMARK VINA RESULT:      -3.9     12.028     12.948
REMARK  2 active torsions:
REMARK  status: ('A' for Active; 'I' for Inactive)
REMARK    1  A    between atoms: C4_4  and  C8_8 
REMARK    2  A    between atoms: C5_5  and  O9_9 
ROOT
HETATM    1  C1  UNL     1     -34.333  16.439  -3.628  1.00 20.00     0.007 C 
HETATM    2  C2  UNL     1     -32.951  15.799  -3.627  1.00 20.00     0.032 C 
HETATM    3  C3  UNL     1     -34.625  14.056  -3.970  1.00 20.00     0.036 C 
HETATM    4  C4  UNL     1     -35.245  15.271  -3.263  1.00 20.00    -0.009 C 
HETATM    5  C5  UNL     1     -33.184  14.455  -4.307  1.00 20.00     0.118 C 
ENDROOT
BRANCH   4   6
HETATM    6  C8  UNL     1     -36.698  15.510  -3.643  1.00 20.00    -0.019 C 
HETATM    7  C6  UNL     1     -36.852  16.829  -4.401  1.00 20.00     0.010 C 
HETATM    8  C7  UNL     1     -37.238  14.349  -4.480  1.00 20.00     0.010 C 
ENDBRANCH   4   6
BRANCH   5   9
HETATM    9  O9  UNL     1     -33.072  14.605  -5.719  1.00 20.00    -0.396 OA
HETATM   10  H25 UNL     1     -32.558  15.413  -5.872  1.00 20.00     0.210 HD
ENDBRANCH   5   9
TORSDOF 2
ENDMDL
