MODEL 1
REMARK VINA RESULT:      -4.5      0.000      0.000
REMARK  2 active torsions:
REMARK  status: ('A' for Active; 'I' for Inactive)
REMARK    1  A    between atoms: C4_4  and  C8_8 
REMARK    2  A    between atoms: C5_5  and  O9_9 
ROOT
HETATM    1  C1  UNL     1     -35.590  14.406  -4.123  1.00 20.00     0.007 C 
HETATM    2  C2  UNL     1     -35.457  14.942  -5.548  1.00 20.00     0.032 C 
HETATM    3  C3  UNL     1     -33.262  14.699  -4.500  1.00 20.00     0.036 C 
HETATM    4  C4  UNL     1     -34.317  14.849  -3.406  1.00 20.00    -0.009 C 
HETATM    5  C5  UNL     1     -33.959  15.157  -5.778  1.00 20.00     0.118 C 
ENDROOT
BRANCH   4   6
HETATM    6  C8  UNL     1     -34.413  16.280  -2.882  1.00 20.00    -0.019 C 
HETATM    7  C6  UNL     1     -35.221  16.332  -1.583  1.00 20.00     0.010 C 
HETATM    8  C7  UNL     1     -33.021  16.876  -2.664  1.00 20.00     0.010 C 
ENDBRANCH   4   6
BRANCH   5   9
HETATM    9  O9  UNL     1     -33.492  14.399  -6.883  1.00 20.00    -0.396 OA
HETATM   10  H25 UNL     1     -33.876  14.801  -7.677  1.00 20.00     0.210 HD
ENDBRANCH   5   9
TORSDOF 2
ENDMDL
MODEL 2
REMARK VINA RESULT:      -4.3      1.588      2.433
REMARK  2 active torsions:
REMARK  status: ('A' for Active; 'I' for Inactive)
REMARK    1  A    between atoms: C4_4  and  C8_8 
REMARK    2  A    between atoms: C5_5  and  O9_9 
ROOT
HETATM    1  C1  UNL     1     -33.798  15.608  -4.623  1.00 20.00     0.007 C 
HETATM    2  C2  UNL     1     -33.774  14.088  -4.462  1.00 20.00     0.032 C 
HETATM    3  C3  UNL     1     -35.890  15.016  -3.664  1.00 20.00     0.036 C 
HETATM    4  C4  UNL     1     -34.821  16.104  -3.603  1.00 20.00    -0.009 C 
HETATM    5  C5  UNL     1     -35.111  13.712  -3.819  1.00 20.00     0.118 C 
ENDROOT
BRANCH   4   6
HETATM    6  C8  UNL     1     -34.222  16.257  -2.207  1.00 20.00    -0.019 C 
HETATM    7  C6  UNL     1     -33.003  17.182  -2.234  1.00 20.00     0.010 C 
HETATM    8  C7  UNL     1     -35.266  16.784  -1.221  1.00 20.00     0.010 C 
ENDBRANCH   4   6
BRANCH   5   9
HETATM    9  O9  UNL     1     -35.839  12.806  -4.631  1.00 20.00    -0.396 OA
HETATM   10  H25 UNL     1     -35.914  13.216  -5.506  1.00 20.00     0.210 HD
ENDBRANCH   5   9
TORSDOF 2
ENDMDL
MODEL 3
REMARK VINA RESULT:      -4.1     16.711     17.908
REMARK  2 active torsions:
REMARK  status: ('A' for Active; 'I' for Inactive)
REMARK    1  A    between atoms: C4_4  and  C8_8 
REMARK    2  A    between atoms: C5_5  and  O9_9 
ROOT
HETATM    1  C1  UNL     1     -24.929  18.457   9.192  1.00 20.00     0.007 C 
HETATM    2  C2  UNL     1     -23.776  19.133   8.451  1.00 20.00     0.032 C 
HETATM    3  C3  UNL     1     -23.085  16.967   9.351  1.00 20.00     0.036 C 
HETATM    4  C4  UNL     1     -24.268  17.485  10.166  1.00 20.00    -0.009 C 
HETATM    5  C5  UNL     1     -22.581  18.185   8.580  1.00 20.00     0.118 C 
ENDROOT
BRANCH   4   6
HETATM    6  C8  UNL     1     -23.830  18.167  11.460  1.00 20.00    -0.019 C 
HETATM    7  C6  UNL     1     -25.041  18.510  12.332  1.00 20.00     0.010 C 
HETATM    8  C7  UNL     1     -22.850  17.286  12.237  1.00 20.00     0.010 C 
ENDBRANCH   4   6
BRANCH   5   9
HETATM    9  O9  UNL     1     -22.098  17.786   7.307  1.00 20.00    -0.396 OA
HETATM   10  H25 UNL     1     -22.870  17.729   6.723  1.00 20.00     0.210 HD
ENDBRANCH   5   9
TORSDOF 2
ENDMDL
MODEL 4
REMARK VINA RESULT:      -4.1     10.735     12.130
REMARK  2 active torsions:
REMARK  status: ('A' for Active; 'I' for Inactive)
REMARK    1  A    between atoms: C4_4  and  C8_8 
REMARK    2  A    between atoms: C5_5  and  O9_9 
ROOT
HETATM    1  C1  UNL     1     -43.417   7.839  -0.912  1.00 20.00     0.007 C 
HETATM    2  C2  UNL     1     -43.149   8.639   0.363  1.00 20.00     0.032 C 
HETATM    3  C3  UNL     1     -41.074   8.231  -0.863  1.00 20.00     0.036 C 
HETATM    4  C4  UNL     1     -42.092   7.159  -1.246  1.00 20.00    -0.009 C 
HETATM    5  C5  UNL     1     -41.636   8.865   0.406  1.00 20.00     0.118 C 
ENDROOT
BRANCH   4   6
HETATM    6  C8  UNL     1     -41.893   5.861  -0.468  1.00 20.00    -0.019 C 
HETATM    7  C6  UNL     1     -43.205   5.081  -0.363  1.00 20.00     0.010 C 
HETATM    8  C7  UNL     1     -40.812   4.995  -1.118  1.00 20.00     0.010 C 
ENDBRANCH   4   6
BRANCH   5   9
HETATM    9  O9  UNL     1     -41.321  10.248   0.437  1.00 20.00    -0.396 OA
HETATM   10  H25 UNL     1     -41.642  10.587   1.287  1.00 20.00     0.210 HD
ENDBRANCH   5   9
TORSDOF 2
ENDMDL
MODEL 5
REMARK VINA RESULT:      -4.1     11.374     12.482
REMARK  2 active torsions:
REMARK  status: ('A' for Active; 'I' for Inactive)
REMARK    1  A    between atoms: C4_4  and  C8_8 
REMARK    2  A    between atoms: C5_5  and  O9_9 
ROOT
HETATM    1  C1  UNL     1     -42.575   5.697   0.867  1.00 20.00     0.007 C 
HETATM    2  C2  UNL     1     -43.125   5.029  -0.392  1.00 20.00     0.032 C 
HETATM    3  C3  UNL     1     -40.897   5.950  -0.796  1.00 20.00     0.036 C 
HETATM    4  C4  UNL     1     -41.537   6.700   0.370  1.00 20.00    -0.009 C 
HETATM    5  C5  UNL     1     -42.055   5.217  -1.470  1.00 20.00     0.118 C 
ENDROOT
BRANCH   4   6
HETATM    6  C8  UNL     1     -42.166   8.022  -0.063  1.00 20.00    -0.019 C 
HETATM    7  C6  UNL     1     -43.417   8.327   0.765  1.00 20.00     0.010 C 
HETATM    8  C7  UNL     1     -41.161   9.169   0.054  1.00 20.00     0.010 C 
ENDBRANCH   4   6
BRANCH   5   9
HETATM    9  O9  UNL     1     -41.609   3.971  -1.979  1.00 20.00    -0.396 OA
HETATM   10  H25 UNL     1     -41.822   3.966  -2.925  1.00 20.00     0.210 HD
ENDBRANCH   5   9
TORSDOF 2
ENDMDL
MODEL 6
REMARK VINA RESULT:      -4.1     16.315     18.085
REMARK  2 active torsions:
REMARK  status: ('A' for Active; 'I' for Inactive)
REMARK    1  A    between atoms: C4_4  and  C8_8 
REMARK    2  A    between atoms: C5_5  and  O9_9 
ROOT
HETATM    1  C1  UNL     1     -22.455  17.447   8.742  1.00 20.00     0.007 C 
HETATM    2  C2  UNL     1     -21.716  17.957   9.979  1.00 20.00     0.032 C 
HETATM    3  C3  UNL     1     -23.978  17.229  10.553  1.00 20.00     0.036 C 
HETATM    4  C4  UNL     1     -23.939  17.593   9.070  1.00 20.00    -0.009 C 
HETATM    5  C5  UNL     1     -22.709  17.842  11.138  1.00 20.00     0.118 C 
ENDROOT
BRANCH   4   6
HETATM    6  C8  UNL     1     -24.457  19.005   8.803  1.00 20.00    -0.019 C 
HETATM    7  C6  UNL     1     -24.669  19.233   7.305  1.00 20.00     0.010 C 
HETATM    8  C7  UNL     1     -25.756  19.263   9.568  1.00 20.00     0.010 C 
ENDBRANCH   4   6
BRANCH   5   9
HETATM    9  O9  UNL     1     -22.203  17.013  12.172  1.00 20.00    -0.396 OA
HETATM   10  H25 UNL     1     -21.390  16.609  11.830  1.00 20.00     0.210 HD
ENDBRANCH   5   9
TORSDOF 2
ENDMDL
MODEL 7
REMARK VINA RESULT:      -4.0     11.087     12.464
REMARK  2 active torsions:
REMARK  status: ('A' for Active; 'I' for Inactive)
REMARK    1  A    between atoms: C4_4  and  C8_8 
REMARK    2  A    between atoms: C5_5  and  O9_9 
ROOT
HETATM    1  C1  UNL     1     -41.236   6.969  -1.252  1.00 20.00     0.007 C 
HETATM    2  C2  UNL     1     -41.897   8.341  -1.385  1.00 20.00     0.032 C 
HETATM    3  C3  UNL     1     -41.518   7.779   0.964  1.00 20.00     0.036 C 
HETATM    4  C4  UNL     1     -41.588   6.487   0.153  1.00 20.00    -0.009 C 
HETATM    5  C5  UNL     1     -42.103   8.848   0.044  1.00 20.00     0.118 C 
ENDROOT
BRANCH   4   6
HETATM    6  C8  UNL     1     -42.967   5.834   0.214  1.00 20.00    -0.019 C 
HETATM    7  C6  UNL     1     -43.151   4.838  -0.934  1.00 20.00     0.010 C 
HETATM    8  C7  UNL     1     -43.181   5.137   1.559  1.00 20.00     0.010 C 
ENDBRANCH   4   6
BRANCH   5   9
HETATM    9  O9  UNL     1     -41.441  10.084   0.256  1.00 20.00    -0.396 OA
HETATM   10  H25 UNL     1     -40.620   9.881   0.730  1.00 20.00     0.210 HD
ENDBRANCH   5   9
TORSDOF 2
ENDMDL
MODEL 8
REMARK VINA RESULT:      -4.0      1.169      2.136
REMARK  2 active torsions:
REMARK  status: ('A' for Active; 'I' for Inactive)
REMARK    1  A    between atoms: C4_4  and  C8_8 
REMARK    2  A    between atoms: C5_5  and  O9_9 
ROOT
HETATM    1  C1  UNL     1     -32.947  15.862  -3.526  1.00 20.00     0.007 C 
HETATM    2  C2  UNL     1     -32.969  14.560  -4.325  1.00 20.00     0.032 C 
HETATM    3  C3  UNL     1     -34.446  16.226  -5.334  1.00 20.00     0.036 C 
HETATM    4  C4  UNL     1     -34.266  16.558  -3.854  1.00 20.00    -0.009 C 
HETATM    5  C5  UNL     1     -33.956  14.787  -5.472  1.00 20.00     0.118 C 
ENDROOT
BRANCH   4   6
HETATM    6  C8  UNL     1     -35.421  16.046  -2.997  1.00 20.00    -0.019 C 
HETATM    7  C6  UNL     1     -35.232  16.445  -1.532  1.00 20.00     0.010 C 
HETATM    8  C7  UNL     1     -36.761  16.569  -3.519  1.00 20.00     0.010 C 
ENDBRANCH   4   6
BRANCH   5   9
HETATM    9  O9  UNL     1     -33.334  14.607  -6.734  1.00 20.00    -0.396 OA
HETATM   10  H25 UNL     1     -33.616  15.349  -7.291  1.00 20.00     0.210 HD
ENDBRANCH   5   9
TORSDOF 2
ENDMDL
MODEL 9
REMARK VINA RESULT:      -4.0      2.152      2.967
REMARK  2 active torsions:
REMARK  status: ('A' for Active; 'I' for Inactive)
REMARK    1  A    between atoms: C4_4  and  C8_8 
REMARK    2  A    between atoms: C5_5  and  O9_9 
ROOT
HETATM    1  C1  UNL     1     -35.257  15.182  -5.386  1.00 20.00     0.007 C 
HETATM    2  C2  UNL     1     -36.063  13.915  -5.103  1.00 20.00     0.032 C 
HETATM    3  C3  UNL     1     -36.941  15.809  -3.830  1.00 20.00     0.036 C 
HETATM    4  C4  UNL     1     -35.477  16.079  -4.169  1.00 20.00    -0.009 C 
HETATM    5  C5  UNL     1     -37.129  14.314  -4.079  1.00 20.00     0.118 C 
ENDROOT
BRANCH   4   6
HETATM    6  C8  UNL     1     -34.538  15.733  -3.016  1.00 20.00    -0.019 C 
HETATM    7  C6  UNL     1     -33.126  16.259  -3.287  1.00 20.00     0.010 C 
HETATM    8  C7  UNL     1     -35.067  16.293  -1.695  1.00 20.00     0.010 C 
ENDBRANCH   4   6
BRANCH   5   9
HETATM    9  O9  UNL     1     -38.436  14.066  -4.570  1.00 20.00    -0.396 OA
HETATM   10  H25 UNL     1     -38.346  13.410  -5.279  1.00 20.00     0.210 HD
ENDBRANCH   5   9
TORSDOF 2
ENDMDL
