MODEL 1
REMARK VINA RESULT:      -4.1      0.000      0.000
REMARK  2 active torsions:
REMARK  status: ('A' for Active; 'I' for Inactive)
REMARK    1  A    between atoms: C4_4  and  C7_7 
REMARK    2  A    between atoms: C5_5  and  O8_8 
ROOT
HETATM    1  C1  UNL     1     -34.879   4.541   4.646  1.00 20.00     0.007 C 
HETATM    2  C2  UNL     1     -34.252   5.030   5.947  1.00 20.00     0.032 C 
HETATM    3  C3  UNL     1     -34.718   6.914   4.445  1.00 20.00     0.036 C 
HETATM    4  C4  UNL     1     -34.549   5.629   3.627  1.00 20.00    -0.012 C 
HETATM    5  C5  UNL     1     -34.275   6.558   5.865  1.00 20.00     0.118 C 
ENDROOT
BRANCH   4   6
HETATM    6  C7  UNL     1     -33.140   5.486   3.057  1.00 20.00     0.000 C 
HETATM    7  C6  UNL     1     -32.603   6.790   2.557  1.00 20.00     0.005 C 
ENDBRANCH   4   6
BRANCH   5   8
HETATM    8  O8  UNL     1     -32.975   7.081   6.106  1.00 20.00    -0.396 OA
HETATM    9  H22 UNL     1     -32.356   6.518   5.616  1.00 20.00     0.210 HD
ENDBRANCH   5   8
TORSDOF 2
ENDMDL
MODEL 2
REMARK VINA RESULT:      -4.0     16.066     16.799
REMARK  2 active torsions:
REMARK  status: ('A' for Active; 'I' for Inactive)
REMARK    1  A    between atoms: C4_4  and  C7_7 
REMARK    2  A    between atoms: C5_5  and  O8_8 
ROOT
HETATM    1  C1  UNL     1     -24.283  18.372  10.044  1.00 20.00     0.007 C 
HETATM    2  C2  UNL     1     -24.830  17.365  11.049  1.00 20.00     0.032 C 
HETATM    3  C3  UNL     1     -22.457  17.823  11.480  1.00 20.00     0.036 C 
HETATM    4  C4  UNL     1     -22.780  18.105  10.009  1.00 20.00    -0.012 C 
HETATM    5  C5  UNL     1     -23.693  17.120  12.045  1.00 20.00     0.118 C 
ENDROOT
BRANCH   4   6
HETATM    6  C7  UNL     1     -22.418  16.931   9.100  1.00 20.00     0.000 C 
HETATM    7  C6  UNL     1     -21.761  17.386   7.835  1.00 20.00     0.005 C 
ENDBRANCH   4   6
BRANCH   5   8
HETATM    8  O8  UNL     1     -23.438  15.727  12.163  1.00 20.00    -0.396 OA
HETATM    9  H22 UNL     1     -22.574  15.568  11.752  1.00 20.00     0.210 HD
ENDBRANCH   5   8
TORSDOF 2
ENDMDL
MODEL 3
REMARK VINA RESULT:      -4.0      1.091      1.271
REMARK  2 active torsions:
REMARK  status: ('A' for Active; 'I' for Inactive)
REMARK    1  A    between atoms: C4_4  and  C7_7 
REMARK    2  A    between atoms: C5_5  and  O8_8 
ROOT
HETATM    1  C1  UNL     1     -35.029   5.044   5.799  1.00 20.00     0.007 C 
HETATM    2  C2  UNL     1     -33.967   6.010   6.313  1.00 20.00     0.032 C 
HETATM    3  C3  UNL     1     -34.707   6.648   4.061  1.00 20.00     0.036 C 
HETATM    4  C4  UNL     1     -34.942   5.150   4.278  1.00 20.00    -0.012 C 
HETATM    5  C5  UNL     1     -33.864   7.109   5.252  1.00 20.00     0.118 C 
ENDROOT
BRANCH   4   6
HETATM    6  C7  UNL     1     -33.817   4.296   3.697  1.00 20.00     0.000 C 
HETATM    7  C6  UNL     1     -33.274   4.874   2.428  1.00 20.00     0.005 C 
ENDBRANCH   4   6
BRANCH   5   8
HETATM    8  O8  UNL     1     -32.512   7.271   4.845  1.00 20.00    -0.396 OA
HETATM    9  H22 UNL     1     -32.213   6.406   4.526  1.00 20.00     0.210 HD
ENDBRANCH   5   8
TORSDOF 2
ENDMDL
MODEL 4
REMARK VINA RESULT:      -3.9     12.115     12.959
REMARK  2 active torsions:
REMARK  status: ('A' for Active; 'I' for Inactive)
REMARK    1  A    between atoms: C4_4  and  C7_7 
REMARK    2  A    between atoms: C5_5  and  O8_8 
ROOT
HETATM    1  C1  UNL     1     -35.184  16.030  -5.228  1.00 20.00     0.007 C 
HETATM    2  C2  UNL     1     -35.189  14.614  -5.793  1.00 20.00     0.032 C 
HETATM    3  C3  UNL     1     -36.771  14.813  -3.926  1.00 20.00     0.036 C 
HETATM    4  C4  UNL     1     -35.675  15.874  -3.791  1.00 20.00    -0.012 C 
HETATM    5  C5  UNL     1     -36.302  13.877  -5.043  1.00 20.00     0.118 C 
ENDROOT
BRANCH   4   6
HETATM    6  C7  UNL     1     -34.562  15.441  -2.839  1.00 20.00     0.000 C 
HETATM    7  C6  UNL     1     -33.337  16.287  -2.989  1.00 20.00     0.005 C 
ENDBRANCH   4   6
BRANCH   5   8
HETATM    8  O8  UNL     1     -35.799  12.674  -4.478  1.00 20.00    -0.396 OA
HETATM    9  H22 UNL     1     -36.211  12.585  -3.605  1.00 20.00     0.210 HD
ENDBRANCH   5   8
TORSDOF 2
ENDMDL
MODEL 5
REMARK VINA RESULT:      -3.9      1.687      3.119
REMARK  2 active torsions:
REMARK  status: ('A' for Active; 'I' for Inactive)
REMARK    1  A    between atoms: C4_4  and  C7_7 
REMARK    2  A    between atoms: C5_5  and  O8_8 
ROOT
HETATM    1  C1  UNL     1     -33.028   6.492   2.761  1.00 20.00     0.007 C 
HETATM    2  C2  UNL     1     -32.917   4.971   2.775  1.00 20.00     0.032 C 
HETATM    3  C3  UNL     1     -35.042   5.697   3.767  1.00 20.00     0.036 C 
HETATM    4  C4  UNL     1     -34.004   6.817   3.890  1.00 20.00    -0.012 C 
HETATM    5  C5  UNL     1     -34.264   4.466   3.297  1.00 20.00     0.118 C 
ENDROOT
BRANCH   4   6
HETATM    6  C7  UNL     1     -33.327   6.832   5.259  1.00 20.00     0.000 C 
HETATM    7  C6  UNL     1     -34.273   6.453   6.355  1.00 20.00     0.005 C 
ENDBRANCH   4   6
BRANCH   5   8
HETATM    8  O8  UNL     1     -34.065   3.581   4.391  1.00 20.00    -0.396 OA
HETATM    9  H22 UNL     1     -33.288   3.043   4.173  1.00 20.00     0.210 HD
ENDBRANCH   5   8
TORSDOF 2
ENDMDL
MODEL 6
REMARK VINA RESULT:      -3.8     12.285     13.162
REMARK  2 active torsions:
REMARK  status: ('A' for Active; 'I' for Inactive)
REMARK    1  A    between atoms: C4_4  and  C7_7 
REMARK    2  A    between atoms: C5_5  and  O8_8 
ROOT
HETATM    1  C1  UNL     1     -35.854  13.866  -4.668  1.00 20.00     0.007 C 
HETATM    2  C2  UNL     1     -35.616  14.723  -5.906  1.00 20.00     0.032 C 
HETATM    3  C3  UNL     1     -33.567  14.542  -4.568  1.00 20.00     0.036 C 
HETATM    4  C4  UNL     1     -34.790  14.325  -3.672  1.00 20.00    -0.012 C 
HETATM    5  C5  UNL     1     -34.119  15.041  -5.905  1.00 20.00     0.118 C 
ENDROOT
BRANCH   4   6
HETATM    6  C7  UNL     1     -35.198  15.595  -2.929  1.00 20.00     0.000 C 
HETATM    7  C6  UNL     1     -34.014  16.319  -2.369  1.00 20.00     0.005 C 
ENDBRANCH   4   6
BRANCH   5   8
HETATM    8  O8  UNL     1     -33.916  16.443  -6.012  1.00 20.00    -0.396 OA
HETATM    9  H22 UNL     1     -33.834  16.639  -6.958  1.00 20.00     0.210 HD
ENDBRANCH   5   8
TORSDOF 2
ENDMDL
MODEL 7
REMARK VINA RESULT:      -3.8      8.937      9.576
REMARK  2 active torsions:
REMARK  status: ('A' for Active; 'I' for Inactive)
REMARK    1  A    between atoms: C4_4  and  C7_7 
REMARK    2  A    between atoms: C5_5  and  O8_8 
ROOT
HETATM    1  C1  UNL     1     -41.308   7.007  -1.457  1.00 20.00     0.007 C 
HETATM    2  C2  UNL     1     -41.011   5.654  -0.821  1.00 20.00     0.032 C 
HETATM    3  C3  UNL     1     -43.201   6.493  -0.097  1.00 20.00     0.036 C 
HETATM    4  C4  UNL     1     -42.308   7.667  -0.510  1.00 20.00    -0.012 C 
HETATM    5  C5  UNL     1     -42.282   5.271  -0.059  1.00 20.00     0.118 C 
ENDROOT
BRANCH   4   6
HETATM    6  C7  UNL     1     -41.627   8.327   0.687  1.00 20.00     0.000 C 
HETATM    7  C6  UNL     1     -41.218   9.736   0.391  1.00 20.00     0.005 C 
ENDBRANCH   4   6
BRANCH   5   8
HETATM    8  O8  UNL     1     -41.967   4.952   1.290  1.00 20.00    -0.396 OA
HETATM    9  H22 UNL     1     -41.000   4.924   1.349  1.00 20.00     0.210 HD
ENDBRANCH   5   8
TORSDOF 2
ENDMDL
MODEL 8
REMARK VINA RESULT:      -3.8     12.274     13.361
REMARK  2 active torsions:
REMARK  status: ('A' for Active; 'I' for Inactive)
REMARK    1  A    between atoms: C4_4  and  C7_7 
REMARK    2  A    between atoms: C5_5  and  O8_8 
ROOT
HETATM    1  C1  UNL     1     -35.449  16.433  -4.057  1.00 20.00     0.007 C 
HETATM    2  C2  UNL     1     -35.054  16.116  -5.495  1.00 20.00     0.032 C 
HETATM    3  C3  UNL     1     -34.428  14.276  -3.995  1.00 20.00     0.036 C 
HETATM    4  C4  UNL     1     -34.508  15.585  -3.203  1.00 20.00    -0.012 C 
HETATM    5  C5  UNL     1     -34.523  14.680  -5.468  1.00 20.00     0.118 C 
ENDROOT
BRANCH   4   6
HETATM    6  C7  UNL     1     -33.140  16.238  -3.020  1.00 20.00     0.000 C 
HETATM    7  C6  UNL     1     -33.180  17.351  -2.022  1.00 20.00     0.005 C 
ENDBRANCH   4   6
BRANCH   5   8
HETATM    8  O8  UNL     1     -33.234  14.624  -6.063  1.00 20.00    -0.396 OA
HETATM    9  H22 UNL     1     -33.272  13.931  -6.741  1.00 20.00     0.210 HD
ENDBRANCH   5   8
TORSDOF 2
ENDMDL
MODEL 9
REMARK VINA RESULT:      -3.7      9.364     10.079
REMARK  2 active torsions:
REMARK  status: ('A' for Active; 'I' for Inactive)
REMARK    1  A    between atoms: C4_4  and  C7_7 
REMARK    2  A    between atoms: C5_5  and  O8_8 
ROOT
HETATM    1  C1  UNL     1     -41.207   7.784   0.760  1.00 20.00     0.007 C 
HETATM    2  C2  UNL     1     -41.862   8.771  -0.200  1.00 20.00     0.032 C 
HETATM    3  C3  UNL     1     -43.227   6.743   0.031  1.00 20.00     0.036 C 
HETATM    4  C4  UNL     1     -41.765   6.422   0.353  1.00 20.00    -0.012 C 
HETATM    5  C5  UNL     1     -43.217   8.155  -0.558  1.00 20.00     0.118 C 
ENDROOT
BRANCH   4   6
HETATM    6  C7  UNL     1     -41.025   5.823  -0.841  1.00 20.00     0.000 C 
HETATM    7  C6  UNL     1     -41.860   4.817  -1.568  1.00 20.00     0.005 C 
ENDBRANCH   4   6
BRANCH   5   8
HETATM    8  O8  UNL     1     -43.365   8.085  -1.970  1.00 20.00    -0.396 OA
HETATM    9  H22 UNL     1     -42.486   7.890  -2.331  1.00 20.00     0.210 HD
ENDBRANCH   5   8
TORSDOF 2
ENDMDL
