MODEL 1
REMARK VINA RESULT:      -4.2      0.000      0.000
REMARK  1 active torsions:
REMARK  status: ('A' for Active; 'I' for Inactive)
REMARK    1  A    between atoms: C2_2  and  C6_6 
ROOT
HETATM    1  C1  UNL     1     -36.019  13.812  -4.416  1.00 20.00     0.134 A 
HETATM    2  C2  UNL     1     -35.570  15.086  -4.139  1.00 20.00     0.006 A 
HETATM    3  C3  UNL     1     -37.960  14.823  -4.280  1.00 20.00     0.167 A 
HETATM    4  N7  UNL     1     -37.390  13.659  -4.497  1.00 20.00    -0.240 NA
HETATM    5  S8  UNL     1     -36.910  16.144  -3.973  1.00 20.00    -0.061 SA
HETATM    6 CL9  UNL     1     -39.658  15.054  -4.294  1.00 20.00    -0.054 Cl
ENDROOT
BRANCH   2   7
HETATM    7  C6  UNL     1     -34.153  15.604  -3.981  1.00 20.00     0.019 C 
HETATM    8  C4  UNL     1     -33.121  14.545  -4.376  1.00 20.00     0.015 C 
HETATM    9  C5  UNL     1     -33.894  16.115  -2.562  1.00 20.00     0.015 C 
ENDBRANCH   2   7
TORSDOF 1
ENDMDL
MODEL 2
REMARK VINA RESULT:      -4.0     18.437     19.008
REMARK  1 active torsions:
REMARK  status: ('A' for Active; 'I' for Inactive)
REMARK    1  A    between atoms: C2_2  and  C6_6 
ROOT
HETATM    1  C1  UNL     1     -24.498  19.034   9.141  1.00 20.00     0.134 A 
HETATM    2  C2  UNL     1     -24.301  18.253  10.261  1.00 20.00     0.006 A 
HETATM    3  C3  UNL     1     -22.789  17.859   8.428  1.00 20.00     0.167 A 
HETATM    4  N7  UNL     1     -23.632  18.810   8.089  1.00 20.00    -0.240 NA
HETATM    5  S8  UNL     1     -22.981  17.190   9.996  1.00 20.00    -0.061 SA
HETATM    6 CL9  UNL     1     -21.550  17.289   7.391  1.00 20.00    -0.054 Cl
ENDROOT
BRANCH   2   7
HETATM    7  C6  UNL     1     -25.056  18.233  11.577  1.00 20.00     0.019 C 
HETATM    8  C4  UNL     1     -25.471  16.812  11.966  1.00 20.00     0.015 C 
HETATM    9  C5  UNL     1     -26.269  19.165  11.545  1.00 20.00     0.015 C 
ENDBRANCH   2   7
TORSDOF 1
ENDMDL
MODEL 3
REMARK VINA RESULT:      -4.0      0.460      1.247
REMARK  1 active torsions:
REMARK  status: ('A' for Active; 'I' for Inactive)
REMARK    1  A    between atoms: C2_2  and  C6_6 
ROOT
HETATM    1  C1  UNL     1     -35.939  13.655  -4.312  1.00 20.00     0.134 A 
HETATM    2  C2  UNL     1     -35.415  14.830  -3.815  1.00 20.00     0.006 A 
HETATM    3  C3  UNL     1     -37.778  14.849  -4.281  1.00 20.00     0.167 A 
HETATM    4  N7  UNL     1     -37.294  13.664  -4.580  1.00 20.00    -0.240 NA
HETATM    5  S8  UNL     1     -36.661  16.001  -3.674  1.00 20.00    -0.061 SA
HETATM    6 CL9  UNL     1     -39.430  15.265  -4.472  1.00 20.00    -0.054 Cl
ENDROOT
BRANCH   2   7
HETATM    7  C6  UNL     1     -33.990  15.167  -3.418  1.00 20.00     0.019 C 
HETATM    8  C4  UNL     1     -33.802  16.674  -3.225  1.00 20.00     0.015 C 
HETATM    9  C5  UNL     1     -32.979  14.616  -4.425  1.00 20.00     0.015 C 
ENDBRANCH   2   7
TORSDOF 1
ENDMDL
MODEL 4
REMARK VINA RESULT:      -3.9      2.399      2.746
REMARK  1 active torsions:
REMARK  status: ('A' for Active; 'I' for Inactive)
REMARK    1  A    between atoms: C2_2  and  C6_6 
ROOT
HETATM    1  C1  UNL     1     -35.241  14.003  -4.188  1.00 20.00     0.134 A 
HETATM    2  C2  UNL     1     -34.654  15.229  -3.954  1.00 20.00     0.006 A 
HETATM    3  C3  UNL     1     -35.421  14.845  -6.205  1.00 20.00     0.167 A 
HETATM    4  N7  UNL     1     -35.682  13.780  -5.478  1.00 20.00    -0.240 NA
HETATM    5  S8  UNL     1     -34.647  16.148  -5.402  1.00 20.00    -0.061 SA
HETATM    6 CL9  UNL     1     -35.816  14.965  -7.868  1.00 20.00    -0.054 Cl
ENDROOT
BRANCH   2   7
HETATM    7  C6  UNL     1     -34.069  15.798  -2.676  1.00 20.00     0.019 C 
HETATM    8  C4  UNL     1     -35.160  16.353  -1.756  1.00 20.00     0.015 C 
HETATM    9  C5  UNL     1     -33.008  16.862  -2.966  1.00 20.00     0.015 C 
ENDBRANCH   2   7
TORSDOF 1
ENDMDL
MODEL 5
REMARK VINA RESULT:      -3.8      2.688      3.118
REMARK  1 active torsions:
REMARK  status: ('A' for Active; 'I' for Inactive)
REMARK    1  A    between atoms: C2_2  and  C6_6 
ROOT
HETATM    1  C1  UNL     1     -33.312  14.696  -4.552  1.00 20.00     0.134 A 
HETATM    2  C2  UNL     1     -34.060  15.609  -3.839  1.00 20.00     0.006 A 
HETATM    3  C3  UNL     1     -34.870  15.085  -6.046  1.00 20.00     0.167 A 
HETATM    4  N7  UNL     1     -33.775  14.393  -5.818  1.00 20.00    -0.240 NA
HETATM    5  S8  UNL     1     -35.399  16.118  -4.783  1.00 20.00    -0.061 SA
HETATM    6 CL9  UNL     1     -35.753  14.989  -7.511  1.00 20.00    -0.054 Cl
ENDROOT
BRANCH   2   7
HETATM    7  C6  UNL     1     -33.846  16.161  -2.442  1.00 20.00     0.019 C 
HETATM    8  C4  UNL     1     -35.176  16.412  -1.727  1.00 20.00     0.015 C 
HETATM    9  C5  UNL     1     -32.990  17.429  -2.462  1.00 20.00     0.015 C 
ENDBRANCH   2   7
TORSDOF 1
ENDMDL
MODEL 6
REMARK VINA RESULT:      -3.8      2.314      3.237
REMARK  1 active torsions:
REMARK  status: ('A' for Active; 'I' for Inactive)
REMARK    1  A    between atoms: C2_2  and  C6_6 
ROOT
HETATM    1  C1  UNL     1     -32.921  15.199  -3.959  1.00 20.00     0.134 A 
HETATM    2  C2  UNL     1     -33.554  16.071  -3.098  1.00 20.00     0.006 A 
HETATM    3  C3  UNL     1     -34.946  14.364  -4.075  1.00 20.00     0.167 A 
HETATM    4  N7  UNL     1     -33.717  14.220  -4.521  1.00 20.00    -0.240 NA
HETATM    5  S8  UNL     1     -35.215  15.657  -2.980  1.00 20.00    -0.061 SA
HETATM    6 CL9  UNL     1     -36.239  13.340  -4.537  1.00 20.00    -0.054 Cl
ENDROOT
BRANCH   2   7
HETATM    7  C6  UNL     1     -32.994  17.245  -2.319  1.00 20.00     0.019 C 
HETATM    8  C4  UNL     1     -33.884  17.605  -1.126  1.00 20.00     0.015 C 
HETATM    9  C5  UNL     1     -32.769  18.463  -3.218  1.00 20.00     0.015 C 
ENDBRANCH   2   7
TORSDOF 1
ENDMDL
MODEL 7
REMARK VINA RESULT:      -3.8      6.314      7.528
REMARK  1 active torsions:
REMARK  status: ('A' for Active; 'I' for Inactive)
REMARK    1  A    between atoms: C2_2  and  C6_6 
ROOT
HETATM    1  C1  UNL     1     -31.829  18.149  -1.153  1.00 20.00     0.134 A 
HETATM    2  C2  UNL     1     -32.968  18.128  -0.376  1.00 20.00     0.006 A 
HETATM    3  C3  UNL     1     -30.936  18.752   0.756  1.00 20.00     0.167 A 
HETATM    4  N7  UNL     1     -30.663  18.506  -0.506  1.00 20.00    -0.240 NA
HETATM    5  S8  UNL     1     -32.574  18.571   1.233  1.00 20.00    -0.061 SA
HETATM    6 CL9  UNL     1     -29.751  19.228   1.898  1.00 20.00    -0.054 Cl
ENDROOT
BRANCH   2   7
HETATM    7  C6  UNL     1     -34.397  17.787  -0.755  1.00 20.00     0.019 C 
HETATM    8  C4  UNL     1     -35.219  17.371   0.468  1.00 20.00     0.015 C 
HETATM    9  C5  UNL     1     -34.451  16.708  -1.839  1.00 20.00     0.015 C 
ENDBRANCH   2   7
TORSDOF 1
ENDMDL
MODEL 8
REMARK VINA RESULT:      -3.6      2.824      3.826
REMARK  1 active torsions:
REMARK  status: ('A' for Active; 'I' for Inactive)
REMARK    1  A    between atoms: C2_2  and  C6_6 
ROOT
HETATM    1  C1  UNL     1     -32.844  16.299  -3.254  1.00 20.00     0.134 A 
HETATM    2  C2  UNL     1     -33.670  16.860  -2.303  1.00 20.00     0.006 A 
HETATM    3  C3  UNL     1     -34.581  14.986  -3.510  1.00 20.00     0.167 A 
HETATM    4  N7  UNL     1     -33.364  15.224  -3.948  1.00 20.00    -0.240 NA
HETATM    5  S8  UNL     1     -35.162  16.016  -2.267  1.00 20.00    -0.061 SA
HETATM    6 CL9  UNL     1     -35.568  13.725  -4.120  1.00 20.00    -0.054 Cl
ENDROOT
BRANCH   2   7
HETATM    7  C6  UNL     1     -33.424  18.033  -1.373  1.00 20.00     0.019 C 
HETATM    8  C4  UNL     1     -31.934  18.206  -1.067  1.00 20.00     0.015 C 
HETATM    9  C5  UNL     1     -34.234  17.908  -0.080  1.00 20.00     0.015 C 
ENDBRANCH   2   7
TORSDOF 1
ENDMDL
MODEL 9
REMARK VINA RESULT:      -3.4      1.345      1.872
REMARK  1 active torsions:
REMARK  status: ('A' for Active; 'I' for Inactive)
REMARK    1  A    between atoms: C2_2  and  C6_6 
ROOT
HETATM    1  C1  UNL     1     -36.331  13.847  -4.759  1.00 20.00     0.134 A 
HETATM    2  C2  UNL     1     -35.850  15.124  -4.956  1.00 20.00     0.006 A 
HETATM    3  C3  UNL     1     -38.162  14.964  -4.300  1.00 20.00     0.167 A 
HETATM    4  N7  UNL     1     -37.657  13.752  -4.382  1.00 20.00    -0.240 NA
HETATM    5  S8  UNL     1     -37.100  16.261  -4.662  1.00 20.00    -0.061 SA
HETATM    6 CL9  UNL     1     -39.788  15.275  -3.858  1.00 20.00    -0.054 Cl
ENDROOT
BRANCH   2   7
HETATM    7  C6  UNL     1     -34.465  15.588  -5.367  1.00 20.00     0.019 C 
HETATM    8  C4  UNL     1     -34.334  17.111  -5.282  1.00 20.00     0.015 C 
HETATM    9  C5  UNL     1     -34.095  15.087  -6.765  1.00 20.00     0.015 C 
ENDBRANCH   2   7
TORSDOF 1
ENDMDL
