MODEL 1
REMARK VINA RESULT:      -4.9      0.000      0.000
REMARK  2 active torsions:
REMARK  status: ('A' for Active; 'I' for Inactive)
REMARK    1  A    between atoms: C7_7  and  C8_8 
REMARK    2  A    between atoms: C8_8  and  O10_10 
ROOT
HETATM    1  C1  UNL     1     -36.952  14.403  -4.508  1.00 20.00     0.071 C 
HETATM    2  C2  UNL     1     -33.217  16.374  -3.460  1.00 20.00     0.000 C 
HETATM    3  C3  UNL     1     -34.251  17.197  -4.221  1.00 20.00     0.002 C 
HETATM    4  C4  UNL     1     -33.129  14.949  -3.995  1.00 20.00     0.002 C 
HETATM    5  C5  UNL     1     -35.623  16.518  -4.221  1.00 20.00     0.027 C 
HETATM    6  C6  UNL     1     -34.495  14.260  -3.996  1.00 20.00     0.027 C 
HETATM    7  C7  UNL     1     -35.582  15.064  -4.740  1.00 20.00     0.070 C 
HETATM    8  N9  UNL     1     -37.986  13.905  -4.332  1.00 20.00    -0.196 NA
ENDROOT
BRANCH   7   9
HETATM    9  C8  UNL     1     -35.311  15.054  -6.197  1.00 20.00     0.188 C 
BRANCH   9  10
HETATM   10  O10 UNL     1     -35.892  13.888  -6.741  1.00 20.00    -0.399 OA
HETATM   11  H23 UNL     1     -36.836  13.897  -6.502  1.00 20.00     0.209 HD
ENDBRANCH   9  10
ENDBRANCH   7   9
TORSDOF 2
ENDMDL
MODEL 2
REMARK VINA RESULT:      -4.8      1.809      2.256
REMARK  2 active torsions:
REMARK  status: ('A' for Active; 'I' for Inactive)
REMARK    1  A    between atoms: C7_7  and  C8_8 
REMARK    2  A    between atoms: C8_8  and  O10_10 
ROOT
HETATM    1  C1  UNL     1     -35.259  13.831  -4.314  1.00 20.00     0.071 C 
HETATM    2  C2  UNL     1     -34.451  17.985  -3.302  1.00 20.00     0.000 C 
HETATM    3  C3  UNL     1     -34.237  17.566  -4.752  1.00 20.00     0.002 C 
HETATM    4  C4  UNL     1     -33.954  16.920  -2.330  1.00 20.00     0.002 C 
HETATM    5  C5  UNL     1     -34.875  16.206  -5.046  1.00 20.00     0.027 C 
HETATM    6  C6  UNL     1     -34.590  15.557  -2.613  1.00 20.00     0.027 C 
HETATM    7  C7  UNL     1     -34.415  15.096  -4.076  1.00 20.00     0.070 C 
HETATM    8  N9  UNL     1     -35.895  12.878  -4.494  1.00 20.00    -0.196 NA
ENDROOT
BRANCH   7   9
HETATM    9  C8  UNL     1     -32.997  14.754  -4.333  1.00 20.00     0.188 C 
BRANCH   9  10
HETATM   10  O10 UNL     1     -32.896  13.349  -4.426  1.00 20.00    -0.399 OA
HETATM   11  H23 UNL     1     -33.371  12.974  -3.663  1.00 20.00     0.209 HD
ENDBRANCH   9  10
ENDBRANCH   7   9
TORSDOF 2
ENDMDL
MODEL 3
REMARK VINA RESULT:      -4.8      1.656      2.264
REMARK  2 active torsions:
REMARK  status: ('A' for Active; 'I' for Inactive)
REMARK    1  A    between atoms: C7_7  and  C8_8 
REMARK    2  A    between atoms: C8_8  and  O10_10 
ROOT
HETATM    1  C1  UNL     1     -35.774  14.684  -5.818  1.00 20.00     0.071 C 
HETATM    2  C2  UNL     1     -33.886  16.674  -2.440  1.00 20.00     0.000 C 
HETATM    3  C3  UNL     1     -32.986  15.863  -3.365  1.00 20.00     0.002 C 
HETATM    4  C4  UNL     1     -35.211  15.965  -2.181  1.00 20.00     0.002 C 
HETATM    5  C5  UNL     1     -33.693  15.512  -4.676  1.00 20.00     0.027 C 
HETATM    6  C6  UNL     1     -35.928  15.614  -3.487  1.00 20.00     0.027 C 
HETATM    7  C7  UNL     1     -35.050  14.806  -4.466  1.00 20.00     0.070 C 
HETATM    8  N9  UNL     1     -36.321  14.593  -6.838  1.00 20.00    -0.196 NA
ENDROOT
BRANCH   7   9
HETATM    9  C8  UNL     1     -34.832  13.438  -3.940  1.00 20.00     0.188 C 
BRANCH   9  10
HETATM   10  O10 UNL     1     -35.825  12.596  -4.486  1.00 20.00    -0.399 OA
HETATM   11  H23 UNL     1     -36.686  13.018  -4.316  1.00 20.00     0.209 HD
ENDBRANCH   9  10
ENDBRANCH   7   9
TORSDOF 2
ENDMDL
MODEL 4
REMARK VINA RESULT:      -4.6      1.690      2.238
REMARK  2 active torsions:
REMARK  status: ('A' for Active; 'I' for Inactive)
REMARK    1  A    between atoms: C7_7  and  C8_8 
REMARK    2  A    between atoms: C8_8  and  O10_10 
ROOT
HETATM    1  C1  UNL     1     -36.692  15.576  -5.929  1.00 20.00     0.071 C 
HETATM    2  C2  UNL     1     -33.442  15.881  -3.051  1.00 20.00     0.000 C 
HETATM    3  C3  UNL     1     -33.254  14.918  -4.218  1.00 20.00     0.002 C 
HETATM    4  C4  UNL     1     -34.862  15.821  -2.498  1.00 20.00     0.002 C 
HETATM    5  C5  UNL     1     -34.289  15.156  -5.320  1.00 20.00     0.027 C 
HETATM    6  C6  UNL     1     -35.905  16.063  -3.591  1.00 20.00     0.027 C 
HETATM    7  C7  UNL     1     -35.744  15.122  -4.805  1.00 20.00     0.070 C 
HETATM    8  N9  UNL     1     -37.406  15.918  -6.777  1.00 20.00    -0.196 NA
ENDROOT
BRANCH   7   9
HETATM    9  C8  UNL     1     -36.114  13.738  -4.426  1.00 20.00     0.188 C 
BRANCH   9  10
HETATM   10  O10 UNL     1     -37.521  13.630  -4.488  1.00 20.00    -0.399 OA
HETATM   11  H23 UNL     1     -37.807  13.131  -3.701  1.00 20.00     0.209 HD
ENDBRANCH   9  10
ENDBRANCH   7   9
TORSDOF 2
ENDMDL
MODEL 5
REMARK VINA RESULT:      -4.5      1.538      1.785
REMARK  2 active torsions:
REMARK  status: ('A' for Active; 'I' for Inactive)
REMARK    1  A    between atoms: C7_7  and  C8_8 
REMARK    2  A    between atoms: C8_8  and  O10_10 
ROOT
HETATM    1  C1  UNL     1     -35.480  13.863  -4.252  1.00 20.00     0.071 C 
HETATM    2  C2  UNL     1     -33.529  17.009  -1.966  1.00 20.00     0.000 C 
HETATM    3  C3  UNL     1     -35.048  17.068  -2.080  1.00 20.00     0.002 C 
HETATM    4  C4  UNL     1     -32.882  16.602  -3.286  1.00 20.00     0.002 C 
HETATM    5  C5  UNL     1     -35.627  15.749  -2.596  1.00 20.00     0.027 C 
HETATM    6  C6  UNL     1     -33.451  15.281  -3.809  1.00 20.00     0.027 C 
HETATM    7  C7  UNL     1     -34.991  15.285  -3.925  1.00 20.00     0.070 C 
HETATM    8  N9  UNL     1     -35.848  12.791  -4.499  1.00 20.00    -0.196 NA
ENDROOT
BRANCH   7   9
HETATM    9  C8  UNL     1     -35.414  16.179  -5.028  1.00 20.00     0.188 C 
BRANCH   9  10
HETATM   10  O10 UNL     1     -36.200  15.424  -5.926  1.00 20.00    -0.399 OA
HETATM   11  H23 UNL     1     -35.951  14.489  -5.810  1.00 20.00     0.209 HD
ENDBRANCH   9  10
ENDBRANCH   7   9
TORSDOF 2
ENDMDL
MODEL 6
REMARK VINA RESULT:      -4.4      1.877      2.340
REMARK  2 active torsions:
REMARK  status: ('A' for Active; 'I' for Inactive)
REMARK    1  A    between atoms: C7_7  and  C8_8 
REMARK    2  A    between atoms: C8_8  and  O10_10 
ROOT
HETATM    1  C1  UNL     1     -35.666  13.840  -4.278  1.00 20.00     0.071 C 
HETATM    2  C2  UNL     1     -33.421  17.507  -3.611  1.00 20.00     0.000 C 
HETATM    3  C3  UNL     1     -34.133  16.896  -2.410  1.00 20.00     0.002 C 
HETATM    4  C4  UNL     1     -34.279  17.432  -4.870  1.00 20.00     0.002 C 
HETATM    5  C5  UNL     1     -34.583  15.460  -2.690  1.00 20.00     0.027 C 
HETATM    6  C6  UNL     1     -34.729  15.999  -5.162  1.00 20.00     0.027 C 
HETATM    7  C7  UNL     1     -35.442  15.330  -3.967  1.00 20.00     0.070 C 
HETATM    8  N9  UNL     1     -35.835  12.716  -4.513  1.00 20.00    -0.196 NA
ENDROOT
BRANCH   7   9
HETATM    9  C8  UNL     1     -36.767  15.957  -3.751  1.00 20.00     0.188 C 
BRANCH   9  10
HETATM   10  O10 UNL     1     -37.693  14.931  -3.459  1.00 20.00    -0.399 OA
HETATM   11  H23 UNL     1     -38.553  15.357  -3.296  1.00 20.00     0.209 HD
ENDBRANCH   9  10
ENDBRANCH   7   9
TORSDOF 2
ENDMDL
MODEL 7
REMARK VINA RESULT:      -4.2      2.301      2.952
REMARK  2 active torsions:
REMARK  status: ('A' for Active; 'I' for Inactive)
REMARK    1  A    between atoms: C7_7  and  C8_8 
REMARK    2  A    between atoms: C8_8  and  O10_10 
ROOT
HETATM    1  C1  UNL     1     -34.463  16.307  -5.775  1.00 20.00     0.071 C 
HETATM    2  C2  UNL     1     -34.226  17.190  -1.521  1.00 20.00     0.000 C 
HETATM    3  C3  UNL     1     -32.938  17.296  -2.329  1.00 20.00     0.002 C 
HETATM    4  C4  UNL     1     -35.052  15.978  -1.938  1.00 20.00     0.002 C 
HETATM    5  C5  UNL     1     -33.214  17.305  -3.834  1.00 20.00     0.027 C 
HETATM    6  C6  UNL     1     -35.338  15.979  -3.441  1.00 20.00     0.027 C 
HETATM    7  C7  UNL     1     -34.064  16.103  -4.303  1.00 20.00     0.070 C 
HETATM    8  N9  UNL     1     -34.765  16.461  -6.885  1.00 20.00    -0.196 NA
ENDROOT
BRANCH   7   9
HETATM    9  C8  UNL     1     -33.269  14.856  -4.214  1.00 20.00     0.188 C 
BRANCH   9  10
HETATM   10  O10 UNL     1     -32.973  14.431  -5.528  1.00 20.00    -0.399 OA
HETATM   11  H23 UNL     1     -33.385  13.557  -5.648  1.00 20.00     0.209 HD
ENDBRANCH   9  10
ENDBRANCH   7   9
TORSDOF 2
ENDMDL
MODEL 8
REMARK VINA RESULT:      -4.2      1.397      2.335
REMARK  2 active torsions:
REMARK  status: ('A' for Active; 'I' for Inactive)
REMARK    1  A    between atoms: C7_7  and  C8_8 
REMARK    2  A    between atoms: C8_8  and  O10_10 
ROOT
HETATM    1  C1  UNL     1     -37.434  14.366  -4.537  1.00 20.00     0.071 C 
HETATM    2  C2  UNL     1     -34.186  16.600  -6.378  1.00 20.00     0.000 C 
HETATM    3  C3  UNL     1     -34.406  15.168  -6.854  1.00 20.00     0.002 C 
HETATM    4  C4  UNL     1     -34.348  16.720  -4.867  1.00 20.00     0.002 C 
HETATM    5  C5  UNL     1     -35.761  14.623  -6.396  1.00 20.00     0.027 C 
HETATM    6  C6  UNL     1     -35.702  16.182  -4.399  1.00 20.00     0.027 C 
HETATM    7  C7  UNL     1     -35.980  14.739  -4.871  1.00 20.00     0.070 C 
HETATM    8  N9  UNL     1     -38.532  14.084  -4.284  1.00 20.00    -0.196 NA
ENDROOT
BRANCH   7   9
HETATM    9  C8  UNL     1     -35.089  13.793  -4.159  1.00 20.00     0.188 C 
BRANCH   9  10
HETATM   10  O10 UNL     1     -35.670  12.508  -4.232  1.00 20.00    -0.399 OA
HETATM   11  H23 UNL     1     -36.419  12.494  -3.610  1.00 20.00     0.209 HD
ENDBRANCH   9  10
ENDBRANCH   7   9
TORSDOF 2
ENDMDL
MODEL 9
REMARK VINA RESULT:      -4.2      3.319      4.326
REMARK  2 active torsions:
REMARK  status: ('A' for Active; 'I' for Inactive)
REMARK    1  A    between atoms: C7_7  and  C8_8 
REMARK    2  A    between atoms: C8_8  and  O10_10 
ROOT
HETATM    1  C1  UNL     1     -32.792  17.454  -2.081  1.00 20.00     0.071 C 
HETATM    2  C2  UNL     1     -34.862  14.067  -3.864  1.00 20.00     0.000 C 
HETATM    3  C3  UNL     1     -33.620  14.583  -4.582  1.00 20.00     0.002 C 
HETATM    4  C4  UNL     1     -35.721  15.211  -3.336  1.00 20.00     0.002 C 
HETATM    5  C5  UNL     1     -32.804  15.524  -3.693  1.00 20.00     0.027 C 
HETATM    6  C6  UNL     1     -34.915  16.156  -2.441  1.00 20.00     0.027 C 
HETATM    7  C7  UNL     1     -33.635  16.692  -3.118  1.00 20.00     0.070 C 
HETATM    8  N9  UNL     1     -32.156  18.029  -1.299  1.00 20.00    -0.196 NA
ENDROOT
BRANCH   7   9
HETATM    9  C8  UNL     1     -33.994  17.638  -4.201  1.00 20.00     0.188 C 
BRANCH   9  10
HETATM   10  O10 UNL     1     -32.856  18.421  -4.491  1.00 20.00    -0.399 OA
HETATM   11  H23 UNL     1     -32.515  18.126  -5.355  1.00 20.00     0.209 HD
ENDBRANCH   9  10
ENDBRANCH   7   9
TORSDOF 2
ENDMDL
