MODEL 1
REMARK VINA RESULT:      -5.0      0.000      0.000
REMARK  1 active torsions:
REMARK  status: ('A' for Active; 'I' for Inactive)
REMARK    1  A    between atoms: C5_5  and  O10_10 
ROOT
HETATM    1  C1  UNL     1     -33.533   7.320   5.240  1.00 20.00     0.050 A 
HETATM    2  C2  UNL     1     -34.736   5.221   5.506  1.00 20.00     0.079 A 
HETATM    3  C3  UNL     1     -33.144   6.896   3.981  1.00 20.00    -0.046 A 
HETATM    4  C4  UNL     1     -33.538   5.647   3.485  1.00 20.00    -0.018 A 
HETATM    5  C5  UNL     1     -34.327   4.796   4.239  1.00 20.00     0.075 A 
HETATM    6  C6  UNL     1     -34.341   6.473   6.002  1.00 20.00     0.119 A 
HETATM    7  C7  UNL     1     -32.257   7.601   3.004  1.00 20.00     0.039 C 
HETATM    8  C8  UNL     1     -32.951   5.402   2.131  1.00 20.00     0.042 C 
HETATM    9  C9  UNL     1     -32.564   6.828   1.712  1.00 20.00     0.009 C 
HETATM   10  F11 UNL     1     -34.738   6.856   7.224  1.00 20.00    -0.206 F 
ENDROOT
BRANCH   5  11
HETATM   11  O10 UNL     1     -34.700   3.578   3.771  1.00 20.00    -0.360 OA
HETATM   12  H20 UNL     1     -35.143   3.665   2.910  1.00 20.00     0.217 HD
ENDBRANCH   5  11
TORSDOF 1
ENDMDL
MODEL 2
REMARK VINA RESULT:      -5.0     15.921     16.642
REMARK  1 active torsions:
REMARK  status: ('A' for Active; 'I' for Inactive)
REMARK    1  A    between atoms: C5_5  and  O10_10 
ROOT
HETATM    1  C1  UNL     1     -24.200  18.140  10.711  1.00 20.00     0.050 A 
HETATM    2  C2  UNL     1     -22.186  17.421   9.548  1.00 20.00     0.079 A 
HETATM    3  C3  UNL     1     -24.703  18.575   9.497  1.00 20.00    -0.046 A 
HETATM    4  C4  UNL     1     -23.958  18.443   8.317  1.00 20.00    -0.018 A 
HETATM    5  C5  UNL     1     -22.696  17.875   8.329  1.00 20.00     0.075 A 
HETATM    6  C6  UNL     1     -22.932  17.553  10.729  1.00 20.00     0.119 A 
HETATM    7  C7  UNL     1     -26.004  19.263   9.231  1.00 20.00     0.039 C 
HETATM    8  C8  UNL     1     -24.694  19.030   7.155  1.00 20.00     0.042 C 
HETATM    9  C9  UNL     1     -26.126  19.092   7.709  1.00 20.00     0.009 C 
HETATM   10  F11 UNL     1     -22.419  17.119  11.889  1.00 20.00    -0.206 F 
ENDROOT
BRANCH   5  11
HETATM   11  O10 UNL     1     -21.964  17.757   7.192  1.00 20.00    -0.360 OA
HETATM   12  H20 UNL     1     -21.251  18.417   7.177  1.00 20.00     0.217 HD
ENDBRANCH   5  11
TORSDOF 1
ENDMDL
MODEL 3
REMARK VINA RESULT:      -5.0     12.412     12.758
REMARK  1 active torsions:
REMARK  status: ('A' for Active; 'I' for Inactive)
REMARK    1  A    between atoms: C5_5  and  O10_10 
ROOT
HETATM    1  C1  UNL     1     -36.442  15.242  -3.287  1.00 20.00     0.050 A 
HETATM    2  C2  UNL     1     -35.570  14.321  -5.363  1.00 20.00     0.079 A 
HETATM    3  C3  UNL     1     -35.174  15.723  -3.009  1.00 20.00    -0.046 A 
HETATM    4  C4  UNL     1     -34.109  15.504  -3.893  1.00 20.00    -0.018 A 
HETATM    5  C5  UNL     1     -34.291  14.799  -5.070  1.00 20.00     0.075 A 
HETATM    6  C6  UNL     1     -36.637  14.540  -4.479  1.00 20.00     0.119 A 
HETATM    7  C7  UNL     1     -34.713  16.461  -1.793  1.00 20.00     0.039 C 
HETATM    8  C8  UNL     1     -32.839  16.076  -3.348  1.00 20.00     0.042 C 
HETATM    9  C9  UNL     1     -33.380  17.045  -2.286  1.00 20.00     0.009 C 
HETATM   10  F11 UNL     1     -37.854  14.065  -4.777  1.00 20.00    -0.206 F 
ENDROOT
BRANCH   5  11
HETATM   11  O10 UNL     1     -33.260  14.571  -5.923  1.00 20.00    -0.360 OA
HETATM   12  H20 UNL     1     -33.031  15.382  -6.406  1.00 20.00     0.217 HD
ENDBRANCH   5  11
TORSDOF 1
ENDMDL
MODEL 4
REMARK VINA RESULT:      -4.9     12.271     12.742
REMARK  1 active torsions:
REMARK  status: ('A' for Active; 'I' for Inactive)
REMARK    1  A    between atoms: C5_5  and  O10_10 
ROOT
HETATM    1  C1  UNL     1     -35.310  16.998  -0.439  1.00 20.00     0.050 A 
HETATM    2  C2  UNL     1     -33.395  18.434   0.004  1.00 20.00     0.079 A 
HETATM    3  C3  UNL     1     -34.703  16.613  -1.622  1.00 20.00    -0.046 A 
HETATM    4  C4  UNL     1     -33.457  17.133  -1.997  1.00 20.00    -0.018 A 
HETATM    5  C5  UNL     1     -32.795  18.049  -1.198  1.00 20.00     0.075 A 
HETATM    6  C6  UNL     1     -34.643  17.913   0.380  1.00 20.00     0.119 A 
HETATM    7  C7  UNL     1     -35.232  15.688  -2.671  1.00 20.00     0.039 C 
HETATM    8  C8  UNL     1     -33.039  16.602  -3.331  1.00 20.00     0.042 C 
HETATM    9  C9  UNL     1     -33.953  15.374  -3.463  1.00 20.00     0.009 C 
HETATM   10  F11 UNL     1     -35.203  18.303   1.533  1.00 20.00    -0.206 F 
ENDROOT
BRANCH   5  11
HETATM   11  O10 UNL     1     -31.595  18.567  -1.563  1.00 20.00    -0.360 OA
HETATM   12  H20 UNL     1     -31.207  19.076  -0.831  1.00 20.00     0.217 HD
ENDBRANCH   5  11
TORSDOF 1
ENDMDL
MODEL 5
REMARK VINA RESULT:      -4.9      2.656      4.202
REMARK  1 active torsions:
REMARK  status: ('A' for Active; 'I' for Inactive)
REMARK    1  A    between atoms: C5_5  and  O10_10 
ROOT
HETATM    1  C1  UNL     1     -34.163   4.258   3.540  1.00 20.00     0.050 A 
HETATM    2  C2  UNL     1     -32.808   5.801   2.235  1.00 20.00     0.079 A 
HETATM    3  C3  UNL     1     -34.143   5.174   4.578  1.00 20.00    -0.046 A 
HETATM    4  C4  UNL     1     -33.459   6.391   4.455  1.00 20.00    -0.018 A 
HETATM    5  C5  UNL     1     -32.782   6.714   3.292  1.00 20.00     0.075 A 
HETATM    6  C6  UNL     1     -33.492   4.583   2.358  1.00 20.00     0.119 A 
HETATM    7  C7  UNL     1     -34.747   5.038   5.939  1.00 20.00     0.039 C 
HETATM    8  C8  UNL     1     -33.544   7.180   5.722  1.00 20.00     0.042 C 
HETATM    9  C9  UNL     1     -34.732   6.498   6.419  1.00 20.00     0.009 C 
HETATM   10  F11 UNL     1     -33.497   3.718   1.334  1.00 20.00    -0.206 F 
ENDROOT
BRANCH   5  11
HETATM   11  O10 UNL     1     -32.105   7.885   3.171  1.00 20.00    -0.360 OA
HETATM   12  H20 UNL     1     -31.831   8.212   4.045  1.00 20.00     0.217 HD
ENDBRANCH   5  11
TORSDOF 1
ENDMDL
MODEL 6
REMARK VINA RESULT:      -4.9      2.112      3.506
REMARK  1 active torsions:
REMARK  status: ('A' for Active; 'I' for Inactive)
REMARK    1  A    between atoms: C5_5  and  O10_10 
ROOT
HETATM    1  C1  UNL     1     -32.868   7.541   3.721  1.00 20.00     0.050 A 
HETATM    2  C2  UNL     1     -32.761   5.898   1.930  1.00 20.00     0.079 A 
HETATM    3  C3  UNL     1     -33.638   6.648   4.447  1.00 20.00    -0.046 A 
HETATM    4  C4  UNL     1     -33.974   5.393   3.923  1.00 20.00    -0.018 A 
HETATM    5  C5  UNL     1     -33.549   5.007   2.664  1.00 20.00     0.075 A 
HETATM    6  C6  UNL     1     -32.424   7.155   2.454  1.00 20.00     0.119 A 
HETATM    7  C7  UNL     1     -34.256   6.846   5.794  1.00 20.00     0.039 C 
HETATM    8  C8  UNL     1     -34.847   4.637   4.873  1.00 20.00     0.042 C 
HETATM    9  C9  UNL     1     -34.593   5.398   6.183  1.00 20.00     0.009 C 
HETATM   10  F11 UNL     1     -31.675   7.996   1.729  1.00 20.00    -0.206 F 
ENDROOT
BRANCH   5  11
HETATM   11  O10 UNL     1     -33.883   3.799   2.145  1.00 20.00    -0.360 OA
HETATM   12  H20 UNL     1     -33.131   3.415   1.663  1.00 20.00     0.217 HD
ENDBRANCH   5  11
TORSDOF 1
ENDMDL
MODEL 7
REMARK VINA RESULT:      -4.9     12.429     12.644
REMARK  1 active torsions:
REMARK  status: ('A' for Active; 'I' for Inactive)
REMARK    1  A    between atoms: C5_5  and  O10_10 
ROOT
HETATM    1  C1  UNL     1     -35.007  16.244  -2.506  1.00 20.00     0.050 A 
HETATM    2  C2  UNL     1     -32.917  15.703  -3.628  1.00 20.00     0.079 A 
HETATM    3  C3  UNL     1     -35.674  15.511  -3.473  1.00 20.00    -0.046 A 
HETATM    4  C4  UNL     1     -34.976  14.882  -4.512  1.00 20.00    -0.018 A 
HETATM    5  C5  UNL     1     -33.599  14.976  -4.606  1.00 20.00     0.075 A 
HETATM    6  C6  UNL     1     -33.615  16.333  -2.587  1.00 20.00     0.119 A 
HETATM    7  C7  UNL     1     -37.148  15.306  -3.620  1.00 20.00     0.039 C 
HETATM    8  C8  UNL     1     -35.920  14.198  -5.449  1.00 20.00     0.042 C 
HETATM    9  C9  UNL     1     -37.187  14.110  -4.584  1.00 20.00     0.009 C 
HETATM   10  F11 UNL     1     -32.940  17.033  -1.664  1.00 20.00    -0.206 F 
ENDROOT
BRANCH   5  11
HETATM   11  O10 UNL     1     -32.918  14.381  -5.619  1.00 20.00    -0.360 OA
HETATM   12  H20 UNL     1     -32.072  14.027  -5.299  1.00 20.00     0.217 HD
ENDBRANCH   5  11
TORSDOF 1
ENDMDL
MODEL 8
REMARK VINA RESULT:      -4.9     12.218     12.600
REMARK  1 active torsions:
REMARK  status: ('A' for Active; 'I' for Inactive)
REMARK    1  A    between atoms: C5_5  and  O10_10 
ROOT
HETATM    1  C1  UNL     1     -32.936  15.797  -3.411  1.00 20.00     0.050 A 
HETATM    2  C2  UNL     1     -34.856  14.526  -4.200  1.00 20.00     0.079 A 
HETATM    3  C3  UNL     1     -33.775  16.443  -2.520  1.00 20.00    -0.046 A 
HETATM    4  C4  UNL     1     -35.143  16.142  -2.467  1.00 20.00    -0.018 A 
HETATM    5  C5  UNL     1     -35.698  15.191  -3.305  1.00 20.00     0.075 A 
HETATM    6  C6  UNL     1     -33.486  14.827  -4.253  1.00 20.00     0.119 A 
HETATM    7  C7  UNL     1     -33.433  17.534  -1.556  1.00 20.00     0.039 C 
HETATM    8  C8  UNL     1     -35.839  17.004  -1.462  1.00 20.00     0.042 C 
HETATM    9  C9  UNL     1     -34.652  17.500  -0.622  1.00 20.00     0.009 C 
HETATM   10  F11 UNL     1     -32.699  14.182  -5.125  1.00 20.00    -0.206 F 
ENDROOT
BRANCH   5  11
HETATM   11  O10 UNL     1     -37.024  14.906  -3.269  1.00 20.00    -0.360 OA
HETATM   12  H20 UNL     1     -37.164  13.946  -3.210  1.00 20.00     0.217 HD
ENDBRANCH   5  11
TORSDOF 1
ENDMDL
MODEL 9
REMARK VINA RESULT:      -4.7     12.179     12.960
REMARK  1 active torsions:
REMARK  status: ('A' for Active; 'I' for Inactive)
REMARK    1  A    between atoms: C5_5  and  O10_10 
ROOT
HETATM    1  C1  UNL     1     -32.971  16.601  -2.735  1.00 20.00     0.050 A 
HETATM    2  C2  UNL     1     -35.237  16.012  -2.072  1.00 20.00     0.079 A 
HETATM    3  C3  UNL     1     -32.963  17.554  -1.732  1.00 20.00    -0.046 A 
HETATM    4  C4  UNL     1     -34.079  17.743  -0.906  1.00 20.00    -0.018 A 
HETATM    5  C5  UNL     1     -35.225  16.985  -1.069  1.00 20.00     0.075 A 
HETATM    6  C6  UNL     1     -34.120  15.822  -2.899  1.00 20.00     0.119 A 
HETATM    7  C7  UNL     1     -31.878  18.525  -1.392  1.00 20.00     0.039 C 
HETATM    8  C8  UNL     1     -33.841  18.858   0.062  1.00 20.00     0.042 C 
HETATM    9  C9  UNL     1     -32.310  18.975   0.013  1.00 20.00     0.009 C 
HETATM   10  F11 UNL     1     -34.157  14.888  -3.859  1.00 20.00    -0.206 F 
ENDROOT
BRANCH   5  11
HETATM   11  O10 UNL     1     -36.315  17.173  -0.282  1.00 20.00    -0.360 OA
HETATM   12  H20 UNL     1     -37.026  16.561  -0.533  1.00 20.00     0.217 HD
ENDBRANCH   5  11
TORSDOF 1
ENDMDL
