MODEL 1
REMARK VINA RESULT:      -4.8      0.000      0.000
REMARK  2 active torsions:
REMARK  status: ('A' for Active; 'I' for Inactive)
REMARK    1  A    between atoms: C5_5  and  C8_8 
REMARK    2  A    between atoms: C6_6  and  N9_9 
ROOT
HETATM    1  C1  UNL     1     -34.793  15.918  -2.355  1.00 20.00     0.006 C 
HETATM    2  C2  UNL     1     -32.919  15.229  -3.908  1.00 20.00     0.006 C 
HETATM    3  C3  UNL     1     -35.793  15.162  -3.224  1.00 20.00     0.024 C 
HETATM    4  C4  UNL     1     -33.919  14.471  -4.780  1.00 20.00     0.024 C 
HETATM    5  C5  UNL     1     -33.556  16.393  -3.133  1.00 20.00    -0.015 C 
HETATM    6  C6  UNL     1     -35.127  14.006  -3.969  1.00 20.00     0.109 C 
ENDROOT
BRANCH   5   7
HETATM    7  C8  UNL     1     -33.887  17.571  -4.053  1.00 20.00     0.000 C 
HETATM    8  C7  UNL     1     -32.917  18.694  -3.881  1.00 20.00     0.005 C 
ENDBRANCH   5   7
BRANCH   6   9
HETATM    9  N9  UNL     1     -36.103  13.385  -4.872  1.00 20.00    -0.059 NA
HETATM   10  O10 UNL     1     -37.255  13.587  -4.495  1.00 20.00    -0.101 OA
ENDBRANCH   6   9
TORSDOF 2
ENDMDL
MODEL 2
REMARK VINA RESULT:      -4.8      1.394      2.348
REMARK  2 active torsions:
REMARK  status: ('A' for Active; 'I' for Inactive)
REMARK    1  A    between atoms: C5_5  and  C8_8 
REMARK    2  A    between atoms: C6_6  and  N9_9 
ROOT
HETATM    1  C1  UNL     1     -33.617  15.617  -3.514  1.00 20.00     0.006 C 
HETATM    2  C2  UNL     1     -35.705  16.979  -3.943  1.00 20.00     0.006 C 
HETATM    3  C3  UNL     1     -34.368  14.344  -3.896  1.00 20.00     0.024 C 
HETATM    4  C4  UNL     1     -36.459  15.706  -4.325  1.00 20.00     0.024 C 
HETATM    5  C5  UNL     1     -34.539  16.722  -2.976  1.00 20.00    -0.015 C 
HETATM    6  C6  UNL     1     -35.511  14.637  -4.867  1.00 20.00     0.109 C 
ENDROOT
BRANCH   5   7
HETATM    7  C8  UNL     1     -35.037  16.403  -1.563  1.00 20.00     0.000 C 
HETATM    8  C7  UNL     1     -34.708  17.499  -0.603  1.00 20.00     0.005 C 
ENDBRANCH   5   7
BRANCH   6   9
HETATM    9  N9  UNL     1     -36.266  13.404  -5.112  1.00 20.00    -0.059 NA
HETATM   10  O10 UNL     1     -35.815  12.464  -4.460  1.00 20.00    -0.101 OA
ENDBRANCH   6   9
TORSDOF 2
ENDMDL
MODEL 3
REMARK VINA RESULT:      -4.8     10.913     12.706
REMARK  2 active torsions:
REMARK  status: ('A' for Active; 'I' for Inactive)
REMARK    1  A    between atoms: C5_5  and  C8_8 
REMARK    2  A    between atoms: C6_6  and  N9_9 
ROOT
HETATM    1  C1  UNL     1     -41.026   6.094  -0.828  1.00 20.00     0.006 C 
HETATM    2  C2  UNL     1     -42.776   5.866   0.984  1.00 20.00     0.006 C 
HETATM    3  C3  UNL     1     -41.328   7.587  -0.933  1.00 20.00     0.024 C 
HETATM    4  C4  UNL     1     -43.080   7.359   0.881  1.00 20.00     0.024 C 
HETATM    5  C5  UNL     1     -42.220   5.272  -0.320  1.00 20.00    -0.015 C 
HETATM    6  C6  UNL     1     -41.866   8.144   0.384  1.00 20.00     0.109 C 
ENDROOT
BRANCH   5   7
HETATM    7  C8  UNL     1     -43.308   5.138  -1.388  1.00 20.00     0.000 C 
HETATM    8  C7  UNL     1     -43.074   3.953  -2.267  1.00 20.00     0.005 C 
ENDBRANCH   5   7
BRANCH   6   9
HETATM    9  N9  UNL     1     -42.245   9.549   0.198  1.00 20.00    -0.059 NA
HETATM   10  O10 UNL     1     -41.293  10.301   0.399  1.00 20.00    -0.101 OA
ENDBRANCH   6   9
TORSDOF 2
ENDMDL
MODEL 4
REMARK VINA RESULT:      -4.6     17.940     18.620
REMARK  2 active torsions:
REMARK  status: ('A' for Active; 'I' for Inactive)
REMARK    1  A    between atoms: C5_5  and  C8_8 
REMARK    2  A    between atoms: C6_6  and  N9_9 
ROOT
HETATM    1  C1  UNL     1     -24.124  16.264  11.176  1.00 20.00     0.006 C 
HETATM    2  C2  UNL     1     -22.192  17.764  11.823  1.00 20.00     0.006 C 
HETATM    3  C3  UNL     1     -23.922  16.636   9.709  1.00 20.00     0.024 C 
HETATM    4  C4  UNL     1     -21.988  18.137  10.356  1.00 20.00     0.024 C 
HETATM    5  C5  UNL     1     -23.637  17.351  12.146  1.00 20.00    -0.015 C 
HETATM    6  C6  UNL     1     -22.473  17.027   9.424  1.00 20.00     0.109 C 
ENDROOT
BRANCH   5   7
HETATM    7  C8  UNL     1     -24.579  18.558  12.158  1.00 20.00     0.000 C 
HETATM    8  C7  UNL     1     -26.003  18.144  12.331  1.00 20.00     0.005 C 
ENDBRANCH   5   7
BRANCH   6   9
HETATM    9  N9  UNL     1     -22.358  17.481   8.034  1.00 20.00    -0.059 NA
HETATM   10  O10 UNL     1     -21.730  16.676   7.349  1.00 20.00    -0.101 OA
ENDBRANCH   6   9
TORSDOF 2
ENDMDL
MODEL 5
REMARK VINA RESULT:      -4.5      1.462      2.416
REMARK  2 active torsions:
REMARK  status: ('A' for Active; 'I' for Inactive)
REMARK    1  A    between atoms: C5_5  and  C8_8 
REMARK    2  A    between atoms: C6_6  and  N9_9 
ROOT
HETATM    1  C1  UNL     1     -33.600  16.668  -3.375  1.00 20.00     0.006 C 
HETATM    2  C2  UNL     1     -36.128  16.604  -3.424  1.00 20.00     0.006 C 
HETATM    3  C3  UNL     1     -33.559  15.144  -3.451  1.00 20.00     0.024 C 
HETATM    4  C4  UNL     1     -36.090  15.079  -3.500  1.00 20.00     0.024 C 
HETATM    5  C5  UNL     1     -34.891  17.206  -2.739  1.00 20.00    -0.015 C 
HETATM    6  C6  UNL     1     -34.798  14.584  -4.148  1.00 20.00     0.109 C 
ENDROOT
BRANCH   5   7
HETATM    7  C8  UNL     1     -34.914  16.972  -1.226  1.00 20.00     0.000 C 
HETATM    8  C7  UNL     1     -34.030  17.937  -0.506  1.00 20.00     0.005 C 
ENDBRANCH   5   7
BRANCH   6   9
HETATM    9  N9  UNL     1     -34.762  13.119  -4.095  1.00 20.00    -0.059 NA
HETATM   10  O10 UNL     1     -35.821  12.630  -4.485  1.00 20.00    -0.101 OA
ENDBRANCH   6   9
TORSDOF 2
ENDMDL
MODEL 6
REMARK VINA RESULT:      -4.3      1.483      2.337
REMARK  2 active torsions:
REMARK  status: ('A' for Active; 'I' for Inactive)
REMARK    1  A    between atoms: C5_5  and  C8_8 
REMARK    2  A    between atoms: C6_6  and  N9_9 
ROOT
HETATM    1  C1  UNL     1     -34.437  16.556  -4.925  1.00 20.00     0.006 C 
HETATM    2  C2  UNL     1     -36.521  16.458  -3.494  1.00 20.00     0.006 C 
HETATM    3  C3  UNL     1     -34.605  15.079  -5.273  1.00 20.00     0.024 C 
HETATM    4  C4  UNL     1     -36.691  14.979  -3.841  1.00 20.00     0.024 C 
HETATM    5  C5  UNL     1     -35.061  16.931  -3.572  1.00 20.00    -0.015 C 
HETATM    6  C6  UNL     1     -36.069  14.649  -5.197  1.00 20.00     0.109 C 
ENDROOT
BRANCH   5   7
HETATM    7  C8  UNL     1     -34.231  16.398  -2.401  1.00 20.00     0.000 C 
HETATM    8  C7  UNL     1     -32.961  17.165  -2.232  1.00 20.00     0.005 C 
ENDBRANCH   5   7
BRANCH   6   9
HETATM    9  N9  UNL     1     -36.161  13.203  -5.430  1.00 20.00    -0.059 NA
HETATM   10  O10 UNL     1     -35.787  12.566  -4.447  1.00 20.00    -0.101 OA
ENDBRANCH   6   9
TORSDOF 2
ENDMDL
MODEL 7
REMARK VINA RESULT:      -4.2      1.962      2.755
REMARK  2 active torsions:
REMARK  status: ('A' for Active; 'I' for Inactive)
REMARK    1  A    between atoms: C5_5  and  C8_8 
REMARK    2  A    between atoms: C6_6  and  N9_9 
ROOT
HETATM    1  C1  UNL     1     -35.480  16.463  -5.550  1.00 20.00     0.006 C 
HETATM    2  C2  UNL     1     -34.126  14.814  -4.190  1.00 20.00     0.006 C 
HETATM    3  C3  UNL     1     -36.680  15.519  -5.500  1.00 20.00     0.024 C 
HETATM    4  C4  UNL     1     -35.325  13.869  -4.139  1.00 20.00     0.024 C 
HETATM    5  C5  UNL     1     -34.134  15.733  -5.422  1.00 20.00    -0.015 C 
HETATM    6  C6  UNL     1     -36.643  14.632  -4.257  1.00 20.00     0.109 C 
ENDROOT
BRANCH   5   7
HETATM    7  C8  UNL     1     -33.785  14.967  -6.701  1.00 20.00     0.000 C 
HETATM    8  C7  UNL     1     -33.968  15.813  -7.918  1.00 20.00     0.005 C 
ENDBRANCH   5   7
BRANCH   6   9
HETATM    9  N9  UNL     1     -37.751  13.672  -4.314  1.00 20.00    -0.059 NA
HETATM   10  O10 UNL     1     -38.840  14.244  -4.335  1.00 20.00    -0.101 OA
ENDBRANCH   6   9
TORSDOF 2
ENDMDL
MODEL 8
REMARK VINA RESULT:      -4.2      1.295      1.729
REMARK  2 active torsions:
REMARK  status: ('A' for Active; 'I' for Inactive)
REMARK    1  A    between atoms: C5_5  and  C8_8 
REMARK    2  A    between atoms: C6_6  and  N9_9 
ROOT
HETATM    1  C1  UNL     1     -36.779  17.088  -3.450  1.00 20.00     0.006 C 
HETATM    2  C2  UNL     1     -34.835  15.869  -2.385  1.00 20.00     0.006 C 
HETATM    3  C3  UNL     1     -36.948  15.947  -4.449  1.00 20.00     0.024 C 
HETATM    4  C4  UNL     1     -35.003  14.725  -3.384  1.00 20.00     0.024 C 
HETATM    5  C5  UNL     1     -35.342  17.217  -2.920  1.00 20.00    -0.015 C 
HETATM    6  C6  UNL     1     -36.446  14.622  -3.877  1.00 20.00     0.109 C 
ENDROOT
BRANCH   5   7
HETATM    7  C8  UNL     1     -34.400  17.794  -3.980  1.00 20.00     0.000 C 
HETATM    8  C7  UNL     1     -32.999  17.900  -3.473  1.00 20.00     0.005 C 
ENDBRANCH   5   7
BRANCH   6   9
HETATM    9  N9  UNL     1     -36.527  13.586  -4.913  1.00 20.00    -0.059 NA
HETATM   10  O10 UNL     1     -35.858  12.599  -4.614  1.00 20.00    -0.101 OA
ENDBRANCH   6   9
TORSDOF 2
ENDMDL
MODEL 9
REMARK VINA RESULT:      -4.2     10.913     11.746
REMARK  2 active torsions:
REMARK  status: ('A' for Active; 'I' for Inactive)
REMARK    1  A    between atoms: C5_5  and  C8_8 
REMARK    2  A    between atoms: C6_6  and  N9_9 
ROOT
HETATM    1  C1  UNL     1     -32.267   7.440   3.798  1.00 20.00     0.006 C 
HETATM    2  C2  UNL     1     -32.781   5.603   2.137  1.00 20.00     0.006 C 
HETATM    3  C3  UNL     1     -33.519   7.075   4.591  1.00 20.00     0.024 C 
HETATM    4  C4  UNL     1     -34.036   5.237   2.928  1.00 20.00     0.024 C 
HETATM    5  C5  UNL     1     -32.367   7.073   2.310  1.00 20.00    -0.015 C 
HETATM    6  C6  UNL     1     -33.892   5.605   4.404  1.00 20.00     0.109 C 
ENDROOT
BRANCH   5   7
HETATM    7  C8  UNL     1     -33.309   8.017   1.559  1.00 20.00     0.000 C 
HETATM    8  C7  UNL     1     -32.644   8.629   0.370  1.00 20.00     0.005 C 
ENDBRANCH   5   7
BRANCH   6   9
HETATM    9  N9  UNL     1     -35.159   5.336   5.093  1.00 20.00    -0.059 NA
HETATM   10  O10 UNL     1     -35.010   5.307   6.313  1.00 20.00    -0.101 OA
ENDBRANCH   6   9
TORSDOF 2
ENDMDL
