MODEL 1
REMARK VINA RESULT:      -4.0      0.000      0.000
REMARK  2 active torsions:
REMARK  status: ('A' for Active; 'I' for Inactive)
REMARK    1  A    between atoms: C2_2  and  C6_6 
REMARK    2  A    between atoms: C3_3  and  C7_7 
ROOT
HETATM    1  C1  UNL     1     -22.309  17.776   8.201  1.00 20.00     0.133 A 
HETATM    2  C2  UNL     1     -22.911  17.993   9.423  1.00 20.00     0.016 A 
HETATM    3  C3  UNL     1     -24.167  18.702   7.494  1.00 20.00     0.078 A 
HETATM    4  N8  UNL     1     -23.028  18.182   7.094  1.00 20.00    -0.257 NA
HETATM    5  S9  UNL     1     -24.438  18.737   9.189  1.00 20.00    -0.076 SA
ENDROOT
BRANCH   3   6
HETATM    6  C7  UNL     1     -25.229  19.262   6.566  1.00 20.00     0.037 C 
HETATM    7  C4  UNL     1     -26.555  18.511   6.712  1.00 20.00     0.016 C 
HETATM    8  C5  UNL     1     -24.760  19.262   5.109  1.00 20.00     0.016 C 
ENDBRANCH   3   6
BRANCH   2   9
HETATM    9  C6  UNL     1     -22.427  17.684  10.784  1.00 20.00     0.162 C 
HETATM   10 CL10 UNL     1     -23.580  16.641  11.655  1.00 20.00    -0.125 Cl
ENDBRANCH   2   9
TORSDOF 2
ENDMDL
MODEL 2
REMARK VINA RESULT:      -3.8     14.952     16.163
REMARK  2 active torsions:
REMARK  status: ('A' for Active; 'I' for Inactive)
REMARK    1  A    between atoms: C2_2  and  C6_6 
REMARK    2  A    between atoms: C3_3  and  C7_7 
ROOT
HETATM    1  C1  UNL     1     -33.675  14.545  -4.386  1.00 20.00     0.133 A 
HETATM    2  C2  UNL     1     -35.005  14.531  -4.018  1.00 20.00     0.016 A 
HETATM    3  C3  UNL     1     -33.625  16.166  -2.910  1.00 20.00     0.078 A 
HETATM    4  N8  UNL     1     -32.883  15.481  -3.751  1.00 20.00    -0.257 NA
HETATM    5  S9  UNL     1     -35.285  15.735  -2.829  1.00 20.00    -0.076 SA
ENDROOT
BRANCH   3   6
HETATM    6  C7  UNL     1     -33.111  17.287  -2.026  1.00 20.00     0.037 C 
HETATM    7  C4  UNL     1     -34.146  17.692  -0.972  1.00 20.00     0.016 C 
HETATM    8  C5  UNL     1     -32.671  18.498  -2.851  1.00 20.00     0.016 C 
ENDBRANCH   3   6
BRANCH   2   9
HETATM    9  C6  UNL     1     -36.108  13.673  -4.492  1.00 20.00     0.162 C 
HETATM   10 CL10 UNL     1     -37.684  14.483  -4.294  1.00 20.00    -0.125 Cl
ENDBRANCH   2   9
TORSDOF 2
ENDMDL
MODEL 3
REMARK VINA RESULT:      -3.7     13.445     15.115
REMARK  2 active torsions:
REMARK  status: ('A' for Active; 'I' for Inactive)
REMARK    1  A    between atoms: C2_2  and  C6_6 
REMARK    2  A    between atoms: C3_3  and  C7_7 
ROOT
HETATM    1  C1  UNL     1     -34.713  17.071  -1.224  1.00 20.00     0.133 A 
HETATM    2  C2  UNL     1     -33.535  17.612  -1.697  1.00 20.00     0.016 A 
HETATM    3  C3  UNL     1     -34.358  15.685  -2.886  1.00 20.00     0.078 A 
HETATM    4  N8  UNL     1     -35.187  15.967  -1.905  1.00 20.00    -0.257 NA
HETATM    5  S9  UNL     1     -32.988  16.707  -3.047  1.00 20.00    -0.076 SA
ENDROOT
BRANCH   3   6
HETATM    6  C7  UNL     1     -34.539  14.535  -3.859  1.00 20.00     0.037 C 
HETATM    7  C4  UNL     1     -33.789  14.785  -5.171  1.00 20.00     0.016 C 
HETATM    8  C5  UNL     1     -36.019  14.249  -4.124  1.00 20.00     0.016 C 
ENDBRANCH   3   6
BRANCH   2   9
HETATM    9  C6  UNL     1     -32.766  18.775  -1.212  1.00 20.00     0.162 C 
HETATM   10 CL10 UNL     1     -31.200  18.270  -0.527  1.00 20.00    -0.125 Cl
ENDBRANCH   2   9
TORSDOF 2
ENDMDL
MODEL 4
REMARK VINA RESULT:      -3.6     13.852     15.541
REMARK  2 active torsions:
REMARK  status: ('A' for Active; 'I' for Inactive)
REMARK    1  A    between atoms: C2_2  and  C6_6 
REMARK    2  A    between atoms: C3_3  and  C7_7 
ROOT
HETATM    1  C1  UNL     1     -33.270  15.352  -3.862  1.00 20.00     0.133 A 
HETATM    2  C2  UNL     1     -34.553  14.972  -3.525  1.00 20.00     0.016 A 
HETATM    3  C3  UNL     1     -33.661  16.853  -2.312  1.00 20.00     0.078 A 
HETATM    4  N8  UNL     1     -32.757  16.430  -3.168  1.00 20.00    -0.257 NA
HETATM    5  S9  UNL     1     -35.150  15.999  -2.288  1.00 20.00    -0.076 SA
ENDROOT
BRANCH   3   6
HETATM    6  C7  UNL     1     -33.467  18.024  -1.366  1.00 20.00     0.037 C 
HETATM    7  C4  UNL     1     -31.987  18.240  -1.035  1.00 20.00     0.016 C 
HETATM    8  C5  UNL     1     -34.293  17.858  -0.089  1.00 20.00     0.016 C 
ENDBRANCH   3   6
BRANCH   2   9
HETATM    9  C6  UNL     1     -35.388  13.880  -4.063  1.00 20.00     0.162 C 
HETATM   10 CL10 UNL     1     -37.086  14.395  -4.239  1.00 20.00    -0.125 Cl
ENDBRANCH   2   9
TORSDOF 2
ENDMDL
MODEL 5
REMARK VINA RESULT:      -3.6     22.634     24.224
REMARK  2 active torsions:
REMARK  status: ('A' for Active; 'I' for Inactive)
REMARK    1  A    between atoms: C2_2  and  C6_6 
REMARK    2  A    between atoms: C3_3  and  C7_7 
ROOT
HETATM    1  C1  UNL     1     -41.106   4.685  -1.541  1.00 20.00     0.133 A 
HETATM    2  C2  UNL     1     -42.438   4.547  -1.876  1.00 20.00     0.016 A 
HETATM    3  C3  UNL     1     -41.902   6.407  -0.442  1.00 20.00     0.078 A 
HETATM    4  N8  UNL     1     -40.797   5.751  -0.719  1.00 20.00    -0.257 NA
HETATM    5  S9  UNL     1     -43.349   5.797  -1.135  1.00 20.00    -0.076 SA
ENDROOT
BRANCH   3   6
HETATM    6  C7  UNL     1     -41.970   7.644   0.436  1.00 20.00     0.037 C 
HETATM    7  C4  UNL     1     -43.417   8.062   0.707  1.00 20.00     0.016 C 
HETATM    8  C5  UNL     1     -41.169   8.803  -0.161  1.00 20.00     0.016 C 
ENDBRANCH   3   6
BRANCH   2   9
HETATM    9  C6  UNL     1     -43.100   3.535  -2.721  1.00 20.00     0.162 C 
HETATM   10 CL10 UNL     1     -41.915   2.658  -3.724  1.00 20.00    -0.125 Cl
ENDBRANCH   2   9
TORSDOF 2
ENDMDL
MODEL 6
REMARK VINA RESULT:      -3.6     13.527     14.777
REMARK  2 active torsions:
REMARK  status: ('A' for Active; 'I' for Inactive)
REMARK    1  A    between atoms: C2_2  and  C6_6 
REMARK    2  A    between atoms: C3_3  and  C7_7 
ROOT
HETATM    1  C1  UNL     1     -32.869  17.656  -1.858  1.00 20.00     0.133 A 
HETATM    2  C2  UNL     1     -33.986  17.793  -1.058  1.00 20.00     0.016 A 
HETATM    3  C3  UNL     1     -34.069  16.016  -2.683  1.00 20.00     0.078 A 
HETATM    4  N8  UNL     1     -32.915  16.638  -2.790  1.00 20.00    -0.257 NA
HETATM    5  S9  UNL     1     -35.147  16.605  -1.484  1.00 20.00    -0.076 SA
ENDROOT
BRANCH   3   6
HETATM    6  C7  UNL     1     -34.492  14.838  -3.541  1.00 20.00     0.037 C 
HETATM    7  C4  UNL     1     -33.703  14.785  -4.852  1.00 20.00     0.016 C 
HETATM    8  C5  UNL     1     -35.998  14.850  -3.810  1.00 20.00     0.016 C 
ENDBRANCH   3   6
BRANCH   2   9
HETATM    9  C6  UNL     1     -34.263  18.761   0.021  1.00 20.00     0.162 C 
HETATM   10 CL10 UNL     1     -33.938  18.049   1.623  1.00 20.00    -0.125 Cl
ENDBRANCH   2   9
TORSDOF 2
ENDMDL
MODEL 7
REMARK VINA RESULT:      -3.6     16.754     18.356
REMARK  2 active torsions:
REMARK  status: ('A' for Active; 'I' for Inactive)
REMARK    1  A    between atoms: C2_2  and  C6_6 
REMARK    2  A    between atoms: C3_3  and  C7_7 
ROOT
HETATM    1  C1  UNL     1     -36.264  13.603  -4.500  1.00 20.00     0.133 A 
HETATM    2  C2  UNL     1     -35.417  14.646  -4.186  1.00 20.00     0.016 A 
HETATM    3  C3  UNL     1     -37.771  15.159  -4.155  1.00 20.00     0.078 A 
HETATM    4  N8  UNL     1     -37.614  13.895  -4.483  1.00 20.00    -0.257 NA
HETATM    5  S9  UNL     1     -36.338  16.055  -3.856  1.00 20.00    -0.076 SA
ENDROOT
BRANCH   3   6
HETATM    6  C7  UNL     1     -39.114  15.853  -4.031  1.00 20.00     0.037 C 
HETATM    7  C4  UNL     1     -40.239  15.015  -4.645  1.00 20.00     0.016 C 
HETATM    8  C5  UNL     1     -39.082  17.255  -4.644  1.00 20.00     0.016 C 
ENDBRANCH   3   6
BRANCH   2   9
HETATM    9  C6  UNL     1     -33.943  14.679  -4.111  1.00 20.00     0.162 C 
HETATM   10 CL10 UNL     1     -33.381  15.998  -3.052  1.00 20.00    -0.125 Cl
ENDBRANCH   2   9
TORSDOF 2
ENDMDL
MODEL 8
REMARK VINA RESULT:      -3.5     16.511     18.273
REMARK  2 active torsions:
REMARK  status: ('A' for Active; 'I' for Inactive)
REMARK    1  A    between atoms: C2_2  and  C6_6 
REMARK    2  A    between atoms: C3_3  and  C7_7 
ROOT
HETATM    1  C1  UNL     1     -35.602  14.587  -6.307  1.00 20.00     0.133 A 
HETATM    2  C2  UNL     1     -36.226  15.816  -6.381  1.00 20.00     0.016 A 
HETATM    3  C3  UNL     1     -34.899  15.427  -4.408  1.00 20.00     0.078 A 
HETATM    4  N8  UNL     1     -34.841  14.362  -5.177  1.00 20.00    -0.257 NA
HETATM    5  S9  UNL     1     -35.852  16.734  -4.981  1.00 20.00    -0.076 SA
ENDROOT
BRANCH   3   6
HETATM    6  C7  UNL     1     -34.189  15.561  -3.073  1.00 20.00     0.037 C 
HETATM    7  C4  UNL     1     -35.142  16.048  -1.977  1.00 20.00     0.016 C 
HETATM    8  C5  UNL     1     -32.965  16.473  -3.176  1.00 20.00     0.016 C 
ENDBRANCH   3   6
BRANCH   2   9
HETATM    9  C6  UNL     1     -37.098  16.372  -7.433  1.00 20.00     0.162 C 
HETATM   10 CL10 UNL     1     -38.683  16.848  -6.770  1.00 20.00    -0.125 Cl
ENDBRANCH   2   9
TORSDOF 2
ENDMDL
MODEL 9
REMARK VINA RESULT:      -3.5     10.661     12.215
REMARK  2 active torsions:
REMARK  status: ('A' for Active; 'I' for Inactive)
REMARK    1  A    between atoms: C2_2  and  C6_6 
REMARK    2  A    between atoms: C3_3  and  C7_7 
ROOT
HETATM    1  C1  UNL     1     -31.085  18.662  -0.033  1.00 20.00     0.133 A 
HETATM    2  C2  UNL     1     -31.971  18.769   1.020  1.00 20.00     0.016 A 
HETATM    3  C3  UNL     1     -32.888  17.931  -1.044  1.00 20.00     0.078 A 
HETATM    4  N8  UNL     1     -31.609  18.181  -1.216  1.00 20.00    -0.257 NA
HETATM    5  S9  UNL     1     -33.527  18.251   0.517  1.00 20.00    -0.076 SA
ENDROOT
BRANCH   3   6
HETATM    6  C7  UNL     1     -33.810  17.388  -2.121  1.00 20.00     0.037 C 
HETATM    7  C4  UNL     1     -35.023  16.676  -1.516  1.00 20.00     0.016 C 
HETATM    8  C5  UNL     1     -33.064  16.468  -3.089  1.00 20.00     0.016 C 
ENDBRANCH   3   6
BRANCH   2   9
HETATM    9  C6  UNL     1     -31.747  19.237   2.401  1.00 20.00     0.162 C 
HETATM   10 CL10 UNL     1     -32.349  18.052   3.589  1.00 20.00    -0.125 Cl
ENDBRANCH   2   9
TORSDOF 2
ENDMDL
