MODEL 1
REMARK VINA RESULT:      -3.7      0.000      0.000
REMARK  2 active torsions:
REMARK  status: ('A' for Active; 'I' for Inactive)
REMARK    1  A    between atoms: C2_2  and  C5_5 
REMARK    2  A    between atoms: C9_9  and  N10_10 
ROOT
HETATM    1  C3  UNL     1     -33.496  14.413  -4.170  1.00 20.00     0.070 C 
HETATM    2  C4  UNL     1     -33.766  15.374  -5.335  1.00 20.00     0.277 C 
HETATM    3  C5  UNL     1     -34.667  15.104  -3.447  1.00 20.00     0.247 C 
HETATM    4  N10 UNL     1     -35.057  15.750  -4.722  1.00 20.00     0.105 N 
ENDROOT
BRANCH   4   5
HETATM    5  C9  UNL     1     -36.151  15.010  -5.355  1.00 20.00     0.150 C 
HETATM    6  C6  UNL     1     -36.381  13.697  -4.598  1.00 20.00     0.048 C 
HETATM    7  C7  UNL     1     -37.424  15.863  -5.310  1.00 20.00     0.048 C 
HETATM    8  C8  UNL     1     -35.781  14.706  -6.811  1.00 20.00     0.048 C 
ENDBRANCH   4   5
BRANCH   3   9
HETATM    9  C2  UNL     1     -34.293  16.120  -2.437  1.00 20.00    -0.002 C 
HETATM   10  C1  UNL     1     -35.089  16.505  -1.434  1.00 20.00     0.009 C 
ENDBRANCH   3   9
TORSDOF 2
ENDMDL
MODEL 2
REMARK VINA RESULT:      -3.7      0.012      1.373
REMARK  2 active torsions:
REMARK  status: ('A' for Active; 'I' for Inactive)
REMARK    1  A    between atoms: C2_2  and  C5_5 
REMARK    2  A    between atoms: C9_9  and  N10_10 
ROOT
HETATM    1  C3  UNL     1     -33.508  14.396  -4.162  1.00 20.00     0.070 C 
HETATM    2  C4  UNL     1     -33.766  15.358  -5.330  1.00 20.00     0.277 C 
HETATM    3  C5  UNL     1     -34.675  15.100  -3.444  1.00 20.00     0.247 C 
HETATM    4  N10 UNL     1     -35.055  15.747  -4.721  1.00 20.00     0.105 N 
ENDROOT
BRANCH   4   5
HETATM    5  C9  UNL     1     -36.155  15.016  -5.356  1.00 20.00     0.150 C 
HETATM    6  C6  UNL     1     -37.425  15.873  -5.311  1.00 20.00     0.048 C 
HETATM    7  C7  UNL     1     -35.782  14.718  -6.812  1.00 20.00     0.048 C 
HETATM    8  C8  UNL     1     -36.393  13.703  -4.601  1.00 20.00     0.048 C 
ENDBRANCH   4   5
BRANCH   3   9
HETATM    9  C2  UNL     1     -34.294  16.114  -2.435  1.00 20.00    -0.002 C 
HETATM   10  C1  UNL     1     -35.084  16.498  -1.427  1.00 20.00     0.009 C 
ENDBRANCH   3   9
TORSDOF 2
ENDMDL
MODEL 3
REMARK VINA RESULT:      -3.7      0.013      1.370
REMARK  2 active torsions:
REMARK  status: ('A' for Active; 'I' for Inactive)
REMARK    1  A    between atoms: C2_2  and  C5_5 
REMARK    2  A    between atoms: C9_9  and  N10_10 
ROOT
HETATM    1  C3  UNL     1     -33.504  14.396  -4.170  1.00 20.00     0.070 C 
HETATM    2  C4  UNL     1     -33.765  15.360  -5.335  1.00 20.00     0.277 C 
HETATM    3  C5  UNL     1     -34.672  15.096  -3.449  1.00 20.00     0.247 C 
HETATM    4  N10 UNL     1     -35.054  15.746  -4.723  1.00 20.00     0.105 N 
ENDROOT
BRANCH   4   5
HETATM    5  C9  UNL     1     -36.153  15.016  -5.359  1.00 20.00     0.150 C 
HETATM    6  C6  UNL     1     -35.781  14.705  -6.813  1.00 20.00     0.048 C 
HETATM    7  C7  UNL     1     -36.393  13.709  -4.595  1.00 20.00     0.048 C 
HETATM    8  C8  UNL     1     -37.420  15.878  -5.326  1.00 20.00     0.048 C 
ENDBRANCH   4   5
BRANCH   3   9
HETATM    9  C2  UNL     1     -34.291  16.108  -2.437  1.00 20.00    -0.002 C 
HETATM   10  C1  UNL     1     -35.088  16.504  -1.439  1.00 20.00     0.009 C 
ENDBRANCH   3   9
TORSDOF 2
ENDMDL
MODEL 4
REMARK VINA RESULT:      -3.7      1.428      2.386
REMARK  2 active torsions:
REMARK  status: ('A' for Active; 'I' for Inactive)
REMARK    1  A    between atoms: C2_2  and  C5_5 
REMARK    2  A    between atoms: C9_9  and  N10_10 
ROOT
HETATM    1  C3  UNL     1     -35.391  15.283  -3.118  1.00 20.00     0.070 C 
HETATM    2  C4  UNL     1     -34.784  14.143  -3.947  1.00 20.00     0.277 C 
HETATM    3  C5  UNL     1     -34.302  16.185  -3.729  1.00 20.00     0.247 C 
HETATM    4  N10 UNL     1     -33.999  15.128  -4.721  1.00 20.00     0.105 N 
ENDROOT
BRANCH   4   5
HETATM    5  C9  UNL     1     -34.664  15.417  -5.994  1.00 20.00     0.150 C 
HETATM    6  C6  UNL     1     -35.018  16.907  -6.054  1.00 20.00     0.048 C 
HETATM    7  C7  UNL     1     -33.716  15.063  -7.145  1.00 20.00     0.048 C 
HETATM    8  C8  UNL     1     -35.943  14.579  -6.099  1.00 20.00     0.048 C 
ENDBRANCH   4   5
BRANCH   3   9
HETATM    9  C2  UNL     1     -33.126  16.450  -2.869  1.00 20.00    -0.002 C 
HETATM   10  C1  UNL     1     -32.853  17.639  -2.323  1.00 20.00     0.009 C 
ENDBRANCH   3   9
TORSDOF 2
ENDMDL
MODEL 5
REMARK VINA RESULT:      -3.6      1.233      1.731
REMARK  2 active torsions:
REMARK  status: ('A' for Active; 'I' for Inactive)
REMARK    1  A    between atoms: C2_2  and  C5_5 
REMARK    2  A    between atoms: C9_9  and  N10_10 
ROOT
HETATM    1  C3  UNL     1     -34.607  14.035  -3.832  1.00 20.00     0.070 C 
HETATM    2  C4  UNL     1     -33.413  14.486  -4.683  1.00 20.00     0.277 C 
HETATM    3  C5  UNL     1     -34.891  15.531  -3.601  1.00 20.00     0.247 C 
HETATM    4  N10 UNL     1     -33.939  15.868  -4.684  1.00 20.00     0.105 N 
ENDROOT
BRANCH   4   5
HETATM    5  C9  UNL     1     -34.659  16.134  -5.932  1.00 20.00     0.150 C 
HETATM    6  C6  UNL     1     -36.145  15.815  -5.737  1.00 20.00     0.048 C 
HETATM    7  C7  UNL     1     -34.490  17.611  -6.301  1.00 20.00     0.048 C 
HETATM    8  C8  UNL     1     -34.085  15.251  -7.046  1.00 20.00     0.048 C 
ENDBRANCH   4   5
BRANCH   3   9
HETATM    9  C2  UNL     1     -34.429  16.083  -2.306  1.00 20.00    -0.002 C 
HETATM   10  C1  UNL     1     -35.230  16.687  -1.423  1.00 20.00     0.009 C 
ENDBRANCH   3   9
TORSDOF 2
ENDMDL
MODEL 6
REMARK VINA RESULT:      -3.6      0.968      1.741
REMARK  2 active torsions:
REMARK  status: ('A' for Active; 'I' for Inactive)
REMARK    1  A    between atoms: C2_2  and  C5_5 
REMARK    2  A    between atoms: C9_9  and  N10_10 
ROOT
HETATM    1  C3  UNL     1     -33.208  15.549  -3.749  1.00 20.00     0.070 C 
HETATM    2  C4  UNL     1     -34.014  16.155  -4.907  1.00 20.00     0.277 C 
HETATM    3  C5  UNL     1     -34.504  15.637  -2.922  1.00 20.00     0.247 C 
HETATM    4  N10 UNL     1     -35.266  15.900  -4.164  1.00 20.00     0.105 N 
ENDROOT
BRANCH   4   5
HETATM    5  C9  UNL     1     -35.898  14.670  -4.646  1.00 20.00     0.150 C 
HETATM    6  C6  UNL     1     -35.753  14.589  -6.169  1.00 20.00     0.048 C 
HETATM    7  C7  UNL     1     -35.209  13.465  -3.995  1.00 20.00     0.048 C 
HETATM    8  C8  UNL     1     -37.384  14.683  -4.270  1.00 20.00     0.048 C 
ENDBRANCH   4   5
BRANCH   3   9
HETATM    9  C2  UNL     1     -34.601  16.786  -1.993  1.00 20.00    -0.002 C 
HETATM   10  C1  UNL     1     -35.271  16.757  -0.836  1.00 20.00     0.009 C 
ENDBRANCH   3   9
TORSDOF 2
ENDMDL
MODEL 7
REMARK VINA RESULT:      -3.6      1.360      3.795
REMARK  2 active torsions:
REMARK  status: ('A' for Active; 'I' for Inactive)
REMARK    1  A    between atoms: C2_2  and  C5_5 
REMARK    2  A    between atoms: C9_9  and  N10_10 
ROOT
HETATM    1  C3  UNL     1     -35.382  13.925  -4.197  1.00 20.00     0.070 C 
HETATM    2  C4  UNL     1     -36.304  15.088  -3.808  1.00 20.00     0.277 C 
HETATM    3  C5  UNL     1     -34.582  14.954  -5.019  1.00 20.00     0.247 C 
HETATM    4  N10 UNL     1     -35.313  16.048  -4.339  1.00 20.00     0.105 N 
ENDROOT
BRANCH   4   5
HETATM    5  C9  UNL     1     -34.507  16.599  -3.247  1.00 20.00     0.150 C 
HETATM    6  C6  UNL     1     -33.074  16.067  -3.356  1.00 20.00     0.048 C 
HETATM    7  C7  UNL     1     -34.503  18.128  -3.351  1.00 20.00     0.048 C 
HETATM    8  C8  UNL     1     -35.113  16.171  -1.905  1.00 20.00     0.048 C 
ENDBRANCH   4   5
BRANCH   3   9
HETATM    9  C2  UNL     1     -34.852  14.968  -6.474  1.00 20.00    -0.002 C 
HETATM   10  C1  UNL     1     -33.920  15.196  -7.405  1.00 20.00     0.009 C 
ENDBRANCH   3   9
TORSDOF 2
ENDMDL
MODEL 8
REMARK VINA RESULT:      -3.5      1.350      3.543
REMARK  2 active torsions:
REMARK  status: ('A' for Active; 'I' for Inactive)
REMARK    1  A    between atoms: C2_2  and  C5_5 
REMARK    2  A    between atoms: C9_9  and  N10_10 
ROOT
HETATM    1  C3  UNL     1     -35.266  14.795  -5.351  1.00 20.00     0.070 C 
HETATM    2  C4  UNL     1     -34.520  14.286  -4.111  1.00 20.00     0.277 C 
HETATM    3  C5  UNL     1     -36.353  15.295  -4.380  1.00 20.00     0.247 C 
HETATM    4  N10 UNL     1     -35.426  15.071  -3.247  1.00 20.00     0.105 N 
ENDROOT
BRANCH   4   5
HETATM    5  C9  UNL     1     -34.785  16.330  -2.855  1.00 20.00     0.150 C 
HETATM    6  C6  UNL     1     -35.342  17.470  -3.714  1.00 20.00     0.048 C 
HETATM    7  C7  UNL     1     -35.081  16.602  -1.377  1.00 20.00     0.048 C 
HETATM    8  C8  UNL     1     -33.272  16.216  -3.070  1.00 20.00     0.048 C 
ENDBRANCH   4   5
BRANCH   3   9
HETATM    9  C2  UNL     1     -37.551  14.435  -4.255  1.00 20.00    -0.002 C 
HETATM   10  C1  UNL     1     -38.806  14.898  -4.248  1.00 20.00     0.009 C 
ENDBRANCH   3   9
TORSDOF 2
ENDMDL
MODEL 9
REMARK VINA RESULT:      -3.4      1.449      2.581
REMARK  2 active torsions:
REMARK  status: ('A' for Active; 'I' for Inactive)
REMARK    1  A    between atoms: C2_2  and  C5_5 
REMARK    2  A    between atoms: C9_9  and  N10_10 
ROOT
HETATM    1  C3  UNL     1     -34.757  16.098  -2.052  1.00 20.00     0.070 C 
HETATM    2  C4  UNL     1     -33.730  16.537  -3.104  1.00 20.00     0.277 C 
HETATM    3  C5  UNL     1     -35.802  16.153  -3.182  1.00 20.00     0.247 C 
HETATM    4  N10 UNL     1     -34.708  16.249  -4.174  1.00 20.00     0.105 N 
ENDROOT
BRANCH   4   5
HETATM    5  C9  UNL     1     -34.438  14.936  -4.765  1.00 20.00     0.150 C 
HETATM    6  C6  UNL     1     -35.454  13.921  -4.231  1.00 20.00     0.048 C 
HETATM    7  C7  UNL     1     -34.560  15.039  -6.290  1.00 20.00     0.048 C 
HETATM    8  C8  UNL     1     -33.020  14.492  -4.387  1.00 20.00     0.048 C 
ENDBRANCH   4   5
BRANCH   3   9
HETATM    9  C2  UNL     1     -36.651  17.365  -3.217  1.00 20.00    -0.002 C 
HETATM   10  C1  UNL     1     -37.979  17.344  -3.371  1.00 20.00     0.009 C 
ENDBRANCH   3   9
TORSDOF 2
ENDMDL
