MODEL 1
REMARK VINA RESULT:      -4.3      0.000      0.000
REMARK  0 active torsions:
REMARK  status: ('A' for Active; 'I' for Inactive)
ROOT
HETATM    1  C1  UNL     1     -35.130  16.271  -1.634  1.00 20.00     0.047 A 
HETATM    2  C2  UNL     1     -34.208  17.248  -1.214  1.00 20.00     0.026 A 
HETATM    3  C3  UNL     1     -33.136  17.359  -2.051  1.00 20.00    -0.001 A 
HETATM    4  C4  UNL     1     -34.695  15.671  -2.804  1.00 20.00     0.075 A 
HETATM    5  C5  UNL     1     -34.062  18.182  -0.129  1.00 20.00     0.175 A 
HETATM    6  C6  UNL     1     -32.139  18.390  -1.664  1.00 20.00     0.071 A 
HETATM    7  C7  UNL     1     -32.726  18.918  -0.320  1.00 20.00     0.137 A 
HETATM    8  O8  UNL     1     -34.856  18.339   0.786  1.00 20.00    -0.291 OA
HETATM    9  S9  UNL     1     -33.185  16.313  -3.358  1.00 20.00    -0.082 SA
HETATM   10 CL10 UNL     1     -35.469  14.429  -3.699  1.00 20.00    -0.076 Cl
HETATM   11 BR11 UNL     1     -31.606  18.406   1.179  1.00 20.00    -0.082 Br
ENDROOT
TORSDOF 0
ENDMDL
MODEL 2
REMARK VINA RESULT:      -4.3      3.926      4.729
REMARK  0 active torsions:
REMARK  status: ('A' for Active; 'I' for Inactive)
ROOT
HETATM    1  C1  UNL     1     -35.487  16.640  -1.688  1.00 20.00     0.047 A 
HETATM    2  C2  UNL     1     -34.939  15.865  -2.727  1.00 20.00     0.026 A 
HETATM    3  C3  UNL     1     -33.627  16.154  -2.967  1.00 20.00    -0.001 A 
HETATM    4  C4  UNL     1     -34.534  17.506  -1.178  1.00 20.00     0.075 A 
HETATM    5  C5  UNL     1     -35.372  14.836  -3.635  1.00 20.00     0.175 A 
HETATM    6  C6  UNL     1     -32.992  15.352  -4.044  1.00 20.00     0.071 A 
HETATM    7  C7  UNL     1     -34.187  14.490  -4.551  1.00 20.00     0.137 A 
HETATM    8  O8  UNL     1     -36.490  14.346  -3.674  1.00 20.00    -0.291 OA
HETATM    9  S9  UNL     1     -33.003  17.350  -1.973  1.00 20.00    -0.082 SA
HETATM   10 CL10 UNL     1     -34.720  18.645   0.090  1.00 20.00    -0.076 Cl
HETATM   11 BR11 UNL     1     -34.715  15.017  -6.343  1.00 20.00    -0.082 Br
ENDROOT
TORSDOF 0
ENDMDL
MODEL 3
REMARK VINA RESULT:      -4.1      1.014      1.056
REMARK  0 active torsions:
REMARK  status: ('A' for Active; 'I' for Inactive)
ROOT
HETATM    1  C1  UNL     1     -35.074  15.718  -2.177  1.00 20.00     0.047 A 
HETATM    2  C2  UNL     1     -34.255  16.844  -1.971  1.00 20.00     0.026 A 
HETATM    3  C3  UNL     1     -33.507  17.161  -3.068  1.00 20.00    -0.001 A 
HETATM    4  C4  UNL     1     -34.898  15.221  -3.458  1.00 20.00     0.075 A 
HETATM    5  C5  UNL     1     -33.967  17.777  -0.914  1.00 20.00     0.175 A 
HETATM    6  C6  UNL     1     -32.636  18.354  -2.912  1.00 20.00     0.071 A 
HETATM    7  C7  UNL     1     -32.892  18.749  -1.427  1.00 20.00     0.137 A 
HETATM    8  O8  UNL     1     -34.476  17.774   0.195  1.00 20.00    -0.291 OA
HETATM    9  S9  UNL     1     -33.748  16.139  -4.373  1.00 20.00    -0.082 SA
HETATM   10 CL10 UNL     1     -35.669  13.868  -4.175  1.00 20.00    -0.076 Cl
HETATM   11 BR11 UNL     1     -31.315  18.437  -0.341  1.00 20.00    -0.082 Br
ENDROOT
TORSDOF 0
ENDMDL
MODEL 4
REMARK VINA RESULT:      -4.1      1.129      1.262
REMARK  0 active torsions:
REMARK  status: ('A' for Active; 'I' for Inactive)
ROOT
HETATM    1  C1  UNL     1     -35.215  15.944  -2.014  1.00 20.00     0.047 A 
HETATM    2  C2  UNL     1     -34.798  17.000  -1.182  1.00 20.00     0.026 A 
HETATM    3  C3  UNL     1     -33.592  17.520  -1.553  1.00 20.00    -0.001 A 
HETATM    4  C4  UNL     1     -34.274  15.709  -3.003  1.00 20.00     0.075 A 
HETATM    5  C5  UNL     1     -35.282  17.703  -0.024  1.00 20.00     0.175 A 
HETATM    6  C6  UNL     1     -33.110  18.651  -0.718  1.00 20.00     0.071 A 
HETATM    7  C7  UNL     1     -34.224  18.747   0.367  1.00 20.00     0.137 A 
HETATM    8  O8  UNL     1     -36.338  17.486   0.549  1.00 20.00    -0.291 OA
HETATM    9  S9  UNL     1     -32.915  16.777  -2.894  1.00 20.00    -0.082 SA
HETATM   10 CL10 UNL     1     -34.330  14.531  -4.248  1.00 20.00    -0.076 Cl
HETATM   11 BR11 UNL     1     -33.551  18.212   2.107  1.00 20.00    -0.082 Br
ENDROOT
TORSDOF 0
ENDMDL
MODEL 5
REMARK VINA RESULT:      -4.1      4.340      5.142
REMARK  0 active torsions:
REMARK  status: ('A' for Active; 'I' for Inactive)
ROOT
HETATM    1  C1  UNL     1     -31.557  18.342   2.179  1.00 20.00     0.047 A 
HETATM    2  C2  UNL     1     -32.184  18.473   0.926  1.00 20.00     0.026 A 
HETATM    3  C3  UNL     1     -33.541  18.578   1.022  1.00 20.00    -0.001 A 
HETATM    4  C4  UNL     1     -32.500  18.352   3.193  1.00 20.00     0.075 A 
HETATM    5  C5  UNL     1     -31.801  18.525  -0.461  1.00 20.00     0.175 A 
HETATM    6  C6  UNL     1     -34.254  18.736  -0.272  1.00 20.00     0.071 A 
HETATM    7  C7  UNL     1     -33.085  18.641  -1.298  1.00 20.00     0.137 A 
HETATM    8  O8  UNL     1     -30.658  18.467  -0.885  1.00 20.00    -0.291 OA
HETATM    9  S9  UNL     1     -34.117  18.523   2.594  1.00 20.00    -0.082 SA
HETATM   10 CL10 UNL     1     -32.230  18.220   4.881  1.00 20.00    -0.076 Cl
HETATM   11 BR11 UNL     1     -33.203  17.007  -2.338  1.00 20.00    -0.082 Br
ENDROOT
TORSDOF 0
ENDMDL
MODEL 6
REMARK VINA RESULT:      -4.0      4.192      5.198
REMARK  0 active torsions:
REMARK  status: ('A' for Active; 'I' for Inactive)
ROOT
HETATM    1  C1  UNL     1     -33.019  16.350  -2.806  1.00 20.00     0.047 A 
HETATM    2  C2  UNL     1     -34.055  16.033  -3.705  1.00 20.00     0.026 A 
HETATM    3  C3  UNL     1     -34.757  17.131  -4.110  1.00 20.00    -0.001 A 
HETATM    4  C4  UNL     1     -32.989  17.713  -2.567  1.00 20.00     0.075 A 
HETATM    5  C5  UNL     1     -34.605  14.860  -4.331  1.00 20.00     0.175 A 
HETATM    6  C6  UNL     1     -35.854  16.856  -5.074  1.00 20.00     0.071 A 
HETATM    7  C7  UNL     1     -35.802  15.303  -5.187  1.00 20.00     0.137 A 
HETATM    8  O8  UNL     1     -34.197  13.718  -4.184  1.00 20.00    -0.291 OA
HETATM    9  S9  UNL     1     -34.216  18.568  -3.441  1.00 20.00    -0.082 SA
HETATM   10 CL10 UNL     1     -31.914  18.578  -1.549  1.00 20.00    -0.076 Cl
HETATM   11 BR11 UNL     1     -37.372  14.493  -4.386  1.00 20.00    -0.082 Br
ENDROOT
TORSDOF 0
ENDMDL
MODEL 7
REMARK VINA RESULT:      -3.9      4.627      5.494
REMARK  0 active torsions:
REMARK  status: ('A' for Active; 'I' for Inactive)
ROOT
HETATM    1  C1  UNL     1     -38.349  15.046  -4.525  1.00 20.00     0.047 A 
HETATM    2  C2  UNL     1     -37.008  14.932  -4.112  1.00 20.00     0.026 A 
HETATM    3  C3  UNL     1     -36.550  16.056  -3.489  1.00 20.00    -0.001 A 
HETATM    4  C4  UNL     1     -38.854  16.290  -4.185  1.00 20.00     0.075 A 
HETATM    5  C5  UNL     1     -35.954  13.954  -4.163  1.00 20.00     0.175 A 
HETATM    6  C6  UNL     1     -35.143  15.984  -3.016  1.00 20.00     0.071 A 
HETATM    7  C7  UNL     1     -34.704  14.578  -3.523  1.00 20.00     0.137 A 
HETATM    8  O8  UNL     1     -36.044  12.837  -4.648  1.00 20.00    -0.291 OA
HETATM    9  S9  UNL     1     -37.688  17.280  -3.373  1.00 20.00    -0.082 SA
HETATM   10 CL10 UNL     1     -40.430  16.900  -4.476  1.00 20.00    -0.076 Cl
HETATM   11 BR11 UNL     1     -33.387  14.728  -4.940  1.00 20.00    -0.082 Br
ENDROOT
TORSDOF 0
ENDMDL
MODEL 8
REMARK VINA RESULT:      -3.9      4.725      5.816
REMARK  0 active torsions:
REMARK  status: ('A' for Active; 'I' for Inactive)
ROOT
HETATM    1  C1  UNL     1     -35.251  15.358  -3.300  1.00 20.00     0.047 A 
HETATM    2  C2  UNL     1     -36.506  15.617  -3.882  1.00 20.00     0.026 A 
HETATM    3  C3  UNL     1     -36.747  16.950  -4.049  1.00 20.00    -0.001 A 
HETATM    4  C4  UNL     1     -34.585  16.545  -3.043  1.00 20.00     0.075 A 
HETATM    5  C5  UNL     1     -37.637  14.867  -4.361  1.00 20.00     0.175 A 
HETATM    6  C6  UNL     1     -38.052  17.280  -4.677  1.00 20.00     0.071 A 
HETATM    7  C7  UNL     1     -38.697  15.871  -4.839  1.00 20.00     0.137 A 
HETATM    8  O8  UNL     1     -37.734  13.650  -4.362  1.00 20.00    -0.291 OA
HETATM    9  S9  UNL     1     -35.500  17.936  -3.520  1.00 20.00    -0.082 SA
HETATM   10 CL10 UNL     1     -33.033  16.749  -2.343  1.00 20.00    -0.076 Cl
HETATM   11 BR11 UNL     1     -40.219  15.661  -3.654  1.00 20.00    -0.082 Br
ENDROOT
TORSDOF 0
ENDMDL
MODEL 9
REMARK VINA RESULT:      -3.9      4.279      5.106
REMARK  0 active torsions:
REMARK  status: ('A' for Active; 'I' for Inactive)
ROOT
HETATM    1  C1  UNL     1     -34.801  15.896  -2.047  1.00 20.00     0.047 A 
HETATM    2  C2  UNL     1     -34.582  15.802  -3.434  1.00 20.00     0.026 A 
HETATM    3  C3  UNL     1     -34.573  17.019  -4.052  1.00 20.00    -0.001 A 
HETATM    4  C4  UNL     1     -34.953  17.221  -1.672  1.00 20.00     0.075 A 
HETATM    5  C5  UNL     1     -34.366  14.771  -4.414  1.00 20.00     0.175 A 
HETATM    6  C6  UNL     1     -34.329  16.981  -5.517  1.00 20.00     0.071 A 
HETATM    7  C7  UNL     1     -34.247  15.448  -5.789  1.00 20.00     0.137 A 
HETATM    8  O8  UNL     1     -34.309  13.573  -4.185  1.00 20.00    -0.291 OA
HETATM    9  S9  UNL     1     -34.823  18.310  -3.013  1.00 20.00    -0.082 SA
HETATM   10 CL10 UNL     1     -35.238  17.841  -0.099  1.00 20.00    -0.076 Cl
HETATM   11 BR11 UNL     1     -35.771  14.842  -6.826  1.00 20.00    -0.082 Br
ENDROOT
TORSDOF 0
ENDMDL
