MODEL 1
REMARK VINA RESULT:      -5.2      0.000      0.000
REMARK  4 active torsions:
REMARK  status: ('A' for Active; 'I' for Inactive)
REMARK    1  A    between atoms: C1_1  and  C7_7 
REMARK    2  A    between atoms: C1_1  and  O11_11 
REMARK    3  A    between atoms: C7_7  and  C8_8 
REMARK    4  A    between atoms: C8_8  and  C9_9 
ROOT
HETATM    1  C2  UNL     1     -33.093  14.695  -4.331  1.00 20.00     0.011 C 
HETATM    2  C8  UNL     1     -34.412  15.027  -3.610  1.00 20.00    -0.002 C 
ENDROOT
BRANCH   2   3
HETATM    3  C7  UNL     1     -35.581  14.886  -4.614  1.00 20.00     0.116 C 
BRANCH   3   4
HETATM    4  C1  UNL     1     -36.297  13.553  -4.510  1.00 20.00     0.258 C 
HETATM    5  O10 UNL     1     -35.746  12.466  -4.407  1.00 20.00    -0.265 OA
BRANCH   4   6
HETATM    6  O11 UNL     1     -37.645  13.770  -4.511  1.00 20.00    -0.326 OA
HETATM    7  C6  UNL     1     -38.052  15.118  -4.253  1.00 20.00     0.213 C 
ENDBRANCH   4   6
ENDBRANCH   3   4
ENDBRANCH   2   3
BRANCH   2   8
HETATM    8  C9  UNL     1     -34.385  16.422  -2.877  1.00 20.00    -0.048 C 
HETATM    9  C3  UNL     1     -32.951  16.891  -2.563  1.00 20.00     0.015 C 
HETATM   10  C4  UNL     1     -35.173  16.355  -1.550  1.00 20.00     0.015 C 
HETATM   11  C5  UNL     1     -35.066  17.497  -3.753  1.00 20.00     0.015 C 
ENDBRANCH   2   8
TORSDOF 4
ENDMDL
MODEL 2
REMARK VINA RESULT:      -5.2      0.088      1.296
REMARK  4 active torsions:
REMARK  status: ('A' for Active; 'I' for Inactive)
REMARK    1  A    between atoms: C1_1  and  C7_7 
REMARK    2  A    between atoms: C1_1  and  O11_11 
REMARK    3  A    between atoms: C7_7  and  C8_8 
REMARK    4  A    between atoms: C8_8  and  C9_9 
ROOT
HETATM    1  C2  UNL     1     -33.115  14.722  -4.278  1.00 20.00     0.011 C 
HETATM    2  C8  UNL     1     -34.442  15.046  -3.568  1.00 20.00    -0.002 C 
ENDROOT
BRANCH   2   3
HETATM    3  C7  UNL     1     -35.600  14.913  -4.585  1.00 20.00     0.116 C 
BRANCH   3   4
HETATM    4  C1  UNL     1     -36.322  13.583  -4.493  1.00 20.00     0.258 C 
HETATM    5  O10 UNL     1     -35.776  12.488  -4.454  1.00 20.00    -0.265 OA
BRANCH   4   6
HETATM    6  O11 UNL     1     -37.667  13.810  -4.420  1.00 20.00    -0.326 OA
HETATM    7  C6  UNL     1     -38.062  15.186  -4.446  1.00 20.00     0.213 C 
ENDBRANCH   4   6
ENDBRANCH   3   4
ENDBRANCH   2   3
BRANCH   2   8
HETATM    8  C9  UNL     1     -34.423  16.436  -2.823  1.00 20.00    -0.048 C 
HETATM    9  C3  UNL     1     -35.148  16.382  -1.465  1.00 20.00     0.015 C 
HETATM   10  C4  UNL     1     -35.094  17.526  -3.687  1.00 20.00     0.015 C 
HETATM   11  C5  UNL     1     -32.966  16.888  -2.577  1.00 20.00     0.015 C 
ENDBRANCH   2   8
TORSDOF 4
ENDMDL
MODEL 3
REMARK VINA RESULT:      -5.1      0.103      1.317
REMARK  4 active torsions:
REMARK  status: ('A' for Active; 'I' for Inactive)
REMARK    1  A    between atoms: C1_1  and  C7_7 
REMARK    2  A    between atoms: C1_1  and  O11_11 
REMARK    3  A    between atoms: C7_7  and  C8_8 
REMARK    4  A    between atoms: C8_8  and  C9_9 
ROOT
HETATM    1  C2  UNL     1     -33.121  14.719  -4.252  1.00 20.00     0.011 C 
HETATM    2  C8  UNL     1     -34.453  15.066  -3.561  1.00 20.00    -0.002 C 
ENDROOT
BRANCH   2   3
HETATM    3  C7  UNL     1     -35.602  14.921  -4.586  1.00 20.00     0.116 C 
BRANCH   3   4
HETATM    4  C1  UNL     1     -36.321  13.589  -4.489  1.00 20.00     0.258 C 
HETATM    5  O10 UNL     1     -35.773  12.496  -4.457  1.00 20.00    -0.265 OA
BRANCH   4   6
HETATM    6  O11 UNL     1     -37.665  13.814  -4.404  1.00 20.00    -0.326 OA
HETATM    7  C6  UNL     1     -38.067  15.186  -4.475  1.00 20.00     0.213 C 
ENDBRANCH   4   6
ENDBRANCH   3   4
ENDBRANCH   2   3
BRANCH   2   8
HETATM    8  C9  UNL     1     -34.431  16.470  -2.843  1.00 20.00    -0.048 C 
HETATM    9  C3  UNL     1     -35.118  17.566  -3.678  1.00 20.00     0.015 C 
HETATM   10  C4  UNL     1     -32.979  16.915  -2.561  1.00 20.00     0.015 C 
HETATM   11  C5  UNL     1     -35.149  16.379  -1.477  1.00 20.00     0.015 C 
ENDBRANCH   2   8
TORSDOF 4
ENDMDL
MODEL 4
REMARK VINA RESULT:      -4.8      1.013      1.756
REMARK  4 active torsions:
REMARK  status: ('A' for Active; 'I' for Inactive)
REMARK    1  A    between atoms: C1_1  and  C7_7 
REMARK    2  A    between atoms: C1_1  and  O11_11 
REMARK    3  A    between atoms: C7_7  and  C8_8 
REMARK    4  A    between atoms: C8_8  and  C9_9 
ROOT
HETATM    1  C2  UNL     1     -33.378  14.838  -4.131  1.00 20.00     0.011 C 
HETATM    2  C8  UNL     1     -34.584  15.176  -3.235  1.00 20.00    -0.002 C 
ENDROOT
BRANCH   2   3
HETATM    3  C7  UNL     1     -35.884  14.969  -4.048  1.00 20.00     0.116 C 
BRANCH   3   4
HETATM    4  C1  UNL     1     -35.882  13.687  -4.857  1.00 20.00     0.258 C 
HETATM    5  O10 UNL     1     -35.846  12.558  -4.386  1.00 20.00    -0.265 OA
BRANCH   4   6
HETATM    6  O11 UNL     1     -35.968  13.998  -6.184  1.00 20.00    -0.326 OA
HETATM    7  C6  UNL     1     -36.231  15.374  -6.479  1.00 20.00     0.213 C 
ENDBRANCH   4   6
ENDBRANCH   3   4
ENDBRANCH   2   3
BRANCH   2   8
HETATM    8  C9  UNL     1     -34.484  16.602  -2.571  1.00 20.00    -0.048 C 
HETATM    9  C3  UNL     1     -35.173  16.656  -1.194  1.00 20.00     0.015 C 
HETATM   10  C4  UNL     1     -35.130  17.672  -3.479  1.00 20.00     0.015 C 
HETATM   11  C5  UNL     1     -33.002  17.001  -2.388  1.00 20.00     0.015 C 
ENDBRANCH   2   8
TORSDOF 4
ENDMDL
MODEL 5
REMARK VINA RESULT:      -4.8      1.019      1.208
REMARK  4 active torsions:
REMARK  status: ('A' for Active; 'I' for Inactive)
REMARK    1  A    between atoms: C1_1  and  C7_7 
REMARK    2  A    between atoms: C1_1  and  O11_11 
REMARK    3  A    between atoms: C7_7  and  C8_8 
REMARK    4  A    between atoms: C8_8  and  C9_9 
ROOT
HETATM    1  C2  UNL     1     -33.421  14.799  -4.183  1.00 20.00     0.011 C 
HETATM    2  C8  UNL     1     -34.628  15.177  -3.304  1.00 20.00    -0.002 C 
ENDROOT
BRANCH   2   3
HETATM    3  C7  UNL     1     -35.923  15.018  -4.135  1.00 20.00     0.116 C 
BRANCH   3   4
HETATM    4  C1  UNL     1     -35.998  13.695  -4.871  1.00 20.00     0.258 C 
HETATM    5  O10 UNL     1     -36.071  12.596  -4.337  1.00 20.00    -0.265 OA
BRANCH   4   6
HETATM    6  O11 UNL     1     -36.012  13.934  -6.216  1.00 20.00    -0.326 OA
HETATM    7  C6  UNL     1     -36.186  15.303  -6.597  1.00 20.00     0.213 C 
ENDBRANCH   4   6
ENDBRANCH   3   4
ENDBRANCH   2   3
BRANCH   2   8
HETATM    8  C9  UNL     1     -34.487  16.597  -2.634  1.00 20.00    -0.048 C 
HETATM    9  C3  UNL     1     -33.016  17.027  -2.476  1.00 20.00     0.015 C 
HETATM   10  C4  UNL     1     -35.147  16.609  -1.237  1.00 20.00     0.015 C 
HETATM   11  C5  UNL     1     -35.215  17.662  -3.486  1.00 20.00     0.015 C 
ENDBRANCH   2   8
TORSDOF 4
ENDMDL
MODEL 6
REMARK VINA RESULT:      -4.5      0.998      1.857
REMARK  4 active torsions:
REMARK  status: ('A' for Active; 'I' for Inactive)
REMARK    1  A    between atoms: C1_1  and  C7_7 
REMARK    2  A    between atoms: C1_1  and  O11_11 
REMARK    3  A    between atoms: C7_7  and  C8_8 
REMARK    4  A    between atoms: C8_8  and  C9_9 
ROOT
HETATM    1  C2  UNL     1     -33.613  14.814  -4.116  1.00 20.00     0.011 C 
HETATM    2  C8  UNL     1     -34.715  15.185  -3.106  1.00 20.00    -0.002 C 
ENDROOT
BRANCH   2   3
HETATM    3  C7  UNL     1     -36.096  14.965  -3.767  1.00 20.00     0.116 C 
BRANCH   3   4
HETATM    4  C1  UNL     1     -36.118  13.785  -4.719  1.00 20.00     0.258 C 
HETATM    5  O10 UNL     1     -35.795  12.641  -4.429  1.00 20.00    -0.265 OA
BRANCH   4   6
HETATM    6  O11 UNL     1     -36.593  14.200  -5.931  1.00 20.00    -0.326 OA
HETATM    7  C6  UNL     1     -35.608  14.706  -6.838  1.00 20.00     0.213 C 
ENDBRANCH   4   6
ENDBRANCH   3   4
ENDBRANCH   2   3
BRANCH   2   8
HETATM    8  C9  UNL     1     -34.538  16.628  -2.496  1.00 20.00    -0.048 C 
HETATM    9  C3  UNL     1     -35.201  17.715  -3.363  1.00 20.00     0.015 C 
HETATM   10  C4  UNL     1     -33.040  16.975  -2.344  1.00 20.00     0.015 C 
HETATM   11  C5  UNL     1     -35.160  16.688  -1.082  1.00 20.00     0.015 C 
ENDBRANCH   2   8
TORSDOF 4
ENDMDL
MODEL 7
REMARK VINA RESULT:      -4.4      1.068      1.980
REMARK  4 active torsions:
REMARK  status: ('A' for Active; 'I' for Inactive)
REMARK    1  A    between atoms: C1_1  and  C7_7 
REMARK    2  A    between atoms: C1_1  and  O11_11 
REMARK    3  A    between atoms: C7_7  and  C8_8 
REMARK    4  A    between atoms: C8_8  and  C9_9 
ROOT
HETATM    1  C2  UNL     1     -35.769  17.388  -5.292  1.00 20.00     0.011 C 
HETATM    2  C8  UNL     1     -35.373  16.041  -4.659  1.00 20.00    -0.002 C 
ENDROOT
BRANCH   2   3
HETATM    3  C7  UNL     1     -36.612  15.431  -3.963  1.00 20.00     0.116 C 
BRANCH   3   4
HETATM    4  C1  UNL     1     -36.906  14.011  -4.408  1.00 20.00     0.258 C 
HETATM    5  O10 UNL     1     -36.060  13.156  -4.632  1.00 20.00    -0.265 OA
BRANCH   4   6
HETATM    6  O11 UNL     1     -38.259  13.837  -4.478  1.00 20.00    -0.326 OA
HETATM    7  C6  UNL     1     -39.046  14.992  -4.166  1.00 20.00     0.213 C 
ENDBRANCH   4   6
ENDBRANCH   3   4
ENDBRANCH   2   3
BRANCH   2   8
HETATM    8  C9  UNL     1     -34.115  16.144  -3.715  1.00 20.00    -0.048 C 
HETATM    9  C3  UNL     1     -33.405  17.506  -3.832  1.00 20.00     0.015 C 
HETATM   10  C4  UNL     1     -33.092  15.035  -4.047  1.00 20.00     0.015 C 
HETATM   11  C5  UNL     1     -34.537  15.943  -2.242  1.00 20.00     0.015 C 
ENDBRANCH   2   8
TORSDOF 4
ENDMDL
MODEL 8
REMARK VINA RESULT:      -4.4      1.035      2.010
REMARK  4 active torsions:
REMARK  status: ('A' for Active; 'I' for Inactive)
REMARK    1  A    between atoms: C1_1  and  C7_7 
REMARK    2  A    between atoms: C1_1  and  O11_11 
REMARK    3  A    between atoms: C7_7  and  C8_8 
REMARK    4  A    between atoms: C8_8  and  C9_9 
ROOT
HETATM    1  C2  UNL     1     -35.882  17.162  -5.278  1.00 20.00     0.011 C 
HETATM    2  C8  UNL     1     -35.307  15.915  -4.582  1.00 20.00    -0.002 C 
ENDROOT
BRANCH   2   3
HETATM    3  C7  UNL     1     -36.442  15.204  -3.808  1.00 20.00     0.116 C 
BRANCH   3   4
HETATM    4  C1  UNL     1     -36.790  13.844  -4.381  1.00 20.00     0.258 C 
HETATM    5  O10 UNL     1     -35.982  12.963  -4.641  1.00 20.00    -0.265 OA
BRANCH   4   6
HETATM    6  O11 UNL     1     -38.146  13.752  -4.518  1.00 20.00    -0.326 OA
HETATM    7  C6  UNL     1     -38.880  14.937  -4.191  1.00 20.00     0.213 C 
ENDBRANCH   4   6
ENDBRANCH   3   4
ENDBRANCH   2   3
BRANCH   2   8
HETATM    8  C9  UNL     1     -34.046  16.229  -3.689  1.00 20.00    -0.048 C 
HETATM    9  C3  UNL     1     -34.369  16.187  -2.184  1.00 20.00     0.015 C 
HETATM   10  C4  UNL     1     -33.476  17.626  -4.024  1.00 20.00     0.015 C 
HETATM   11  C5  UNL     1     -32.924  15.204  -3.974  1.00 20.00     0.015 C 
ENDBRANCH   2   8
TORSDOF 4
ENDMDL
MODEL 9
REMARK VINA RESULT:      -4.3      1.185      2.429
REMARK  4 active torsions:
REMARK  status: ('A' for Active; 'I' for Inactive)
REMARK    1  A    between atoms: C1_1  and  C7_7 
REMARK    2  A    between atoms: C1_1  and  O11_11 
REMARK    3  A    between atoms: C7_7  and  C8_8 
REMARK    4  A    between atoms: C8_8  and  C9_9 
ROOT
HETATM    1  C2  UNL     1     -35.417  16.068  -1.818  1.00 20.00     0.011 C 
HETATM    2  C8  UNL     1     -35.109  15.733  -3.290  1.00 20.00    -0.002 C 
ENDROOT
BRANCH   2   3
HETATM    3  C7  UNL     1     -35.294  14.213  -3.508  1.00 20.00     0.116 C 
BRANCH   3   4
HETATM    4  C1  UNL     1     -36.319  13.887  -4.578  1.00 20.00     0.258 C 
HETATM    5  O10 UNL     1     -37.529  13.847  -4.403  1.00 20.00    -0.265 OA
BRANCH   4   6
HETATM    6  O11 UNL     1     -35.674  13.688  -5.765  1.00 20.00    -0.326 OA
HETATM    7  C6  UNL     1     -35.850  14.719  -6.742  1.00 20.00     0.213 C 
ENDBRANCH   4   6
ENDBRANCH   3   4
ENDBRANCH   2   3
BRANCH   2   8
HETATM    8  C9  UNL     1     -33.702  16.264  -3.765  1.00 20.00    -0.048 C 
HETATM    9  C3  UNL     1     -32.953  17.018  -2.650  1.00 20.00     0.015 C 
HETATM   10  C4  UNL     1     -33.859  17.216  -4.972  1.00 20.00     0.015 C 
HETATM   11  C5  UNL     1     -32.819  15.085  -4.232  1.00 20.00     0.015 C 
ENDBRANCH   2   8
TORSDOF 4
ENDMDL
