MODEL 1
REMARK VINA RESULT:      -5.1      0.000      0.000
REMARK  0 active torsions:
REMARK  status: ('A' for Active; 'I' for Inactive)
ROOT
HETATM    1  C1  UNL     1     -23.226  18.484   7.858  1.00 20.00     0.097 A 
HETATM    2  C2  UNL     1     -25.408  19.259   8.212  1.00 20.00     0.097 A 
HETATM    3  C3  UNL     1     -23.088  18.150   9.205  1.00 20.00    -0.016 A 
HETATM    4  C4  UNL     1     -25.338  18.950   9.569  1.00 20.00    -0.016 A 
HETATM    5  C5  UNL     1     -24.168  18.358  10.086  1.00 20.00     0.045 A 
HETATM    6  C6  UNL     1     -21.806  17.525   9.684  1.00 20.00     0.044 C 
HETATM    7  C7  UNL     1     -26.533  19.204  10.447  1.00 20.00     0.044 C 
HETATM    8  C8  UNL     1     -21.651  17.668  11.192  1.00 20.00     0.025 C 
HETATM    9  C9  UNL     1     -26.135  19.262  11.917  1.00 20.00     0.025 C 
HETATM   10  C10 UNL     1     -22.929  17.236  11.899  1.00 20.00     0.123 C 
HETATM   11  C11 UNL     1     -25.263  18.066  12.276  1.00 20.00     0.123 C 
HETATM   12  N12 UNL     1     -24.366  19.021   7.410  1.00 20.00    -0.374 N 
HETATM   13  N13 UNL     1     -24.068  18.026  11.438  1.00 20.00    -0.380 N 
HETATM   14  H28 UNL     1     -24.442  19.256   6.422  1.00 20.00     0.164 HD
ENDROOT
TORSDOF 0
ENDMDL
MODEL 2
REMARK VINA RESULT:      -5.0      1.362      3.215
REMARK  0 active torsions:
REMARK  status: ('A' for Active; 'I' for Inactive)
ROOT
HETATM    1  C1  UNL     1     -21.977  18.179   8.612  1.00 20.00     0.097 A 
HETATM    2  C2  UNL     1     -21.986  17.761  10.917  1.00 20.00     0.097 A 
HETATM    3  C3  UNL     1     -23.345  18.453   8.620  1.00 20.00    -0.016 A 
HETATM    4  C4  UNL     1     -23.352  18.021  10.997  1.00 20.00    -0.016 A 
HETATM    5  C5  UNL     1     -24.055  18.401   9.836  1.00 20.00     0.045 A 
HETATM    6  C6  UNL     1     -24.027  18.849   7.339  1.00 20.00     0.044 C 
HETATM    7  C7  UNL     1     -24.042  17.944  12.332  1.00 20.00     0.044 C 
HETATM    8  C8  UNL     1     -25.534  18.645   7.429  1.00 20.00     0.025 C 
HETATM    9  C9  UNL     1     -25.549  17.785  12.165  1.00 20.00     0.025 C 
HETATM   10  C10 UNL     1     -26.075  19.262   8.713  1.00 20.00     0.123 C 
HETATM   11  C11 UNL     1     -26.083  18.814  11.178  1.00 20.00     0.123 C 
HETATM   12  N12 UNL     1     -21.350  17.846   9.744  1.00 20.00    -0.374 N 
HETATM   13  N13 UNL     1     -25.422  18.680   9.882  1.00 20.00    -0.380 N 
HETATM   14  H28 UNL     1     -20.350  17.651   9.712  1.00 20.00     0.164 HD
ENDROOT
TORSDOF 0
ENDMDL
MODEL 3
REMARK VINA RESULT:      -4.9     12.153     14.285
REMARK  0 active torsions:
REMARK  status: ('A' for Active; 'I' for Inactive)
ROOT
HETATM    1  C1  UNL     1     -34.333  18.371   2.211  1.00 20.00     0.097 A 
HETATM    2  C2  UNL     1     -35.837  17.309   0.764  1.00 20.00     0.097 A 
HETATM    3  C3  UNL     1     -33.343  18.390   1.228  1.00 20.00    -0.016 A 
HETATM    4  C4  UNL     1     -34.896  17.294  -0.264  1.00 20.00    -0.016 A 
HETATM    5  C5  UNL     1     -33.627  17.866  -0.050  1.00 20.00     0.045 A 
HETATM    6  C6  UNL     1     -32.010  19.016   1.532  1.00 20.00     0.044 C 
HETATM    7  C7  UNL     1     -35.272  16.715  -1.601  1.00 20.00     0.044 C 
HETATM    8  C8  UNL     1     -30.940  18.537   0.559  1.00 20.00     0.025 C 
HETATM    9  C9  UNL     1     -34.034  16.353  -2.412  1.00 20.00     0.025 C 
HETATM   10  C10 UNL     1     -31.440  18.653  -0.875  1.00 20.00     0.123 C 
HETATM   11  C11 UNL     1     -33.050  17.515  -2.422  1.00 20.00     0.123 C 
HETATM   12  N12 UNL     1     -35.531  17.838   1.952  1.00 20.00    -0.374 N 
HETATM   13  N13 UNL     1     -32.664  17.878  -1.061  1.00 20.00    -0.380 N 
HETATM   14  H28 UNL     1     -36.236  17.837   2.688  1.00 20.00     0.164 HD
ENDROOT
TORSDOF 0
ENDMDL
MODEL 4
REMARK VINA RESULT:      -4.7     16.500     18.733
REMARK  0 active torsions:
REMARK  status: ('A' for Active; 'I' for Inactive)
ROOT
HETATM    1  C1  UNL     1     -34.073  14.974  -6.359  1.00 20.00     0.097 A 
HETATM    2  C2  UNL     1     -32.997  15.062  -4.281  1.00 20.00     0.097 A 
HETATM    3  C3  UNL     1     -35.163  15.692  -5.866  1.00 20.00    -0.016 A 
HETATM    4  C4  UNL     1     -34.051  15.782  -3.723  1.00 20.00    -0.016 A 
HETATM    5  C5  UNL     1     -35.153  16.133  -4.527  1.00 20.00     0.045 A 
HETATM    6  C6  UNL     1     -36.305  16.027  -6.786  1.00 20.00     0.044 C 
HETATM    7  C7  UNL     1     -33.970  16.216  -2.284  1.00 20.00     0.044 C 
HETATM    8  C8  UNL     1     -37.564  16.370  -6.000  1.00 20.00     0.025 C 
HETATM    9  C9  UNL     1     -35.350  16.548  -1.730  1.00 20.00     0.025 C 
HETATM   10  C10 UNL     1     -37.246  17.382  -4.907  1.00 20.00     0.123 C 
HETATM   11  C11 UNL     1     -36.094  17.474  -2.684  1.00 20.00     0.123 C 
HETATM   12  N12 UNL     1     -33.039  14.685  -5.562  1.00 20.00    -0.374 N 
HETATM   13  N13 UNL     1     -36.222  16.863  -4.004  1.00 20.00    -0.380 N 
HETATM   14  H28 UNL     1     -32.256  14.160  -5.947  1.00 20.00     0.164 HD
ENDROOT
TORSDOF 0
ENDMDL
MODEL 5
REMARK VINA RESULT:      -4.6      1.177      4.104
REMARK  0 active torsions:
REMARK  status: ('A' for Active; 'I' for Inactive)
ROOT
HETATM    1  C1  UNL     1     -23.824  17.097  12.116  1.00 20.00     0.097 A 
HETATM    2  C2  UNL     1     -22.563  17.097  10.142  1.00 20.00     0.097 A 
HETATM    3  C3  UNL     1     -24.860  17.797  11.498  1.00 20.00    -0.016 A 
HETATM    4  C4  UNL     1     -23.558  17.796   9.463  1.00 20.00    -0.016 A 
HETATM    5  C5  UNL     1     -24.748  18.138  10.134  1.00 20.00     0.045 A 
HETATM    6  C6  UNL     1     -26.099  18.130  12.283  1.00 20.00     0.044 C 
HETATM    7  C7  UNL     1     -23.366  18.127   8.007  1.00 20.00     0.044 C 
HETATM    8  C8  UNL     1     -26.879  19.263  11.629  1.00 20.00     0.025 C 
HETATM    9  C9  UNL     1     -24.286  19.262   7.573  1.00 20.00     0.025 C 
HETATM   10  C10 UNL     1     -27.063  18.989  10.141  1.00 20.00     0.123 C 
HETATM   11  C11 UNL     1     -25.713  18.989   8.030  1.00 20.00     0.123 C 
HETATM   12  N12 UNL     1     -22.724  16.774  11.429  1.00 20.00    -0.374 N 
HETATM   13  N13 UNL     1     -25.770  18.829   9.481  1.00 20.00    -0.380 N 
HETATM   14  H28 UNL     1     -21.981  16.263  11.905  1.00 20.00     0.164 HD
ENDROOT
TORSDOF 0
ENDMDL
MODEL 6
REMARK VINA RESULT:      -4.6      0.616      3.230
REMARK  0 active torsions:
REMARK  status: ('A' for Active; 'I' for Inactive)
ROOT
HETATM    1  C1  UNL     1     -25.219  19.090   7.927  1.00 20.00     0.097 A 
HETATM    2  C2  UNL     1     -22.985  18.413   8.117  1.00 20.00     0.097 A 
HETATM    3  C3  UNL     1     -25.420  18.937   9.299  1.00 20.00    -0.016 A 
HETATM    4  C4  UNL     1     -23.115  18.238   9.493  1.00 20.00    -0.016 A 
HETATM    5  C5  UNL     1     -24.346  18.527  10.115  1.00 20.00     0.045 A 
HETATM    6  C6  UNL     1     -26.764  19.262   9.890  1.00 20.00     0.044 C 
HETATM    7  C7  UNL     1     -21.923  17.795  10.298  1.00 20.00     0.044 C 
HETATM    8  C8  UNL     1     -26.942  18.605  11.252  1.00 20.00     0.025 C 
HETATM    9  C9  UNL     1     -22.351  17.212  11.640  1.00 20.00     0.025 C 
HETATM   10  C10 UNL     1     -25.726  18.871  12.130  1.00 20.00     0.123 C 
HETATM   11  C11 UNL     1     -23.336  18.145  12.332  1.00 20.00     0.123 C 
HETATM   12  N12 UNL     1     -24.025  18.826   7.387  1.00 20.00    -0.374 N 
HETATM   13  N13 UNL     1     -24.509  18.374  11.493  1.00 20.00    -0.380 N 
HETATM   14  H28 UNL     1     -23.904  18.946   6.382  1.00 20.00     0.164 HD
ENDROOT
TORSDOF 0
ENDMDL
MODEL 7
REMARK VINA RESULT:      -4.4     16.739     18.843
REMARK  0 active torsions:
REMARK  status: ('A' for Active; 'I' for Inactive)
ROOT
HETATM    1  C1  UNL     1     -33.187  14.944  -4.204  1.00 20.00     0.097 A 
HETATM    2  C2  UNL     1     -33.921  15.045  -6.426  1.00 20.00     0.097 A 
HETATM    3  C3  UNL     1     -34.263  15.721  -3.775  1.00 20.00    -0.016 A 
HETATM    4  C4  UNL     1     -35.019  15.824  -6.067  1.00 20.00    -0.016 A 
HETATM    5  C5  UNL     1     -35.221  16.155  -4.713  1.00 20.00     0.045 A 
HETATM    6  C6  UNL     1     -34.409  16.037  -2.311  1.00 20.00     0.044 C 
HETATM    7  C7  UNL     1     -35.999  16.252  -7.126  1.00 20.00     0.044 C 
HETATM    8  C8  UNL     1     -35.318  17.240  -2.095  1.00 20.00     0.025 C 
HETATM    9  C9  UNL     1     -36.826  17.445  -6.661  1.00 20.00     0.025 C 
HETATM   10  C10 UNL     1     -36.606  17.080  -2.893  1.00 20.00     0.123 C 
HETATM   11  C11 UNL     1     -37.391  17.187  -5.270  1.00 20.00     0.123 C 
HETATM   12  N12 UNL     1     -33.051  14.635  -5.498  1.00 20.00    -0.374 N 
HETATM   13  N13 UNL     1     -36.316  16.925  -4.316  1.00 20.00    -0.380 N 
HETATM   14  H28 UNL     1     -32.256  14.066  -5.786  1.00 20.00     0.164 HD
ENDROOT
TORSDOF 0
ENDMDL
MODEL 8
REMARK VINA RESULT:      -4.4     12.764     14.775
REMARK  0 active torsions:
REMARK  status: ('A' for Active; 'I' for Inactive)
ROOT
HETATM    1  C1  UNL     1     -31.723  18.273  -1.178  1.00 20.00     0.097 A 
HETATM    2  C2  UNL     1     -32.544  19.253   0.785  1.00 20.00     0.097 A 
HETATM    3  C3  UNL     1     -32.954  17.671  -1.435  1.00 20.00    -0.016 A 
HETATM    4  C4  UNL     1     -33.800  18.683   0.589  1.00 20.00    -0.016 A 
HETATM    5  C5  UNL     1     -34.032  17.893  -0.554  1.00 20.00     0.045 A 
HETATM    6  C6  UNL     1     -33.124  16.838  -2.676  1.00 20.00     0.044 C 
HETATM    7  C7  UNL     1     -34.901  18.964   1.575  1.00 20.00     0.044 C 
HETATM    8  C8  UNL     1     -34.322  15.904  -2.555  1.00 20.00     0.025 C 
HETATM    9  C9  UNL     1     -36.007  17.920   1.479  1.00 20.00     0.025 C 
HETATM   10  C10 UNL     1     -35.545  16.674  -2.073  1.00 20.00     0.123 C 
HETATM   11  C11 UNL     1     -36.423  17.723   0.027  1.00 20.00     0.123 C 
HETATM   12  N12 UNL     1     -31.558  19.034  -0.091  1.00 20.00    -0.374 N 
HETATM   13  N13 UNL     1     -35.281  17.314  -0.787  1.00 20.00    -0.380 N 
HETATM   14  H28 UNL     1     -30.649  19.463   0.074  1.00 20.00     0.164 HD
ENDROOT
TORSDOF 0
ENDMDL
MODEL 9
REMARK VINA RESULT:      -4.3     17.049     19.045
REMARK  0 active torsions:
REMARK  status: ('A' for Active; 'I' for Inactive)
ROOT
HETATM    1  C1  UNL     1     -33.839  14.856  -6.248  1.00 20.00     0.097 A 
HETATM    2  C2  UNL     1     -35.894  15.401  -7.231  1.00 20.00     0.097 A 
HETATM    3  C3  UNL     1     -34.259  15.348  -5.012  1.00 20.00    -0.016 A 
HETATM    4  C4  UNL     1     -36.378  15.909  -6.028  1.00 20.00    -0.016 A 
HETATM    5  C5  UNL     1     -35.563  15.866  -4.879  1.00 20.00     0.045 A 
HETATM    6  C6  UNL     1     -33.330  15.270  -3.831  1.00 20.00     0.044 C 
HETATM    7  C7  UNL     1     -37.782  16.448  -5.964  1.00 20.00     0.044 C 
HETATM    8  C8  UNL     1     -33.745  16.246  -2.737  1.00 20.00     0.025 C 
HETATM    9  C9  UNL     1     -37.966  17.364  -4.761  1.00 20.00     0.025 C 
HETATM   10  C10 UNL     1     -35.234  16.114  -2.447  1.00 20.00     0.123 C 
HETATM   11  C11 UNL     1     -37.432  16.697  -3.501  1.00 20.00     0.123 C 
HETATM   12  N12 UNL     1     -34.658  14.898  -7.304  1.00 20.00    -0.374 N 
HETATM   13  N13 UNL     1     -36.020  16.356  -3.655  1.00 20.00    -0.380 N 
HETATM   14  H28 UNL     1     -34.327  14.532  -8.195  1.00 20.00     0.164 HD
ENDROOT
TORSDOF 0
ENDMDL
