MODEL 1
REMARK VINA RESULT:      -4.6      0.000      0.000
REMARK  4 active torsions:
REMARK  status: ('A' for Active; 'I' for Inactive)
REMARK    1  A    between atoms: C1_1  and  C7_7 
REMARK    2  A    between atoms: C1_1  and  C8_8 
REMARK    3  A    between atoms: C7_7  and  O10_10 
REMARK    4  A    between atoms: C7_7  and  O11_11 
ROOT
HETATM    1  C1  UNL     1     -35.203  14.405  -4.192  1.00 20.00     0.188 C 
HETATM    2  O9  UNL     1     -34.733  13.295  -3.922  1.00 20.00    -0.292 OA
ENDROOT
BRANCH   1   3
HETATM    3  C7  UNL     1     -36.421  14.517  -5.105  1.00 20.00     0.330 C 
BRANCH   3   4
HETATM    4  O10 UNL     1     -36.003  13.887  -6.315  1.00 20.00    -0.359 OA
HETATM    5  C5  UNL     1     -35.685  14.833  -7.329  1.00 20.00     0.205 C 
ENDBRANCH   3   4
BRANCH   3   6
HETATM    6  O11 UNL     1     -37.518  13.829  -4.516  1.00 20.00    -0.359 OA
HETATM    7  C6  UNL     1     -38.598  14.697  -4.198  1.00 20.00     0.205 C 
ENDBRANCH   3   6
ENDBRANCH   1   3
BRANCH   1   8
HETATM    8  C8  UNL     1     -34.615  15.695  -3.579  1.00 20.00     0.015 C 
HETATM    9  C2  UNL     1     -33.085  15.616  -3.652  1.00 20.00     0.023 C 
HETATM   10  C3  UNL     1     -35.091  16.909  -4.396  1.00 20.00     0.023 C 
HETATM   11  C4  UNL     1     -35.066  15.884  -2.126  1.00 20.00     0.023 C 
ENDBRANCH   1   8
TORSDOF 4
ENDMDL
MODEL 2
REMARK VINA RESULT:      -4.6      0.056      1.303
REMARK  4 active torsions:
REMARK  status: ('A' for Active; 'I' for Inactive)
REMARK    1  A    between atoms: C1_1  and  C7_7 
REMARK    2  A    between atoms: C1_1  and  C8_8 
REMARK    3  A    between atoms: C7_7  and  O10_10 
REMARK    4  A    between atoms: C7_7  and  O11_11 
ROOT
HETATM    1  C1  UNL     1     -35.176  14.436  -4.191  1.00 20.00     0.188 C 
HETATM    2  O9  UNL     1     -34.680  13.334  -3.937  1.00 20.00    -0.292 OA
ENDROOT
BRANCH   1   3
HETATM    3  C7  UNL     1     -36.413  14.531  -5.079  1.00 20.00     0.330 C 
BRANCH   3   4
HETATM    4  O10 UNL     1     -36.017  13.891  -6.292  1.00 20.00    -0.359 OA
HETATM    5  C5  UNL     1     -35.669  14.829  -7.303  1.00 20.00     0.205 C 
ENDBRANCH   3   4
BRANCH   3   6
HETATM    6  O11 UNL     1     -37.493  13.841  -4.460  1.00 20.00    -0.359 OA
HETATM    7  C6  UNL     1     -38.614  14.683  -4.226  1.00 20.00     0.205 C 
ENDBRANCH   3   6
ENDBRANCH   1   3
BRANCH   1   8
HETATM    8  C8  UNL     1     -34.600  15.734  -3.584  1.00 20.00     0.015 C 
HETATM    9  C2  UNL     1     -35.107  16.926  -4.407  1.00 20.00     0.023 C 
HETATM   10  C3  UNL     1     -35.095  15.883  -2.135  1.00 20.00     0.023 C 
HETATM   11  C4  UNL     1     -33.066  15.716  -3.570  1.00 20.00     0.023 C 
ENDBRANCH   1   8
TORSDOF 4
ENDMDL
MODEL 3
REMARK VINA RESULT:      -4.6      0.033      1.312
REMARK  4 active torsions:
REMARK  status: ('A' for Active; 'I' for Inactive)
REMARK    1  A    between atoms: C1_1  and  C7_7 
REMARK    2  A    between atoms: C1_1  and  C8_8 
REMARK    3  A    between atoms: C7_7  and  O10_10 
REMARK    4  A    between atoms: C7_7  and  O11_11 
ROOT
HETATM    1  C1  UNL     1     -35.203  14.423  -4.202  1.00 20.00     0.188 C 
HETATM    2  O9  UNL     1     -34.738  13.316  -3.914  1.00 20.00    -0.292 OA
ENDROOT
BRANCH   1   3
HETATM    3  C7  UNL     1     -36.425  14.525  -5.111  1.00 20.00     0.330 C 
BRANCH   3   4
HETATM    4  O10 UNL     1     -36.006  13.894  -6.322  1.00 20.00    -0.359 OA
HETATM    5  C5  UNL     1     -35.690  14.839  -7.336  1.00 20.00     0.205 C 
ENDBRANCH   3   4
BRANCH   3   6
HETATM    6  O11 UNL     1     -37.516  13.831  -4.517  1.00 20.00    -0.359 OA
HETATM    7  C6  UNL     1     -38.599  14.694  -4.194  1.00 20.00     0.205 C 
ENDBRANCH   3   6
ENDBRANCH   1   3
BRANCH   1   8
HETATM    8  C8  UNL     1     -34.605  15.721  -3.617  1.00 20.00     0.015 C 
HETATM    9  C2  UNL     1     -35.067  15.858  -2.160  1.00 20.00     0.023 C 
HETATM   10  C3  UNL     1     -33.069  15.633  -3.647  1.00 20.00     0.023 C 
HETATM   11  C4  UNL     1     -35.034  16.952  -4.425  1.00 20.00     0.023 C 
ENDBRANCH   1   8
TORSDOF 4
ENDMDL
MODEL 4
REMARK VINA RESULT:      -4.0      1.514      1.830
REMARK  4 active torsions:
REMARK  status: ('A' for Active; 'I' for Inactive)
REMARK    1  A    between atoms: C1_1  and  C7_7 
REMARK    2  A    between atoms: C1_1  and  C8_8 
REMARK    3  A    between atoms: C7_7  and  O10_10 
REMARK    4  A    between atoms: C7_7  and  O11_11 
ROOT
HETATM    1  C1  UNL     1     -33.662  15.326  -4.256  1.00 20.00     0.188 C 
HETATM    2  O9  UNL     1     -32.578  14.758  -4.095  1.00 20.00    -0.292 OA
ENDROOT
BRANCH   1   3
HETATM    3  C7  UNL     1     -34.599  14.881  -5.375  1.00 20.00     0.330 C 
BRANCH   3   4
HETATM    4  O10 UNL     1     -33.726  14.628  -6.475  1.00 20.00    -0.359 OA
HETATM    5  C5  UNL     1     -34.039  15.435  -7.604  1.00 20.00     0.205 C 
ENDBRANCH   3   4
BRANCH   3   6
HETATM    6  O11 UNL     1     -35.284  13.700  -4.976  1.00 20.00    -0.359 OA
HETATM    7  C6  UNL     1     -36.648  13.942  -4.656  1.00 20.00     0.205 C 
ENDBRANCH   3   6
ENDBRANCH   1   3
BRANCH   1   8
HETATM    8  C8  UNL     1     -34.123  16.457  -3.310  1.00 20.00     0.015 C 
HETATM    9  C2  UNL     1     -32.880  17.167  -2.756  1.00 20.00     0.023 C 
HETATM   10  C3  UNL     1     -34.966  17.472  -4.102  1.00 20.00     0.023 C 
HETATM   11  C4  UNL     1     -34.978  15.914  -2.158  1.00 20.00     0.023 C 
ENDBRANCH   1   8
TORSDOF 4
ENDMDL
MODEL 5
REMARK VINA RESULT:      -3.8      1.388      1.402
REMARK  4 active torsions:
REMARK  status: ('A' for Active; 'I' for Inactive)
REMARK    1  A    between atoms: C1_1  and  C7_7 
REMARK    2  A    between atoms: C1_1  and  C8_8 
REMARK    3  A    between atoms: C7_7  and  O10_10 
REMARK    4  A    between atoms: C7_7  and  O11_11 
ROOT
HETATM    1  C1  UNL     1     -35.898  14.096  -4.519  1.00 20.00     0.188 C 
HETATM    2  O9  UNL     1     -35.874  12.867  -4.639  1.00 20.00    -0.292 OA
ENDROOT
BRANCH   1   3
HETATM    3  C7  UNL     1     -37.204  14.858  -4.724  1.00 20.00     0.330 C 
BRANCH   3   4
HETATM    4  O10 UNL     1     -37.241  15.108  -6.129  1.00 20.00    -0.359 OA
HETATM    5  C5  UNL     1     -37.523  16.470  -6.423  1.00 20.00     0.205 C 
ENDBRANCH   3   4
BRANCH   3   6
HETATM    6  O11 UNL     1     -38.296  14.043  -4.315  1.00 20.00    -0.359 OA
HETATM    7  C6  UNL     1     -39.487  14.791  -4.106  1.00 20.00     0.205 C 
ENDBRANCH   3   6
ENDBRANCH   1   3
BRANCH   1   8
HETATM    8  C8  UNL     1     -34.635  14.887  -4.113  1.00 20.00     0.015 C 
HETATM    9  C2  UNL     1     -33.442  13.923  -4.089  1.00 20.00     0.023 C 
HETATM   10  C3  UNL     1     -34.366  15.988  -5.154  1.00 20.00     0.023 C 
HETATM   11  C4  UNL     1     -34.804  15.551  -2.740  1.00 20.00     0.023 C 
ENDBRANCH   1   8
TORSDOF 4
ENDMDL
MODEL 6
REMARK VINA RESULT:      -3.5      1.580      2.883
REMARK  4 active torsions:
REMARK  status: ('A' for Active; 'I' for Inactive)
REMARK    1  A    between atoms: C1_1  and  C7_7 
REMARK    2  A    between atoms: C1_1  and  C8_8 
REMARK    3  A    between atoms: C7_7  and  O10_10 
REMARK    4  A    between atoms: C7_7  and  O11_11 
ROOT
HETATM    1  C1  UNL     1     -35.445  16.192  -4.664  1.00 20.00     0.188 C 
HETATM    2  O9  UNL     1     -35.648  17.405  -4.772  1.00 20.00    -0.292 OA
ENDROOT
BRANCH   1   3
HETATM    3  C7  UNL     1     -36.054  15.223  -5.673  1.00 20.00     0.330 C 
BRANCH   3   4
HETATM    4  O10 UNL     1     -37.462  15.388  -5.503  1.00 20.00    -0.359 OA
HETATM    5  C5  UNL     1     -37.951  14.682  -4.370  1.00 20.00     0.205 C 
ENDBRANCH   3   4
BRANCH   3   6
HETATM    6  O11 UNL     1     -35.645  15.588  -6.985  1.00 20.00    -0.359 OA
HETATM    7  C6  UNL     1     -34.283  15.268  -7.241  1.00 20.00     0.205 C 
ENDBRANCH   3   6
ENDBRANCH   1   3
BRANCH   1   8
HETATM    8  C8  UNL     1     -34.537  15.627  -3.549  1.00 20.00     0.015 C 
HETATM    9  C2  UNL     1     -34.383  14.116  -3.764  1.00 20.00     0.023 C 
HETATM   10  C3  UNL     1     -33.149  16.287  -3.639  1.00 20.00     0.023 C 
HETATM   11  C4  UNL     1     -35.115  15.907  -2.156  1.00 20.00     0.023 C 
ENDBRANCH   1   8
TORSDOF 4
ENDMDL
MODEL 7
REMARK VINA RESULT:      -3.5      1.589      3.080
REMARK  4 active torsions:
REMARK  status: ('A' for Active; 'I' for Inactive)
REMARK    1  A    between atoms: C1_1  and  C7_7 
REMARK    2  A    between atoms: C1_1  and  C8_8 
REMARK    3  A    between atoms: C7_7  and  O10_10 
REMARK    4  A    between atoms: C7_7  and  O11_11 
ROOT
HETATM    1  C1  UNL     1     -35.422  16.186  -4.655  1.00 20.00     0.188 C 
HETATM    2  O9  UNL     1     -35.636  17.399  -4.736  1.00 20.00    -0.292 OA
ENDROOT
BRANCH   1   3
HETATM    3  C7  UNL     1     -36.033  15.233  -5.678  1.00 20.00     0.330 C 
BRANCH   3   4
HETATM    4  O10 UNL     1     -37.440  15.402  -5.509  1.00 20.00    -0.359 OA
HETATM    5  C5  UNL     1     -37.934  14.684  -4.386  1.00 20.00     0.205 C 
ENDBRANCH   3   4
BRANCH   3   6
HETATM    6  O11 UNL     1     -35.620  15.613  -6.985  1.00 20.00    -0.359 OA
HETATM    7  C6  UNL     1     -34.267  15.267  -7.252  1.00 20.00     0.205 C 
ENDBRANCH   3   6
ENDBRANCH   1   3
BRANCH   1   8
HETATM    8  C8  UNL     1     -34.498  15.605  -3.562  1.00 20.00     0.015 C 
HETATM    9  C2  UNL     1     -35.132  15.878  -2.191  1.00 20.00     0.023 C 
HETATM   10  C3  UNL     1     -34.370  14.084  -3.758  1.00 20.00     0.023 C 
HETATM   11  C4  UNL     1     -33.094  16.220  -3.627  1.00 20.00     0.023 C 
ENDBRANCH   1   8
TORSDOF 4
ENDMDL
MODEL 8
REMARK VINA RESULT:      -3.5      1.456      3.821
REMARK  4 active torsions:
REMARK  status: ('A' for Active; 'I' for Inactive)
REMARK    1  A    between atoms: C1_1  and  C7_7 
REMARK    2  A    between atoms: C1_1  and  C8_8 
REMARK    3  A    between atoms: C7_7  and  O10_10 
REMARK    4  A    between atoms: C7_7  and  O11_11 
ROOT
HETATM    1  C1  UNL     1     -36.826  14.630  -4.576  1.00 20.00     0.188 C 
HETATM    2  O9  UNL     1     -37.122  13.433  -4.515  1.00 20.00    -0.292 OA
ENDROOT
BRANCH   1   3
HETATM    3  C7  UNL     1     -35.362  15.052  -4.657  1.00 20.00     0.330 C 
BRANCH   3   4
HETATM    4  O10 UNL     1     -34.831  14.702  -3.378  1.00 20.00    -0.359 OA
HETATM    5  C5  UNL     1     -34.101  15.771  -2.791  1.00 20.00     0.205 C 
ENDBRANCH   3   4
BRANCH   3   6
HETATM    6  O11 UNL     1     -34.718  14.329  -5.699  1.00 20.00    -0.359 OA
HETATM    7  C6  UNL     1     -34.454  15.136  -6.840  1.00 20.00     0.205 C 
ENDBRANCH   3   6
ENDBRANCH   1   3
BRANCH   1   8
HETATM    8  C8  UNL     1     -37.915  15.724  -4.624  1.00 20.00     0.015 C 
HETATM    9  C2  UNL     1     -39.266  15.083  -4.279  1.00 20.00     0.023 C 
HETATM   10  C3  UNL     1     -37.596  16.808  -3.579  1.00 20.00     0.023 C 
HETATM   11  C4  UNL     1     -37.984  16.389  -6.004  1.00 20.00     0.023 C 
ENDBRANCH   1   8
TORSDOF 4
ENDMDL
MODEL 9
REMARK VINA RESULT:      -3.3      1.245      2.626
REMARK  4 active torsions:
REMARK  status: ('A' for Active; 'I' for Inactive)
REMARK    1  A    between atoms: C1_1  and  C7_7 
REMARK    2  A    between atoms: C1_1  and  C8_8 
REMARK    3  A    between atoms: C7_7  and  O10_10 
REMARK    4  A    between atoms: C7_7  and  O11_11 
ROOT
HETATM    1  C1  UNL     1     -36.230  15.095  -4.258  1.00 20.00     0.188 C 
HETATM    2  O9  UNL     1     -37.079  14.257  -3.942  1.00 20.00    -0.292 OA
ENDROOT
BRANCH   1   3
HETATM    3  C7  UNL     1     -35.264  14.809  -5.405  1.00 20.00     0.330 C 
BRANCH   3   4
HETATM    4  O10 UNL     1     -34.351  13.858  -4.857  1.00 20.00    -0.359 OA
HETATM    5  C5  UNL     1     -33.115  14.455  -4.487  1.00 20.00     0.205 C 
ENDBRANCH   3   4
BRANCH   3   6
HETATM    6  O11 UNL     1     -35.983  14.261  -6.503  1.00 20.00    -0.359 OA
HETATM    7  C6  UNL     1     -35.789  14.998  -7.703  1.00 20.00     0.205 C 
ENDBRANCH   3   6
ENDBRANCH   1   3
BRANCH   1   8
HETATM    8  C8  UNL     1     -36.151  16.464  -3.548  1.00 20.00     0.015 C 
HETATM    9  C2  UNL     1     -35.389  16.287  -2.228  1.00 20.00     0.023 C 
HETATM   10  C3  UNL     1     -35.381  17.456  -4.438  1.00 20.00     0.023 C 
HETATM   11  C4  UNL     1     -37.547  17.040  -3.279  1.00 20.00     0.023 C 
ENDBRANCH   1   8
TORSDOF 4
ENDMDL
