MODEL 1
REMARK VINA RESULT:      -4.6      0.000      0.000
REMARK  0 active torsions:
REMARK  status: ('A' for Active; 'I' for Inactive)
ROOT
HETATM    1  C1  UNL     1     -25.031  18.529   9.866  1.00 20.00     0.047 A 
HETATM    2  C2  UNL     1     -23.726  18.228   9.436  1.00 20.00     0.025 A 
HETATM    3  C3  UNL     1     -22.897  17.882  10.465  1.00 20.00    -0.002 A 
HETATM    4  C4  UNL     1     -25.130  18.392  11.242  1.00 20.00     0.075 A 
HETATM    5  C5  UNL     1     -22.991  18.178   8.202  1.00 20.00     0.161 A 
HETATM    6  C6  UNL     1     -21.508  17.555  10.067  1.00 20.00     0.055 A 
HETATM    7  C7  UNL     1     -21.549  17.752   8.518  1.00 20.00     0.089 A 
HETATM    8  O8  UNL     1     -23.437  18.429   7.093  1.00 20.00    -0.292 OA
HETATM    9  S9  UNL     1     -23.636  17.903  11.967  1.00 20.00    -0.082 SA
HETATM   10 CL10 UNL     1     -26.510  18.648  12.226  1.00 20.00    -0.076 Cl
ENDROOT
TORSDOF 0
ENDMDL
MODEL 2
REMARK VINA RESULT:      -4.6      3.234      4.379
REMARK  0 active torsions:
REMARK  status: ('A' for Active; 'I' for Inactive)
ROOT
HETATM    1  C1  UNL     1     -23.284  16.704   9.786  1.00 20.00     0.047 A 
HETATM    2  C2  UNL     1     -24.329  17.207  10.582  1.00 20.00     0.025 A 
HETATM    3  C3  UNL     1     -24.745  18.446  10.188  1.00 20.00    -0.002 A 
HETATM    4  C4  UNL     1     -22.951  17.615   8.796  1.00 20.00     0.075 A 
HETATM    5  C5  UNL     1     -25.104  16.789  11.719  1.00 20.00     0.161 A 
HETATM    6  C6  UNL     1     -25.845  19.024  10.994  1.00 20.00     0.055 A 
HETATM    7  C7  UNL     1     -26.107  17.905  12.053  1.00 20.00     0.089 A 
HETATM    8  O8  UNL     1     -24.985  15.731  12.315  1.00 20.00    -0.292 OA
HETATM    9  S9  UNL     1     -23.915  19.051   8.866  1.00 20.00    -0.082 SA
HETATM   10 CL10 UNL     1     -21.745  17.457   7.587  1.00 20.00    -0.076 Cl
ENDROOT
TORSDOF 0
ENDMDL
MODEL 3
REMARK VINA RESULT:      -4.6     16.547     17.119
REMARK  0 active torsions:
REMARK  status: ('A' for Active; 'I' for Inactive)
ROOT
HETATM    1  C1  UNL     1     -32.933   7.491   3.501  1.00 20.00     0.047 A 
HETATM    2  C2  UNL     1     -33.629   6.557   4.289  1.00 20.00     0.025 A 
HETATM    3  C3  UNL     1     -33.898   5.397   3.622  1.00 20.00    -0.002 A 
HETATM    4  C4  UNL     1     -32.702   6.977   2.235  1.00 20.00     0.075 A 
HETATM    5  C5  UNL     1     -34.154   6.465   5.625  1.00 20.00     0.161 A 
HETATM    6  C6  UNL     1     -34.631   4.377   4.407  1.00 20.00     0.055 A 
HETATM    7  C7  UNL     1     -34.819   5.088   5.785  1.00 20.00     0.089 A 
HETATM    8  O8  UNL     1     -34.083   7.330   6.483  1.00 20.00    -0.292 OA
HETATM    9  S9  UNL     1     -33.337   5.378   2.044  1.00 20.00    -0.082 SA
HETATM   10 CL10 UNL     1     -31.896   7.735   0.925  1.00 20.00    -0.076 Cl
ENDROOT
TORSDOF 0
ENDMDL
MODEL 4
REMARK VINA RESULT:      -4.4     17.803     18.579
REMARK  0 active torsions:
REMARK  status: ('A' for Active; 'I' for Inactive)
ROOT
HETATM    1  C1  UNL     1     -34.261  15.227  -3.254  1.00 20.00     0.047 A 
HETATM    2  C2  UNL     1     -35.571  15.001  -3.713  1.00 20.00     0.025 A 
HETATM    3  C3  UNL     1     -36.376  16.096  -3.578  1.00 20.00    -0.002 A 
HETATM    4  C4  UNL     1     -34.134  16.523  -2.778  1.00 20.00     0.075 A 
HETATM    5  C5  UNL     1     -36.330  13.928  -4.297  1.00 20.00     0.161 A 
HETATM    6  C6  UNL     1     -37.769  15.912  -4.047  1.00 20.00     0.055 A 
HETATM    7  C7  UNL     1     -37.761  14.431  -4.544  1.00 20.00     0.089 A 
HETATM    8  O8  UNL     1     -35.909  12.811  -4.553  1.00 20.00    -0.292 OA
HETATM    9  S9  UNL     1     -35.608  17.422  -2.903  1.00 20.00    -0.082 SA
HETATM   10 CL10 UNL     1     -32.737  17.266  -2.117  1.00 20.00    -0.076 Cl
ENDROOT
TORSDOF 0
ENDMDL
MODEL 5
REMARK VINA RESULT:      -4.4      3.182      3.811
REMARK  0 active torsions:
REMARK  status: ('A' for Active; 'I' for Inactive)
ROOT
HETATM    1  C1  UNL     1     -25.447  19.142   8.883  1.00 20.00     0.047 A 
HETATM    2  C2  UNL     1     -24.964  18.691  10.125  1.00 20.00     0.025 A 
HETATM    3  C3  UNL     1     -23.721  18.134  10.038  1.00 20.00    -0.002 A 
HETATM    4  C4  UNL     1     -24.517  18.896   7.885  1.00 20.00     0.075 A 
HETATM    5  C5  UNL     1     -25.408  18.644  11.492  1.00 20.00     0.161 A 
HETATM    6  C6  UNL     1     -23.164  17.642  11.320  1.00 20.00     0.055 A 
HETATM    7  C7  UNL     1     -24.305  17.980  12.332  1.00 20.00     0.089 A 
HETATM    8  O8  UNL     1     -26.476  19.059  11.912  1.00 20.00    -0.292 OA
HETATM    9  S9  UNL     1     -23.088  18.126   8.488  1.00 20.00    -0.082 SA
HETATM   10 CL10 UNL     1     -24.647  19.261   6.215  1.00 20.00    -0.076 Cl
ENDROOT
TORSDOF 0
ENDMDL
MODEL 6
REMARK VINA RESULT:      -4.4     16.423     16.981
REMARK  0 active torsions:
REMARK  status: ('A' for Active; 'I' for Inactive)
ROOT
HETATM    1  C1  UNL     1     -33.473   6.072   2.464  1.00 20.00     0.047 A 
HETATM    2  C2  UNL     1     -33.860   5.981   3.814  1.00 20.00     0.025 A 
HETATM    3  C3  UNL     1     -33.279   6.937   4.596  1.00 20.00    -0.002 A 
HETATM    4  C4  UNL     1     -32.590   7.125   2.286  1.00 20.00     0.075 A 
HETATM    5  C5  UNL     1     -34.709   5.156   4.630  1.00 20.00     0.161 A 
HETATM    6  C6  UNL     1     -33.653   6.887   6.029  1.00 20.00     0.055 A 
HETATM    7  C7  UNL     1     -34.633   5.671   6.076  1.00 20.00     0.089 A 
HETATM    8  O8  UNL     1     -35.375   4.210   4.240  1.00 20.00    -0.292 OA
HETATM    9  S9  UNL     1     -32.258   7.968   3.761  1.00 20.00    -0.082 SA
HETATM   10 CL10 UNL     1     -31.842   7.633   0.829  1.00 20.00    -0.076 Cl
ENDROOT
TORSDOF 0
ENDMDL
MODEL 7
REMARK VINA RESULT:      -4.3      2.964      3.864
REMARK  0 active torsions:
REMARK  status: ('A' for Active; 'I' for Inactive)
ROOT
HETATM    1  C1  UNL     1     -23.361  18.518   8.496  1.00 20.00     0.047 A 
HETATM    2  C2  UNL     1     -23.710  18.377   9.851  1.00 20.00     0.025 A 
HETATM    3  C3  UNL     1     -25.015  18.692  10.098  1.00 20.00    -0.002 A 
HETATM    4  C4  UNL     1     -24.453  18.947   7.759  1.00 20.00     0.075 A 
HETATM    5  C5  UNL     1     -23.078  17.988  11.084  1.00 20.00     0.161 A 
HETATM    6  C6  UNL     1     -25.436  18.561  11.512  1.00 20.00     0.055 A 
HETATM    7  C7  UNL     1     -24.122  18.080  12.208  1.00 20.00     0.089 A 
HETATM    8  O8  UNL     1     -21.914  17.645  11.213  1.00 20.00    -0.292 OA
HETATM    9  S9  UNL     1     -25.866  19.166   8.736  1.00 20.00    -0.082 SA
HETATM   10 CL10 UNL     1     -24.525  19.263   6.075  1.00 20.00    -0.076 Cl
ENDROOT
TORSDOF 0
ENDMDL
MODEL 8
REMARK VINA RESULT:      -4.2     16.712     17.439
REMARK  0 active torsions:
REMARK  status: ('A' for Active; 'I' for Inactive)
ROOT
HETATM    1  C1  UNL     1     -33.360  16.291  -2.663  1.00 20.00     0.047 A 
HETATM    2  C2  UNL     1     -34.298  15.461  -3.303  1.00 20.00     0.025 A 
HETATM    3  C3  UNL     1     -35.588  15.838  -3.065  1.00 20.00    -0.002 A 
HETATM    4  C4  UNL     1     -34.006  17.287  -1.948  1.00 20.00     0.075 A 
HETATM    5  C5  UNL     1     -34.295  14.303  -4.156  1.00 20.00     0.161 A 
HETATM    6  C6  UNL     1     -36.618  14.996  -3.716  1.00 20.00     0.055 A 
HETATM    7  C7  UNL     1     -35.754  13.935  -4.470  1.00 20.00     0.089 A 
HETATM    8  O8  UNL     1     -33.305  13.715  -4.560  1.00 20.00    -0.292 OA
HETATM    9  S9  UNL     1     -35.730  17.182  -2.077  1.00 20.00    -0.082 SA
HETATM   10 CL10 UNL     1     -33.297  18.533  -1.007  1.00 20.00    -0.076 Cl
ENDROOT
TORSDOF 0
ENDMDL
MODEL 9
REMARK VINA RESULT:      -4.2     17.837     18.537
REMARK  0 active torsions:
REMARK  status: ('A' for Active; 'I' for Inactive)
ROOT
HETATM    1  C1  UNL     1     -34.714  15.341  -2.833  1.00 20.00     0.047 A 
HETATM    2  C2  UNL     1     -35.096  15.081  -4.162  1.00 20.00     0.025 A 
HETATM    3  C3  UNL     1     -34.885  16.146  -4.991  1.00 20.00    -0.002 A 
HETATM    4  C4  UNL     1     -34.218  16.630  -2.717  1.00 20.00     0.075 A 
HETATM    5  C5  UNL     1     -35.657  13.997  -4.921  1.00 20.00     0.161 A 
HETATM    6  C6  UNL     1     -35.271  15.926  -6.404  1.00 20.00     0.055 A 
HETATM    7  C7  UNL     1     -35.805  14.458  -6.380  1.00 20.00     0.089 A 
HETATM    8  O8  UNL     1     -35.963  12.900  -4.482  1.00 20.00    -0.292 OA
HETATM    9  S9  UNL     1     -34.232  17.483  -4.224  1.00 20.00    -0.082 SA
HETATM   10 CL10 UNL     1     -33.630  17.406  -1.305  1.00 20.00    -0.076 Cl
ENDROOT
TORSDOF 0
ENDMDL
