MODEL 1
REMARK VINA RESULT:      -5.9      0.000      0.000
REMARK  2 active torsions:
REMARK  status: ('A' for Active; 'I' for Inactive)
REMARK    1  A    between atoms: C6_6  and  C8_8 
REMARK    2  A    between atoms: C7_7  and  C8_8 
ROOT
HETATM    1  C1  UNL     1     -34.970   5.251   5.842  1.00 20.00     0.001 A 
HETATM    2  C2  UNL     1     -34.369   6.504   6.260  1.00 20.00     0.001 A 
HETATM    3  C3  UNL     1     -34.591   4.970   4.585  1.00 20.00     0.013 A 
HETATM    4  C4  UNL     1     -33.618   6.996   5.261  1.00 20.00     0.013 A 
HETATM    5  C5  UNL     1     -33.725   6.053   4.164  1.00 20.00    -0.018 A 
HETATM    6  C7  UNL     1     -33.128   6.165   2.975  1.00 20.00     0.028 C 
HETATM    7 CL10 UNL     1     -33.403   4.968   1.751  1.00 20.00    -0.088 Cl
ENDROOT
BRANCH   6   8
HETATM    8  C8  UNL     1     -32.238   7.304   2.583  1.00 20.00     0.121 C 
BRANCH   8   9
HETATM    9  C6  UNL     1     -32.589   7.859   1.218  1.00 20.00     0.236 C 
HETATM   10  O9  UNL     1     -32.942   9.012   0.993  1.00 20.00    -0.307 OA
ENDBRANCH   8   9
ENDBRANCH   6   8
TORSDOF 2
ENDMDL
MODEL 2
REMARK VINA RESULT:      -4.9     11.262     11.720
REMARK  2 active torsions:
REMARK  status: ('A' for Active; 'I' for Inactive)
REMARK    1  A    between atoms: C6_6  and  C8_8 
REMARK    2  A    between atoms: C7_7  and  C8_8 
ROOT
HETATM    1  C1  UNL     1     -33.039  17.850  -1.283  1.00 20.00     0.001 A 
HETATM    2  C2  UNL     1     -34.366  17.729  -0.706  1.00 20.00     0.001 A 
HETATM    3  C3  UNL     1     -32.924  17.008  -2.322  1.00 20.00     0.013 A 
HETATM    4  C4  UNL     1     -35.069  16.812  -1.390  1.00 20.00     0.013 A 
HETATM    5  C5  UNL     1     -34.194  16.318  -2.435  1.00 20.00    -0.018 A 
HETATM    6  C7  UNL     1     -34.505  15.390  -3.344  1.00 20.00     0.028 C 
HETATM    7 CL10 UNL     1     -33.318  14.876  -4.499  1.00 20.00    -0.088 Cl
ENDROOT
BRANCH   6   8
HETATM    8  C8  UNL     1     -35.833  14.703  -3.425  1.00 20.00     0.121 C 
BRANCH   8   9
HETATM    9  C6  UNL     1     -35.913  13.750  -4.599  1.00 20.00     0.236 C 
HETATM   10  O9  UNL     1     -35.837  12.528  -4.525  1.00 20.00    -0.307 OA
ENDBRANCH   8   9
ENDBRANCH   6   8
TORSDOF 2
ENDMDL
MODEL 3
REMARK VINA RESULT:      -4.9     11.561     12.308
REMARK  2 active torsions:
REMARK  status: ('A' for Active; 'I' for Inactive)
REMARK    1  A    between atoms: C6_6  and  C8_8 
REMARK    2  A    between atoms: C7_7  and  C8_8 
ROOT
HETATM    1  C1  UNL     1     -35.022  14.895  -3.267  1.00 20.00     0.001 A 
HETATM    2  C2  UNL     1     -33.777  15.033  -4.002  1.00 20.00     0.001 A 
HETATM    3  C3  UNL     1     -35.071  15.818  -2.294  1.00 20.00     0.013 A 
HETATM    4  C4  UNL     1     -33.060  16.042  -3.480  1.00 20.00     0.013 A 
HETATM    5  C5  UNL     1     -33.841  16.579  -2.384  1.00 20.00    -0.018 A 
HETATM    6  C7  UNL     1     -33.489  17.599  -1.596  1.00 20.00     0.028 C 
HETATM    7 CL10 UNL     1     -34.523  18.085  -0.293  1.00 20.00    -0.088 Cl
ENDROOT
BRANCH   6   8
HETATM    8  C8  UNL     1     -32.205  18.358  -1.728  1.00 20.00     0.121 C 
BRANCH   8   9
HETATM    9  C6  UNL     1     -31.474  18.477  -0.407  1.00 20.00     0.236 C 
HETATM   10  O9  UNL     1     -30.261  18.374  -0.258  1.00 20.00    -0.307 OA
ENDBRANCH   8   9
ENDBRANCH   6   8
TORSDOF 2
ENDMDL
MODEL 4
REMARK VINA RESULT:      -4.9     10.989     11.703
REMARK  2 active torsions:
REMARK  status: ('A' for Active; 'I' for Inactive)
REMARK    1  A    between atoms: C6_6  and  C8_8 
REMARK    2  A    between atoms: C7_7  and  C8_8 
ROOT
HETATM    1  C1  UNL     1     -33.515  17.501  -1.881  1.00 20.00     0.001 A 
HETATM    2  C2  UNL     1     -34.753  17.043  -1.279  1.00 20.00     0.001 A 
HETATM    3  C3  UNL     1     -33.187  16.694  -2.902  1.00 20.00     0.013 A 
HETATM    4  C4  UNL     1     -35.189  15.951  -1.929  1.00 20.00     0.013 A 
HETATM    5  C5  UNL     1     -34.224  15.684  -2.978  1.00 20.00    -0.018 A 
HETATM    6  C7  UNL     1     -34.282  14.682  -3.859  1.00 20.00     0.028 C 
HETATM    7 CL10 UNL     1     -33.012  14.476  -5.022  1.00 20.00    -0.088 Cl
ENDROOT
BRANCH   6   8
HETATM    8  C8  UNL     1     -35.376  13.661  -3.901  1.00 20.00     0.121 C 
BRANCH   8   9
HETATM    9  C6  UNL     1     -36.567  14.131  -4.708  1.00 20.00     0.236 C 
HETATM   10  O9  UNL     1     -37.738  13.854  -4.470  1.00 20.00    -0.307 OA
ENDBRANCH   8   9
ENDBRANCH   6   8
TORSDOF 2
ENDMDL
MODEL 5
REMARK VINA RESULT:      -4.7     15.554     15.939
REMARK  2 active torsions:
REMARK  status: ('A' for Active; 'I' for Inactive)
REMARK    1  A    between atoms: C6_6  and  C8_8 
REMARK    2  A    between atoms: C7_7  and  C8_8 
ROOT
HETATM    1  C1  UNL     1     -25.291  16.340  12.271  1.00 20.00     0.001 A 
HETATM    2  C2  UNL     1     -25.969  17.623  12.226  1.00 20.00     0.001 A 
HETATM    3  C3  UNL     1     -24.355  16.294  11.310  1.00 20.00     0.013 A 
HETATM    4  C4  UNL     1     -25.450  18.368  11.236  1.00 20.00     0.013 A 
HETATM    5  C5  UNL     1     -24.413  17.566  10.617  1.00 20.00    -0.018 A 
HETATM    6  C7  UNL     1     -23.645  17.935   9.588  1.00 20.00     0.028 C 
HETATM    7 CL10 UNL     1     -22.481  16.829   8.934  1.00 20.00    -0.088 Cl
ENDROOT
BRANCH   6   8
HETATM    8  C8  UNL     1     -23.740  19.263   8.902  1.00 20.00     0.121 C 
BRANCH   8   9
HETATM    9  C6  UNL     1     -24.486  19.174   7.587  1.00 20.00     0.236 C 
HETATM   10  O9  UNL     1     -23.978  18.910   6.502  1.00 20.00    -0.307 OA
ENDBRANCH   8   9
ENDBRANCH   6   8
TORSDOF 2
ENDMDL
MODEL 6
REMARK VINA RESULT:      -4.4     11.540     11.991
REMARK  2 active torsions:
REMARK  status: ('A' for Active; 'I' for Inactive)
REMARK    1  A    between atoms: C6_6  and  C8_8 
REMARK    2  A    between atoms: C7_7  and  C8_8 
ROOT
HETATM    1  C1  UNL     1     -34.479  17.136  -1.192  1.00 20.00     0.001 A 
HETATM    2  C2  UNL     1     -33.204  17.448  -1.811  1.00 20.00     0.001 A 
HETATM    3  C3  UNL     1     -35.100  16.181  -1.903  1.00 20.00     0.013 A 
HETATM    4  C4  UNL     1     -33.039  16.686  -2.905  1.00 20.00     0.013 A 
HETATM    5  C5  UNL     1     -34.223  15.856  -3.010  1.00 20.00    -0.018 A 
HETATM    6  C7  UNL     1     -34.463  14.950  -3.962  1.00 20.00     0.028 C 
HETATM    7 CL10 UNL     1     -35.960  14.075  -3.968  1.00 20.00    -0.088 Cl
ENDROOT
BRANCH   6   8
HETATM    8  C8  UNL     1     -33.526  14.646  -5.089  1.00 20.00     0.121 C 
BRANCH   8   9
HETATM    9  C6  UNL     1     -34.120  14.999  -6.437  1.00 20.00     0.236 C 
HETATM   10  O9  UNL     1     -33.512  14.992  -7.502  1.00 20.00    -0.307 OA
ENDBRANCH   8   9
ENDBRANCH   6   8
TORSDOF 2
ENDMDL
MODEL 7
REMARK VINA RESULT:      -4.3     11.428     12.040
REMARK  2 active torsions:
REMARK  status: ('A' for Active; 'I' for Inactive)
REMARK    1  A    between atoms: C6_6  and  C8_8 
REMARK    2  A    between atoms: C7_7  and  C8_8 
ROOT
HETATM    1  C1  UNL     1     -33.296  14.768  -4.256  1.00 20.00     0.001 A 
HETATM    2  C2  UNL     1     -34.669  14.350  -4.041  1.00 20.00     0.001 A 
HETATM    3  C3  UNL     1     -32.998  15.773  -3.417  1.00 20.00     0.013 A 
HETATM    4  C4  UNL     1     -35.217  15.098  -3.069  1.00 20.00     0.013 A 
HETATM    5  C5  UNL     1     -34.191  16.025  -2.635  1.00 20.00    -0.018 A 
HETATM    6  C7  UNL     1     -34.324  16.949  -1.679  1.00 20.00     0.028 C 
HETATM    7 CL10 UNL     1     -33.006  18.016  -1.317  1.00 20.00    -0.088 Cl
ENDROOT
BRANCH   6   8
HETATM    8  C8  UNL     1     -35.579  17.174  -0.894  1.00 20.00     0.121 C 
BRANCH   8   9
HETATM    9  C6  UNL     1     -35.310  17.295   0.591  1.00 20.00     0.236 C 
HETATM   10  O9  UNL     1     -36.156  17.531   1.447  1.00 20.00    -0.307 OA
ENDBRANCH   8   9
ENDBRANCH   6   8
TORSDOF 2
ENDMDL
MODEL 8
REMARK VINA RESULT:      -4.1     15.875     16.594
REMARK  2 active torsions:
REMARK  status: ('A' for Active; 'I' for Inactive)
REMARK    1  A    between atoms: C6_6  and  C8_8 
REMARK    2  A    between atoms: C7_7  and  C8_8 
ROOT
HETATM    1  C1  UNL     1     -24.224  18.904   7.535  1.00 20.00     0.001 A 
HETATM    2  C2  UNL     1     -23.100  18.136   8.040  1.00 20.00     0.001 A 
HETATM    3  C3  UNL     1     -25.090  19.138   8.534  1.00 20.00     0.013 A 
HETATM    4  C4  UNL     1     -23.274  17.897   9.350  1.00 20.00     0.013 A 
HETATM    5  C5  UNL     1     -24.532  18.516   9.718  1.00 20.00    -0.018 A 
HETATM    6  C7  UNL     1     -25.080  18.514  10.936  1.00 20.00     0.028 C 
HETATM    7 CL10 UNL     1     -26.622  19.263  11.194  1.00 20.00    -0.088 Cl
ENDROOT
BRANCH   6   8
HETATM    8  C8  UNL     1     -24.466  17.858  12.133  1.00 20.00     0.121 C 
BRANCH   8   9
HETATM    9  C6  UNL     1     -24.934  16.427  12.303  1.00 20.00     0.236 C 
HETATM   10  O9  UNL     1     -24.549  15.473  11.636  1.00 20.00    -0.307 OA
ENDBRANCH   8   9
ENDBRANCH   6   8
TORSDOF 2
ENDMDL
MODEL 9
REMARK VINA RESULT:      -4.0     11.637     12.756
REMARK  2 active torsions:
REMARK  status: ('A' for Active; 'I' for Inactive)
REMARK    1  A    between atoms: C6_6  and  C8_8 
REMARK    2  A    between atoms: C7_7  and  C8_8 
ROOT
HETATM    1  C1  UNL     1     -32.921  18.456  -3.227  1.00 20.00     0.001 A 
HETATM    2  C2  UNL     1     -32.889  17.543  -2.100  1.00 20.00     0.001 A 
HETATM    3  C3  UNL     1     -33.673  17.931  -4.208  1.00 20.00     0.013 A 
HETATM    4  C4  UNL     1     -33.621  16.454  -2.386  1.00 20.00     0.013 A 
HETATM    5  C5  UNL     1     -34.145  16.649  -3.723  1.00 20.00    -0.018 A 
HETATM    6  C7  UNL     1     -34.928  15.797  -4.391  1.00 20.00     0.028 C 
HETATM    7 CL10 UNL     1     -35.428  16.166  -6.010  1.00 20.00    -0.088 Cl
ENDROOT
BRANCH   6   8
HETATM    8  C8  UNL     1     -35.393  14.482  -3.849  1.00 20.00     0.121 C 
BRANCH   8   9
HETATM    9  C6  UNL     1     -36.451  13.845  -4.725  1.00 20.00     0.236 C 
HETATM   10  O9  UNL     1     -37.648  13.787  -4.462  1.00 20.00    -0.307 OA
ENDBRANCH   8   9
ENDBRANCH   6   8
TORSDOF 2
ENDMDL
