MODEL 1
REMARK VINA RESULT:      -4.1      0.000      0.000
REMARK  1 active torsions:
REMARK  status: ('A' for Active; 'I' for Inactive)
REMARK    1  A    between atoms: C2_2  and  C6_6 
ROOT
HETATM    1  C1  UNL     1     -33.373   7.015   4.830  1.00 20.00    -0.021 C 
HETATM    2  C2  UNL     1     -32.972   6.701   3.584  1.00 20.00    -0.061 C 
HETATM    3  C3  UNL     1     -34.371   6.247   5.647  1.00 20.00     0.037 C 
HETATM    4  C4  UNL     1     -33.439   5.496   2.809  1.00 20.00     0.108 C 
HETATM    5  C5  UNL     1     -35.226   5.258   4.864  1.00 20.00     0.078 C 
HETATM    6  S7  UNL     1     -34.185   4.197   3.831  1.00 20.00    -0.165 SA
ENDROOT
BRANCH   2   7
HETATM    7  C6  UNL     1     -31.987   7.575   2.856  1.00 20.00     0.149 C 
HETATM    8 CL8  UNL     1     -32.702   7.950   1.291  1.00 20.00    -0.126 Cl
ENDBRANCH   2   7
TORSDOF 1
ENDMDL
MODEL 2
REMARK VINA RESULT:      -3.7      1.108      2.026
REMARK  1 active torsions:
REMARK  status: ('A' for Active; 'I' for Inactive)
REMARK    1  A    between atoms: C2_2  and  C6_6 
ROOT
HETATM    1  C1  UNL     1     -33.012   5.441   2.366  1.00 20.00    -0.021 C 
HETATM    2  C2  UNL     1     -32.954   6.566   3.103  1.00 20.00    -0.061 C 
HETATM    3  C3  UNL     1     -33.778   4.201   2.723  1.00 20.00     0.037 C 
HETATM    4  C4  UNL     1     -33.683   6.780   4.404  1.00 20.00     0.108 C 
HETATM    5  C5  UNL     1     -34.223   4.109   4.178  1.00 20.00     0.078 C 
HETATM    6  S7  UNL     1     -35.060   5.633   4.684  1.00 20.00    -0.165 SA
ENDROOT
BRANCH   2   7
HETATM    7  C6  UNL     1     -32.120   7.733   2.650  1.00 20.00     0.149 C 
HETATM    8 CL8  UNL     1     -32.728   8.207   1.066  1.00 20.00    -0.126 Cl
ENDBRANCH   2   7
TORSDOF 1
ENDMDL
MODEL 3
REMARK VINA RESULT:      -3.6     16.154     16.765
REMARK  1 active torsions:
REMARK  status: ('A' for Active; 'I' for Inactive)
REMARK    1  A    between atoms: C2_2  and  C6_6 
ROOT
HETATM    1  C1  UNL     1     -23.088  18.526   9.273  1.00 20.00    -0.021 C 
HETATM    2  C2  UNL     1     -24.390  18.618   9.603  1.00 20.00    -0.061 C 
HETATM    3  C3  UNL     1     -22.007  17.938  10.132  1.00 20.00     0.037 C 
HETATM    4  C4  UNL     1     -24.988  18.109  10.889  1.00 20.00     0.108 C 
HETATM    5  C5  UNL     1     -22.372  17.760  11.602  1.00 20.00     0.078 C 
HETATM    6  S7  UNL     1     -23.957  16.900  11.763  1.00 20.00    -0.165 SA
ENDROOT
BRANCH   2   7
HETATM    7  C6  UNL     1     -25.373  19.262   8.664  1.00 20.00     0.149 C 
HETATM    8 CL8  UNL     1     -24.673  19.160   7.050  1.00 20.00    -0.126 Cl
ENDBRANCH   2   7
TORSDOF 1
ENDMDL
MODEL 4
REMARK VINA RESULT:      -3.5     11.572     12.109
REMARK  1 active torsions:
REMARK  status: ('A' for Active; 'I' for Inactive)
REMARK    1  A    between atoms: C2_2  and  C6_6 
ROOT
HETATM    1  C1  UNL     1     -33.097  16.186  -3.096  1.00 20.00    -0.021 C 
HETATM    2  C2  UNL     1     -34.042  16.648  -2.256  1.00 20.00    -0.061 C 
HETATM    3  C3  UNL     1     -33.285  15.095  -4.110  1.00 20.00     0.037 C 
HETATM    4  C4  UNL     1     -35.468  16.164  -2.218  1.00 20.00     0.108 C 
HETATM    5  C5  UNL     1     -34.530  14.237  -3.915  1.00 20.00     0.078 C 
HETATM    6  S7  UNL     1     -35.995  15.281  -3.711  1.00 20.00    -0.165 SA
ENDROOT
BRANCH   2   7
HETATM    7  C6  UNL     1     -33.716  17.726  -1.258  1.00 20.00     0.149 C 
HETATM    8 CL8  UNL     1     -31.992  18.053  -1.411  1.00 20.00    -0.126 Cl
ENDBRANCH   2   7
TORSDOF 1
ENDMDL
MODEL 5
REMARK VINA RESULT:      -3.5     11.681     12.147
REMARK  1 active torsions:
REMARK  status: ('A' for Active; 'I' for Inactive)
REMARK    1  A    between atoms: C2_2  and  C6_6 
ROOT
HETATM    1  C1  UNL     1     -35.201  15.860  -2.180  1.00 20.00    -0.021 C 
HETATM    2  C2  UNL     1     -34.343  15.445  -3.131  1.00 20.00    -0.061 C 
HETATM    3  C3  UNL     1     -35.023  17.069  -1.309  1.00 20.00     0.037 C 
HETATM    4  C4  UNL     1     -33.067  16.153  -3.505  1.00 20.00     0.108 C 
HETATM    5  C5  UNL     1     -33.611  17.644  -1.279  1.00 20.00     0.078 C 
HETATM    6  S7  UNL     1     -32.987  17.881  -2.962  1.00 20.00    -0.165 SA
ENDROOT
BRANCH   2   7
HETATM    7  C6  UNL     1     -34.622  14.193  -3.917  1.00 20.00     0.149 C 
HETATM    8 CL8  UNL     1     -36.364  14.131  -4.172  1.00 20.00    -0.126 Cl
ENDBRANCH   2   7
TORSDOF 1
ENDMDL
MODEL 6
REMARK VINA RESULT:      -3.5     16.442     16.567
REMARK  1 active torsions:
REMARK  status: ('A' for Active; 'I' for Inactive)
REMARK    1  A    between atoms: C2_2  and  C6_6 
ROOT
HETATM    1  C1  UNL     1     -25.054  18.694  10.130  1.00 20.00    -0.021 C 
HETATM    2  C2  UNL     1     -23.892  18.282   9.589  1.00 20.00    -0.061 C 
HETATM    3  C3  UNL     1     -25.473  18.498  11.558  1.00 20.00     0.037 C 
HETATM    4  C4  UNL     1     -22.795  17.578  10.344  1.00 20.00     0.108 C 
HETATM    5  C5  UNL     1     -24.669  17.459  12.332  1.00 20.00     0.078 C 
HETATM    6  S7  UNL     1     -22.894  17.762  12.146  1.00 20.00    -0.165 SA
ENDROOT
BRANCH   2   7
HETATM    7  C6  UNL     1     -23.605  18.512   8.130  1.00 20.00     0.149 C 
HETATM    8 CL8  UNL     1     -25.138  18.935   7.373  1.00 20.00    -0.126 Cl
ENDBRANCH   2   7
TORSDOF 1
ENDMDL
MODEL 7
REMARK VINA RESULT:      -3.5     11.742     12.163
REMARK  1 active torsions:
REMARK  status: ('A' for Active; 'I' for Inactive)
REMARK    1  A    between atoms: C2_2  and  C6_6 
ROOT
HETATM    1  C1  UNL     1     -35.165  16.201  -1.765  1.00 20.00    -0.021 C 
HETATM    2  C2  UNL     1     -34.277  15.871  -2.721  1.00 20.00    -0.061 C 
HETATM    3  C3  UNL     1     -35.022  17.335  -0.792  1.00 20.00     0.037 C 
HETATM    4  C4  UNL     1     -32.995  16.614  -2.996  1.00 20.00     0.108 C 
HETATM    5  C5  UNL     1     -33.617  17.914  -0.672  1.00 20.00     0.078 C 
HETATM    6  S7  UNL     1     -32.945  18.292  -2.311  1.00 20.00    -0.165 SA
ENDROOT
BRANCH   2   7
HETATM    7  C6  UNL     1     -34.522  14.686  -3.615  1.00 20.00     0.149 C 
HETATM    8 CL8  UNL     1     -33.010  14.367  -4.460  1.00 20.00    -0.126 Cl
ENDBRANCH   2   7
TORSDOF 1
ENDMDL
MODEL 8
REMARK VINA RESULT:      -3.5     16.433     16.994
REMARK  1 active torsions:
REMARK  status: ('A' for Active; 'I' for Inactive)
REMARK    1  A    between atoms: C2_2  and  C6_6 
ROOT
HETATM    1  C1  UNL     1     -23.639  18.710   9.300  1.00 20.00    -0.021 C 
HETATM    2  C2  UNL     1     -22.614  18.080   9.903  1.00 20.00    -0.061 C 
HETATM    3  C3  UNL     1     -25.000  18.931   9.891  1.00 20.00     0.037 C 
HETATM    4  C4  UNL     1     -22.654  17.518  11.300  1.00 20.00     0.108 C 
HETATM    5  C5  UNL     1     -25.324  18.075  11.111  1.00 20.00     0.078 C 
HETATM    6  S7  UNL     1     -23.991  18.180  12.331  1.00 20.00    -0.165 SA
ENDROOT
BRANCH   2   7
HETATM    7  C6  UNL     1     -21.304  17.893   9.186  1.00 20.00     0.149 C 
HETATM    8 CL8  UNL     1     -21.692  17.354   7.555  1.00 20.00    -0.126 Cl
ENDBRANCH   2   7
TORSDOF 1
ENDMDL
MODEL 9
REMARK VINA RESULT:      -3.4     11.570     12.252
REMARK  1 active torsions:
REMARK  status: ('A' for Active; 'I' for Inactive)
REMARK    1  A    between atoms: C2_2  and  C6_6 
ROOT
HETATM    1  C1  UNL     1     -33.069  16.594  -2.736  1.00 20.00    -0.021 C 
HETATM    2  C2  UNL     1     -34.267  15.980  -2.709  1.00 20.00    -0.061 C 
HETATM    3  C3  UNL     1     -32.687  17.803  -1.934  1.00 20.00     0.037 C 
HETATM    4  C4  UNL     1     -35.423  16.391  -1.834  1.00 20.00     0.108 C 
HETATM    5  C5  UNL     1     -33.854  18.571  -1.324  1.00 20.00     0.078 C 
HETATM    6  S7  UNL     1     -34.959  17.446  -0.434  1.00 20.00    -0.165 SA
ENDROOT
BRANCH   2   7
HETATM    7  C6  UNL     1     -34.536  14.791  -3.591  1.00 20.00     0.149 C 
HETATM    8 CL8  UNL     1     -33.025  14.420  -4.416  1.00 20.00    -0.126 Cl
ENDBRANCH   2   7
TORSDOF 1
ENDMDL
