MODEL 1
REMARK VINA RESULT:      -4.8      0.000      0.000
REMARK  2 active torsions:
REMARK  status: ('A' for Active; 'I' for Inactive)
REMARK    1  A    between atoms: C1_1  and  C4_4 
REMARK    2  A    between atoms: C1_1  and  C5_5 
ROOT
HETATM    1  C2  UNL     1     -34.489   6.273   5.813  1.00 20.00     0.055 A 
HETATM    2  C3  UNL     1     -34.492   4.775   5.731  1.00 20.00     0.055 A 
HETATM    3  C4  UNL     1     -34.725   5.595   4.492  1.00 20.00     0.164 A 
HETATM    4  F7  UNL     1     -36.038   5.621   4.033  1.00 20.00    -0.235 F 
ENDROOT
BRANCH   3   5
HETATM    5  C1  UNL     1     -33.696   5.650   3.450  1.00 20.00     0.179 C 
HETATM    6  O6  UNL     1     -33.567   4.728   2.647  1.00 20.00    -0.293 OA
BRANCH   5   7
HETATM    7  C5  UNL     1     -32.832   6.891   3.446  1.00 20.00     0.196 C 
HETATM    8 CL8  UNL     1     -32.511   7.423   1.788  1.00 20.00    -0.122 Cl
ENDBRANCH   5   7
ENDBRANCH   3   5
TORSDOF 2
ENDMDL
MODEL 2
REMARK VINA RESULT:      -4.4      1.257      1.451
REMARK  2 active torsions:
REMARK  status: ('A' for Active; 'I' for Inactive)
REMARK    1  A    between atoms: C1_1  and  C4_4 
REMARK    2  A    between atoms: C1_1  and  C5_5 
ROOT
HETATM    1  C2  UNL     1     -34.575   4.696   4.996  1.00 20.00     0.055 A 
HETATM    2  C3  UNL     1     -35.565   5.500   4.206  1.00 20.00     0.055 A 
HETATM    3  C4  UNL     1     -34.145   5.976   4.334  1.00 20.00     0.164 A 
HETATM    4  F7  UNL     1     -33.952   7.056   5.190  1.00 20.00    -0.235 F 
ENDROOT
BRANCH   3   5
HETATM    5  C1  UNL     1     -33.254   5.932   3.172  1.00 20.00     0.179 C 
HETATM    6  O6  UNL     1     -33.248   4.956   2.423  1.00 20.00    -0.293 OA
BRANCH   5   7
HETATM    7  C5  UNL     1     -32.369   7.142   2.977  1.00 20.00     0.196 C 
HETATM    8 CL8  UNL     1     -32.637   7.862   1.382  1.00 20.00    -0.122 Cl
ENDBRANCH   5   7
ENDBRANCH   3   5
TORSDOF 2
ENDMDL
MODEL 3
REMARK VINA RESULT:      -4.1      1.369      1.383
REMARK  2 active torsions:
REMARK  status: ('A' for Active; 'I' for Inactive)
REMARK    1  A    between atoms: C1_1  and  C4_4 
REMARK    2  A    between atoms: C1_1  and  C5_5 
ROOT
HETATM    1  C2  UNL     1     -34.824   5.427   6.009  1.00 20.00     0.055 A 
HETATM    2  C3  UNL     1     -34.432   4.294   5.107  1.00 20.00     0.055 A 
HETATM    3  C4  UNL     1     -34.674   5.662   4.531  1.00 20.00     0.164 A 
HETATM    4  F7  UNL     1     -35.865   5.810   3.826  1.00 20.00    -0.235 F 
ENDROOT
BRANCH   3   5
HETATM    5  C1  UNL     1     -33.547   6.452   4.029  1.00 20.00     0.179 C 
HETATM    6  O6  UNL     1     -33.026   7.317   4.731  1.00 20.00    -0.293 OA
BRANCH   5   7
HETATM    7  C5  UNL     1     -33.093   6.129   2.624  1.00 20.00     0.196 C 
HETATM    8 CL8  UNL     1     -32.508   7.586   1.805  1.00 20.00    -0.122 Cl
ENDBRANCH   5   7
ENDBRANCH   3   5
TORSDOF 2
ENDMDL
MODEL 4
REMARK VINA RESULT:      -4.0      2.819      3.740
REMARK  2 active torsions:
REMARK  status: ('A' for Active; 'I' for Inactive)
REMARK    1  A    between atoms: C1_1  and  C4_4 
REMARK    2  A    between atoms: C1_1  and  C5_5 
ROOT
HETATM    1  C2  UNL     1     -31.775   7.307   2.760  1.00 20.00     0.055 A 
HETATM    2  C3  UNL     1     -33.033   7.493   1.964  1.00 20.00     0.055 A 
HETATM    3  C4  UNL     1     -32.938   6.376   2.967  1.00 20.00     0.164 A 
HETATM    4  F7  UNL     1     -32.787   5.102   2.428  1.00 20.00    -0.235 F 
ENDROOT
BRANCH   3   5
HETATM    5  C1  UNL     1     -33.714   6.444   4.208  1.00 20.00     0.179 C 
HETATM    6  O6  UNL     1     -33.425   7.256   5.084  1.00 20.00    -0.293 OA
BRANCH   5   7
HETATM    7  C5  UNL     1     -34.859   5.463   4.320  1.00 20.00     0.196 C 
HETATM    8 CL8  UNL     1     -35.044   4.906   5.990  1.00 20.00    -0.122 Cl
ENDBRANCH   5   7
ENDBRANCH   3   5
TORSDOF 2
ENDMDL
MODEL 5
REMARK VINA RESULT:      -3.9      2.235      3.160
REMARK  2 active torsions:
REMARK  status: ('A' for Active; 'I' for Inactive)
REMARK    1  A    between atoms: C1_1  and  C4_4 
REMARK    2  A    between atoms: C1_1  and  C5_5 
ROOT
HETATM    1  C2  UNL     1     -32.608   7.272   2.128  1.00 20.00     0.055 A 
HETATM    2  C3  UNL     1     -31.983   7.132   3.485  1.00 20.00     0.055 A 
HETATM    3  C4  UNL     1     -33.401   6.684   3.262  1.00 20.00     0.164 A 
HETATM    4  F7  UNL     1     -34.381   7.514   3.799  1.00 20.00    -0.235 F 
ENDROOT
BRANCH   3   5
HETATM    5  C1  UNL     1     -33.723   5.254   3.264  1.00 20.00     0.179 C 
HETATM    6  O6  UNL     1     -33.113   4.474   2.534  1.00 20.00    -0.293 OA
BRANCH   5   7
HETATM    7  C5  UNL     1     -34.830   4.832   4.201  1.00 20.00     0.196 C 
HETATM    8 CL8  UNL     1     -34.475   5.342   5.859  1.00 20.00    -0.122 Cl
ENDBRANCH   5   7
ENDBRANCH   3   5
TORSDOF 2
ENDMDL
MODEL 6
REMARK VINA RESULT:      -3.8      2.651      3.476
REMARK  2 active torsions:
REMARK  status: ('A' for Active; 'I' for Inactive)
REMARK    1  A    between atoms: C1_1  and  C4_4 
REMARK    2  A    between atoms: C1_1  and  C5_5 
ROOT
HETATM    1  C2  UNL     1     -31.930   7.206   3.004  1.00 20.00     0.055 A 
HETATM    2  C3  UNL     1     -32.980   7.340   1.942  1.00 20.00     0.055 A 
HETATM    3  C4  UNL     1     -32.975   6.138   2.845  1.00 20.00     0.164 A 
HETATM    4  F7  UNL     1     -32.535   4.954   2.259  1.00 20.00    -0.235 F 
ENDROOT
BRANCH   3   5
HETATM    5  C1  UNL     1     -34.021   5.983   3.859  1.00 20.00     0.179 C 
HETATM    6  O6  UNL     1     -34.982   5.242   3.660  1.00 20.00    -0.293 OA
BRANCH   5   7
HETATM    7  C5  UNL     1     -33.831   6.785   5.126  1.00 20.00     0.196 C 
HETATM    8 CL8  UNL     1     -34.679   6.025   6.481  1.00 20.00    -0.122 Cl
ENDBRANCH   5   7
ENDBRANCH   3   5
TORSDOF 2
ENDMDL
MODEL 7
REMARK VINA RESULT:      -3.7     11.659     12.211
REMARK  2 active torsions:
REMARK  status: ('A' for Active; 'I' for Inactive)
REMARK    1  A    between atoms: C1_1  and  C4_4 
REMARK    2  A    between atoms: C1_1  and  C5_5 
ROOT
HETATM    1  C2  UNL     1     -34.260  16.402  -4.248  1.00 20.00     0.055 A 
HETATM    2  C3  UNL     1     -33.134  15.577  -3.699  1.00 20.00     0.055 A 
HETATM    3  C4  UNL     1     -34.557  15.153  -3.464  1.00 20.00     0.164 A 
HETATM    4  F7  UNL     1     -35.035  15.357  -2.173  1.00 20.00    -0.235 F 
ENDROOT
BRANCH   3   5
HETATM    5  C1  UNL     1     -35.088  13.971  -4.149  1.00 20.00     0.179 C 
HETATM    6  O6  UNL     1     -34.627  12.855  -3.919  1.00 20.00    -0.293 OA
BRANCH   5   7
HETATM    7  C5  UNL     1     -36.207  14.229  -5.131  1.00 20.00     0.196 C 
HETATM    8 CL8  UNL     1     -37.729  14.534  -4.279  1.00 20.00    -0.122 Cl
ENDBRANCH   5   7
ENDBRANCH   3   5
TORSDOF 2
ENDMDL
MODEL 8
REMARK VINA RESULT:      -3.7     17.339     17.731
REMARK  2 active torsions:
REMARK  status: ('A' for Active; 'I' for Inactive)
REMARK    1  A    between atoms: C1_1  and  C4_4 
REMARK    2  A    between atoms: C1_1  and  C5_5 
ROOT
HETATM    1  C2  UNL     1     -21.729  17.761   9.485  1.00 20.00     0.055 A 
HETATM    2  C3  UNL     1     -22.962  18.604   9.339  1.00 20.00     0.055 A 
HETATM    3  C4  UNL     1     -22.986  17.384  10.218  1.00 20.00     0.164 A 
HETATM    4  F7  UNL     1     -23.675  16.290   9.702  1.00 20.00    -0.235 F 
ENDROOT
BRANCH   3   5
HETATM    5  C1  UNL     1     -23.055  17.536  11.674  1.00 20.00     0.179 C 
HETATM    6  O6  UNL     1     -22.042  17.779  12.327  1.00 20.00    -0.293 OA
BRANCH   5   7
HETATM    7  C5  UNL     1     -24.427  17.372  12.287  1.00 20.00     0.196 C 
HETATM    8 CL8  UNL     1     -25.424  18.802  11.980  1.00 20.00    -0.122 Cl
ENDBRANCH   5   7
ENDBRANCH   3   5
TORSDOF 2
ENDMDL
MODEL 9
REMARK VINA RESULT:      -3.7     16.441     16.767
REMARK  2 active torsions:
REMARK  status: ('A' for Active; 'I' for Inactive)
REMARK    1  A    between atoms: C1_1  and  C4_4 
REMARK    2  A    between atoms: C1_1  and  C5_5 
ROOT
HETATM    1  C2  UNL     1     -24.157  18.013  11.670  1.00 20.00     0.055 A 
HETATM    2  C3  UNL     1     -22.928  17.225  12.014  1.00 20.00     0.055 A 
HETATM    3  C4  UNL     1     -23.676  16.931  10.743  1.00 20.00     0.164 A 
HETATM    4  F7  UNL     1     -24.427  15.759  10.751  1.00 20.00    -0.235 F 
ENDROOT
BRANCH   3   5
HETATM    5  C1  UNL     1     -23.085  17.287   9.450  1.00 20.00     0.179 C 
HETATM    6  O6  UNL     1     -22.393  16.479   8.834  1.00 20.00    -0.293 OA
BRANCH   5   7
HETATM    7  C5  UNL     1     -23.382  18.684   8.955  1.00 20.00     0.196 C 
HETATM    8 CL8  UNL     1     -24.956  18.738   8.146  1.00 20.00    -0.122 Cl
ENDBRANCH   5   7
ENDBRANCH   3   5
TORSDOF 2
ENDMDL
