MODEL 1
REMARK VINA RESULT:      -3.8      0.000      0.000
REMARK  0 active torsions:
REMARK  status: ('A' for Active; 'I' for Inactive)
ROOT
HETATM    1  C1  UNL     1     -24.282  19.068   7.710  1.00 20.00     0.136 A 
HETATM    2  C2  UNL     1     -25.469  19.258   8.419  1.00 20.00     0.136 A 
HETATM    3  C3  UNL     1     -22.285  17.750  10.335  1.00 20.00     0.083 A 
HETATM    4  C4  UNL     1     -24.399  18.087  11.597  1.00 20.00     0.083 A 
HETATM    5  C5  UNL     1     -23.286  18.271   9.553  1.00 20.00     0.092 A 
HETATM    6  C6  UNL     1     -24.505  18.466  10.282  1.00 20.00     0.092 A 
HETATM    7  N7  UNL     1     -23.137  18.568   8.237  1.00 20.00    -0.257 NA
HETATM    8  N8  UNL     1     -25.641  18.968   9.733  1.00 20.00    -0.257 NA
HETATM    9  S9  UNL     1     -22.823  17.497  11.949  1.00 20.00    -0.109 SA
ENDROOT
TORSDOF 0
ENDMDL
MODEL 2
REMARK VINA RESULT:      -3.8      0.144      2.051
REMARK  0 active torsions:
REMARK  status: ('A' for Active; 'I' for Inactive)
ROOT
HETATM    1  C1  UNL     1     -25.510  19.263   8.277  1.00 20.00     0.136 A 
HETATM    2  C2  UNL     1     -24.333  19.025   7.568  1.00 20.00     0.136 A 
HETATM    3  C3  UNL     1     -24.447  18.165  11.483  1.00 20.00     0.083 A 
HETATM    4  C4  UNL     1     -22.349  17.743  10.221  1.00 20.00     0.083 A 
HETATM    5  C5  UNL     1     -24.555  18.506  10.158  1.00 20.00     0.092 A 
HETATM    6  C6  UNL     1     -23.344  18.261   9.429  1.00 20.00     0.092 A 
HETATM    7  N7  UNL     1     -25.681  19.017   9.600  1.00 20.00    -0.257 NA
HETATM    8  N8  UNL     1     -23.195  18.515   8.104  1.00 20.00    -0.257 NA
HETATM    9  S9  UNL     1     -22.882  17.551  11.844  1.00 20.00    -0.109 SA
ENDROOT
TORSDOF 0
ENDMDL
MODEL 3
REMARK VINA RESULT:      -3.8      2.103      3.148
REMARK  0 active torsions:
REMARK  status: ('A' for Active; 'I' for Inactive)
ROOT
HETATM    1  C1  UNL     1     -25.527  16.635  12.299  1.00 20.00     0.136 A 
HETATM    2  C2  UNL     1     -26.118  17.883  12.104  1.00 20.00     0.136 A 
HETATM    3  C3  UNL     1     -23.178  16.722   9.636  1.00 20.00     0.083 A 
HETATM    4  C4  UNL     1     -24.231  18.947   9.289  1.00 20.00     0.083 A 
HETATM    5  C5  UNL     1     -24.166  16.984  10.553  1.00 20.00     0.092 A 
HETATM    6  C6  UNL     1     -24.774  18.268  10.352  1.00 20.00     0.092 A 
HETATM    7  N7  UNL     1     -24.526  16.124  11.538  1.00 20.00    -0.257 NA
HETATM    8  N8  UNL     1     -25.774  18.759  11.126  1.00 20.00    -0.257 NA
HETATM    9  S9  UNL     1     -22.987  18.029   8.535  1.00 20.00    -0.109 SA
ENDROOT
TORSDOF 0
ENDMDL
MODEL 4
REMARK VINA RESULT:      -3.7      2.116      3.710
REMARK  0 active torsions:
REMARK  status: ('A' for Active; 'I' for Inactive)
ROOT
HETATM    1  C1  UNL     1     -24.373  17.749  12.327  1.00 20.00     0.136 A 
HETATM    2  C2  UNL     1     -23.180  17.186  11.873  1.00 20.00     0.136 A 
HETATM    3  C3  UNL     1     -25.468  19.227   9.288  1.00 20.00     0.083 A 
HETATM    4  C4  UNL     1     -23.344  18.222   8.479  1.00 20.00     0.083 A 
HETATM    5  C5  UNL     1     -24.792  18.560  10.280  1.00 20.00     0.092 A 
HETATM    6  C6  UNL     1     -23.566  17.981   9.813  1.00 20.00     0.092 A 
HETATM    7  N7  UNL     1     -25.235  18.462  11.559  1.00 20.00    -0.257 NA
HETATM    8  N8  UNL     1     -22.718  17.272  10.600  1.00 20.00    -0.257 NA
HETATM    9  S9  UNL     1     -24.620  19.150   7.794  1.00 20.00    -0.109 SA
ENDROOT
TORSDOF 0
ENDMDL
MODEL 5
REMARK VINA RESULT:      -3.7      1.920      2.834
REMARK  0 active torsions:
REMARK  status: ('A' for Active; 'I' for Inactive)
ROOT
HETATM    1  C1  UNL     1     -22.013  17.745   7.829  1.00 20.00     0.136 A 
HETATM    2  C2  UNL     1     -21.653  17.417   9.136  1.00 20.00     0.136 A 
HETATM    3  C3  UNL     1     -25.227  19.112   8.475  1.00 20.00     0.083 A 
HETATM    4  C4  UNL     1     -24.585  18.530  10.804  1.00 20.00     0.083 A 
HETATM    5  C5  UNL     1     -23.980  18.541   8.549  1.00 20.00     0.092 A 
HETATM    6  C6  UNL     1     -23.610  18.204   9.893  1.00 20.00     0.092 A 
HETATM    7  N7  UNL     1     -23.188  18.320   7.470  1.00 20.00    -0.257 NA
HETATM    8  N8  UNL     1     -22.428  17.629  10.230  1.00 20.00    -0.257 NA
HETATM    9  S9  UNL     1     -25.946  19.241  10.032  1.00 20.00    -0.109 SA
ENDROOT
TORSDOF 0
ENDMDL
MODEL 6
REMARK VINA RESULT:      -3.6     16.552     17.089
REMARK  0 active torsions:
REMARK  status: ('A' for Active; 'I' for Inactive)
ROOT
HETATM    1  C1  UNL     1     -35.015   4.802   5.589  1.00 20.00     0.136 A 
HETATM    2  C2  UNL     1     -34.584   5.958   6.239  1.00 20.00     0.136 A 
HETATM    3  C3  UNL     1     -33.450   5.329   2.444  1.00 20.00     0.083 A 
HETATM    4  C4  UNL     1     -32.681   7.389   3.603  1.00 20.00     0.083 A 
HETATM    5  C5  UNL     1     -33.914   5.411   3.734  1.00 20.00     0.092 A 
HETATM    6  C6  UNL     1     -33.471   6.599   4.402  1.00 20.00     0.092 A 
HETATM    7  N7  UNL     1     -34.705   4.470   4.310  1.00 20.00    -0.257 NA
HETATM    8  N8  UNL     1     -33.794   6.911   5.683  1.00 20.00    -0.257 NA
HETATM    9  S9  UNL     1     -32.478   6.691   2.045  1.00 20.00    -0.109 SA
ENDROOT
TORSDOF 0
ENDMDL
MODEL 7
REMARK VINA RESULT:      -3.6      1.789      2.708
REMARK  0 active torsions:
REMARK  status: ('A' for Active; 'I' for Inactive)
ROOT
HETATM    1  C1  UNL     1     -22.187  17.334   9.568  1.00 20.00     0.136 A 
HETATM    2  C2  UNL     1     -22.683  17.927   8.407  1.00 20.00     0.136 A 
HETATM    3  C3  UNL     1     -24.816  18.208  11.792  1.00 20.00     0.083 A 
HETATM    4  C4  UNL     1     -25.700  19.263   9.723  1.00 20.00     0.083 A 
HETATM    5  C5  UNL     1     -23.983  18.031  10.715  1.00 20.00     0.092 A 
HETATM    6  C6  UNL     1     -24.493  18.641   9.521  1.00 20.00     0.092 A 
HETATM    7  N7  UNL     1     -22.807  17.355  10.775  1.00 20.00    -0.257 NA
HETATM    8  N8  UNL     1     -23.855  18.607   8.324  1.00 20.00    -0.257 NA
HETATM    9  S9  UNL     1     -26.214  19.109  11.356  1.00 20.00    -0.109 SA
ENDROOT
TORSDOF 0
ENDMDL
MODEL 8
REMARK VINA RESULT:      -3.5      2.124      3.147
REMARK  0 active torsions:
REMARK  status: ('A' for Active; 'I' for Inactive)
ROOT
HETATM    1  C1  UNL     1     -22.004  17.633  11.371  1.00 20.00     0.136 A 
HETATM    2  C2  UNL     1     -23.039  17.773  12.295  1.00 20.00     0.136 A 
HETATM    3  C3  UNL     1     -23.720  18.732   8.461  1.00 20.00     0.083 A 
HETATM    4  C4  UNL     1     -25.564  18.982  10.109  1.00 20.00     0.083 A 
HETATM    5  C5  UNL     1     -23.344  18.368   9.730  1.00 20.00     0.092 A 
HETATM    6  C6  UNL     1     -24.408  18.511  10.681  1.00 20.00     0.092 A 
HETATM    7  N7  UNL     1     -22.102  17.922  10.048  1.00 20.00    -0.257 NA
HETATM    8  N8  UNL     1     -24.287  18.217  12.000  1.00 20.00    -0.257 NA
HETATM    9  S9  UNL     1     -25.361  19.248   8.422  1.00 20.00    -0.109 SA
ENDROOT
TORSDOF 0
ENDMDL
MODEL 9
REMARK VINA RESULT:      -3.5     18.198     19.393
REMARK  0 active torsions:
REMARK  status: ('A' for Active; 'I' for Inactive)
ROOT
HETATM    1  C1  UNL     1     -38.821  16.346  -3.828  1.00 20.00     0.136 A 
HETATM    2  C2  UNL     1     -39.174  15.045  -4.185  1.00 20.00     0.136 A 
HETATM    3  C3  UNL     1     -35.291  15.959  -3.775  1.00 20.00     0.083 A 
HETATM    4  C4  UNL     1     -35.919  13.640  -4.413  1.00 20.00     0.083 A 
HETATM    5  C5  UNL     1     -36.650  15.793  -3.878  1.00 20.00     0.092 A 
HETATM    6  C6  UNL     1     -37.012  14.455  -4.246  1.00 20.00     0.092 A 
HETATM    7  N7  UNL     1     -37.549  16.785  -3.656  1.00 20.00    -0.257 NA
HETATM    8  N8  UNL     1     -38.293  14.038  -4.412  1.00 20.00    -0.257 NA
HETATM    9  S9  UNL     1     -34.456  14.496  -4.124  1.00 20.00    -0.109 SA
ENDROOT
TORSDOF 0
ENDMDL
