MODEL 1
REMARK VINA RESULT:      -5.2      0.000      0.000
REMARK  4 active torsions:
REMARK  status: ('A' for Active; 'I' for Inactive)
REMARK    1  A    between atoms: C2_2  and  C6_6 
REMARK    2  A    between atoms: C6_6  and  C8_8 
REMARK    3  A    between atoms: C7_7  and  C8_8 
REMARK    4  A    between atoms: C8_8  and  O9_9 
ROOT
HETATM    1  C1  UNL     1     -32.785   8.083   1.292  1.00 20.00    -0.111 C 
HETATM    2  C2  UNL     1     -32.737   7.223   2.129  1.00 20.00    -0.104 C 
HETATM    3  C3  UNL     1     -32.843   9.129   0.271  1.00 20.00     0.112 C 
ENDROOT
BRANCH   2   4
HETATM    4  C6  UNL     1     -32.677   6.170   3.157  1.00 20.00     0.126 C 
BRANCH   4   5
HETATM    5  C8  UNL     1     -34.080   5.663   3.522  1.00 20.00     0.132 C 
BRANCH   5   6
HETATM    6  C7  UNL     1     -34.543   6.155   4.913  1.00 20.00     0.007 C 
HETATM    7  C4  UNL     1     -33.522   7.069   5.598  1.00 20.00     0.012 C 
HETATM    8  C5  UNL     1     -34.852   4.967   5.831  1.00 20.00     0.012 C 
ENDBRANCH   5   6
BRANCH   5   9
HETATM    9  O9  UNL     1     -34.086   4.235   3.505  1.00 20.00    -0.394 OA
HETATM   10  H23 UNL     1     -33.709   3.950   4.351  1.00 20.00     0.210 HD
ENDBRANCH   5   9
ENDBRANCH   4   5
ENDBRANCH   2   4
TORSDOF 4
ENDMDL
MODEL 2
REMARK VINA RESULT:      -4.3     15.213     16.034
REMARK  4 active torsions:
REMARK  status: ('A' for Active; 'I' for Inactive)
REMARK    1  A    between atoms: C2_2  and  C6_6 
REMARK    2  A    between atoms: C6_6  and  C8_8 
REMARK    3  A    between atoms: C7_7  and  C8_8 
REMARK    4  A    between atoms: C8_8  and  O9_9 
ROOT
HETATM    1  C1  UNL     1     -25.299  18.937   7.551  1.00 20.00    -0.111 C 
HETATM    2  C2  UNL     1     -24.554  18.696   8.461  1.00 20.00    -0.104 C 
HETATM    3  C3  UNL     1     -26.208  19.232   6.443  1.00 20.00     0.112 C 
ENDROOT
BRANCH   2   4
HETATM    4  C6  UNL     1     -23.640  18.399   9.577  1.00 20.00     0.126 C 
BRANCH   4   5
HETATM    5  C8  UNL     1     -23.584  16.893   9.870  1.00 20.00     0.132 C 
BRANCH   5   6
HETATM    6  C7  UNL     1     -23.644  16.582  11.384  1.00 20.00     0.007 C 
HETATM    7  C4  UNL     1     -25.073  16.385  11.900  1.00 20.00     0.012 C 
HETATM    8  C5  UNL     1     -22.964  17.693  12.192  1.00 20.00     0.012 C 
ENDBRANCH   5   6
BRANCH   5   9
HETATM    9  O9  UNL     1     -22.377  16.351   9.329  1.00 20.00    -0.394 OA
HETATM   10  H23 UNL     1     -21.874  16.004  10.080  1.00 20.00     0.210 HD
ENDBRANCH   5   9
ENDBRANCH   4   5
ENDBRANCH   2   4
TORSDOF 4
ENDMDL
MODEL 3
REMARK VINA RESULT:      -4.2     11.552     12.424
REMARK  4 active torsions:
REMARK  status: ('A' for Active; 'I' for Inactive)
REMARK    1  A    between atoms: C2_2  and  C6_6 
REMARK    2  A    between atoms: C6_6  and  C8_8 
REMARK    3  A    between atoms: C7_7  and  C8_8 
REMARK    4  A    between atoms: C8_8  and  O9_9 
ROOT
HETATM    1  C1  UNL     1     -33.117  16.636  -2.673  1.00 20.00    -0.111 C 
HETATM    2  C2  UNL     1     -33.343  15.712  -3.405  1.00 20.00    -0.104 C 
HETATM    3  C3  UNL     1     -32.842  17.762  -1.780  1.00 20.00     0.112 C 
ENDROOT
BRANCH   2   4
HETATM    4  C6  UNL     1     -33.621  14.579  -4.305  1.00 20.00     0.126 C 
BRANCH   4   5
HETATM    5  C8  UNL     1     -34.120  15.061  -5.675  1.00 20.00     0.132 C 
BRANCH   5   6
HETATM    6  C7  UNL     1     -35.583  14.640  -5.952  1.00 20.00     0.007 C 
HETATM    7  C4  UNL     1     -36.521  15.833  -6.161  1.00 20.00     0.012 C 
HETATM    8  C5  UNL     1     -36.120  13.767  -4.813  1.00 20.00     0.012 C 
ENDBRANCH   5   6
BRANCH   5   9
HETATM    9  O9  UNL     1     -33.279  14.528  -6.699  1.00 20.00    -0.394 OA
HETATM   10  H23 UNL     1     -33.633  14.852  -7.540  1.00 20.00     0.210 HD
ENDBRANCH   5   9
ENDBRANCH   4   5
ENDBRANCH   2   4
TORSDOF 4
ENDMDL
MODEL 4
REMARK VINA RESULT:      -4.2      1.555      1.569
REMARK  4 active torsions:
REMARK  status: ('A' for Active; 'I' for Inactive)
REMARK    1  A    between atoms: C2_2  and  C6_6 
REMARK    2  A    between atoms: C6_6  and  C8_8 
REMARK    3  A    between atoms: C7_7  and  C8_8 
REMARK    4  A    between atoms: C8_8  and  O9_9 
ROOT
HETATM    1  C1  UNL     1     -32.817   8.269   1.116  1.00 20.00    -0.111 C 
HETATM    2  C2  UNL     1     -32.832   7.258   1.764  1.00 20.00    -0.104 C 
HETATM    3  C3  UNL     1     -32.800   9.502   0.329  1.00 20.00     0.112 C 
ENDROOT
BRANCH   2   4
HETATM    4  C6  UNL     1     -32.851   6.017   2.557  1.00 20.00     0.126 C 
BRANCH   4   5
HETATM    5  C8  UNL     1     -32.854   6.315   4.063  1.00 20.00     0.132 C 
BRANCH   5   6
HETATM    6  C7  UNL     1     -34.284   6.386   4.650  1.00 20.00     0.007 C 
HETATM    7  C4  UNL     1     -34.301   6.555   6.172  1.00 20.00     0.012 C 
HETATM    8  C5  UNL     1     -35.086   5.135   4.271  1.00 20.00     0.012 C 
ENDBRANCH   5   6
BRANCH   5   9
HETATM    9  O9  UNL     1     -32.190   7.557   4.300  1.00 20.00    -0.394 OA
HETATM   10  H23 UNL     1     -32.094   7.985   3.436  1.00 20.00     0.210 HD
ENDBRANCH   5   9
ENDBRANCH   4   5
ENDBRANCH   2   4
TORSDOF 4
ENDMDL
MODEL 5
REMARK VINA RESULT:      -4.1     11.146     12.586
REMARK  4 active torsions:
REMARK  status: ('A' for Active; 'I' for Inactive)
REMARK    1  A    between atoms: C2_2  and  C6_6 
REMARK    2  A    between atoms: C6_6  and  C8_8 
REMARK    3  A    between atoms: C7_7  and  C8_8 
REMARK    4  A    between atoms: C8_8  and  O9_9 
ROOT
HETATM    1  C1  UNL     1     -34.899  16.190  -1.924  1.00 20.00    -0.111 C 
HETATM    2  C2  UNL     1     -34.806  15.394  -2.819  1.00 20.00    -0.104 C 
HETATM    3  C3  UNL     1     -35.011  17.159  -0.835  1.00 20.00     0.112 C 
ENDROOT
BRANCH   2   4
HETATM    4  C6  UNL     1     -34.692  14.417  -3.916  1.00 20.00     0.126 C 
BRANCH   4   5
HETATM    5  C8  UNL     1     -33.951  15.012  -5.122  1.00 20.00     0.132 C 
BRANCH   5   6
HETATM    6  C7  UNL     1     -34.762  14.892  -6.433  1.00 20.00     0.007 C 
HETATM    7  C4  UNL     1     -34.000  15.402  -7.660  1.00 20.00     0.012 C 
HETATM    8  C5  UNL     1     -36.093  15.643  -6.317  1.00 20.00     0.012 C 
ENDBRANCH   5   6
BRANCH   5   9
HETATM    9  O9  UNL     1     -32.699  14.344  -5.283  1.00 20.00    -0.394 OA
HETATM   10  H23 UNL     1     -32.392  14.121  -4.392  1.00 20.00     0.210 HD
ENDBRANCH   5   9
ENDBRANCH   4   5
ENDBRANCH   2   4
TORSDOF 4
ENDMDL
MODEL 6
REMARK VINA RESULT:      -4.0     11.542     12.492
REMARK  4 active torsions:
REMARK  status: ('A' for Active; 'I' for Inactive)
REMARK    1  A    between atoms: C2_2  and  C6_6 
REMARK    2  A    between atoms: C6_6  and  C8_8 
REMARK    3  A    between atoms: C7_7  and  C8_8 
REMARK    4  A    between atoms: C8_8  and  O9_9 
ROOT
HETATM    1  C1  UNL     1     -34.084  16.454  -2.228  1.00 20.00    -0.111 C 
HETATM    2  C2  UNL     1     -33.841  15.669  -3.103  1.00 20.00    -0.104 C 
HETATM    3  C3  UNL     1     -34.381  17.412  -1.162  1.00 20.00     0.112 C 
ENDROOT
BRANCH   2   4
HETATM    4  C6  UNL     1     -33.542  14.706  -4.177  1.00 20.00     0.126 C 
BRANCH   4   5
HETATM    5  C8  UNL     1     -33.999  15.232  -5.545  1.00 20.00     0.132 C 
BRANCH   5   6
HETATM    6  C7  UNL     1     -35.527  15.106  -5.747  1.00 20.00     0.007 C 
HETATM    7  C4  UNL     1     -36.108  13.821  -5.148  1.00 20.00     0.012 C 
HETATM    8  C5  UNL     1     -35.883  15.174  -7.237  1.00 20.00     0.012 C 
ENDBRANCH   5   6
BRANCH   5   9
HETATM    9  O9  UNL     1     -33.329  14.507  -6.577  1.00 20.00    -0.394 OA
HETATM   10  H23 UNL     1     -33.852  13.706  -6.732  1.00 20.00     0.210 HD
ENDBRANCH   5   9
ENDBRANCH   4   5
ENDBRANCH   2   4
TORSDOF 4
ENDMDL
MODEL 7
REMARK VINA RESULT:      -4.0     11.153     12.182
REMARK  4 active torsions:
REMARK  status: ('A' for Active; 'I' for Inactive)
REMARK    1  A    between atoms: C2_2  and  C6_6 
REMARK    2  A    between atoms: C6_6  and  C8_8 
REMARK    3  A    between atoms: C7_7  and  C8_8 
REMARK    4  A    between atoms: C8_8  and  O9_9 
ROOT
HETATM    1  C1  UNL     1     -33.951  16.521  -2.488  1.00 20.00    -0.111 C 
HETATM    2  C2  UNL     1     -34.806  15.812  -2.943  1.00 20.00    -0.104 C 
HETATM    3  C3  UNL     1     -32.909  17.385  -1.934  1.00 20.00     0.112 C 
ENDROOT
BRANCH   2   4
HETATM    4  C6  UNL     1     -35.854  14.941  -3.502  1.00 20.00     0.126 C 
BRANCH   4   5
HETATM    5  C8  UNL     1     -35.292  14.012  -4.588  1.00 20.00     0.132 C 
BRANCH   5   6
HETATM    6  C7  UNL     1     -35.502  14.573  -6.014  1.00 20.00     0.007 C 
HETATM    7  C4  UNL     1     -34.214  15.111  -6.644  1.00 20.00     0.012 C 
HETATM    8  C5  UNL     1     -36.563  15.680  -6.009  1.00 20.00     0.012 C 
ENDBRANCH   5   6
BRANCH   5   9
HETATM    9  O9  UNL     1     -35.923  12.735  -4.490  1.00 20.00    -0.394 OA
HETATM   10  H23 UNL     1     -35.225  12.075  -4.616  1.00 20.00     0.210 HD
ENDBRANCH   5   9
ENDBRANCH   4   5
ENDBRANCH   2   4
TORSDOF 4
ENDMDL
MODEL 8
REMARK VINA RESULT:      -3.9      9.640     10.348
REMARK  4 active torsions:
REMARK  status: ('A' for Active; 'I' for Inactive)
REMARK    1  A    between atoms: C2_2  and  C6_6 
REMARK    2  A    between atoms: C6_6  and  C8_8 
REMARK    3  A    between atoms: C7_7  and  C8_8 
REMARK    4  A    between atoms: C8_8  and  O9_9 
ROOT
HETATM    1  C1  UNL     1     -42.301   3.022  -3.107  1.00 20.00    -0.111 C 
HETATM    2  C2  UNL     1     -42.542   3.917  -2.343  1.00 20.00    -0.104 C 
HETATM    3  C3  UNL     1     -42.007   1.932  -4.036  1.00 20.00     0.112 C 
ENDROOT
BRANCH   2   4
HETATM    4  C6  UNL     1     -42.836   5.015  -1.406  1.00 20.00     0.126 C 
BRANCH   4   5
HETATM    5  C8  UNL     1     -41.571   5.478  -0.669  1.00 20.00     0.132 C 
BRANCH   5   6
HETATM    6  C7  UNL     1     -41.389   7.013  -0.712  1.00 20.00     0.007 C 
HETATM    7  C4  UNL     1     -41.311   7.648   0.680  1.00 20.00     0.012 C 
HETATM    8  C5  UNL     1     -42.525   7.670  -1.504  1.00 20.00     0.012 C 
ENDBRANCH   5   6
BRANCH   5   9
HETATM    9  O9  UNL     1     -40.428   4.855  -1.257  1.00 20.00    -0.394 OA
HETATM   10  H23 UNL     1     -40.146   4.163  -0.640  1.00 20.00     0.210 HD
ENDBRANCH   5   9
ENDBRANCH   4   5
ENDBRANCH   2   4
TORSDOF 4
ENDMDL
MODEL 9
REMARK VINA RESULT:      -3.9     15.873     17.075
REMARK  4 active torsions:
REMARK  status: ('A' for Active; 'I' for Inactive)
REMARK    1  A    between atoms: C2_2  and  C6_6 
REMARK    2  A    between atoms: C6_6  and  C8_8 
REMARK    3  A    between atoms: C7_7  and  C8_8 
REMARK    4  A    between atoms: C8_8  and  O9_9 
ROOT
HETATM    1  C1  UNL     1     -26.130  18.196  12.126  1.00 20.00    -0.111 C 
HETATM    2  C2  UNL     1     -24.938  18.084  12.218  1.00 20.00    -0.104 C 
HETATM    3  C3  UNL     1     -27.582  18.331  12.012  1.00 20.00     0.112 C 
ENDROOT
BRANCH   2   4
HETATM    4  C6  UNL     1     -23.475  17.948  12.332  1.00 20.00     0.126 C 
BRANCH   4   5
HETATM    5  C8  UNL     1     -22.871  17.319  11.068  1.00 20.00     0.132 C 
BRANCH   5   6
HETATM    6  C7  UNL     1     -22.789  18.318   9.891  1.00 20.00     0.007 C 
HETATM    7  C4  UNL     1     -23.966  18.197   8.917  1.00 20.00     0.012 C 
HETATM    8  C5  UNL     1     -21.476  18.139   9.120  1.00 20.00     0.012 C 
ENDBRANCH   5   6
BRANCH   5   9
HETATM    9  O9  UNL     1     -23.663  16.197  10.675  1.00 20.00    -0.394 OA
HETATM   10  H23 UNL     1     -23.580  15.542  11.384  1.00 20.00     0.210 HD
ENDBRANCH   5   9
ENDBRANCH   4   5
ENDBRANCH   2   4
TORSDOF 4
ENDMDL
