MODEL 1
REMARK VINA RESULT:      -4.9      0.000      0.000
REMARK  2 active torsions:
REMARK  status: ('A' for Active; 'I' for Inactive)
REMARK    1  A    between atoms: C7_7  and  C9_9 
REMARK    2  A    between atoms: C8_8  and  C10_10 
ROOT
HETATM    1  C1  UNL     1     -35.771  14.073  -4.726  1.00 20.00     0.131 C 
HETATM    2  C2  UNL     1     -35.678  14.547  -6.160  1.00 20.00     0.083 C 
HETATM    3  C6  UNL     1     -33.545  14.542  -5.103  1.00 20.00     0.018 C 
HETATM    4  C7  UNL     1     -34.563  14.570  -3.955  1.00 20.00     0.060 C 
HETATM    5  C8  UNL     1     -34.408  15.413  -6.033  1.00 20.00    -0.002 C 
HETATM    6  O11 UNL     1     -36.687  13.414  -4.260  1.00 20.00    -0.298 OA
ENDROOT
BRANCH   4   7
HETATM    7  C9  UNL     1     -34.700  16.082  -3.711  1.00 20.00     0.001 C 
HETATM    8  C4  UNL     1     -33.426  16.897  -3.517  1.00 20.00     0.006 C 
HETATM    9  C3  UNL     1     -33.228  17.014  -2.010  1.00 20.00     0.001 C 
HETATM   10  C5  UNL     1     -34.637  16.997  -1.426  1.00 20.00     0.005 C 
HETATM   11  C10 UNL     1     -35.477  16.144  -2.371  1.00 20.00    -0.005 C 
ENDBRANCH   4   7
TORSDOF 2
ENDMDL
MODEL 2
REMARK VINA RESULT:      -4.6      1.479      2.234
REMARK  2 active torsions:
REMARK  status: ('A' for Active; 'I' for Inactive)
REMARK    1  A    between atoms: C7_7  and  C9_9 
REMARK    2  A    between atoms: C8_8  and  C10_10 
ROOT
HETATM    1  C1  UNL     1     -36.495  13.992  -4.620  1.00 20.00     0.131 C 
HETATM    2  C2  UNL     1     -37.929  14.371  -4.322  1.00 20.00     0.083 C 
HETATM    3  C6  UNL     1     -36.883  15.967  -5.746  1.00 20.00     0.018 C 
HETATM    4  C7  UNL     1     -35.730  15.228  -5.053  1.00 20.00     0.060 C 
HETATM    5  C8  UNL     1     -37.808  15.896  -4.518  1.00 20.00    -0.002 C 
HETATM    6  O11 UNL     1     -36.024  12.871  -4.507  1.00 20.00    -0.298 OA
ENDROOT
BRANCH   4   7
HETATM    7  C9  UNL     1     -35.484  16.131  -3.832  1.00 20.00     0.001 C 
HETATM    8  C4  UNL     1     -34.971  17.545  -4.075  1.00 20.00     0.006 C 
HETATM    9  C3  UNL     1     -33.458  17.478  -3.906  1.00 20.00     0.001 C 
HETATM   10  C5  UNL     1     -33.227  16.372  -2.882  1.00 20.00     0.005 C 
HETATM   11  C10 UNL     1     -34.366  15.376  -3.068  1.00 20.00    -0.005 C 
ENDBRANCH   4   7
TORSDOF 2
ENDMDL
MODEL 3
REMARK VINA RESULT:      -4.5      1.533      2.411
REMARK  2 active torsions:
REMARK  status: ('A' for Active; 'I' for Inactive)
REMARK    1  A    between atoms: C7_7  and  C9_9 
REMARK    2  A    between atoms: C8_8  and  C10_10 
ROOT
HETATM    1  C1  UNL     1     -35.186  15.451  -5.670  1.00 20.00     0.131 C 
HETATM    2  C2  UNL     1     -35.792  14.067  -5.600  1.00 20.00     0.083 C 
HETATM    3  C6  UNL     1     -36.946  15.599  -4.188  1.00 20.00     0.018 C 
HETATM    4  C7  UNL     1     -35.567  16.230  -4.427  1.00 20.00     0.060 C 
HETATM    5  C8  UNL     1     -36.405  14.159  -4.188  1.00 20.00    -0.002 C 
HETATM    6  O11 UNL     1     -34.480  15.866  -6.577  1.00 20.00    -0.298 OA
ENDROOT
BRANCH   4   7
HETATM    7  C9  UNL     1     -34.777  15.689  -3.223  1.00 20.00     0.001 C 
HETATM    8  C4  UNL     1     -35.136  16.210  -1.836  1.00 20.00     0.006 C 
HETATM    9  C3  UNL     1     -34.153  17.338  -1.543  1.00 20.00     0.001 C 
HETATM   10  C5  UNL     1     -32.882  16.955  -2.293  1.00 20.00     0.005 C 
HETATM   11  C10 UNL     1     -33.333  16.167  -3.518  1.00 20.00    -0.005 C 
ENDBRANCH   4   7
TORSDOF 2
ENDMDL
MODEL 4
REMARK VINA RESULT:      -4.5      1.866      3.145
REMARK  2 active torsions:
REMARK  status: ('A' for Active; 'I' for Inactive)
REMARK    1  A    between atoms: C7_7  and  C9_9 
REMARK    2  A    between atoms: C8_8  and  C10_10 
ROOT
HETATM    1  C1  UNL     1     -34.761  13.986  -3.968  1.00 20.00     0.131 C 
HETATM    2  C2  UNL     1     -33.347  14.440  -4.257  1.00 20.00     0.083 C 
HETATM    3  C6  UNL     1     -34.374  15.791  -2.587  1.00 20.00     0.018 C 
HETATM    4  C7  UNL     1     -35.535  15.128  -3.339  1.00 20.00     0.060 C 
HETATM    5  C8  UNL     1     -33.493  15.918  -3.842  1.00 20.00    -0.002 C 
HETATM    6  O11 UNL     1     -35.212  12.880  -4.223  1.00 20.00    -0.298 OA
ENDROOT
BRANCH   4   7
HETATM    7  C9  UNL     1     -35.844  16.187  -4.410  1.00 20.00     0.001 C 
HETATM    8  C4  UNL     1     -36.534  17.473  -3.971  1.00 20.00     0.006 C 
HETATM    9  C3  UNL     1     -38.021  17.263  -4.234  1.00 20.00     0.001 C 
HETATM   10  C5  UNL     1     -38.078  16.324  -5.435  1.00 20.00     0.005 C 
HETATM   11  C10 UNL     1     -36.833  15.448  -5.348  1.00 20.00    -0.005 C 
ENDBRANCH   4   7
TORSDOF 2
ENDMDL
MODEL 5
REMARK VINA RESULT:      -4.5      2.698      4.948
REMARK  2 active torsions:
REMARK  status: ('A' for Active; 'I' for Inactive)
REMARK    1  A    between atoms: C7_7  and  C9_9 
REMARK    2  A    between atoms: C8_8  and  C10_10 
ROOT
HETATM    1  C1  UNL     1     -34.005  18.868  -0.604  1.00 20.00     0.131 C 
HETATM    2  C2  UNL     1     -32.671  18.857   0.110  1.00 20.00     0.083 C 
HETATM    3  C6  UNL     1     -32.396  18.951  -2.253  1.00 20.00     0.018 C 
HETATM    4  C7  UNL     1     -33.812  18.402  -2.034  1.00 20.00     0.060 C 
HETATM    5  C8  UNL     1     -31.815  18.245  -1.016  1.00 20.00    -0.002 C 
HETATM    6  O11 UNL     1     -35.072  19.181  -0.099  1.00 20.00    -0.298 OA
ENDROOT
BRANCH   4   7
HETATM    7  C9  UNL     1     -33.552  16.886  -2.047  1.00 20.00     0.001 C 
HETATM    8  C4  UNL     1     -33.042  16.256  -3.337  1.00 20.00     0.006 C 
HETATM    9  C3  UNL     1     -34.272  15.709  -4.052  1.00 20.00     0.001 C 
HETATM   10  C5  UNL     1     -35.238  15.329  -2.936  1.00 20.00     0.005 C 
HETATM   11  C10 UNL     1     -34.961  16.295  -1.788  1.00 20.00    -0.005 C 
ENDBRANCH   4   7
TORSDOF 2
ENDMDL
MODEL 6
REMARK VINA RESULT:      -4.4      2.171      4.337
REMARK  2 active torsions:
REMARK  status: ('A' for Active; 'I' for Inactive)
REMARK    1  A    between atoms: C7_7  and  C9_9 
REMARK    2  A    between atoms: C8_8  and  C10_10 
ROOT
HETATM    1  C1  UNL     1     -34.639  18.261  -1.577  1.00 20.00     0.131 C 
HETATM    2  C2  UNL     1     -33.508  18.456  -0.591  1.00 20.00     0.083 C 
HETATM    3  C6  UNL     1     -32.712  18.401  -2.834  1.00 20.00     0.018 C 
HETATM    4  C7  UNL     1     -34.083  17.712  -2.876  1.00 20.00     0.060 C 
HETATM    5  C8  UNL     1     -32.364  17.861  -1.436  1.00 20.00    -0.002 C 
HETATM    6  O11 UNL     1     -35.818  18.488  -1.351  1.00 20.00    -0.298 OA
ENDROOT
BRANCH   4   7
HETATM    7  C9  UNL     1     -33.685  16.239  -2.681  1.00 20.00     0.001 C 
HETATM    8  C4  UNL     1     -32.885  15.558  -3.784  1.00 20.00     0.006 C 
HETATM    9  C3  UNL     1     -33.902  14.818  -4.645  1.00 20.00     0.001 C 
HETATM   10  C5  UNL     1     -35.023  14.433  -3.685  1.00 20.00     0.005 C 
HETATM   11  C10 UNL     1     -35.057  15.520  -2.616  1.00 20.00    -0.005 C 
ENDBRANCH   4   7
TORSDOF 2
ENDMDL
MODEL 7
REMARK VINA RESULT:      -4.2      1.767      2.662
REMARK  2 active torsions:
REMARK  status: ('A' for Active; 'I' for Inactive)
REMARK    1  A    between atoms: C7_7  and  C9_9 
REMARK    2  A    between atoms: C8_8  and  C10_10 
ROOT
HETATM    1  C1  UNL     1     -34.446  16.344  -4.821  1.00 20.00     0.131 C 
HETATM    2  C2  UNL     1     -34.122  14.889  -5.080  1.00 20.00     0.083 C 
HETATM    3  C6  UNL     1     -36.076  15.124  -3.739  1.00 20.00     0.018 C 
HETATM    4  C7  UNL     1     -35.321  16.452  -3.587  1.00 20.00     0.060 C 
HETATM    5  C8  UNL     1     -34.792  14.281  -3.831  1.00 20.00    -0.002 C 
HETATM    6  O11 UNL     1     -34.045  17.285  -5.489  1.00 20.00    -0.298 OA
ENDROOT
BRANCH   4   7
HETATM    7  C9  UNL     1     -34.473  16.173  -2.334  1.00 20.00     0.001 C 
HETATM    8  C4  UNL     1     -35.068  16.515  -0.974  1.00 20.00     0.006 C 
HETATM    9  C3  UNL     1     -34.532  17.897  -0.616  1.00 20.00     0.001 C 
HETATM   10  C5  UNL     1     -33.161  17.970  -1.280  1.00 20.00     0.005 C 
HETATM   11  C10 UNL     1     -33.251  17.106  -2.534  1.00 20.00    -0.005 C 
ENDBRANCH   4   7
TORSDOF 2
ENDMDL
MODEL 8
REMARK VINA RESULT:      -4.2      1.276      1.721
REMARK  2 active torsions:
REMARK  status: ('A' for Active; 'I' for Inactive)
REMARK    1  A    between atoms: C7_7  and  C9_9 
REMARK    2  A    between atoms: C8_8  and  C10_10 
ROOT
HETATM    1  C1  UNL     1     -35.692  14.831  -6.279  1.00 20.00     0.131 C 
HETATM    2  C2  UNL     1     -36.498  15.809  -7.105  1.00 20.00     0.083 C 
HETATM    3  C6  UNL     1     -34.215  16.468  -6.953  1.00 20.00     0.018 C 
HETATM    4  C7  UNL     1     -34.440  15.517  -5.769  1.00 20.00     0.060 C 
HETATM    5  C8  UNL     1     -35.631  17.065  -6.881  1.00 20.00    -0.002 C 
HETATM    6  O11 UNL     1     -36.014  13.677  -6.041  1.00 20.00    -0.298 OA
ENDROOT
BRANCH   4   7
HETATM    7  C9  UNL     1     -34.817  16.509  -4.656  1.00 20.00     0.001 C 
HETATM    8  C4  UNL     1     -33.706  17.340  -4.026  1.00 20.00     0.006 C 
HETATM    9  C3  UNL     1     -33.292  16.598  -2.760  1.00 20.00     0.001 C 
HETATM   10  C5  UNL     1     -34.560  15.895  -2.286  1.00 20.00     0.005 C 
HETATM   11  C10 UNL     1     -35.365  15.580  -3.542  1.00 20.00    -0.005 C 
ENDBRANCH   4   7
TORSDOF 2
ENDMDL
MODEL 9
REMARK VINA RESULT:      -4.2      2.048      4.006
REMARK  2 active torsions:
REMARK  status: ('A' for Active; 'I' for Inactive)
REMARK    1  A    between atoms: C7_7  and  C9_9 
REMARK    2  A    between atoms: C8_8  and  C10_10 
ROOT
HETATM    1  C1  UNL     1     -33.708  16.168  -3.264  1.00 20.00     0.131 C 
HETATM    2  C2  UNL     1     -34.913  15.865  -2.400  1.00 20.00     0.083 C 
HETATM    3  C6  UNL     1     -34.426  14.066  -3.882  1.00 20.00     0.018 C 
HETATM    4  C7  UNL     1     -33.747  15.294  -4.502  1.00 20.00     0.060 C 
HETATM    5  C8  UNL     1     -35.622  14.868  -3.339  1.00 20.00    -0.002 C 
HETATM    6  O11 UNL     1     -32.853  17.003  -3.012  1.00 20.00    -0.298 OA
ENDROOT
BRANCH   4   7
HETATM    7  C9  UNL     1     -34.848  15.800  -5.450  1.00 20.00     0.001 C 
HETATM    8  C4  UNL     1     -35.108  15.017  -6.732  1.00 20.00     0.006 C 
HETATM    9  C3  UNL     1     -34.313  15.723  -7.824  1.00 20.00     0.001 C 
HETATM   10  C5  UNL     1     -34.284  17.188  -7.403  1.00 20.00     0.005 C 
HETATM   11  C10 UNL     1     -34.318  17.192  -5.879  1.00 20.00    -0.005 C 
ENDBRANCH   4   7
TORSDOF 2
ENDMDL
