MODEL 1
REMARK VINA RESULT:      -4.0      0.000      0.000
REMARK  0 active torsions:
REMARK  status: ('A' for Active; 'I' for Inactive)
ROOT
HETATM    1  C1  UNL     1     -34.304   6.468   5.936  1.00 20.00     0.064 C 
HETATM    2  C2  UNL     1     -33.168   6.971   5.053  1.00 20.00     0.170 C 
HETATM    3  C3  UNL     1     -33.613   5.542   3.215  1.00 20.00     0.205 C 
HETATM    4  C4  UNL     1     -34.772   5.119   5.489  1.00 20.00     0.258 A 
HETATM    5  C5  UNL     1     -34.443   4.662   4.093  1.00 20.00     0.277 A 
HETATM    6  N6  UNL     1     -35.798   5.059   4.444  1.00 20.00     0.099 N 
HETATM    7  O7  UNL     1     -33.562   6.897   3.682  1.00 20.00    -0.389 OA
HETATM    8  H16 UNL     1     -36.380   4.232   4.579  1.00 20.00     0.317 HD
ENDROOT
TORSDOF 0
ENDMDL
MODEL 2
REMARK VINA RESULT:      -3.8     16.416     17.272
REMARK  0 active torsions:
REMARK  status: ('A' for Active; 'I' for Inactive)
ROOT
HETATM    1  C1  UNL     1     -23.362  16.788   9.706  1.00 20.00     0.064 C 
HETATM    2  C2  UNL     1     -22.478  18.003   9.965  1.00 20.00     0.170 C 
HETATM    3  C3  UNL     1     -22.719  18.002  12.323  1.00 20.00     0.205 C 
HETATM    4  C4  UNL     1     -24.268  16.527  10.868  1.00 20.00     0.258 A 
HETATM    5  C5  UNL     1     -23.922  17.124  12.207  1.00 20.00     0.277 A 
HETATM    6  N6  UNL     1     -23.758  15.698  11.965  1.00 20.00     0.099 N 
HETATM    7  O7  UNL     1     -21.814  17.850  11.221  1.00 20.00    -0.389 OA
HETATM    8  H16 UNL     1     -24.527  15.182  12.392  1.00 20.00     0.317 HD
ENDROOT
TORSDOF 0
ENDMDL
MODEL 3
REMARK VINA RESULT:      -3.7     12.801     13.495
REMARK  0 active torsions:
REMARK  status: ('A' for Active; 'I' for Inactive)
ROOT
HETATM    1  C1  UNL     1     -34.756  14.154  -3.952  1.00 20.00     0.064 C 
HETATM    2  C2  UNL     1     -36.127  13.909  -4.572  1.00 20.00     0.170 C 
HETATM    3  C3  UNL     1     -35.615  14.812  -6.703  1.00 20.00     0.205 C 
HETATM    4  C4  UNL     1     -34.000  15.194  -4.718  1.00 20.00     0.258 A 
HETATM    5  C5  UNL     1     -34.422  15.506  -6.130  1.00 20.00     0.277 A 
HETATM    6  N6  UNL     1     -33.203  14.756  -5.869  1.00 20.00     0.099 N 
HETATM    7  O7  UNL     1     -35.977  13.636  -5.966  1.00 20.00    -0.389 OA
HETATM    8  H16 UNL     1     -32.390  15.364  -5.976  1.00 20.00     0.317 HD
ENDROOT
TORSDOF 0
ENDMDL
MODEL 4
REMARK VINA RESULT:      -3.7     16.068     16.574
REMARK  0 active torsions:
REMARK  status: ('A' for Active; 'I' for Inactive)
ROOT
HETATM    1  C1  UNL     1     -23.941  18.075  10.383  1.00 20.00     0.064 C 
HETATM    2  C2  UNL     1     -25.303  18.592  10.830  1.00 20.00     0.170 C 
HETATM    3  C3  UNL     1     -25.786  16.806  12.312  1.00 20.00     0.205 C 
HETATM    4  C4  UNL     1     -23.807  16.610  10.657  1.00 20.00     0.258 A 
HETATM    5  C5  UNL     1     -24.730  15.973  11.662  1.00 20.00     0.277 A 
HETATM    6  N6  UNL     1     -23.329  16.199  11.981  1.00 20.00     0.099 N 
HETATM    7  O7  UNL     1     -25.534  18.212  12.188  1.00 20.00    -0.389 OA
HETATM    8  H16 UNL     1     -22.807  15.326  11.903  1.00 20.00     0.317 HD
ENDROOT
TORSDOF 0
ENDMDL
MODEL 5
REMARK VINA RESULT:      -3.5     16.876     17.236
REMARK  0 active torsions:
REMARK  status: ('A' for Active; 'I' for Inactive)
ROOT
HETATM    1  C1  UNL     1     -25.166  18.038  11.790  1.00 20.00     0.064 C 
HETATM    2  C2  UNL     1     -25.089  18.694  10.416  1.00 20.00     0.170 C 
HETATM    3  C3  UNL     1     -22.870  18.020   9.929  1.00 20.00     0.205 C 
HETATM    4  C4  UNL     1     -23.798  17.765  12.330  1.00 20.00     0.258 A 
HETATM    5  C5  UNL     1     -22.634  17.728  11.375  1.00 20.00     0.277 A 
HETATM    6  N6  UNL     1     -23.152  16.501  11.961  1.00 20.00     0.099 N 
HETATM    7  O7  UNL     1     -24.253  17.914   9.562  1.00 20.00    -0.389 OA
HETATM    8  H16 UNL     1     -22.543  16.192  12.718  1.00 20.00     0.317 HD
ENDROOT
TORSDOF 0
ENDMDL
MODEL 6
REMARK VINA RESULT:      -3.5     16.657     16.963
REMARK  0 active torsions:
REMARK  status: ('A' for Active; 'I' for Inactive)
ROOT
HETATM    1  C1  UNL     1     -24.558  18.450   9.476  1.00 20.00     0.064 C 
HETATM    2  C2  UNL     1     -23.947  19.103   8.241  1.00 20.00     0.170 C 
HETATM    3  C3  UNL     1     -21.994  17.761   8.176  1.00 20.00     0.205 C 
HETATM    4  C4  UNL     1     -23.516  17.723  10.267  1.00 20.00     0.258 A 
HETATM    5  C5  UNL     1     -22.223  17.347   9.593  1.00 20.00     0.277 A 
HETATM    6  N6  UNL     1     -23.221  16.334   9.900  1.00 20.00     0.099 N 
HETATM    7  O7  UNL     1     -23.207  18.128   7.504  1.00 20.00    -0.389 OA
HETATM    8  H16 UNL     1     -22.942  15.810  10.730  1.00 20.00     0.317 HD
ENDROOT
TORSDOF 0
ENDMDL
MODEL 7
REMARK VINA RESULT:      -3.5     16.673     17.346
REMARK  0 active torsions:
REMARK  status: ('A' for Active; 'I' for Inactive)
ROOT
HETATM    1  C1  UNL     1     -22.820  17.564  12.229  1.00 20.00     0.064 C 
HETATM    2  C2  UNL     1     -24.228  18.138  12.332  1.00 20.00     0.170 C 
HETATM    3  C3  UNL     1     -24.668  18.168  10.003  1.00 20.00     0.205 C 
HETATM    4  C4  UNL     1     -22.260  17.763  10.856  1.00 20.00     0.258 A 
HETATM    5  C5  UNL     1     -23.207  18.041   9.719  1.00 20.00     0.277 A 
HETATM    6  N6  UNL     1     -22.554  16.747   9.840  1.00 20.00     0.099 N 
HETATM    7  O7  UNL     1     -25.034  17.615  11.275  1.00 20.00    -0.389 OA
HETATM    8  H16 UNL     1     -21.778  16.684   9.180  1.00 20.00     0.317 HD
ENDROOT
TORSDOF 0
ENDMDL
MODEL 8
REMARK VINA RESULT:      -3.4     16.977     17.515
REMARK  0 active torsions:
REMARK  status: ('A' for Active; 'I' for Inactive)
ROOT
HETATM    1  C1  UNL     1     -22.420  17.810  10.897  1.00 20.00     0.064 C 
HETATM    2  C2  UNL     1     -21.798  18.113   9.539  1.00 20.00     0.170 C 
HETATM    3  C3  UNL     1     -23.780  18.913   8.515  1.00 20.00     0.205 C 
HETATM    4  C4  UNL     1     -23.907  17.682  10.788  1.00 20.00     0.258 A 
HETATM    5  C5  UNL     1     -24.600  18.271   9.587  1.00 20.00     0.277 A 
HETATM    6  N6  UNL     1     -24.712  18.904  10.892  1.00 20.00     0.099 N 
HETATM    7  O7  UNL     1     -22.454  19.239   8.955  1.00 20.00    -0.389 OA
HETATM    8  H16 UNL     1     -25.616  18.686  11.310  1.00 20.00     0.317 HD
ENDROOT
TORSDOF 0
ENDMDL
MODEL 9
REMARK VINA RESULT:      -3.4      1.375      2.099
REMARK  0 active torsions:
REMARK  status: ('A' for Active; 'I' for Inactive)
ROOT
HETATM    1  C1  UNL     1     -33.293   6.483   3.673  1.00 20.00     0.064 C 
HETATM    2  C2  UNL     1     -33.513   7.202   4.999  1.00 20.00     0.170 C 
HETATM    3  C3  UNL     1     -34.874   5.527   5.980  1.00 20.00     0.205 C 
HETATM    4  C4  UNL     1     -34.339   5.436   3.450  1.00 20.00     0.258 A 
HETATM    5  C5  UNL     1     -35.123   4.931   4.633  1.00 20.00     0.277 A 
HETATM    6  N6  UNL     1     -34.105   4.101   4.008  1.00 20.00     0.099 N 
HETATM    7  O7  UNL     1     -33.631   6.240   6.048  1.00 20.00    -0.389 OA
HETATM    8  H16 UNL     1     -34.544   3.397   3.414  1.00 20.00     0.317 HD
ENDROOT
TORSDOF 0
ENDMDL
