MODEL 1
REMARK VINA RESULT:      -5.5      0.000      0.000
REMARK  4 active torsions:
REMARK  status: ('A' for Active; 'I' for Inactive)
REMARK    1  A    between atoms: C1_1  and  C8_8 
REMARK    2  A    between atoms: C1_1  and  C9_9 
REMARK    3  A    between atoms: C6_6  and  C8_8 
REMARK    4  A    between atoms: C7_7  and  C9_9 
ROOT
HETATM    1  C1  UNL     1     -32.903   6.276   2.765  1.00 20.00     0.127 C 
HETATM    2  O10 UNL     1     -33.077   5.125   2.369  1.00 20.00    -0.298 OA
ENDROOT
BRANCH   1   3
HETATM    3  C8  UNL     1     -33.325   6.730   4.152  1.00 20.00     0.082 C 
BRANCH   3   4
HETATM    4  C6  UNL     1     -34.640   6.116   4.596  1.00 20.00    -0.008 A 
HETATM    5  C2  UNL     1     -34.750   4.632   4.810  1.00 20.00     0.005 A 
HETATM    6  C3  UNL     1     -34.787   5.565   5.988  1.00 20.00     0.005 A 
ENDBRANCH   3   4
ENDBRANCH   1   3
BRANCH   1   7
HETATM    7  C9  UNL     1     -32.253   7.342   1.898  1.00 20.00     0.082 C 
BRANCH   7   8
HETATM    8  C7  UNL     1     -33.267   8.252   1.227  1.00 20.00    -0.008 A 
HETATM    9  C4  UNL     1     -32.851   9.604   0.720  1.00 20.00     0.005 A 
HETATM   10  C5  UNL     1     -33.191   8.509  -0.252  1.00 20.00     0.005 A 
ENDBRANCH   7   8
ENDBRANCH   1   7
TORSDOF 4
ENDMDL
MODEL 2
REMARK VINA RESULT:      -5.5      0.028      4.883
REMARK  4 active torsions:
REMARK  status: ('A' for Active; 'I' for Inactive)
REMARK    1  A    between atoms: C1_1  and  C8_8 
REMARK    2  A    between atoms: C1_1  and  C9_9 
REMARK    3  A    between atoms: C6_6  and  C8_8 
REMARK    4  A    between atoms: C7_7  and  C9_9 
ROOT
HETATM    1  C1  UNL     1     -32.892   6.284   2.763  1.00 20.00     0.127 C 
HETATM    2  O10 UNL     1     -33.062   5.126   2.384  1.00 20.00    -0.298 OA
ENDROOT
BRANCH   1   3
HETATM    3  C8  UNL     1     -32.250   7.342   1.881  1.00 20.00     0.082 C 
BRANCH   3   4
HETATM    4  C6  UNL     1     -33.269   8.260   1.231  1.00 20.00    -0.008 A 
HETATM    5  C2  UNL     1     -32.861   9.623   0.748  1.00 20.00     0.005 A 
HETATM    6  C3  UNL     1     -33.198   8.546  -0.244  1.00 20.00     0.005 A 
ENDBRANCH   3   4
ENDBRANCH   1   3
BRANCH   1   7
HETATM    7  C9  UNL     1     -33.308   6.751   4.149  1.00 20.00     0.082 C 
BRANCH   7   8
HETATM    8  C7  UNL     1     -34.626   6.149   4.600  1.00 20.00    -0.008 A 
HETATM    9  C4  UNL     1     -34.753   4.664   4.793  1.00 20.00     0.005 A 
HETATM   10  C5  UNL     1     -34.764   5.580   5.984  1.00 20.00     0.005 A 
ENDBRANCH   7   8
ENDBRANCH   1   7
TORSDOF 4
ENDMDL
MODEL 3
REMARK VINA RESULT:      -5.4      1.544      4.604
REMARK  4 active torsions:
REMARK  status: ('A' for Active; 'I' for Inactive)
REMARK    1  A    between atoms: C1_1  and  C8_8 
REMARK    2  A    between atoms: C1_1  and  C9_9 
REMARK    3  A    between atoms: C6_6  and  C8_8 
REMARK    4  A    between atoms: C7_7  and  C9_9 
ROOT
HETATM    1  C1  UNL     1     -34.172   4.508   3.542  1.00 20.00     0.127 C 
HETATM    2  O10 UNL     1     -34.056   3.319   3.833  1.00 20.00    -0.298 OA
ENDROOT
BRANCH   1   3
HETATM    3  C8  UNL     1     -33.257   5.193   2.541  1.00 20.00     0.082 C 
BRANCH   3   4
HETATM    4  C6  UNL     1     -33.213   6.700   2.722  1.00 20.00    -0.008 A 
HETATM    5  C2  UNL     1     -31.950   7.371   3.184  1.00 20.00     0.005 A 
HETATM    6  C3  UNL     1     -32.422   7.554   1.768  1.00 20.00     0.005 A 
ENDBRANCH   3   4
ENDBRANCH   1   3
BRANCH   1   7
HETATM    7  C9  UNL     1     -35.242   5.393   4.162  1.00 20.00     0.082 C 
BRANCH   7   8
HETATM    8  C7  UNL     1     -35.054   5.580   5.657  1.00 20.00    -0.008 A 
HETATM    9  C4  UNL     1     -33.731   5.271   6.298  1.00 20.00     0.005 A 
HETATM   10  C5  UNL     1     -34.193   6.696   6.178  1.00 20.00     0.005 A 
ENDBRANCH   7   8
ENDBRANCH   1   7
TORSDOF 4
ENDMDL
MODEL 4
REMARK VINA RESULT:      -5.4      1.540      2.285
REMARK  4 active torsions:
REMARK  status: ('A' for Active; 'I' for Inactive)
REMARK    1  A    between atoms: C1_1  and  C8_8 
REMARK    2  A    between atoms: C1_1  and  C9_9 
REMARK    3  A    between atoms: C6_6  and  C8_8 
REMARK    4  A    between atoms: C7_7  and  C9_9 
ROOT
HETATM    1  C1  UNL     1     -34.182   4.508   3.551  1.00 20.00     0.127 C 
HETATM    2  O10 UNL     1     -34.117   3.306   3.807  1.00 20.00    -0.298 OA
ENDROOT
BRANCH   1   3
HETATM    3  C8  UNL     1     -35.231   5.414   4.172  1.00 20.00     0.082 C 
BRANCH   3   4
HETATM    4  C6  UNL     1     -35.037   5.599   5.666  1.00 20.00    -0.008 A 
HETATM    5  C2  UNL     1     -33.707   5.303   6.300  1.00 20.00     0.005 A 
HETATM    6  C3  UNL     1     -34.183   6.724   6.185  1.00 20.00     0.005 A 
ENDBRANCH   3   4
ENDBRANCH   1   3
BRANCH   1   7
HETATM    7  C9  UNL     1     -33.219   5.185   2.590  1.00 20.00     0.082 C 
BRANCH   7   8
HETATM    8  C7  UNL     1     -33.207   6.696   2.738  1.00 20.00    -0.008 A 
HETATM    9  C4  UNL     1     -31.954   7.404   3.169  1.00 20.00     0.005 A 
HETATM   10  C5  UNL     1     -32.450   7.547   1.757  1.00 20.00     0.005 A 
ENDBRANCH   7   8
ENDBRANCH   1   7
TORSDOF 4
ENDMDL
MODEL 5
REMARK VINA RESULT:      -4.8     10.413     12.175
REMARK  4 active torsions:
REMARK  status: ('A' for Active; 'I' for Inactive)
REMARK    1  A    between atoms: C1_1  and  C8_8 
REMARK    2  A    between atoms: C1_1  and  C9_9 
REMARK    3  A    between atoms: C6_6  and  C8_8 
REMARK    4  A    between atoms: C7_7  and  C9_9 
ROOT
HETATM    1  C1  UNL     1     -35.931  13.972  -4.847  1.00 20.00     0.127 C 
HETATM    2  O10 UNL     1     -35.953  12.788  -4.514  1.00 20.00    -0.298 OA
ENDROOT
BRANCH   1   3
HETATM    3  C8  UNL     1     -35.740  14.405  -6.291  1.00 20.00     0.082 C 
BRANCH   3   4
HETATM    4  C6  UNL     1     -34.389  15.054  -6.535  1.00 20.00    -0.008 A 
HETATM    5  C2  UNL     1     -34.000  15.496  -7.918  1.00 20.00     0.005 A 
HETATM    6  C3  UNL     1     -34.301  16.520  -6.859  1.00 20.00     0.005 A 
ENDBRANCH   3   4
ENDBRANCH   1   3
BRANCH   1   7
HETATM    7  C9  UNL     1     -36.090  15.100  -3.841  1.00 20.00     0.082 C 
BRANCH   7   8
HETATM    8  C7  UNL     1     -34.962  15.144  -2.825  1.00 20.00    -0.008 A 
HETATM    9  C4  UNL     1     -33.745  15.988  -3.081  1.00 20.00     0.005 A 
HETATM   10  C5  UNL     1     -34.724  16.385  -2.012  1.00 20.00     0.005 A 
ENDBRANCH   7   8
ENDBRANCH   1   7
TORSDOF 4
ENDMDL
MODEL 6
REMARK VINA RESULT:      -4.7     10.424     11.647
REMARK  4 active torsions:
REMARK  status: ('A' for Active; 'I' for Inactive)
REMARK    1  A    between atoms: C1_1  and  C8_8 
REMARK    2  A    between atoms: C1_1  and  C9_9 
REMARK    3  A    between atoms: C6_6  and  C8_8 
REMARK    4  A    between atoms: C7_7  and  C9_9 
ROOT
HETATM    1  C1  UNL     1     -35.925  14.009  -4.859  1.00 20.00     0.127 C 
HETATM    2  O10 UNL     1     -36.005  12.824  -4.539  1.00 20.00    -0.298 OA
ENDROOT
BRANCH   1   3
HETATM    3  C8  UNL     1     -36.009  15.133  -3.840  1.00 20.00     0.082 C 
BRANCH   3   4
HETATM    4  C6  UNL     1     -34.838  15.137  -2.874  1.00 20.00    -0.008 A 
HETATM    5  C2  UNL     1     -33.698  16.097  -3.070  1.00 20.00     0.005 A 
HETATM    6  C3  UNL     1     -34.647  16.284  -1.920  1.00 20.00     0.005 A 
ENDBRANCH   3   4
ENDBRANCH   1   3
BRANCH   1   7
HETATM    7  C9  UNL     1     -35.739  14.447  -6.303  1.00 20.00     0.082 C 
BRANCH   7   8
HETATM    8  C7  UNL     1     -34.426  15.175  -6.530  1.00 20.00    -0.008 A 
HETATM    9  C4  UNL     1     -34.016  15.581  -7.918  1.00 20.00     0.005 A 
HETATM   10  C5  UNL     1     -34.422  16.627  -6.918  1.00 20.00     0.005 A 
ENDBRANCH   7   8
ENDBRANCH   1   7
TORSDOF 4
ENDMDL
MODEL 7
REMARK VINA RESULT:      -4.5     10.476     11.631
REMARK  4 active torsions:
REMARK  status: ('A' for Active; 'I' for Inactive)
REMARK    1  A    between atoms: C1_1  and  C8_8 
REMARK    2  A    between atoms: C1_1  and  C9_9 
REMARK    3  A    between atoms: C6_6  and  C8_8 
REMARK    4  A    between atoms: C7_7  and  C9_9 
ROOT
HETATM    1  C1  UNL     1     -36.084  13.834  -4.479  1.00 20.00     0.127 C 
HETATM    2  O10 UNL     1     -35.853  12.627  -4.510  1.00 20.00    -0.298 OA
ENDROOT
BRANCH   1   3
HETATM    3  C8  UNL     1     -37.494  14.388  -4.365  1.00 20.00     0.082 C 
BRANCH   3   4
HETATM    4  C6  UNL     1     -37.580  15.858  -4.734  1.00 20.00    -0.008 A 
HETATM    5  C2  UNL     1     -38.917  16.507  -4.956  1.00 20.00     0.005 A 
HETATM    6  C3  UNL     1     -38.105  16.859  -3.741  1.00 20.00     0.005 A 
ENDBRANCH   3   4
ENDBRANCH   1   3
BRANCH   1   7
HETATM    7  C9  UNL     1     -34.978  14.874  -4.556  1.00 20.00     0.082 C 
BRANCH   7   8
HETATM    8  C7  UNL     1     -34.249  15.053  -3.236  1.00 20.00    -0.008 A 
HETATM    9  C4  UNL     1     -33.390  16.264  -3.004  1.00 20.00     0.005 A 
HETATM   10  C5  UNL     1     -34.690  16.112  -2.265  1.00 20.00     0.005 A 
ENDBRANCH   7   8
ENDBRANCH   1   7
TORSDOF 4
ENDMDL
MODEL 8
REMARK VINA RESULT:      -4.5     10.315     11.441
REMARK  4 active torsions:
REMARK  status: ('A' for Active; 'I' for Inactive)
REMARK    1  A    between atoms: C1_1  and  C8_8 
REMARK    2  A    between atoms: C1_1  and  C9_9 
REMARK    3  A    between atoms: C6_6  and  C8_8 
REMARK    4  A    between atoms: C7_7  and  C9_9 
ROOT
HETATM    1  C1  UNL     1     -35.701  13.819  -4.461  1.00 20.00     0.127 C 
HETATM    2  O10 UNL     1     -35.937  12.615  -4.545  1.00 20.00    -0.298 OA
ENDROOT
BRANCH   1   3
HETATM    3  C8  UNL     1     -34.475  14.358  -3.743  1.00 20.00     0.082 C 
BRANCH   3   4
HETATM    4  C6  UNL     1     -34.614  15.820  -3.361  1.00 20.00    -0.008 A 
HETATM    5  C2  UNL     1     -34.914  16.207  -1.940  1.00 20.00     0.005 A 
HETATM    6  C3  UNL     1     -33.557  16.488  -2.524  1.00 20.00     0.005 A 
ENDBRANCH   3   4
ENDBRANCH   1   3
BRANCH   1   7
HETATM    7  C9  UNL     1     -36.619  14.869  -5.065  1.00 20.00     0.082 C 
BRANCH   7   8
HETATM    8  C7  UNL     1     -37.912  15.036  -4.288  1.00 20.00    -0.008 A 
HETATM    9  C4  UNL     1     -38.346  16.398  -3.824  1.00 20.00     0.005 A 
HETATM   10  C5  UNL     1     -39.098  15.704  -4.926  1.00 20.00     0.005 A 
ENDBRANCH   7   8
ENDBRANCH   1   7
TORSDOF 4
ENDMDL
MODEL 9
REMARK VINA RESULT:      -4.4     10.672     11.409
REMARK  4 active torsions:
REMARK  status: ('A' for Active; 'I' for Inactive)
REMARK    1  A    between atoms: C1_1  and  C8_8 
REMARK    2  A    between atoms: C1_1  and  C9_9 
REMARK    3  A    between atoms: C6_6  and  C8_8 
REMARK    4  A    between atoms: C7_7  and  C9_9 
ROOT
HETATM    1  C1  UNL     1     -33.526  14.707  -4.516  1.00 20.00     0.127 C 
HETATM    2  O10 UNL     1     -33.164  13.531  -4.502  1.00 20.00    -0.298 OA
ENDROOT
BRANCH   1   3
HETATM    3  C8  UNL     1     -34.472  15.252  -5.574  1.00 20.00     0.082 C 
BRANCH   3   4
HETATM    4  C6  UNL     1     -35.783  14.490  -5.638  1.00 20.00    -0.008 A 
HETATM    5  C2  UNL     1     -36.393  13.925  -4.386  1.00 20.00     0.005 A 
HETATM    6  C3  UNL     1     -37.039  15.095  -5.074  1.00 20.00     0.005 A 
ENDBRANCH   3   4
ENDBRANCH   1   3
BRANCH   1   7
HETATM    7  C9  UNL     1     -33.056  15.713  -3.478  1.00 20.00     0.082 C 
BRANCH   7   8
HETATM    8  C7  UNL     1     -34.174  16.611  -2.982  1.00 20.00    -0.008 A 
HETATM    9  C4  UNL     1     -35.035  16.181  -1.828  1.00 20.00     0.005 A 
HETATM   10  C5  UNL     1     -34.054  17.307  -1.655  1.00 20.00     0.005 A 
ENDBRANCH   7   8
ENDBRANCH   1   7
TORSDOF 4
ENDMDL
