MODEL 1
REMARK VINA RESULT:      -4.2      0.000      0.000
REMARK  1 active torsions:
REMARK  status: ('A' for Active; 'I' for Inactive)
REMARK    1  A    between atoms: C6_6  and  O8_8 
ROOT
HETATM    1  C1  UNL     1     -24.312  19.072   8.489  1.00 20.00     0.015 C 
HETATM    2  C2  UNL     1     -23.835  18.213   9.180  1.00 20.00    -0.077 C 
HETATM    3  C3  UNL     1     -24.312  16.417  10.809  1.00 20.00     0.080 C 
HETATM    4  C4  UNL     1     -24.516  17.299  12.024  1.00 20.00     0.171 C 
HETATM    5  C5  UNL     1     -22.400  17.743  11.147  1.00 20.00     0.219 C 
HETATM    6  C6  UNL     1     -23.250  17.163  10.027  1.00 20.00     0.143 C 
HETATM    7  O7  UNL     1     -23.267  17.961  12.272  1.00 20.00    -0.387 OA
ENDROOT
BRANCH   6   8
HETATM    8  O8  UNL     1     -22.501  16.265   9.226  1.00 20.00    -0.375 OA
HETATM    9  H16 UNL     1     -22.405  15.442   9.735  1.00 20.00     0.211 HD
ENDBRANCH   6   8
TORSDOF 1
ENDMDL
MODEL 2
REMARK VINA RESULT:      -4.1     18.677     20.072
REMARK  1 active torsions:
REMARK  status: ('A' for Active; 'I' for Inactive)
REMARK    1  A    between atoms: C6_6  and  O8_8 
ROOT
HETATM    1  C1  UNL     1     -34.436  15.432  -2.944  1.00 20.00     0.015 C 
HETATM    2  C2  UNL     1     -35.134  14.809  -3.698  1.00 20.00    -0.077 C 
HETATM    3  C3  UNL     1     -35.739  14.433  -6.065  1.00 20.00     0.080 C 
HETATM    4  C4  UNL     1     -36.617  15.655  -6.242  1.00 20.00     0.171 C 
HETATM    5  C5  UNL     1     -37.458  14.405  -4.461  1.00 20.00     0.219 C 
HETATM    6  C6  UNL     1     -35.989  14.048  -4.621  1.00 20.00     0.143 C 
HETATM    7  O7  UNL     1     -37.730  15.501  -5.350  1.00 20.00    -0.387 OA
ENDROOT
BRANCH   6   8
HETATM    8  O8  UNL     1     -35.775  12.659  -4.434  1.00 20.00    -0.375 OA
HETATM    9  H16 UNL     1     -35.533  12.289  -5.300  1.00 20.00     0.211 HD
ENDBRANCH   6   8
TORSDOF 1
ENDMDL
MODEL 3
REMARK VINA RESULT:      -4.0      1.384      2.908
REMARK  1 active torsions:
REMARK  status: ('A' for Active; 'I' for Inactive)
REMARK    1  A    between atoms: C6_6  and  O8_8 
ROOT
HETATM    1  C1  UNL     1     -25.277  19.263   8.283  1.00 20.00     0.015 C 
HETATM    2  C2  UNL     1     -24.423  18.787   8.980  1.00 20.00    -0.077 C 
HETATM    3  C3  UNL     1     -21.989  18.568   9.349  1.00 20.00     0.080 C 
HETATM    4  C4  UNL     1     -21.720  17.523   8.285  1.00 20.00     0.171 C 
HETATM    5  C5  UNL     1     -23.344  16.686   9.735  1.00 20.00     0.219 C 
HETATM    6  C6  UNL     1     -23.377  18.203   9.833  1.00 20.00     0.143 C 
HETATM    7  O7  UNL     1     -22.450  16.347   8.662  1.00 20.00    -0.387 OA
ENDROOT
BRANCH   6   8
HETATM    8  O8  UNL     1     -23.562  18.627  11.173  1.00 20.00    -0.375 OA
HETATM    9  H16 UNL     1     -23.657  17.825  11.715  1.00 20.00     0.211 HD
ENDBRANCH   6   8
TORSDOF 1
ENDMDL
MODEL 4
REMARK VINA RESULT:      -3.9     17.882     19.317
REMARK  1 active torsions:
REMARK  status: ('A' for Active; 'I' for Inactive)
REMARK    1  A    between atoms: C6_6  and  O8_8 
ROOT
HETATM    1  C1  UNL     1     -34.807  15.993  -2.253  1.00 20.00     0.015 C 
HETATM    2  C2  UNL     1     -34.826  15.224  -3.176  1.00 20.00    -0.077 C 
HETATM    3  C3  UNL     1     -34.627  14.986  -5.628  1.00 20.00     0.080 C 
HETATM    4  C4  UNL     1     -36.015  15.474  -5.989  1.00 20.00     0.171 C 
HETATM    5  C5  UNL     1     -36.232  13.680  -4.513  1.00 20.00     0.219 C 
HETATM    6  C6  UNL     1     -34.852  14.283  -4.305  1.00 20.00     0.143 C 
HETATM    7  O7  UNL     1     -36.945  14.546  -5.411  1.00 20.00    -0.387 OA
ENDROOT
BRANCH   6   8
HETATM    8  O8  UNL     1     -33.876  13.274  -4.108  1.00 20.00    -0.375 OA
HETATM    9  H16 UNL     1     -33.727  12.849  -4.970  1.00 20.00     0.211 HD
ENDBRANCH   6   8
TORSDOF 1
ENDMDL
MODEL 5
REMARK VINA RESULT:      -3.9     18.305     19.682
REMARK  1 active torsions:
REMARK  status: ('A' for Active; 'I' for Inactive)
REMARK    1  A    between atoms: C6_6  and  O8_8 
ROOT
HETATM    1  C1  UNL     1     -34.367  15.755  -2.643  1.00 20.00     0.015 C 
HETATM    2  C2  UNL     1     -34.821  15.274  -3.646  1.00 20.00    -0.077 C 
HETATM    3  C3  UNL     1     -36.433  15.575  -5.496  1.00 20.00     0.080 C 
HETATM    4  C4  UNL     1     -37.685  15.195  -4.732  1.00 20.00     0.171 C 
HETATM    5  C5  UNL     1     -36.176  13.422  -4.587  1.00 20.00     0.219 C 
HETATM    6  C6  UNL     1     -35.378  14.684  -4.873  1.00 20.00     0.143 C 
HETATM    7  O7  UNL     1     -37.534  13.824  -4.341  1.00 20.00    -0.387 OA
ENDROOT
BRANCH   6   8
HETATM    8  O8  UNL     1     -34.333  14.432  -5.798  1.00 20.00    -0.375 OA
HETATM    9  H16 UNL     1     -33.506  14.726  -5.380  1.00 20.00     0.211 HD
ENDBRANCH   6   8
TORSDOF 1
ENDMDL
MODEL 6
REMARK VINA RESULT:      -3.9      1.677      3.195
REMARK  1 active torsions:
REMARK  status: ('A' for Active; 'I' for Inactive)
REMARK    1  A    between atoms: C6_6  and  O8_8 
ROOT
HETATM    1  C1  UNL     1     -22.014  17.777  12.332  1.00 20.00     0.015 C 
HETATM    2  C2  UNL     1     -22.695  17.625  11.354  1.00 20.00    -0.077 C 
HETATM    3  C3  UNL     1     -22.785  16.697   9.065  1.00 20.00     0.080 C 
HETATM    4  C4  UNL     1     -22.016  17.803   8.372  1.00 20.00     0.171 C 
HETATM    5  C5  UNL     1     -23.838  18.760   9.469  1.00 20.00     0.219 C 
HETATM    6  C6  UNL     1     -23.528  17.439  10.157  1.00 20.00     0.143 C 
HETATM    7  O7  UNL     1     -22.788  19.002   8.519  1.00 20.00    -0.387 OA
ENDROOT
BRANCH   6   8
HETATM    8  O8  UNL     1     -24.717  16.750  10.504  1.00 20.00    -0.375 OA
HETATM    9  H16 UNL     1     -25.217  17.329  11.105  1.00 20.00     0.211 HD
ENDBRANCH   6   8
TORSDOF 1
ENDMDL
MODEL 7
REMARK VINA RESULT:      -3.8      1.688      2.842
REMARK  1 active torsions:
REMARK  status: ('A' for Active; 'I' for Inactive)
REMARK    1  A    between atoms: C6_6  and  O8_8 
ROOT
HETATM    1  C1  UNL     1     -25.959  18.801  11.936  1.00 20.00     0.015 C 
HETATM    2  C2  UNL     1     -25.122  17.954  11.775  1.00 20.00    -0.077 C 
HETATM    3  C3  UNL     1     -22.716  17.416  11.952  1.00 20.00     0.080 C 
HETATM    4  C4  UNL     1     -22.261  18.123  10.692  1.00 20.00     0.171 C 
HETATM    5  C5  UNL     1     -23.909  16.578  10.107  1.00 20.00     0.219 C 
HETATM    6  C6  UNL     1     -24.097  16.918  11.577  1.00 20.00     0.143 C 
HETATM    7  O7  UNL     1     -22.901  17.463   9.591  1.00 20.00    -0.387 OA
ENDROOT
BRANCH   6   8
HETATM    8  O8  UNL     1     -24.431  15.766  12.332  1.00 20.00    -0.375 OA
HETATM    9  H16 UNL     1     -25.314  15.919  12.710  1.00 20.00     0.211 HD
ENDBRANCH   6   8
TORSDOF 1
ENDMDL
MODEL 8
REMARK VINA RESULT:      -3.8     17.294     18.423
REMARK  1 active torsions:
REMARK  status: ('A' for Active; 'I' for Inactive)
REMARK    1  A    between atoms: C6_6  and  O8_8 
ROOT
HETATM    1  C1  UNL     1     -34.078  15.244  -7.066  1.00 20.00     0.015 C 
HETATM    2  C2  UNL     1     -33.875  14.899  -5.933  1.00 20.00    -0.077 C 
HETATM    3  C3  UNL     1     -34.906  14.069  -3.846  1.00 20.00     0.080 C 
HETATM    4  C4  UNL     1     -35.459  15.393  -3.357  1.00 20.00     0.171 C 
HETATM    5  C5  UNL     1     -33.160  15.635  -3.675  1.00 20.00     0.219 C 
HETATM    6  C6  UNL     1     -33.627  14.479  -4.546  1.00 20.00     0.143 C 
HETATM    7  O7  UNL     1     -34.334  16.251  -3.121  1.00 20.00    -0.387 OA
ENDROOT
BRANCH   6   8
HETATM    8  O8  UNL     1     -32.690  13.414  -4.530  1.00 20.00    -0.375 OA
HETATM    9  H16 UNL     1     -33.134  12.651  -4.123  1.00 20.00     0.211 HD
ENDBRANCH   6   8
TORSDOF 1
ENDMDL
MODEL 9
REMARK VINA RESULT:      -3.7     18.806     19.882
REMARK  1 active torsions:
REMARK  status: ('A' for Active; 'I' for Inactive)
REMARK    1  A    between atoms: C6_6  and  O8_8 
ROOT
HETATM    1  C1  UNL     1     -38.488  14.793  -4.178  1.00 20.00     0.015 C 
HETATM    2  C2  UNL     1     -37.352  14.456  -4.377  1.00 20.00    -0.077 C 
HETATM    3  C3  UNL     1     -35.002  14.702  -3.654  1.00 20.00     0.080 C 
HETATM    4  C4  UNL     1     -34.731  16.041  -4.310  1.00 20.00     0.171 C 
HETATM    5  C5  UNL     1     -35.445  14.553  -5.959  1.00 20.00     0.219 C 
HETATM    6  C6  UNL     1     -35.962  14.043  -4.623  1.00 20.00     0.143 C 
HETATM    7  O7  UNL     1     -34.863  15.846  -5.725  1.00 20.00    -0.387 OA
ENDROOT
BRANCH   6   8
HETATM    8  O8  UNL     1     -35.861  12.632  -4.538  1.00 20.00    -0.375 OA
HETATM    9  H16 UNL     1     -35.029  12.433  -4.077  1.00 20.00     0.211 HD
ENDBRANCH   6   8
TORSDOF 1
ENDMDL
