MODEL 1
REMARK VINA RESULT:      -4.6      0.000      0.000
REMARK  3 active torsions:
REMARK  status: ('A' for Active; 'I' for Inactive)
REMARK    1  A    between atoms: C1_1  and  O7_7 
REMARK    2  A    between atoms: C4_4  and  C5_5 
REMARK    3  A    between atoms: C5_5  and  O7_7 
ROOT
HETATM    1  C5  UNL     1     -33.534   5.351   3.509  1.00 20.00     0.184 C 
ENDROOT
BRANCH   1   2
HETATM    2  C4  UNL     1     -34.565   5.866   4.452  1.00 20.00     0.010 A 
HETATM    3  C2  UNL     1     -34.822   5.159   5.754  1.00 20.00     0.007 A 
HETATM    4  C3  UNL     1     -34.152   6.505   5.749  1.00 20.00     0.007 A 
ENDBRANCH   1   2
BRANCH   1   5
HETATM    5  O7  UNL     1     -33.473   6.182   2.350  1.00 20.00    -0.308 OA
BRANCH   5   6
HETATM    6  C1  UNL     1     -32.558   7.204   2.384  1.00 20.00     0.357 C 
HETATM    7  O6  UNL     1     -31.771   7.369   3.312  1.00 20.00    -0.246 OA
HETATM    8 CL8  UNL     1     -32.643   8.227   0.974  1.00 20.00    -0.012 Cl
ENDBRANCH   5   6
ENDBRANCH   1   5
TORSDOF 3
ENDMDL
MODEL 2
REMARK VINA RESULT:      -4.2     11.240     11.808
REMARK  3 active torsions:
REMARK  status: ('A' for Active; 'I' for Inactive)
REMARK    1  A    between atoms: C1_1  and  O7_7 
REMARK    2  A    between atoms: C4_4  and  C5_5 
REMARK    3  A    between atoms: C5_5  and  O7_7 
ROOT
HETATM    1  C5  UNL     1     -34.666  15.553  -4.898  1.00 20.00     0.184 C 
ENDROOT
BRANCH   1   2
HETATM    2  C4  UNL     1     -34.011  15.321  -3.581  1.00 20.00     0.010 A 
HETATM    3  C2  UNL     1     -33.219  16.419  -2.926  1.00 20.00     0.007 A 
HETATM    4  C3  UNL     1     -34.540  15.995  -2.345  1.00 20.00     0.007 A 
ENDBRANCH   1   2
BRANCH   1   5
HETATM    5  O7  UNL     1     -35.078  14.308  -5.464  1.00 20.00    -0.308 OA
BRANCH   5   6
HETATM    6  C1  UNL     1     -35.989  13.584  -4.737  1.00 20.00     0.357 C 
HETATM    7  O6  UNL     1     -35.797  12.423  -4.387  1.00 20.00    -0.246 OA
HETATM    8 CL8  UNL     1     -37.432  14.494  -4.375  1.00 20.00    -0.012 Cl
ENDBRANCH   5   6
ENDBRANCH   1   5
TORSDOF 3
ENDMDL
MODEL 3
REMARK VINA RESULT:      -4.2     11.307     11.756
REMARK  3 active torsions:
REMARK  status: ('A' for Active; 'I' for Inactive)
REMARK    1  A    between atoms: C1_1  and  O7_7 
REMARK    2  A    between atoms: C4_4  and  C5_5 
REMARK    3  A    between atoms: C5_5  and  O7_7 
ROOT
HETATM    1  C5  UNL     1     -35.953  15.810  -3.534  1.00 20.00     0.184 C 
ENDROOT
BRANCH   1   2
HETATM    2  C4  UNL     1     -34.709  15.537  -2.763  1.00 20.00     0.010 A 
HETATM    3  C2  UNL     1     -33.368  15.912  -3.330  1.00 20.00     0.007 A 
HETATM    4  C3  UNL     1     -33.928  16.672  -2.160  1.00 20.00     0.007 A 
ENDBRANCH   1   2
BRANCH   1   5
HETATM    5  O7  UNL     1     -36.654  14.591  -3.778  1.00 20.00    -0.308 OA
BRANCH   5   6
HETATM    6  C1  UNL     1     -36.090  13.741  -4.697  1.00 20.00     0.357 C 
HETATM    7  O6  UNL     1     -35.847  12.562  -4.459  1.00 20.00    -0.246 OA
HETATM    8 CL8  UNL     1     -35.763  14.524  -6.221  1.00 20.00    -0.012 Cl
ENDBRANCH   5   6
ENDBRANCH   1   5
TORSDOF 3
ENDMDL
MODEL 4
REMARK VINA RESULT:      -4.2      2.769      3.871
REMARK  3 active torsions:
REMARK  status: ('A' for Active; 'I' for Inactive)
REMARK    1  A    between atoms: C1_1  and  O7_7 
REMARK    2  A    between atoms: C4_4  and  C5_5 
REMARK    3  A    between atoms: C5_5  and  O7_7 
ROOT
HETATM    1  C5  UNL     1     -33.389   5.145   2.692  1.00 20.00     0.184 C 
ENDROOT
BRANCH   1   2
HETATM    2  C4  UNL     1     -33.264   6.609   2.928  1.00 20.00     0.010 A 
HETATM    3  C2  UNL     1     -31.923   7.215   3.240  1.00 20.00     0.007 A 
HETATM    4  C3  UNL     1     -32.579   7.483   1.913  1.00 20.00     0.007 A 
ENDBRANCH   1   2
BRANCH   1   5
HETATM    5  O7  UNL     1     -33.966   4.514   3.835  1.00 20.00    -0.308 OA
BRANCH   5   6
HETATM    6  C1  UNL     1     -34.960   5.211   4.476  1.00 20.00     0.357 C 
HETATM    7  O6  UNL     1     -36.055   5.437   3.967  1.00 20.00    -0.246 OA
HETATM    8 CL8  UNL     1     -34.492   5.732   6.073  1.00 20.00    -0.012 Cl
ENDBRANCH   5   6
ENDBRANCH   1   5
TORSDOF 3
ENDMDL
MODEL 5
REMARK VINA RESULT:      -4.0      1.652      1.674
REMARK  3 active torsions:
REMARK  status: ('A' for Active; 'I' for Inactive)
REMARK    1  A    between atoms: C1_1  and  O7_7 
REMARK    2  A    between atoms: C4_4  and  C5_5 
REMARK    3  A    between atoms: C5_5  and  O7_7 
ROOT
HETATM    1  C5  UNL     1     -34.794   5.557   3.814  1.00 20.00     0.184 C 
ENDROOT
BRANCH   1   2
HETATM    2  C4  UNL     1     -35.115   5.626   5.266  1.00 20.00     0.010 A 
HETATM    3  C2  UNL     1     -34.250   4.912   6.268  1.00 20.00     0.007 A 
HETATM    4  C3  UNL     1     -34.236   6.414   6.198  1.00 20.00     0.007 A 
ENDBRANCH   1   2
BRANCH   1   5
HETATM    5  O7  UNL     1     -33.924   6.631   3.455  1.00 20.00    -0.308 OA
BRANCH   5   6
HETATM    6  C1  UNL     1     -32.927   6.329   2.560  1.00 20.00     0.357 C 
HETATM    7  O6  UNL     1     -32.183   7.177   2.074  1.00 20.00    -0.246 OA
HETATM    8 CL8  UNL     1     -32.844   4.625   2.198  1.00 20.00    -0.012 Cl
ENDBRANCH   5   6
ENDBRANCH   1   5
TORSDOF 3
ENDMDL
MODEL 6
REMARK VINA RESULT:      -3.9      2.423      4.317
REMARK  3 active torsions:
REMARK  status: ('A' for Active; 'I' for Inactive)
REMARK    1  A    between atoms: C1_1  and  O7_7 
REMARK    2  A    between atoms: C4_4  and  C5_5 
REMARK    3  A    between atoms: C5_5  and  O7_7 
ROOT
HETATM    1  C5  UNL     1     -32.363   7.265   2.185  1.00 20.00     0.184 C 
ENDROOT
BRANCH   1   2
HETATM    2  C4  UNL     1     -33.263   8.059   1.304  1.00 20.00     0.010 A 
HETATM    3  C2  UNL     1     -32.905   9.471   0.931  1.00 20.00     0.007 A 
HETATM    4  C3  UNL     1     -32.848   8.383  -0.105  1.00 20.00     0.007 A 
ENDBRANCH   1   2
BRANCH   1   5
HETATM    5  O7  UNL     1     -33.089   6.777   3.312  1.00 20.00    -0.308 OA
BRANCH   5   6
HETATM    6  C1  UNL     1     -33.640   5.526   3.183  1.00 20.00     0.357 C 
HETATM    7  O6  UNL     1     -33.187   4.668   2.430  1.00 20.00    -0.246 OA
HETATM    8 CL8  UNL     1     -35.041   5.302   4.198  1.00 20.00    -0.012 Cl
ENDBRANCH   5   6
ENDBRANCH   1   5
TORSDOF 3
ENDMDL
MODEL 7
REMARK VINA RESULT:      -3.9     11.537     11.933
REMARK  3 active torsions:
REMARK  status: ('A' for Active; 'I' for Inactive)
REMARK    1  A    between atoms: C1_1  and  O7_7 
REMARK    2  A    between atoms: C4_4  and  C5_5 
REMARK    3  A    between atoms: C5_5  and  O7_7 
ROOT
HETATM    1  C5  UNL     1     -33.919  14.690  -4.633  1.00 20.00     0.184 C 
ENDROOT
BRANCH   1   2
HETATM    2  C4  UNL     1     -33.425  15.411  -3.427  1.00 20.00     0.010 A 
HETATM    3  C2  UNL     1     -33.557  16.906  -3.331  1.00 20.00     0.007 A 
HETATM    4  C3  UNL     1     -34.400  16.019  -2.457  1.00 20.00     0.007 A 
ENDBRANCH   1   2
BRANCH   1   5
HETATM    5  O7  UNL     1     -34.953  13.777  -4.265  1.00 20.00    -0.308 OA
BRANCH   5   6
HETATM    6  C1  UNL     1     -36.124  13.870  -4.977  1.00 20.00     0.357 C 
HETATM    7  O6  UNL     1     -37.214  13.534  -4.522  1.00 20.00    -0.246 OA
HETATM    8 CL8  UNL     1     -35.884  14.511  -6.581  1.00 20.00    -0.012 Cl
ENDBRANCH   5   6
ENDBRANCH   1   5
TORSDOF 3
ENDMDL
MODEL 8
REMARK VINA RESULT:      -3.7     11.617     12.269
REMARK  3 active torsions:
REMARK  status: ('A' for Active; 'I' for Inactive)
REMARK    1  A    between atoms: C1_1  and  O7_7 
REMARK    2  A    between atoms: C4_4  and  C5_5 
REMARK    3  A    between atoms: C5_5  and  O7_7 
ROOT
HETATM    1  C5  UNL     1     -34.064  15.568  -4.898  1.00 20.00     0.184 C 
ENDROOT
BRANCH   1   2
HETATM    2  C4  UNL     1     -33.688  15.444  -3.462  1.00 20.00     0.010 A 
HETATM    3  C2  UNL     1     -33.332  16.667  -2.664  1.00 20.00     0.007 A 
HETATM    4  C3  UNL     1     -34.619  15.940  -2.391  1.00 20.00     0.007 A 
ENDBRANCH   1   2
BRANCH   1   5
HETATM    5  O7  UNL     1     -34.544  14.316  -5.387  1.00 20.00    -0.308 OA
BRANCH   5   6
HETATM    6  C1  UNL     1     -35.852  14.288  -5.801  1.00 20.00     0.357 C 
HETATM    7  O6  UNL     1     -36.185  14.386  -6.979  1.00 20.00    -0.246 OA
HETATM    8 CL8  UNL     1     -36.970  14.099  -4.476  1.00 20.00    -0.012 Cl
ENDBRANCH   5   6
ENDBRANCH   1   5
TORSDOF 3
ENDMDL
MODEL 9
REMARK VINA RESULT:      -3.7     11.241     11.930
REMARK  3 active torsions:
REMARK  status: ('A' for Active; 'I' for Inactive)
REMARK    1  A    between atoms: C1_1  and  O7_7 
REMARK    2  A    between atoms: C4_4  and  C5_5 
REMARK    3  A    between atoms: C5_5  and  O7_7 
ROOT
HETATM    1  C5  UNL     1     -34.655  15.445  -2.946  1.00 20.00     0.184 C 
ENDROOT
BRANCH   1   2
HETATM    2  C4  UNL     1     -33.351  16.160  -3.030  1.00 20.00     0.010 A 
HETATM    3  C2  UNL     1     -33.289  17.560  -3.576  1.00 20.00     0.007 A 
HETATM    4  C3  UNL     1     -33.061  17.313  -2.110  1.00 20.00     0.007 A 
ENDBRANCH   1   2
BRANCH   1   5
HETATM    5  O7  UNL     1     -34.586  14.217  -3.670  1.00 20.00    -0.308 OA
BRANCH   5   6
HETATM    6  C1  UNL     1     -35.730  13.835  -4.327  1.00 20.00     0.357 C 
HETATM    7  O6  UNL     1     -36.095  12.667  -4.414  1.00 20.00    -0.246 OA
HETATM    8 CL8  UNL     1     -36.589  15.188  -5.015  1.00 20.00    -0.012 Cl
ENDBRANCH   5   6
ENDBRANCH   1   5
TORSDOF 3
ENDMDL
