MODEL 1
REMARK VINA RESULT:      -5.3      0.000      0.000
REMARK  3 active torsions:
REMARK  status: ('A' for Active; 'I' for Inactive)
REMARK    1  A    between atoms: C2_2  and  C6_6 
REMARK    2  A    between atoms: C3_3  and  C6_6 
REMARK    3  A    between atoms: C3_3  and  C7_7 
ROOT
HETATM    1  C3  UNL     1     -32.520   7.194   2.621  1.00 20.00     0.240 C 
HETATM    2  O8  UNL     1     -31.633   7.431   3.442  1.00 20.00    -0.287 OA
ENDROOT
BRANCH   1   3
HETATM    3  C6  UNL     1     -33.602   6.146   2.866  1.00 20.00     0.088 C 
HETATM    4  C5  UNL     1     -33.058   4.796   2.393  1.00 20.00     0.023 C 
BRANCH   3   5
HETATM    5  C2  UNL     1     -34.041   6.239   4.317  1.00 20.00    -0.082 C 
HETATM    6  C1  UNL     1     -33.618   7.177   5.180  1.00 20.00     0.014 C 
HETATM    7  C4  UNL     1     -35.037   5.199   4.761  1.00 20.00     0.043 C 
ENDBRANCH   3   5
ENDBRANCH   1   3
BRANCH   1   8
HETATM    8  C7  UNL     1     -32.598   7.954   1.327  1.00 20.00     0.451 C 
HETATM    9  F9  UNL     1     -32.691   9.292   1.535  1.00 20.00    -0.163 F 
HETATM   10  F10 UNL     1     -33.678   7.596   0.587  1.00 20.00    -0.163 F 
HETATM   11  F11 UNL     1     -31.504   7.747   0.552  1.00 20.00    -0.163 F 
ENDBRANCH   1   8
TORSDOF 3
ENDMDL
MODEL 2
REMARK VINA RESULT:      -5.3     10.465     11.073
REMARK  3 active torsions:
REMARK  status: ('A' for Active; 'I' for Inactive)
REMARK    1  A    between atoms: C2_2  and  C6_6 
REMARK    2  A    between atoms: C3_3  and  C6_6 
REMARK    3  A    between atoms: C3_3  and  C7_7 
ROOT
HETATM    1  C3  UNL     1     -35.394  15.169  -4.452  1.00 20.00     0.240 C 
HETATM    2  O8  UNL     1     -35.683  16.282  -4.893  1.00 20.00    -0.287 OA
ENDROOT
BRANCH   1   3
HETATM    3  C6  UNL     1     -34.235  14.949  -3.484  1.00 20.00     0.088 C 
HETATM    4  C5  UNL     1     -32.974  14.708  -4.316  1.00 20.00     0.023 C 
BRANCH   3   5
HETATM    5  C2  UNL     1     -34.201  16.108  -2.504  1.00 20.00    -0.082 C 
HETATM    6  C1  UNL     1     -35.132  16.336  -1.563  1.00 20.00     0.014 C 
HETATM    7  C4  UNL     1     -33.009  17.022  -2.623  1.00 20.00     0.043 C 
ENDBRANCH   3   5
ENDBRANCH   1   3
BRANCH   1   8
HETATM    8  C7  UNL     1     -36.197  13.956  -4.831  1.00 20.00     0.451 C 
HETATM    9  F9  UNL     1     -36.110  13.690  -6.158  1.00 20.00    -0.163 F 
HETATM   10  F10 UNL     1     -37.516  14.106  -4.546  1.00 20.00    -0.163 F 
HETATM   11  F11 UNL     1     -35.777  12.846  -4.173  1.00 20.00    -0.163 F 
ENDBRANCH   1   8
TORSDOF 3
ENDMDL
MODEL 3
REMARK VINA RESULT:      -5.1      3.573      4.383
REMARK  3 active torsions:
REMARK  status: ('A' for Active; 'I' for Inactive)
REMARK    1  A    between atoms: C2_2  and  C6_6 
REMARK    2  A    between atoms: C3_3  and  C6_6 
REMARK    3  A    between atoms: C3_3  and  C7_7 
ROOT
HETATM    1  C3  UNL     1     -34.549   5.696   4.361  1.00 20.00     0.240 C 
HETATM    2  O8  UNL     1     -35.634   5.798   3.788  1.00 20.00    -0.287 OA
ENDROOT
BRANCH   1   3
HETATM    3  C6  UNL     1     -33.234   5.546   3.600  1.00 20.00     0.088 C 
HETATM    4  C5  UNL     1     -33.484   4.599   2.424  1.00 20.00     0.023 C 
BRANCH   3   5
HETATM    5  C2  UNL     1     -32.710   6.931   3.267  1.00 20.00    -0.082 C 
HETATM    6  C1  UNL     1     -32.144   7.764   4.156  1.00 20.00     0.014 C 
HETATM    7  C4  UNL     1     -32.837   7.342   1.822  1.00 20.00     0.043 C 
ENDBRANCH   3   5
ENDBRANCH   1   3
BRANCH   1   8
HETATM    8  C7  UNL     1     -34.459   5.742   5.860  1.00 20.00     0.451 C 
HETATM    9  F9  UNL     1     -34.378   7.015   6.320  1.00 20.00    -0.163 F 
HETATM   10  F10 UNL     1     -33.368   5.084   6.328  1.00 20.00    -0.163 F 
HETATM   11  F11 UNL     1     -35.543   5.175   6.449  1.00 20.00    -0.163 F 
ENDBRANCH   1   8
TORSDOF 3
ENDMDL
MODEL 4
REMARK VINA RESULT:      -5.1      3.574      4.371
REMARK  3 active torsions:
REMARK  status: ('A' for Active; 'I' for Inactive)
REMARK    1  A    between atoms: C2_2  and  C6_6 
REMARK    2  A    between atoms: C3_3  and  C6_6 
REMARK    3  A    between atoms: C3_3  and  C7_7 
ROOT
HETATM    1  C3  UNL     1     -34.547   5.693   4.364  1.00 20.00     0.240 C 
HETATM    2  O8  UNL     1     -35.634   5.788   3.792  1.00 20.00    -0.287 OA
ENDROOT
BRANCH   1   3
HETATM    3  C6  UNL     1     -33.234   5.545   3.601  1.00 20.00     0.088 C 
HETATM    4  C5  UNL     1     -33.483   4.598   2.426  1.00 20.00     0.023 C 
BRANCH   3   5
HETATM    5  C2  UNL     1     -32.712   6.931   3.269  1.00 20.00    -0.082 C 
HETATM    6  C1  UNL     1     -32.148   7.765   4.159  1.00 20.00     0.014 C 
HETATM    7  C4  UNL     1     -32.837   7.342   1.824  1.00 20.00     0.043 C 
ENDBRANCH   3   5
ENDBRANCH   1   3
BRANCH   1   8
HETATM    8  C7  UNL     1     -34.456   5.745   5.863  1.00 20.00     0.451 C 
HETATM    9  F9  UNL     1     -35.537   5.175   6.452  1.00 20.00    -0.163 F 
HETATM   10  F10 UNL     1     -34.381   7.019   6.327  1.00 20.00    -0.163 F 
HETATM   11  F11 UNL     1     -33.361   5.093   6.326  1.00 20.00    -0.163 F 
ENDBRANCH   1   8
TORSDOF 3
ENDMDL
MODEL 5
REMARK VINA RESULT:      -5.0     15.974     16.667
REMARK  3 active torsions:
REMARK  status: ('A' for Active; 'I' for Inactive)
REMARK    1  A    between atoms: C2_2  and  C6_6 
REMARK    2  A    between atoms: C3_3  and  C6_6 
REMARK    3  A    between atoms: C3_3  and  C7_7 
ROOT
HETATM    1  C3  UNL     1     -23.393  17.097  10.283  1.00 20.00     0.240 C 
HETATM    2  O8  UNL     1     -23.605  16.104   9.586  1.00 20.00    -0.287 OA
ENDROOT
BRANCH   1   3
HETATM    3  C6  UNL     1     -23.129  18.475   9.683  1.00 20.00     0.088 C 
HETATM    4  C5  UNL     1     -21.793  18.411   8.941  1.00 20.00     0.023 C 
BRANCH   3   5
HETATM    5  C2  UNL     1     -24.346  18.888   8.873  1.00 20.00    -0.082 C 
HETATM    6  C1  UNL     1     -24.392  18.912   7.531  1.00 20.00     0.014 C 
HETATM    7  C4  UNL     1     -25.563  19.263   9.677  1.00 20.00     0.043 C 
ENDBRANCH   3   5
ENDBRANCH   1   3
BRANCH   1   8
HETATM    8  C7  UNL     1     -23.408  17.005  11.783  1.00 20.00     0.451 C 
HETATM    9  F9  UNL     1     -22.258  17.476  12.327  1.00 20.00    -0.163 F 
HETATM   10  F10 UNL     1     -23.553  15.727  12.216  1.00 20.00    -0.163 F 
HETATM   11  F11 UNL     1     -24.426  17.721  12.323  1.00 20.00    -0.163 F 
ENDBRANCH   1   8
TORSDOF 3
ENDMDL
MODEL 6
REMARK VINA RESULT:      -5.0     10.336     11.014
REMARK  3 active torsions:
REMARK  status: ('A' for Active; 'I' for Inactive)
REMARK    1  A    between atoms: C2_2  and  C6_6 
REMARK    2  A    between atoms: C3_3  and  C6_6 
REMARK    3  A    between atoms: C3_3  and  C7_7 
ROOT
HETATM    1  C3  UNL     1     -33.629  15.727  -3.447  1.00 20.00     0.240 C 
HETATM    2  O8  UNL     1     -32.943  16.740  -3.301  1.00 20.00    -0.287 OA
ENDROOT
BRANCH   1   3
HETATM    3  C6  UNL     1     -34.987  15.556  -2.772  1.00 20.00     0.088 C 
HETATM    4  C5  UNL     1     -35.021  16.483  -1.555  1.00 20.00     0.023 C 
BRANCH   3   5
HETATM    5  C2  UNL     1     -36.071  15.752  -3.816  1.00 20.00    -0.082 C 
HETATM    6  C1  UNL     1     -36.308  16.908  -4.458  1.00 20.00     0.014 C 
HETATM    7  C4  UNL     1     -36.893  14.530  -4.134  1.00 20.00     0.043 C 
ENDBRANCH   3   5
ENDBRANCH   1   3
BRANCH   1   8
HETATM    8  C7  UNL     1     -33.167  14.603  -4.331  1.00 20.00     0.451 C 
HETATM    9  F9  UNL     1     -31.825  14.423  -4.254  1.00 20.00    -0.163 F 
HETATM   10  F10 UNL     1     -33.460  14.826  -5.637  1.00 20.00    -0.163 F 
HETATM   11  F11 UNL     1     -33.747  13.424  -3.993  1.00 20.00    -0.163 F 
ENDBRANCH   1   8
TORSDOF 3
ENDMDL
MODEL 7
REMARK VINA RESULT:      -4.9      1.642      2.036
REMARK  3 active torsions:
REMARK  status: ('A' for Active; 'I' for Inactive)
REMARK    1  A    between atoms: C2_2  and  C6_6 
REMARK    2  A    between atoms: C3_3  and  C6_6 
REMARK    3  A    between atoms: C3_3  and  C7_7 
ROOT
HETATM    1  C3  UNL     1     -33.448   5.938   3.134  1.00 20.00     0.240 C 
HETATM    2  O8  UNL     1     -33.180   4.767   2.861  1.00 20.00    -0.287 OA
ENDROOT
BRANCH   1   3
HETATM    3  C6  UNL     1     -34.617   6.320   4.037  1.00 20.00     0.088 C 
HETATM    4  C5  UNL     1     -35.812   5.448   3.644  1.00 20.00     0.023 C 
BRANCH   3   5
HETATM    5  C2  UNL     1     -34.155   6.241   5.481  1.00 20.00    -0.082 C 
HETATM    6  C1  UNL     1     -33.501   7.222   6.125  1.00 20.00     0.014 C 
HETATM    7  C4  UNL     1     -34.497   4.963   6.203  1.00 20.00     0.043 C 
ENDBRANCH   3   5
ENDBRANCH   1   3
BRANCH   1   8
HETATM    8  C7  UNL     1     -32.608   7.066   2.604  1.00 20.00     0.451 C 
HETATM    9  F9  UNL     1     -31.644   7.432   3.486  1.00 20.00    -0.163 F 
HETATM   10  F10 UNL     1     -33.345   8.175   2.344  1.00 20.00    -0.163 F 
HETATM   11  F11 UNL     1     -31.982   6.730   1.448  1.00 20.00    -0.163 F 
ENDBRANCH   1   8
TORSDOF 3
ENDMDL
MODEL 8
REMARK VINA RESULT:      -4.9     15.866     16.625
REMARK  3 active torsions:
REMARK  status: ('A' for Active; 'I' for Inactive)
REMARK    1  A    between atoms: C2_2  and  C6_6 
REMARK    2  A    between atoms: C3_3  and  C6_6 
REMARK    3  A    between atoms: C3_3  and  C7_7 
ROOT
HETATM    1  C3  UNL     1     -24.517  17.436  11.033  1.00 20.00     0.240 C 
HETATM    2  O8  UNL     1     -24.653  16.224  10.859  1.00 20.00    -0.287 OA
ENDROOT
BRANCH   1   3
HETATM    3  C6  UNL     1     -23.185  18.149  10.817  1.00 20.00     0.088 C 
HETATM    4  C5  UNL     1     -22.219  17.666  11.901  1.00 20.00     0.023 C 
BRANCH   3   5
HETATM    5  C2  UNL     1     -22.758  17.942   9.375  1.00 20.00    -0.082 C 
HETATM    6  C1  UNL     1     -21.652  17.280   8.996  1.00 20.00     0.014 C 
HETATM    7  C4  UNL     1     -23.685  18.518   8.335  1.00 20.00     0.043 C 
ENDBRANCH   3   5
ENDBRANCH   1   3
BRANCH   1   8
HETATM    8  C7  UNL     1     -25.681  18.291  11.448  1.00 20.00     0.451 C 
HETATM    9  F9  UNL     1     -26.656  17.559  12.043  1.00 20.00    -0.163 F 
HETATM   10  F10 UNL     1     -26.254  18.925  10.393  1.00 20.00    -0.163 F 
HETATM   11  F11 UNL     1     -25.312  19.253  12.332  1.00 20.00    -0.163 F 
ENDBRANCH   1   8
TORSDOF 3
ENDMDL
MODEL 9
REMARK VINA RESULT:      -4.8     15.445     16.379
REMARK  3 active torsions:
REMARK  status: ('A' for Active; 'I' for Inactive)
REMARK    1  A    between atoms: C2_2  and  C6_6 
REMARK    2  A    between atoms: C3_3  and  C6_6 
REMARK    3  A    between atoms: C3_3  and  C7_7 
ROOT
HETATM    1  C3  UNL     1     -23.567  18.175   8.632  1.00 20.00     0.240 C 
HETATM    2  O8  UNL     1     -24.350  18.088   7.685  1.00 20.00    -0.287 OA
ENDROOT
BRANCH   1   3
HETATM    3  C6  UNL     1     -24.008  18.641  10.017  1.00 20.00     0.088 C 
HETATM    4  C5  UNL     1     -25.423  19.210   9.887  1.00 20.00     0.023 C 
BRANCH   3   5
HETATM    5  C2  UNL     1     -23.816  17.494  10.994  1.00 20.00    -0.082 C 
HETATM    6  C1  UNL     1     -24.462  16.319  10.922  1.00 20.00     0.014 C 
HETATM    7  C4  UNL     1     -22.804  17.734  12.084  1.00 20.00     0.043 C 
ENDBRANCH   3   5
ENDBRANCH   1   3
BRANCH   1   8
HETATM    8  C7  UNL     1     -22.121  17.796   8.476  1.00 20.00     0.451 C 
HETATM    9  F9  UNL     1     -21.865  16.568   8.992  1.00 20.00    -0.163 F 
HETATM   10  F10 UNL     1     -21.293  18.668   9.106  1.00 20.00    -0.163 F 
HETATM   11  F11 UNL     1     -21.744  17.766   7.173  1.00 20.00    -0.163 F 
ENDBRANCH   1   8
TORSDOF 3
ENDMDL
