MODEL 1
REMARK VINA RESULT:      -4.2      0.000      0.000
REMARK  2 active torsions:
REMARK  status: ('A' for Active; 'I' for Inactive)
REMARK    1  A    between atoms: C1_1  and  C9_9 
REMARK    2  A    between atoms: C9_9  and  N10_10 
ROOT
HETATM    1  C2  UNL     1     -33.992  17.934  -2.430  1.00 20.00     0.003 C 
HETATM    2  C3  UNL     1     -35.319  17.198  -2.270  1.00 20.00     0.030 C 
HETATM    3  C4  UNL     1     -33.207  17.387  -3.617  1.00 20.00     0.030 C 
HETATM    4  C5  UNL     1     -35.113  15.682  -2.241  1.00 20.00     0.273 C 
HETATM    5  C6  UNL     1     -33.075  15.864  -3.542  1.00 20.00     0.273 C 
HETATM    6  N10 UNL     1     -34.352  15.157  -3.382  1.00 20.00     0.099 N 
ENDROOT
BRANCH   6   7
HETATM    7  C9  UNL     1     -35.137  15.146  -4.613  1.00 20.00     0.287 C 
HETATM    8  C8  UNL     1     -34.266  14.923  -5.837  1.00 20.00     0.051 C 
BRANCH   7   9
HETATM    9  C1  UNL     1     -36.171  14.039  -4.482  1.00 20.00     0.155 C 
HETATM   10  C7  UNL     1     -37.611  14.471  -4.381  1.00 20.00     0.093 C 
HETATM   11  O11 UNL     1     -35.868  12.846  -4.500  1.00 20.00    -0.296 OA
ENDBRANCH   7   9
ENDBRANCH   6   7
TORSDOF 2
ENDMDL
MODEL 2
REMARK VINA RESULT:      -4.1      1.381      1.732
REMARK  2 active torsions:
REMARK  status: ('A' for Active; 'I' for Inactive)
REMARK    1  A    between atoms: C1_1  and  C9_9 
REMARK    2  A    between atoms: C9_9  and  N10_10 
ROOT
HETATM    1  C2  UNL     1     -33.080  16.290  -3.049  1.00 20.00     0.003 C 
HETATM    2  C3  UNL     1     -34.486  16.771  -2.701  1.00 20.00     0.030 C 
HETATM    3  C4  UNL     1     -33.114  15.316  -4.222  1.00 20.00     0.030 C 
HETATM    4  C5  UNL     1     -35.444  15.593  -2.511  1.00 20.00     0.273 C 
HETATM    5  C6  UNL     1     -34.121  14.188  -3.979  1.00 20.00     0.273 C 
HETATM    6  N10 UNL     1     -35.472  14.652  -3.637  1.00 20.00     0.099 N 
ENDROOT
BRANCH   6   7
HETATM    7  C9  UNL     1     -36.179  15.194  -4.794  1.00 20.00     0.287 C 
HETATM    8  C8  UNL     1     -35.776  14.497  -6.081  1.00 20.00     0.051 C 
BRANCH   7   9
HETATM    9  C1  UNL     1     -37.668  15.023  -4.536  1.00 20.00     0.155 C 
HETATM   10  C7  UNL     1     -38.506  16.274  -4.574  1.00 20.00     0.093 C 
HETATM   11  O11 UNL     1     -38.183  13.921  -4.347  1.00 20.00    -0.296 OA
ENDBRANCH   7   9
ENDBRANCH   6   7
TORSDOF 2
ENDMDL
MODEL 3
REMARK VINA RESULT:      -4.1      1.560      2.575
REMARK  2 active torsions:
REMARK  status: ('A' for Active; 'I' for Inactive)
REMARK    1  A    between atoms: C1_1  and  C9_9 
REMARK    2  A    between atoms: C9_9  and  N10_10 
ROOT
HETATM    1  C2  UNL     1     -33.801  16.985  -1.977  1.00 20.00     0.003 C 
HETATM    2  C3  UNL     1     -33.134  16.882  -3.345  1.00 20.00     0.030 C 
HETATM    3  C4  UNL     1     -35.042  16.102  -1.910  1.00 20.00     0.030 C 
HETATM    4  C5  UNL     1     -34.139  17.126  -4.472  1.00 20.00     0.273 C 
HETATM    5  C6  UNL     1     -35.981  16.372  -3.087  1.00 20.00     0.273 C 
HETATM    6  N10 UNL     1     -35.337  16.279  -4.404  1.00 20.00     0.099 N 
ENDROOT
BRANCH   6   7
HETATM    7  C9  UNL     1     -35.061  14.898  -4.788  1.00 20.00     0.287 C 
HETATM    8  C8  UNL     1     -36.240  13.985  -4.501  1.00 20.00     0.051 C 
BRANCH   7   9
HETATM    9  C1  UNL     1     -34.732  14.897  -6.273  1.00 20.00     0.155 C 
HETATM   10  C7  UNL     1     -35.853  15.260  -7.212  1.00 20.00     0.093 C 
HETATM   11  O11 UNL     1     -33.602  14.658  -6.698  1.00 20.00    -0.296 OA
ENDBRANCH   7   9
ENDBRANCH   6   7
TORSDOF 2
ENDMDL
MODEL 4
REMARK VINA RESULT:      -4.0     11.556     12.522
REMARK  2 active torsions:
REMARK  status: ('A' for Active; 'I' for Inactive)
REMARK    1  A    between atoms: C1_1  and  C9_9 
REMARK    2  A    between atoms: C9_9  and  N10_10 
ROOT
HETATM    1  C2  UNL     1     -34.664   5.601   6.479  1.00 20.00     0.003 C 
HETATM    2  C3  UNL     1     -33.780   6.769   6.052  1.00 20.00     0.030 C 
HETATM    3  C4  UNL     1     -34.755   4.556   5.372  1.00 20.00     0.030 C 
HETATM    4  C5  UNL     1     -34.215   7.328   4.695  1.00 20.00     0.273 C 
HETATM    5  C6  UNL     1     -35.156   5.191   4.039  1.00 20.00     0.273 C 
HETATM    6  N10 UNL     1     -34.309   6.320   3.632  1.00 20.00     0.099 N 
ENDROOT
BRANCH   6   7
HETATM    7  C9  UNL     1     -32.995   5.885   3.164  1.00 20.00     0.287 C 
HETATM    8  C8  UNL     1     -33.102   4.883   2.028  1.00 20.00     0.051 C 
BRANCH   7   9
HETATM    9  C1  UNL     1     -32.240   7.126   2.715  1.00 20.00     0.155 C 
HETATM   10  C7  UNL     1     -32.647   7.721   1.393  1.00 20.00     0.093 C 
HETATM   11  O11 UNL     1     -31.369   7.654   3.406  1.00 20.00    -0.296 OA
ENDBRANCH   7   9
ENDBRANCH   6   7
TORSDOF 2
ENDMDL
MODEL 5
REMARK VINA RESULT:      -3.9     16.979     18.221
REMARK  2 active torsions:
REMARK  status: ('A' for Active; 'I' for Inactive)
REMARK    1  A    between atoms: C1_1  and  C9_9 
REMARK    2  A    between atoms: C9_9  and  N10_10 
ROOT
HETATM    1  C2  UNL     1     -22.682  17.807   7.975  1.00 20.00     0.003 C 
HETATM    2  C3  UNL     1     -24.078  18.388   8.179  1.00 20.00     0.030 C 
HETATM    3  C4  UNL     1     -22.253  16.984   9.185  1.00 20.00     0.030 C 
HETATM    4  C5  UNL     1     -24.180  19.132   9.513  1.00 20.00     0.273 C 
HETATM    5  C6  UNL     1     -22.419  17.776  10.484  1.00 20.00     0.273 C 
HETATM    6  N10 UNL     1     -23.761  18.340  10.677  1.00 20.00     0.099 N 
ENDROOT
BRANCH   6   7
HETATM    7  C9  UNL     1     -24.743  17.321  11.035  1.00 20.00     0.287 C 
HETATM    8  C8  UNL     1     -24.102  16.145  11.750  1.00 20.00     0.051 C 
BRANCH   7   9
HETATM    9  C1  UNL     1     -25.783  17.985  11.923  1.00 20.00     0.155 C 
HETATM   10  C7  UNL     1     -26.960  17.139  12.332  1.00 20.00     0.093 C 
HETATM   11  O11 UNL     1     -25.662  19.140  12.331  1.00 20.00    -0.296 OA
ENDBRANCH   7   9
ENDBRANCH   6   7
TORSDOF 2
ENDMDL
MODEL 6
REMARK VINA RESULT:      -3.8      1.373      2.488
REMARK  2 active torsions:
REMARK  status: ('A' for Active; 'I' for Inactive)
REMARK    1  A    between atoms: C1_1  and  C9_9 
REMARK    2  A    between atoms: C9_9  and  N10_10 
ROOT
HETATM    1  C2  UNL     1     -35.355  17.375  -1.559  1.00 20.00     0.003 C 
HETATM    2  C3  UNL     1     -34.638  16.111  -2.027  1.00 20.00     0.030 C 
HETATM    3  C4  UNL     1     -36.724  17.498  -2.219  1.00 20.00     0.030 C 
HETATM    4  C5  UNL     1     -34.609  16.024  -3.554  1.00 20.00     0.273 C 
HETATM    5  C6  UNL     1     -36.623  17.362  -3.740  1.00 20.00     0.273 C 
HETATM    6  N10 UNL     1     -35.927  16.149  -4.189  1.00 20.00     0.099 N 
ENDROOT
BRANCH   6   7
HETATM    7  C9  UNL     1     -36.741  14.949  -4.018  1.00 20.00     0.287 C 
HETATM    8  C8  UNL     1     -38.204  15.207  -4.333  1.00 20.00     0.051 C 
BRANCH   7   9
HETATM    9  C1  UNL     1     -36.175  13.881  -4.940  1.00 20.00     0.155 C 
HETATM   10  C7  UNL     1     -35.854  14.308  -6.348  1.00 20.00     0.093 C 
HETATM   11  O11 UNL     1     -35.943  12.734  -4.558  1.00 20.00    -0.296 OA
ENDBRANCH   7   9
ENDBRANCH   6   7
TORSDOF 2
ENDMDL
MODEL 7
REMARK VINA RESULT:      -3.8      1.789      2.123
REMARK  2 active torsions:
REMARK  status: ('A' for Active; 'I' for Inactive)
REMARK    1  A    between atoms: C1_1  and  C9_9 
REMARK    2  A    between atoms: C9_9  and  N10_10 
ROOT
HETATM    1  C2  UNL     1     -34.418  16.050  -2.366  1.00 20.00     0.003 C 
HETATM    2  C3  UNL     1     -35.741  16.045  -3.126  1.00 20.00     0.030 C 
HETATM    3  C4  UNL     1     -33.247  15.816  -3.314  1.00 20.00     0.030 C 
HETATM    4  C5  UNL     1     -35.878  14.793  -3.995  1.00 20.00     0.273 C 
HETATM    5  C6  UNL     1     -33.469  14.572  -4.177  1.00 20.00     0.273 C 
HETATM    6  N10 UNL     1     -34.746  14.564  -4.902  1.00 20.00     0.099 N 
ENDROOT
BRANCH   6   7
HETATM    7  C9  UNL     1     -34.746  15.491  -6.031  1.00 20.00     0.287 C 
HETATM    8  C8  UNL     1     -33.573  15.248  -6.963  1.00 20.00     0.051 C 
BRANCH   7   9
HETATM    9  C1  UNL     1     -36.064  15.309  -6.768  1.00 20.00     0.155 C 
HETATM   10  C7  UNL     1     -37.033  16.460  -6.710  1.00 20.00     0.093 C 
HETATM   11  O11 UNL     1     -36.321  14.297  -7.419  1.00 20.00    -0.296 OA
ENDBRANCH   7   9
ENDBRANCH   6   7
TORSDOF 2
ENDMDL
MODEL 8
REMARK VINA RESULT:      -3.7      1.653      2.745
REMARK  2 active torsions:
REMARK  status: ('A' for Active; 'I' for Inactive)
REMARK    1  A    between atoms: C1_1  and  C9_9 
REMARK    2  A    between atoms: C9_9  and  N10_10 
ROOT
HETATM    1  C2  UNL     1     -33.024  15.406  -3.761  1.00 20.00     0.003 C 
HETATM    2  C3  UNL     1     -34.045  14.376  -4.235  1.00 20.00     0.030 C 
HETATM    3  C4  UNL     1     -33.718  16.672  -3.268  1.00 20.00     0.030 C 
HETATM    4  C5  UNL     1     -35.025  14.987  -5.239  1.00 20.00     0.273 C 
HETATM    5  C6  UNL     1     -34.710  17.203  -4.306  1.00 20.00     0.273 C 
HETATM    6  N10 UNL     1     -35.688  16.209  -4.766  1.00 20.00     0.099 N 
ENDROOT
BRANCH   6   7
HETATM    7  C9  UNL     1     -36.709  15.930  -3.760  1.00 20.00     0.287 C 
HETATM    8  C8  UNL     1     -37.210  17.200  -3.096  1.00 20.00     0.051 C 
BRANCH   7   9
HETATM    9  C1  UNL     1     -37.848  15.204  -4.458  1.00 20.00     0.155 C 
HETATM   10  C7  UNL     1     -38.691  16.023  -5.401  1.00 20.00     0.093 C 
HETATM   11  O11 UNL     1     -38.056  14.001  -4.305  1.00 20.00    -0.296 OA
ENDBRANCH   7   9
ENDBRANCH   6   7
TORSDOF 2
ENDMDL
MODEL 9
REMARK VINA RESULT:      -3.7      1.618      2.204
REMARK  2 active torsions:
REMARK  status: ('A' for Active; 'I' for Inactive)
REMARK    1  A    between atoms: C1_1  and  C9_9 
REMARK    2  A    between atoms: C9_9  and  N10_10 
ROOT
HETATM    1  C2  UNL     1     -34.743  18.064  -2.423  1.00 20.00     0.003 C 
HETATM    2  C3  UNL     1     -35.246  18.138  -3.862  1.00 20.00     0.030 C 
HETATM    3  C4  UNL     1     -34.012  16.750  -2.170  1.00 20.00     0.030 C 
HETATM    4  C5  UNL     1     -36.051  16.891  -4.233  1.00 20.00     0.273 C 
HETATM    5  C6  UNL     1     -34.860  15.550  -2.600  1.00 20.00     0.273 C 
HETATM    6  N10 UNL     1     -35.350  15.625  -3.982  1.00 20.00     0.099 N 
ENDROOT
BRANCH   6   7
HETATM    7  C9  UNL     1     -34.291  15.376  -4.958  1.00 20.00     0.287 C 
HETATM    8  C8  UNL     1     -33.263  14.388  -4.438  1.00 20.00     0.051 C 
BRANCH   7   9
HETATM    9  C1  UNL     1     -34.954  14.847  -6.221  1.00 20.00     0.155 C 
HETATM   10  C7  UNL     1     -34.443  15.393  -7.528  1.00 20.00     0.093 C 
HETATM   11  O11 UNL     1     -35.832  13.986  -6.194  1.00 20.00    -0.296 OA
ENDBRANCH   7   9
ENDBRANCH   6   7
TORSDOF 2
ENDMDL
