MODEL 1
REMARK VINA RESULT:      -3.6      0.000      0.000
REMARK  2 active torsions:
REMARK  status: ('A' for Active; 'I' for Inactive)
REMARK    1  A    between atoms: C1_1  and  C7_7 
REMARK    2  A    between atoms: C7_7  and  N8_8 
ROOT
HETATM    1  C1  UNL     1     -24.656  18.329   9.328  1.00 20.00    -0.053 C 
HETATM    2  C2  UNL     1     -25.079  18.691   8.264  1.00 20.00    -0.021 C 
HETATM    3 BR9  UNL     1     -25.751  19.263   6.582  1.00 20.00     0.010 Br
ENDROOT
BRANCH   1   4
HETATM    4  C7  UNL     1     -24.134  17.882  10.636  1.00 20.00     0.214 C 
HETATM    5  C3  UNL     1     -24.354  16.374  10.797  1.00 20.00     0.063 C 
HETATM    6  C4  UNL     1     -24.844  18.640  11.764  1.00 20.00     0.063 C 
BRANCH   4   7
HETATM    7  N8  UNL     1     -22.697  18.155  10.727  1.00 20.00     0.100 N 
HETATM    8  C5  UNL     1     -21.979  17.463   9.659  1.00 20.00     0.311 C 
HETATM    9  C6  UNL     1     -22.185  17.753  12.035  1.00 20.00     0.311 C 
ENDBRANCH   4   7
ENDBRANCH   1   4
TORSDOF 2
ENDMDL
MODEL 2
REMARK VINA RESULT:      -3.6     16.758     18.295
REMARK  2 active torsions:
REMARK  status: ('A' for Active; 'I' for Inactive)
REMARK    1  A    between atoms: C1_1  and  C7_7 
REMARK    2  A    between atoms: C7_7  and  N8_8 
ROOT
HETATM    1  C1  UNL     1     -34.825  15.613  -2.961  1.00 20.00    -0.053 C 
HETATM    2  C2  UNL     1     -35.011  16.224  -1.944  1.00 20.00    -0.021 C 
HETATM    3 BR9  UNL     1     -35.307  17.190  -0.335  1.00 20.00     0.010 Br
ENDROOT
BRANCH   1   4
HETATM    4  C7  UNL     1     -34.595  14.864  -4.212  1.00 20.00     0.214 C 
HETATM    5  C3  UNL     1     -35.449  13.592  -4.222  1.00 20.00     0.063 C 
HETATM    6  C4  UNL     1     -33.110  14.499  -4.334  1.00 20.00     0.063 C 
BRANCH   4   7
HETATM    7  N8  UNL     1     -34.966  15.683  -5.369  1.00 20.00     0.100 N 
HETATM    8  C5  UNL     1     -36.415  15.668  -5.558  1.00 20.00     0.311 C 
HETATM    9  C6  UNL     1     -34.287  15.205  -6.571  1.00 20.00     0.311 C 
ENDBRANCH   4   7
ENDBRANCH   1   4
TORSDOF 2
ENDMDL
MODEL 3
REMARK VINA RESULT:      -3.5     15.628     17.547
REMARK  2 active torsions:
REMARK  status: ('A' for Active; 'I' for Inactive)
REMARK    1  A    between atoms: C1_1  and  C7_7 
REMARK    2  A    between atoms: C7_7  and  N8_8 
ROOT
HETATM    1  C1  UNL     1     -33.319  16.510  -3.045  1.00 20.00    -0.053 C 
HETATM    2  C2  UNL     1     -32.808  17.271  -2.270  1.00 20.00    -0.021 C 
HETATM    3 BR9  UNL     1     -31.999  18.474  -1.042  1.00 20.00     0.010 Br
ENDROOT
BRANCH   1   4
HETATM    4  C7  UNL     1     -33.950  15.576  -3.999  1.00 20.00     0.214 C 
HETATM    5  C3  UNL     1     -35.207  14.963  -3.374  1.00 20.00     0.063 C 
HETATM    6  C4  UNL     1     -32.957  14.468  -4.374  1.00 20.00     0.063 C 
BRANCH   4   7
HETATM    7  N8  UNL     1     -34.337  16.284  -5.222  1.00 20.00     0.100 N 
HETATM    8  C5  UNL     1     -35.657  16.890  -5.062  1.00 20.00     0.311 C 
HETATM    9  C6  UNL     1     -34.325  15.373  -6.364  1.00 20.00     0.311 C 
ENDBRANCH   4   7
ENDBRANCH   1   4
TORSDOF 2
ENDMDL
MODEL 4
REMARK VINA RESULT:      -3.4     15.534     17.406
REMARK  2 active torsions:
REMARK  status: ('A' for Active; 'I' for Inactive)
REMARK    1  A    between atoms: C1_1  and  C7_7 
REMARK    2  A    between atoms: C7_7  and  N8_8 
ROOT
HETATM    1  C1  UNL     1     -33.375  16.522  -3.072  1.00 20.00    -0.053 C 
HETATM    2  C2  UNL     1     -32.838  17.247  -2.279  1.00 20.00    -0.021 C 
HETATM    3 BR9  UNL     1     -31.990  18.394  -1.024  1.00 20.00     0.010 Br
ENDROOT
BRANCH   1   4
HETATM    4  C7  UNL     1     -34.036  15.632  -4.048  1.00 20.00     0.214 C 
HETATM    5  C3  UNL     1     -33.101  14.474  -4.413  1.00 20.00     0.063 C 
HETATM    6  C4  UNL     1     -34.405  16.425  -5.307  1.00 20.00     0.063 C 
BRANCH   4   7
HETATM    7  N8  UNL     1     -35.264  15.075  -3.474  1.00 20.00     0.100 N 
HETATM    8  C5  UNL     1     -35.721  13.934  -4.264  1.00 20.00     0.311 C 
HETATM    9  C6  UNL     1     -36.303  16.100  -3.403  1.00 20.00     0.311 C 
ENDBRANCH   4   7
ENDBRANCH   1   4
TORSDOF 2
ENDMDL
MODEL 5
REMARK VINA RESULT:      -3.2     16.355     18.096
REMARK  2 active torsions:
REMARK  status: ('A' for Active; 'I' for Inactive)
REMARK    1  A    between atoms: C1_1  and  C7_7 
REMARK    2  A    between atoms: C7_7  and  N8_8 
ROOT
HETATM    1  C1  UNL     1     -35.227  16.189  -2.297  1.00 20.00    -0.053 C 
HETATM    2  C2  UNL     1     -35.205  16.693  -1.207  1.00 20.00    -0.021 C 
HETATM    3 BR9  UNL     1     -35.169  17.492   0.516  1.00 20.00     0.010 Br
ENDROOT
BRANCH   1   4
HETATM    4  C7  UNL     1     -35.253  15.568  -3.637  1.00 20.00     0.214 C 
HETATM    5  C3  UNL     1     -34.046  14.640  -3.804  1.00 20.00     0.063 C 
HETATM    6  C4  UNL     1     -35.230  16.659  -4.715  1.00 20.00     0.063 C 
BRANCH   4   7
HETATM    7  N8  UNL     1     -36.475  14.777  -3.805  1.00 20.00     0.100 N 
HETATM    8  C5  UNL     1     -36.251  13.691  -4.756  1.00 20.00     0.311 C 
HETATM    9  C6  UNL     1     -37.577  15.628  -4.248  1.00 20.00     0.311 C 
ENDBRANCH   4   7
ENDBRANCH   1   4
TORSDOF 2
ENDMDL
MODEL 6
REMARK VINA RESULT:      -3.2     16.827     18.243
REMARK  2 active torsions:
REMARK  status: ('A' for Active; 'I' for Inactive)
REMARK    1  A    between atoms: C1_1  and  C7_7 
REMARK    2  A    between atoms: C7_7  and  N8_8 
ROOT
HETATM    1  C1  UNL     1     -35.329  15.874  -3.084  1.00 20.00    -0.053 C 
HETATM    2  C2  UNL     1     -35.304  16.382  -1.997  1.00 20.00    -0.021 C 
HETATM    3 BR9  UNL     1     -35.266  17.187  -0.276  1.00 20.00     0.010 Br
ENDROOT
BRANCH   1   4
HETATM    4  C7  UNL     1     -35.360  15.250  -4.422  1.00 20.00     0.214 C 
HETATM    5  C3  UNL     1     -36.412  15.941  -5.295  1.00 20.00     0.063 C 
HETATM    6  C4  UNL     1     -35.685  13.757  -4.292  1.00 20.00     0.063 C 
BRANCH   4   7
HETATM    7  N8  UNL     1     -34.054  15.384  -5.073  1.00 20.00     0.100 N 
HETATM    8  C5  UNL     1     -34.157  15.051  -6.493  1.00 20.00     0.311 C 
HETATM    9  C6  UNL     1     -33.067  14.530  -4.417  1.00 20.00     0.311 C 
ENDBRANCH   4   7
ENDBRANCH   1   4
TORSDOF 2
ENDMDL
MODEL 7
REMARK VINA RESULT:      -3.1     14.454     16.286
REMARK  2 active torsions:
REMARK  status: ('A' for Active; 'I' for Inactive)
REMARK    1  A    between atoms: C1_1  and  C7_7 
REMARK    2  A    between atoms: C7_7  and  N8_8 
ROOT
HETATM    1  C1  UNL     1     -33.054  17.404  -1.951  1.00 20.00    -0.053 C 
HETATM    2  C2  UNL     1     -32.331  17.977  -1.182  1.00 20.00    -0.021 C 
HETATM    3 BR9  UNL     1     -31.188  18.881   0.036  1.00 20.00     0.010 Br
ENDROOT
BRANCH   1   4
HETATM    4  C7  UNL     1     -33.944  16.700  -2.896  1.00 20.00     0.214 C 
HETATM    5  C3  UNL     1     -35.053  15.975  -2.126  1.00 20.00     0.063 C 
HETATM    6  C4  UNL     1     -33.134  15.694  -3.722  1.00 20.00     0.063 C 
BRANCH   4   7
HETATM    7  N8  UNL     1     -34.566  17.658  -3.814  1.00 20.00     0.100 N 
HETATM    8  C5  UNL     1     -33.542  18.429  -4.516  1.00 20.00     0.311 C 
HETATM    9  C6  UNL     1     -35.469  18.548  -3.087  1.00 20.00     0.311 C 
ENDBRANCH   4   7
ENDBRANCH   1   4
TORSDOF 2
ENDMDL
MODEL 8
REMARK VINA RESULT:      -3.1     15.036     16.940
REMARK  2 active torsions:
REMARK  status: ('A' for Active; 'I' for Inactive)
REMARK    1  A    between atoms: C1_1  and  C7_7 
REMARK    2  A    between atoms: C7_7  and  N8_8 
ROOT
HETATM    1  C1  UNL     1     -33.438  17.225  -2.451  1.00 20.00    -0.053 C 
HETATM    2  C2  UNL     1     -32.630  17.705  -1.703  1.00 20.00    -0.021 C 
HETATM    3 BR9  UNL     1     -31.352  18.466  -0.522  1.00 20.00     0.010 Br
ENDROOT
BRANCH   1   4
HETATM    4  C7  UNL     1     -34.430  16.633  -3.371  1.00 20.00     0.214 C 
HETATM    5  C3  UNL     1     -35.442  17.699  -3.802  1.00 20.00     0.063 C 
HETATM    6  C4  UNL     1     -35.154  15.473  -2.677  1.00 20.00     0.063 C 
BRANCH   4   7
HETATM    7  N8  UNL     1     -33.763  16.113  -4.568  1.00 20.00     0.100 N 
HETATM    8  C5  UNL     1     -34.678  16.129  -5.707  1.00 20.00     0.311 C 
HETATM    9  C6  UNL     1     -33.268  14.759  -4.328  1.00 20.00     0.311 C 
ENDBRANCH   4   7
ENDBRANCH   1   4
TORSDOF 2
ENDMDL
MODEL 9
REMARK VINA RESULT:      -3.0     23.813     24.902
REMARK  2 active torsions:
REMARK  status: ('A' for Active; 'I' for Inactive)
REMARK    1  A    between atoms: C1_1  and  C7_7 
REMARK    2  A    between atoms: C7_7  and  N8_8 
ROOT
HETATM    1  C1  UNL     1     -42.543   5.213  -1.393  1.00 20.00    -0.053 C 
HETATM    2  C2  UNL     1     -42.757   4.221  -2.036  1.00 20.00    -0.021 C 
HETATM    3 BR9  UNL     1     -43.094   2.651  -3.050  1.00 20.00     0.010 Br
ENDROOT
BRANCH   1   4
HETATM    4  C7  UNL     1     -42.278   6.434  -0.605  1.00 20.00     0.214 C 
HETATM    5  C3  UNL     1     -42.065   7.625  -1.545  1.00 20.00     0.063 C 
HETATM    6  C4  UNL     1     -41.036   6.228   0.271  1.00 20.00     0.063 C 
BRANCH   4   7
HETATM    7  N8  UNL     1     -43.417   6.728   0.269  1.00 20.00     0.100 N 
HETATM    8  C5  UNL     1     -43.417   8.140   0.645  1.00 20.00     0.311 C 
HETATM    9  C6  UNL     1     -43.379   5.881   1.459  1.00 20.00     0.311 C 
ENDBRANCH   4   7
ENDBRANCH   1   4
TORSDOF 2
ENDMDL
