MODEL 1
REMARK VINA RESULT:      -4.9      0.000      0.000
REMARK  2 active torsions:
REMARK  status: ('A' for Active; 'I' for Inactive)
REMARK    1  A    between atoms: C2_2  and  C4_4 
REMARK       I    between atoms: C2_2  and  N6_6 
REMARK    2  A    between atoms: C4_4  and  C5_5 
ROOT
HETATM    1  C1  UNL     1     -32.556   7.780   1.651  1.00 20.00     0.166 C 
HETATM    2  C2  UNL     1     -33.102   6.063   2.900  1.00 20.00     0.244 C 
HETATM    3  N6  UNL     1     -32.219   7.049   2.506  1.00 20.00    -0.199 NA
HETATM    4  O7  UNL     1     -33.162   4.916   2.457  1.00 20.00    -0.271 OA
HETATM    5  S8  UNL     1     -32.979   8.790   0.493  1.00 20.00    -0.055 SA
ENDROOT
BRANCH   2   6
HETATM    6  C4  UNL     1     -34.011   6.534   4.026  1.00 20.00     0.105 C 
BRANCH   6   7
HETATM    7  C5  UNL     1     -34.949   5.450   4.552  1.00 20.00     0.005 C 
HETATM    8  C3  UNL     1     -34.772   5.200   6.043  1.00 20.00     0.005 C 
ENDBRANCH   6   7
ENDBRANCH   2   6
TORSDOF 2
ENDMDL
MODEL 2
REMARK VINA RESULT:      -4.2     11.394     11.963
REMARK  2 active torsions:
REMARK  status: ('A' for Active; 'I' for Inactive)
REMARK    1  A    between atoms: C2_2  and  C4_4 
REMARK       I    between atoms: C2_2  and  N6_6 
REMARK    2  A    between atoms: C4_4  and  C5_5 
ROOT
HETATM    1  C1  UNL     1     -35.902  15.068  -6.657  1.00 20.00     0.166 C 
HETATM    2  C2  UNL     1     -36.271  13.867  -4.861  1.00 20.00     0.244 C 
HETATM    3  N6  UNL     1     -35.907  13.992  -6.187  1.00 20.00    -0.199 NA
HETATM    4  O7  UNL     1     -37.404  13.653  -4.430  1.00 20.00    -0.271 OA
HETATM    5  S8  UNL     1     -35.882  16.512  -7.330  1.00 20.00    -0.055 SA
ENDROOT
BRANCH   2   6
HETATM    6  C4  UNL     1     -35.070  13.976  -3.932  1.00 20.00     0.105 C 
BRANCH   6   7
HETATM    7  C5  UNL     1     -35.072  15.239  -3.073  1.00 20.00     0.005 C 
HETATM    8  C3  UNL     1     -33.708  15.913  -3.025  1.00 20.00     0.005 C 
ENDBRANCH   6   7
ENDBRANCH   2   6
TORSDOF 2
ENDMDL
MODEL 3
REMARK VINA RESULT:      -4.0     11.239     11.455
REMARK  2 active torsions:
REMARK  status: ('A' for Active; 'I' for Inactive)
REMARK    1  A    between atoms: C2_2  and  C4_4 
REMARK       I    between atoms: C2_2  and  N6_6 
REMARK    2  A    between atoms: C4_4  and  C5_5 
ROOT
HETATM    1  C1  UNL     1     -34.206  14.834  -6.104  1.00 20.00     0.166 C 
HETATM    2  C2  UNL     1     -35.269  13.933  -4.411  1.00 20.00     0.244 C 
HETATM    3  N6  UNL     1     -34.107  14.280  -5.073  1.00 20.00    -0.199 NA
HETATM    4  O7  UNL     1     -35.871  12.864  -4.503  1.00 20.00    -0.271 OA
HETATM    5  S8  UNL     1     -34.299  15.587  -7.505  1.00 20.00    -0.055 SA
ENDROOT
BRANCH   2   6
HETATM    6  C4  UNL     1     -35.735  15.036  -3.471  1.00 20.00     0.105 C 
BRANCH   6   7
HETATM    7  C5  UNL     1     -34.613  15.644  -2.633  1.00 20.00     0.005 C 
HETATM    8  C3  UNL     1     -35.137  16.533  -1.515  1.00 20.00     0.005 C 
ENDBRANCH   6   7
ENDBRANCH   2   6
TORSDOF 2
ENDMDL
MODEL 4
REMARK VINA RESULT:      -3.9      2.080      2.502
REMARK  2 active torsions:
REMARK  status: ('A' for Active; 'I' for Inactive)
REMARK    1  A    between atoms: C2_2  and  C4_4 
REMARK       I    between atoms: C2_2  and  N6_6 
REMARK    2  A    between atoms: C4_4  and  C5_5 
ROOT
HETATM    1  C1  UNL     1     -33.270   5.847   2.769  1.00 20.00     0.166 C 
HETATM    2  C2  UNL     1     -34.908   5.086   4.012  1.00 20.00     0.244 C 
HETATM    3  N6  UNL     1     -33.938   4.921   3.043  1.00 20.00    -0.199 NA
HETATM    4  O7  UNL     1     -36.082   5.405   3.826  1.00 20.00    -0.271 OA
HETATM    5  S8  UNL     1     -32.343   7.081   2.372  1.00 20.00    -0.055 SA
ENDROOT
BRANCH   2   6
HETATM    6  C4  UNL     1     -34.375   4.776   5.404  1.00 20.00     0.105 C 
BRANCH   6   7
HETATM    7  C5  UNL     1     -34.527   5.931   6.391  1.00 20.00     0.005 C 
HETATM    8  C3  UNL     1     -33.685   7.139   6.009  1.00 20.00     0.005 C 
ENDBRANCH   6   7
ENDBRANCH   2   6
TORSDOF 2
ENDMDL
MODEL 5
REMARK VINA RESULT:      -3.9     11.166     11.647
REMARK  2 active torsions:
REMARK  status: ('A' for Active; 'I' for Inactive)
REMARK    1  A    between atoms: C2_2  and  C4_4 
REMARK       I    between atoms: C2_2  and  N6_6 
REMARK    2  A    between atoms: C4_4  and  C5_5 
ROOT
HETATM    1  C1  UNL     1     -34.602  14.879  -6.263  1.00 20.00     0.166 C 
HETATM    2  C2  UNL     1     -34.410  14.074  -4.233  1.00 20.00     0.244 C 
HETATM    3  N6  UNL     1     -33.866  14.535  -5.416  1.00 20.00    -0.199 NA
HETATM    4  O7  UNL     1     -34.678  12.905  -3.958  1.00 20.00    -0.271 OA
HETATM    5  S8  UNL     1     -35.570  15.356  -7.436  1.00 20.00    -0.055 SA
ENDROOT
BRANCH   2   6
HETATM    6  C4  UNL     1     -34.615  15.199  -3.228  1.00 20.00     0.105 C 
BRANCH   6   7
HETATM    7  C5  UNL     1     -33.393  16.097  -3.054  1.00 20.00     0.005 C 
HETATM    8  C3  UNL     1     -33.586  17.139  -1.962  1.00 20.00     0.005 C 
ENDBRANCH   6   7
ENDBRANCH   2   6
TORSDOF 2
ENDMDL
MODEL 6
REMARK VINA RESULT:      -3.9     11.177     11.690
REMARK  2 active torsions:
REMARK  status: ('A' for Active; 'I' for Inactive)
REMARK    1  A    between atoms: C2_2  and  C4_4 
REMARK       I    between atoms: C2_2  and  N6_6 
REMARK    2  A    between atoms: C4_4  and  C5_5 
ROOT
HETATM    1  C1  UNL     1     -37.864  14.820  -4.699  1.00 20.00     0.166 C 
HETATM    2  C2  UNL     1     -35.950  13.792  -4.403  1.00 20.00     0.244 C 
HETATM    3  N6  UNL     1     -36.803  14.586  -5.145  1.00 20.00    -0.199 NA
HETATM    4  O7  UNL     1     -35.839  12.569  -4.478  1.00 20.00    -0.271 OA
HETATM    5  S8  UNL     1     -39.311  15.160  -4.125  1.00 20.00    -0.055 SA
ENDROOT
BRANCH   2   6
HETATM    6  C4  UNL     1     -35.079  14.618  -3.467  1.00 20.00     0.105 C 
BRANCH   6   7
HETATM    7  C5  UNL     1     -33.752  15.051  -4.086  1.00 20.00     0.005 C 
HETATM    8  C3  UNL     1     -33.090  16.182  -3.311  1.00 20.00     0.005 C 
ENDBRANCH   6   7
ENDBRANCH   2   6
TORSDOF 2
ENDMDL
MODEL 7
REMARK VINA RESULT:      -3.8      2.706      4.182
REMARK  2 active torsions:
REMARK  status: ('A' for Active; 'I' for Inactive)
REMARK    1  A    between atoms: C2_2  and  C4_4 
REMARK       I    between atoms: C2_2  and  N6_6 
REMARK    2  A    between atoms: C4_4  and  C5_5 
ROOT
HETATM    1  C1  UNL     1     -34.597   5.588   4.506  1.00 20.00     0.166 C 
HETATM    2  C2  UNL     1     -33.306   5.676   2.736  1.00 20.00     0.244 C 
HETATM    3  N6  UNL     1     -34.544   5.747   3.344  1.00 20.00    -0.199 NA
HETATM    4  O7  UNL     1     -32.789   4.673   2.245  1.00 20.00    -0.271 OA
HETATM    5  S8  UNL     1     -34.708   5.378   6.082  1.00 20.00    -0.055 SA
ENDROOT
BRANCH   2   6
HETATM    6  C4  UNL     1     -32.622   7.035   2.685  1.00 20.00     0.105 C 
BRANCH   6   7
HETATM    7  C5  UNL     1     -32.297   7.505   1.269  1.00 20.00     0.005 C 
HETATM    8  C3  UNL     1     -32.959   8.833   0.929  1.00 20.00     0.005 C 
ENDBRANCH   6   7
ENDBRANCH   2   6
TORSDOF 2
ENDMDL
MODEL 8
REMARK VINA RESULT:      -3.5     16.829     17.337
REMARK  2 active torsions:
REMARK  status: ('A' for Active; 'I' for Inactive)
REMARK    1  A    between atoms: C2_2  and  C4_4 
REMARK       I    between atoms: C2_2  and  N6_6 
REMARK    2  A    between atoms: C4_4  and  C5_5 
ROOT
HETATM    1  C1  UNL     1     -25.084  17.927  11.581  1.00 20.00     0.166 C 
HETATM    2  C2  UNL     1     -22.917  17.670  11.370  1.00 20.00     0.244 C 
HETATM    3  N6  UNL     1     -24.207  17.176  11.371  1.00 20.00    -0.199 NA
HETATM    4  O7  UNL     1     -22.150  17.714  12.332  1.00 20.00    -0.271 OA
HETATM    5  S8  UNL     1     -26.302  18.917  11.861  1.00 20.00    -0.055 SA
ENDROOT
BRANCH   2   6
HETATM    6  C4  UNL     1     -22.491  18.139   9.986  1.00 20.00     0.105 C 
BRANCH   6   7
HETATM    7  C5  UNL     1     -22.558  17.047   8.921  1.00 20.00     0.005 C 
HETATM    8  C3  UNL     1     -21.614  17.311   7.756  1.00 20.00     0.005 C 
ENDBRANCH   6   7
ENDBRANCH   2   6
TORSDOF 2
ENDMDL
MODEL 9
REMARK VINA RESULT:      -3.5     11.157     12.176
REMARK  2 active torsions:
REMARK  status: ('A' for Active; 'I' for Inactive)
REMARK    1  A    between atoms: C2_2  and  C4_4 
REMARK       I    between atoms: C2_2  and  N6_6 
REMARK    2  A    between atoms: C4_4  and  C5_5 
ROOT
HETATM    1  C1  UNL     1     -35.564  15.365  -3.211  1.00 20.00     0.166 C 
HETATM    2  C2  UNL     1     -36.032  13.856  -4.731  1.00 20.00     0.244 C 
HETATM    3  N6  UNL     1     -36.411  14.784  -3.780  1.00 20.00    -0.199 NA
HETATM    4  O7  UNL     1     -35.847  12.654  -4.547  1.00 20.00    -0.271 OA
HETATM    5  S8  UNL     1     -34.444  16.175  -2.419  1.00 20.00    -0.055 SA
ENDROOT
BRANCH   2   6
HETATM    6  C4  UNL     1     -35.903  14.483  -6.113  1.00 20.00     0.105 C 
BRANCH   6   7
HETATM    7  C5  UNL     1     -34.490  14.957  -6.441  1.00 20.00     0.005 C 
HETATM    8  C3  UNL     1     -34.423  16.457  -6.696  1.00 20.00     0.005 C 
ENDBRANCH   6   7
ENDBRANCH   2   6
TORSDOF 2
ENDMDL
