MODEL 1
REMARK VINA RESULT:      -5.4      0.000      0.000
REMARK  1 active torsions:
REMARK  status: ('A' for Active; 'I' for Inactive)
REMARK    1  A    between atoms: C11_11  and  N13_13 
ROOT
HETATM    1  C1  UNL     1     -37.044  14.086  -4.524  1.00 20.00     0.089 C 
HETATM    2  C11 UNL     1     -35.623  14.089  -4.867  1.00 20.00     0.395 C 
HETATM    3  N12 UNL     1     -38.173  14.082  -4.254  1.00 20.00    -0.195 NA
ENDROOT
BRANCH   2   4
HETATM    4  N13 UNL     1     -34.837  14.751  -3.825  1.00 20.00     0.101 N 
HETATM    5  C7  UNL     1     -33.708  15.481  -4.420  1.00 20.00     0.274 C 
HETATM    6  C6  UNL     1     -32.846  16.149  -3.344  1.00 20.00     0.035 C 
HETATM    7  C9  UNL     1     -33.691  17.077  -2.468  1.00 20.00    -0.007 C 
HETATM    8  C4  UNL     1     -32.863  17.712  -1.346  1.00 20.00     0.005 C 
HETATM    9  C10 UNL     1     -34.884  16.295  -1.891  1.00 20.00     0.018 C 
HETATM   10  C2  UNL     1     -33.729  18.613  -0.466  1.00 20.00     0.000 C 
HETATM   11  C3  UNL     1     -34.949  17.875   0.081  1.00 20.00     0.000 C 
HETATM   12  C5  UNL     1     -35.762  17.213  -1.031  1.00 20.00     0.007 C 
HETATM   13  C8  UNL     1     -35.691  15.640  -3.023  1.00 20.00     0.278 C 
ENDBRANCH   2   4
TORSDOF 1
ENDMDL
MODEL 2
REMARK VINA RESULT:      -5.4      1.160      1.406
REMARK  1 active torsions:
REMARK  status: ('A' for Active; 'I' for Inactive)
REMARK    1  A    between atoms: C11_11  and  N13_13 
ROOT
HETATM    1  C1  UNL     1     -36.092  13.862  -4.310  1.00 20.00     0.089 C 
HETATM    2  C11 UNL     1     -36.292  15.228  -3.832  1.00 20.00     0.395 C 
HETATM    3  N12 UNL     1     -35.937  12.776  -4.692  1.00 20.00    -0.195 NA
ENDROOT
BRANCH   2   4
HETATM    4  N13 UNL     1     -35.151  15.671  -3.030  1.00 20.00     0.101 N 
HETATM    5  C7  UNL     1     -34.090  16.203  -3.896  1.00 20.00     0.274 C 
HETATM    6  C6  UNL     1     -32.867  16.636  -3.082  1.00 20.00     0.035 C 
HETATM    7  C9  UNL     1     -33.259  17.660  -2.013  1.00 20.00    -0.007 C 
HETATM    8  C4  UNL     1     -32.063  18.065  -1.145  1.00 20.00     0.005 C 
HETATM    9  C10 UNL     1     -34.396  17.091  -1.147  1.00 20.00     0.018 C 
HETATM   10  C2  UNL     1     -32.479  19.066  -0.069  1.00 20.00     0.000 C 
HETATM   11  C3  UNL     1     -33.641  18.546   0.776  1.00 20.00     0.000 C 
HETATM   12  C5  UNL     1     -34.825  18.113  -0.087  1.00 20.00     0.007 C 
HETATM   13  C8  UNL     1     -35.578  16.663  -2.031  1.00 20.00     0.278 C 
ENDBRANCH   2   4
TORSDOF 1
ENDMDL
MODEL 3
REMARK VINA RESULT:      -5.1      2.517      5.533
REMARK  1 active torsions:
REMARK  status: ('A' for Active; 'I' for Inactive)
REMARK    1  A    between atoms: C11_11  and  N13_13 
ROOT
HETATM    1  C1  UNL     1     -31.435  18.782  -0.267  1.00 20.00     0.089 C 
HETATM    2  C11 UNL     1     -32.811  19.165  -0.576  1.00 20.00     0.395 C 
HETATM    3  N12 UNL     1     -30.341  18.481  -0.021  1.00 20.00    -0.195 NA
ENDROOT
BRANCH   2   4
HETATM    4  N13 UNL     1     -33.587  18.007  -1.021  1.00 20.00     0.101 N 
HETATM    5  C7  UNL     1     -34.977  18.396  -1.298  1.00 20.00     0.274 C 
HETATM    6  C6  UNL     1     -35.820  17.191  -1.726  1.00 20.00     0.035 C 
HETATM    7  C9  UNL     1     -35.199  16.496  -2.940  1.00 20.00    -0.007 C 
HETATM    8  C4  UNL     1     -35.992  15.251  -3.352  1.00 20.00     0.005 C 
HETATM    9  C10 UNL     1     -33.735  16.135  -2.635  1.00 20.00     0.018 C 
HETATM   10  C2  UNL     1     -35.342  14.556  -4.548  1.00 20.00     0.000 C 
HETATM   11  C3  UNL     1     -33.872  14.230  -4.289  1.00 20.00     0.000 C 
HETATM   12  C5  UNL     1     -33.083  15.462  -3.849  1.00 20.00     0.007 C 
HETATM   13  C8  UNL     1     -32.957  17.386  -2.196  1.00 20.00     0.278 C 
ENDBRANCH   2   4
TORSDOF 1
ENDMDL
MODEL 4
REMARK VINA RESULT:      -5.0      1.326      2.434
REMARK  1 active torsions:
REMARK  status: ('A' for Active; 'I' for Inactive)
REMARK    1  A    between atoms: C11_11  and  N13_13 
ROOT
HETATM    1  C1  UNL     1     -34.993  14.493  -5.640  1.00 20.00     0.089 C 
HETATM    2  C11 UNL     1     -33.801  15.000  -4.963  1.00 20.00     0.395 C 
HETATM    3  N12 UNL     1     -35.938  14.088  -6.179  1.00 20.00    -0.195 NA
ENDROOT
BRANCH   2   4
HETATM    4  N13 UNL     1     -34.160  15.989  -3.946  1.00 20.00     0.101 N 
HETATM    5  C7  UNL     1     -35.136  15.424  -3.003  1.00 20.00     0.274 C 
HETATM    6  C6  UNL     1     -35.558  16.455  -1.951  1.00 20.00     0.035 C 
HETATM    7  C9  UNL     1     -34.339  17.003  -1.206  1.00 20.00    -0.007 C 
HETATM    8  C4  UNL     1     -34.729  18.079  -0.188  1.00 20.00     0.005 C 
HETATM    9  C10 UNL     1     -33.319  17.551  -2.219  1.00 20.00     0.018 C 
HETATM   10  C2  UNL     1     -33.497  18.633   0.526  1.00 20.00     0.000 C 
HETATM   11  C3  UNL     1     -32.446  19.141  -0.459  1.00 20.00     0.000 C 
HETATM   12  C5  UNL     1     -32.075  18.080  -1.495  1.00 20.00     0.007 C 
HETATM   13  C8  UNL     1     -32.957  16.471  -3.250  1.00 20.00     0.278 C 
ENDBRANCH   2   4
TORSDOF 1
ENDMDL
MODEL 5
REMARK VINA RESULT:      -5.0      2.372      5.505
REMARK  1 active torsions:
REMARK  status: ('A' for Active; 'I' for Inactive)
REMARK    1  A    between atoms: C11_11  and  N13_13 
ROOT
HETATM    1  C1  UNL     1     -31.425  18.518  -1.032  1.00 20.00     0.089 C 
HETATM    2  C11 UNL     1     -32.486  18.767  -2.006  1.00 20.00     0.395 C 
HETATM    3  N12 UNL     1     -30.582  18.324  -0.259  1.00 20.00    -0.195 NA
ENDROOT
BRANCH   2   4
HETATM    4  N13 UNL     1     -33.122  17.514  -2.416  1.00 20.00     0.101 N 
HETATM    5  C7  UNL     1     -34.322  17.260  -1.607  1.00 20.00     0.274 C 
HETATM    6  C6  UNL     1     -34.983  15.931  -1.990  1.00 20.00     0.035 C 
HETATM    7  C9  UNL     1     -35.318  15.901  -3.484  1.00 20.00    -0.007 C 
HETATM    8  C4  UNL     1     -35.926  14.559  -3.904  1.00 20.00     0.005 C 
HETATM    9  C10 UNL     1     -34.052  16.208  -4.302  1.00 20.00     0.018 C 
HETATM   10  C2  UNL     1     -36.228  14.538  -5.402  1.00 20.00     0.000 C 
HETATM   11  C3  UNL     1     -34.999  14.888  -6.238  1.00 20.00     0.000 C 
HETATM   12  C5  UNL     1     -34.370  16.211  -5.803  1.00 20.00     0.007 C 
HETATM   13  C8  UNL     1     -33.436  17.542  -3.853  1.00 20.00     0.278 C 
ENDBRANCH   2   4
TORSDOF 1
ENDMDL
MODEL 6
REMARK VINA RESULT:      -4.9      3.046      5.496
REMARK  1 active torsions:
REMARK  status: ('A' for Active; 'I' for Inactive)
REMARK    1  A    between atoms: C11_11  and  N13_13 
ROOT
HETATM    1  C1  UNL     1     -33.317  18.343   2.602  1.00 20.00     0.089 C 
HETATM    2  C11 UNL     1     -34.102  19.262   1.781  1.00 20.00     0.395 C 
HETATM    3  N12 UNL     1     -32.695  17.614   3.258  1.00 20.00    -0.195 NA
ENDROOT
BRANCH   2   4
HETATM    4  N13 UNL     1     -33.955  18.945   0.360  1.00 20.00     0.101 N 
HETATM    5  C7  UNL     1     -32.536  18.945  -0.023  1.00 20.00     0.274 C 
HETATM    6  C6  UNL     1     -32.360  18.655  -1.517  1.00 20.00     0.035 C 
HETATM    7  C9  UNL     1     -33.025  17.329  -1.896  1.00 20.00    -0.007 C 
HETATM    8  C4  UNL     1     -32.914  17.045  -3.398  1.00 20.00     0.005 C 
HETATM    9  C10 UNL     1     -34.497  17.345  -1.450  1.00 20.00     0.018 C 
HETATM   10  C2  UNL     1     -33.606  15.732  -3.762  1.00 20.00     0.000 C 
HETATM   11  C3  UNL     1     -35.057  15.701  -3.286  1.00 20.00     0.000 C 
HETATM   12  C5  UNL     1     -35.177  16.013  -1.795  1.00 20.00     0.007 C 
HETATM   13  C8  UNL     1     -34.597  17.658   0.051  1.00 20.00     0.278 C 
ENDBRANCH   2   4
TORSDOF 1
ENDMDL
MODEL 7
REMARK VINA RESULT:      -4.8      1.774      2.906
REMARK  1 active torsions:
REMARK  status: ('A' for Active; 'I' for Inactive)
REMARK    1  A    between atoms: C11_11  and  N13_13 
ROOT
HETATM    1  C1  UNL     1     -34.059  14.596  -4.461  1.00 20.00     0.089 C 
HETATM    2  C11 UNL     1     -34.406  15.973  -4.805  1.00 20.00     0.395 C 
HETATM    3  N12 UNL     1     -33.783  13.501  -4.191  1.00 20.00    -0.195 NA
ENDROOT
BRANCH   2   4
HETATM    4  N13 UNL     1     -34.485  16.806  -3.604  1.00 20.00     0.101 N 
HETATM    5  C7  UNL     1     -35.403  16.207  -2.624  1.00 20.00     0.274 C 
HETATM    6  C6  UNL     1     -35.534  17.083  -1.374  1.00 20.00     0.035 C 
HETATM    7  C9  UNL     1     -34.163  17.343  -0.745  1.00 20.00    -0.007 C 
HETATM    8  C4  UNL     1     -34.261  18.266   0.474  1.00 20.00     0.005 C 
HETATM    9  C10 UNL     1     -33.214  17.933  -1.803  1.00 20.00     0.018 C 
HETATM   10  C2  UNL     1     -32.880  18.536   1.072  1.00 20.00     0.000 C 
HETATM   11  C3  UNL     1     -31.903  19.076   0.030  1.00 20.00     0.000 C 
HETATM   12  C5  UNL     1     -31.824  18.175  -1.202  1.00 20.00     0.007 C 
HETATM   13  C8  UNL     1     -33.146  17.013  -3.032  1.00 20.00     0.278 C 
ENDBRANCH   2   4
TORSDOF 1
ENDMDL
MODEL 8
REMARK VINA RESULT:      -4.7      1.311      2.372
REMARK  1 active torsions:
REMARK  status: ('A' for Active; 'I' for Inactive)
REMARK    1  A    between atoms: C11_11  and  N13_13 
ROOT
HETATM    1  C1  UNL     1     -35.985  13.907  -5.061  1.00 20.00     0.089 C 
HETATM    2  C11 UNL     1     -35.987  15.240  -5.659  1.00 20.00     0.395 C 
HETATM    3  N12 UNL     1     -35.985  12.846  -4.589  1.00 20.00    -0.195 NA
ENDROOT
BRANCH   2   4
HETATM    4  N13 UNL     1     -35.785  16.270  -4.639  1.00 20.00     0.101 N 
HETATM    5  C7  UNL     1     -36.887  16.252  -3.667  1.00 20.00     0.274 C 
HETATM    6  C6  UNL     1     -36.719  17.349  -2.611  1.00 20.00     0.035 C 
HETATM    7  C9  UNL     1     -35.369  17.220  -1.902  1.00 20.00    -0.007 C 
HETATM    8  C4  UNL     1     -35.151  18.342  -0.882  1.00 20.00     0.005 C 
HETATM    9  C10 UNL     1     -34.238  17.203  -2.945  1.00 20.00     0.018 C 
HETATM   10  C2  UNL     1     -33.787  18.211  -0.204  1.00 20.00     0.000 C 
HETATM   11  C3  UNL     1     -32.649  18.143  -1.220  1.00 20.00     0.000 C 
HETATM   12  C5  UNL     1     -32.876  17.045  -2.259  1.00 20.00     0.007 C 
HETATM   13  C8  UNL     1     -34.482  16.092  -3.979  1.00 20.00     0.278 C 
ENDBRANCH   2   4
TORSDOF 1
ENDMDL
MODEL 9
REMARK VINA RESULT:      -4.6      2.658      5.284
REMARK  1 active torsions:
REMARK  status: ('A' for Active; 'I' for Inactive)
REMARK    1  A    between atoms: C11_11  and  N13_13 
ROOT
HETATM    1  C1  UNL     1     -31.628  18.660  -0.551  1.00 20.00     0.089 C 
HETATM    2  C11 UNL     1     -33.006  19.139  -0.639  1.00 20.00     0.395 C 
HETATM    3  N12 UNL     1     -30.533  18.282  -0.479  1.00 20.00    -0.195 NA
ENDROOT
BRANCH   2   4
HETATM    4  N13 UNL     1     -33.653  18.646  -1.855  1.00 20.00     0.101 N 
HETATM    5  C7  UNL     1     -32.910  19.083  -3.045  1.00 20.00     0.274 C 
HETATM    6  C6  UNL     1     -33.592  18.612  -4.334  1.00 20.00     0.035 C 
HETATM    7  C9  UNL     1     -33.769  17.091  -4.332  1.00 20.00    -0.007 C 
HETATM    8  C4  UNL     1     -34.502  16.601  -5.585  1.00 20.00     0.005 C 
HETATM    9  C10 UNL     1     -34.515  16.660  -3.058  1.00 20.00     0.018 C 
HETATM   10  C2  UNL     1     -34.692  15.085  -5.552  1.00 20.00     0.000 C 
HETATM   11  C3  UNL     1     -35.388  14.624  -4.273  1.00 20.00     0.000 C 
HETATM   12  C5  UNL     1     -34.677  15.135  -3.020  1.00 20.00     0.007 C 
HETATM   13  C8  UNL     1     -33.785  17.181  -1.809  1.00 20.00     0.278 C 
ENDBRANCH   2   4
TORSDOF 1
ENDMDL
