MODEL 1
REMARK VINA RESULT:      -4.3      0.000      0.000
REMARK  0 active torsions:
REMARK  status: ('A' for Active; 'I' for Inactive)
ROOT
HETATM    1  C1  UNL     1     -24.066  18.602   7.898  1.00 20.00     0.028 C 
HETATM    2  C2  UNL     1     -22.808  18.333  10.035  1.00 20.00     0.033 C 
HETATM    3  C3  UNL     1     -24.416  17.951  11.841  1.00 20.00     0.046 C 
HETATM    4  C4  UNL     1     -25.505  18.832   7.766  1.00 20.00     0.112 C 
HETATM    5  C5  UNL     1     -23.911  18.754   9.211  1.00 20.00    -0.025 C 
HETATM    6  C6  UNL     1     -23.059  17.966  11.306  1.00 20.00     0.036 C 
HETATM    7  C7  UNL     1     -25.424  18.537  11.165  1.00 20.00     0.042 C 
HETATM    8  C8  UNL     1     -25.158  19.262   9.876  1.00 20.00     0.185 C 
HETATM    9  N9  UNL     1     -26.197  19.120   8.830  1.00 20.00    -0.286 NA
HETATM   10 CL10 UNL     1     -21.786  17.395  12.323  1.00 20.00    -0.084 Cl
HETATM   11 CL11 UNL     1     -27.027  18.560  11.791  1.00 20.00    -0.086 Cl
ENDROOT
TORSDOF 0
ENDMDL
MODEL 2
REMARK VINA RESULT:      -4.3     13.777     15.281
REMARK  0 active torsions:
REMARK  status: ('A' for Active; 'I' for Inactive)
ROOT
HETATM    1  C1  UNL     1     -35.624  17.132   0.640  1.00 20.00     0.028 C 
HETATM    2  C2  UNL     1     -35.201  16.278  -1.666  1.00 20.00     0.033 C 
HETATM    3  C3  UNL     1     -32.928  16.907  -2.323  1.00 20.00     0.046 C 
HETATM    4  C4  UNL     1     -34.814  18.117   1.358  1.00 20.00     0.112 C 
HETATM    5  C5  UNL     1     -35.090  17.214  -0.577  1.00 20.00    -0.025 C 
HETATM    6  C6  UNL     1     -34.162  16.151  -2.512  1.00 20.00     0.036 C 
HETATM    7  C7  UNL     1     -32.881  17.931  -1.449  1.00 20.00     0.042 C 
HETATM    8  C8  UNL     1     -34.112  18.348  -0.694  1.00 20.00     0.185 C 
HETATM    9  N9  UNL     1     -33.896  18.773   0.708  1.00 20.00    -0.286 NA
HETATM   10 CL10 UNL     1     -34.213  15.002  -3.800  1.00 20.00    -0.084 Cl
HETATM   11 CL11 UNL     1     -31.447  18.858  -1.231  1.00 20.00    -0.086 Cl
ENDROOT
TORSDOF 0
ENDMDL
MODEL 3
REMARK VINA RESULT:      -4.3     13.090     14.442
REMARK  0 active torsions:
REMARK  status: ('A' for Active; 'I' for Inactive)
ROOT
HETATM    1  C1  UNL     1     -33.270  16.433  -2.847  1.00 20.00     0.028 C 
HETATM    2  C2  UNL     1     -32.135  18.079  -1.356  1.00 20.00     0.033 C 
HETATM    3  C3  UNL     1     -33.385  18.215   0.745  1.00 20.00     0.046 C 
HETATM    4  C4  UNL     1     -34.617  15.888  -2.667  1.00 20.00     0.112 C 
HETATM    5  C5  UNL     1     -33.265  17.392  -1.924  1.00 20.00    -0.025 C 
HETATM    6  C6  UNL     1     -32.209  18.488  -0.075  1.00 20.00     0.036 C 
HETATM    7  C7  UNL     1     -34.524  17.769   0.180  1.00 20.00     0.042 C 
HETATM    8  C8  UNL     1     -34.621  17.596  -1.310  1.00 20.00     0.185 C 
HETATM    9  N9  UNL     1     -35.398  16.424  -1.774  1.00 20.00    -0.286 NA
HETATM   10 CL10 UNL     1     -30.864  19.263   0.679  1.00 20.00    -0.084 Cl
HETATM   11 CL11 UNL     1     -35.933  17.470   1.122  1.00 20.00    -0.086 Cl
ENDROOT
TORSDOF 0
ENDMDL
MODEL 4
REMARK VINA RESULT:      -4.2     16.074     17.572
REMARK  0 active torsions:
REMARK  status: ('A' for Active; 'I' for Inactive)
ROOT
HETATM    1  C1  UNL     1     -36.941  15.322  -4.098  1.00 20.00     0.028 C 
HETATM    2  C2  UNL     1     -35.573  16.470  -2.356  1.00 20.00     0.033 C 
HETATM    3  C3  UNL     1     -33.207  16.210  -2.930  1.00 20.00     0.046 C 
HETATM    4  C4  UNL     1     -36.447  14.375  -5.099  1.00 20.00     0.112 C 
HETATM    5  C5  UNL     1     -35.867  15.443  -3.321  1.00 20.00    -0.025 C 
HETATM    6  C6  UNL     1     -34.287  16.819  -2.161  1.00 20.00     0.036 C 
HETATM    7  C7  UNL     1     -33.434  15.111  -3.675  1.00 20.00     0.042 C 
HETATM    8  C8  UNL     1     -34.789  14.461  -3.685  1.00 20.00     0.185 C 
HETATM    9  N9  UNL     1     -35.235  13.917  -4.988  1.00 20.00    -0.286 NA
HETATM   10 CL10 UNL     1     -33.878  18.086  -1.062  1.00 20.00    -0.084 Cl
HETATM   11 CL11 UNL     1     -32.169  14.355  -4.565  1.00 20.00    -0.086 Cl
ENDROOT
TORSDOF 0
ENDMDL
MODEL 5
REMARK VINA RESULT:      -4.1     16.567     18.228
REMARK  0 active torsions:
REMARK  status: ('A' for Active; 'I' for Inactive)
ROOT
HETATM    1  C1  UNL     1     -36.769  15.810  -5.601  1.00 20.00     0.028 C 
HETATM    2  C2  UNL     1     -36.309  16.148  -3.173  1.00 20.00     0.033 C 
HETATM    3  C3  UNL     1     -33.926  15.756  -2.772  1.00 20.00     0.046 C 
HETATM    4  C4  UNL     1     -35.877  15.168  -6.569  1.00 20.00     0.112 C 
HETATM    5  C5  UNL     1     -36.141  15.528  -4.461  1.00 20.00    -0.025 C 
HETATM    6  C6  UNL     1     -35.240  16.235  -2.359  1.00 20.00     0.036 C 
HETATM    7  C7  UNL     1     -33.792  14.990  -3.872  1.00 20.00     0.042 C 
HETATM    8  C8  UNL     1     -35.000  14.571  -4.662  1.00 20.00     0.185 C 
HETATM    9  N9  UNL     1     -34.828  14.533  -6.133  1.00 20.00    -0.286 NA
HETATM   10 CL10 UNL     1     -35.365  17.022  -0.826  1.00 20.00    -0.084 Cl
HETATM   11 CL11 UNL     1     -32.257  14.385  -4.361  1.00 20.00    -0.086 Cl
ENDROOT
TORSDOF 0
ENDMDL
MODEL 6
REMARK VINA RESULT:      -4.1     16.047     17.650
REMARK  0 active torsions:
REMARK  status: ('A' for Active; 'I' for Inactive)
ROOT
HETATM    1  C1  UNL     1     -34.812  13.898  -3.901  1.00 20.00     0.028 C 
HETATM    2  C2  UNL     1     -33.963  15.913  -2.700  1.00 20.00     0.033 C 
HETATM    3  C3  UNL     1     -35.871  17.332  -2.117  1.00 20.00     0.046 C 
HETATM    4  C4  UNL     1     -36.152  13.730  -4.465  1.00 20.00     0.112 C 
HETATM    5  C5  UNL     1     -34.836  15.192  -3.589  1.00 20.00    -0.025 C 
HETATM    6  C6  UNL     1     -34.465  16.954  -2.010  1.00 20.00     0.036 C 
HETATM    7  C7  UNL     1     -36.646  16.814  -3.090  1.00 20.00     0.042 C 
HETATM    8  C8  UNL     1     -36.064  15.881  -4.114  1.00 20.00     0.185 C 
HETATM    9  N9  UNL     1     -36.938  14.764  -4.540  1.00 20.00    -0.286 NA
HETATM   10 CL10 UNL     1     -33.483  17.819  -0.884  1.00 20.00    -0.084 Cl
HETATM   11 CL11 UNL     1     -38.297  17.269  -3.257  1.00 20.00    -0.086 Cl
ENDROOT
TORSDOF 0
ENDMDL
MODEL 7
REMARK VINA RESULT:      -4.1     12.455     14.080
REMARK  0 active torsions:
REMARK  status: ('A' for Active; 'I' for Inactive)
ROOT
HETATM    1  C1  UNL     1     -31.662  18.552   1.519  1.00 20.00     0.028 C 
HETATM    2  C2  UNL     1     -34.125  18.492   1.130  1.00 20.00     0.033 C 
HETATM    3  C3  UNL     1     -34.546  17.397  -1.019  1.00 20.00     0.046 C 
HETATM    4  C4  UNL     1     -30.623  18.298   0.519  1.00 20.00     0.112 C 
HETATM    5  C5  UNL     1     -32.743  18.604   0.744  1.00 20.00    -0.025 C 
HETATM    6  C6  UNL     1     -34.990  17.927   0.267  1.00 20.00     0.036 C 
HETATM    7  C7  UNL     1     -33.315  17.679  -1.486  1.00 20.00     0.042 C 
HETATM    8  C8  UNL     1     -32.396  18.587  -0.718  1.00 20.00     0.185 C 
HETATM    9  N9  UNL     1     -30.962  18.218  -0.735  1.00 20.00    -0.286 NA
HETATM   10 CL10 UNL     1     -36.647  17.710   0.698  1.00 20.00    -0.084 Cl
HETATM   11 CL11 UNL     1     -32.781  17.093  -3.014  1.00 20.00    -0.086 Cl
ENDROOT
TORSDOF 0
ENDMDL
MODEL 8
REMARK VINA RESULT:      -4.0     16.911     18.543
REMARK  0 active torsions:
REMARK  status: ('A' for Active; 'I' for Inactive)
ROOT
HETATM    1  C1  UNL     1     -35.215  13.737  -3.799  1.00 20.00     0.028 C 
HETATM    2  C2  UNL     1     -33.696  15.675  -3.402  1.00 20.00     0.033 C 
HETATM    3  C3  UNL     1     -34.232  17.428  -5.025  1.00 20.00     0.046 C 
HETATM    4  C4  UNL     1     -36.048  13.520  -4.983  1.00 20.00     0.112 C 
HETATM    5  C5  UNL     1     -34.475  14.767  -4.203  1.00 20.00    -0.025 C 
HETATM    6  C6  UNL     1     -33.569  16.950  -3.817  1.00 20.00     0.036 C 
HETATM    7  C7  UNL     1     -34.782  16.556  -5.893  1.00 20.00     0.042 C 
HETATM    8  C8  UNL     1     -34.676  15.076  -5.659  1.00 20.00     0.185 C 
HETATM    9  N9  UNL     1     -35.869  14.277  -6.026  1.00 20.00    -0.286 NA
HETATM   10 CL10 UNL     1     -32.698  18.100  -2.868  1.00 20.00    -0.084 Cl
HETATM   11 CL11 UNL     1     -35.541  17.093  -7.341  1.00 20.00    -0.086 Cl
ENDROOT
TORSDOF 0
ENDMDL
MODEL 9
REMARK VINA RESULT:      -4.0     16.300     17.822
REMARK  0 active torsions:
REMARK  status: ('A' for Active; 'I' for Inactive)
ROOT
HETATM    1  C1  UNL     1     -33.345  14.794  -4.455  1.00 20.00     0.028 C 
HETATM    2  C2  UNL     1     -34.075  16.054  -2.430  1.00 20.00     0.033 C 
HETATM    3  C3  UNL     1     -36.298  16.988  -2.854  1.00 20.00     0.046 C 
HETATM    4  C4  UNL     1     -33.957  14.864  -5.783  1.00 20.00     0.112 C 
HETATM    5  C5  UNL     1     -33.969  15.798  -3.842  1.00 20.00    -0.025 C 
HETATM    6  C6  UNL     1     -35.192  16.645  -1.966  1.00 20.00     0.036 C 
HETATM    7  C7  UNL     1     -36.137  16.952  -4.191  1.00 20.00     0.042 C 
HETATM    8  C8  UNL     1     -34.801  16.613  -4.791  1.00 20.00     0.185 C 
HETATM    9  N9  UNL     1     -34.837  15.792  -6.023  1.00 20.00    -0.286 NA
HETATM   10 CL10 UNL     1     -35.402  16.924  -0.275  1.00 20.00    -0.084 Cl
HETATM   11 CL11 UNL     1     -37.416  17.383  -5.259  1.00 20.00    -0.086 Cl
ENDROOT
TORSDOF 0
ENDMDL
