MODEL 1
REMARK VINA RESULT:      -4.8      0.000      0.000
REMARK  3 active torsions:
REMARK  status: ('A' for Active; 'I' for Inactive)
REMARK    1  A    between atoms: C1_1  and  C6_6 
REMARK    2  A    between atoms: C5_5  and  C7_7 
REMARK    3  A    between atoms: C6_6  and  C7_7 
ROOT
HETATM    1  C2  UNL     1     -33.915   6.430   5.296  1.00 20.00     0.033 C 
HETATM    2  C3  UNL     1     -34.953   5.346   5.502  1.00 20.00     0.168 C 
HETATM    3  C4  UNL     1     -33.951   5.015   3.425  1.00 20.00     0.172 C 
HETATM    4  C5  UNL     1     -33.826   6.484   3.787  1.00 20.00     0.012 C 
HETATM    5  O9  UNL     1     -34.815   4.426   4.409  1.00 20.00    -0.391 OA
ENDROOT
BRANCH   4   6
HETATM    6  C7  UNL     1     -32.563   7.139   3.262  1.00 20.00     0.013 C 
BRANCH   6   7
HETATM    7  C6  UNL     1     -32.523   7.144   1.737  1.00 20.00     0.070 C 
BRANCH   7   8
HETATM    8  C1  UNL     1     -32.804   8.508   1.151  1.00 20.00     0.231 C 
HETATM    9  O8  UNL     1     -33.186   8.709   0.004  1.00 20.00    -0.307 OA
ENDBRANCH   7   8
ENDBRANCH   6   7
ENDBRANCH   4   6
TORSDOF 3
ENDMDL
MODEL 2
REMARK VINA RESULT:      -4.6      1.231      1.554
REMARK  3 active torsions:
REMARK  status: ('A' for Active; 'I' for Inactive)
REMARK    1  A    between atoms: C1_1  and  C6_6 
REMARK    2  A    between atoms: C5_5  and  C7_7 
REMARK    3  A    between atoms: C6_6  and  C7_7 
ROOT
HETATM    1  C2  UNL     1     -34.803   5.006   4.261  1.00 20.00     0.033 C 
HETATM    2  C3  UNL     1     -34.923   5.190   5.759  1.00 20.00     0.168 C 
HETATM    3  C4  UNL     1     -33.605   6.914   4.913  1.00 20.00     0.172 C 
HETATM    4  C5  UNL     1     -33.508   5.731   3.967  1.00 20.00     0.012 C 
HETATM    5  O9  UNL     1     -34.313   6.451   6.073  1.00 20.00    -0.391 OA
ENDROOT
BRANCH   4   6
HETATM    6  C7  UNL     1     -33.331   6.123   2.513  1.00 20.00     0.013 C 
BRANCH   6   7
HETATM    7  C6  UNL     1     -32.431   7.346   2.365  1.00 20.00     0.070 C 
BRANCH   7   8
HETATM    8  C1  UNL     1     -32.604   8.038   1.034  1.00 20.00     0.231 C 
HETATM    9  O8  UNL     1     -32.933   9.212   0.894  1.00 20.00    -0.307 OA
ENDBRANCH   7   8
ENDBRANCH   6   7
ENDBRANCH   4   6
TORSDOF 3
ENDMDL
MODEL 3
REMARK VINA RESULT:      -4.1     10.891     11.776
REMARK  3 active torsions:
REMARK  status: ('A' for Active; 'I' for Inactive)
REMARK    1  A    between atoms: C1_1  and  C6_6 
REMARK    2  A    between atoms: C5_5  and  C7_7 
REMARK    3  A    between atoms: C6_6  and  C7_7 
ROOT
HETATM    1  C2  UNL     1     -34.733  16.377  -1.825  1.00 20.00     0.033 C 
HETATM    2  C3  UNL     1     -34.114  17.618  -1.218  1.00 20.00     0.168 C 
HETATM    3  C4  UNL     1     -33.228  17.326  -3.352  1.00 20.00     0.172 C 
HETATM    4  C5  UNL     1     -33.682  15.973  -2.835  1.00 20.00     0.012 C 
HETATM    5  O9  UNL     1     -33.334  18.240  -2.250  1.00 20.00    -0.391 OA
ENDROOT
BRANCH   4   6
HETATM    6  C7  UNL     1     -34.187  15.041  -3.919  1.00 20.00     0.013 C 
BRANCH   6   7
HETATM    7  C6  UNL     1     -35.707  14.917  -3.892  1.00 20.00     0.070 C 
BRANCH   7   8
HETATM    8  C1  UNL     1     -36.205  13.695  -4.626  1.00 20.00     0.231 C 
HETATM    9  O8  UNL     1     -35.800  12.553  -4.436  1.00 20.00    -0.307 OA
ENDBRANCH   7   8
ENDBRANCH   6   7
ENDBRANCH   4   6
TORSDOF 3
ENDMDL
MODEL 4
REMARK VINA RESULT:      -4.1     15.812     16.476
REMARK  3 active torsions:
REMARK  status: ('A' for Active; 'I' for Inactive)
REMARK    1  A    between atoms: C1_1  and  C6_6 
REMARK    2  A    between atoms: C5_5  and  C7_7 
REMARK    3  A    between atoms: C6_6  and  C7_7 
ROOT
HETATM    1  C2  UNL     1     -24.269  16.833  10.289  1.00 20.00     0.033 C 
HETATM    2  C3  UNL     1     -23.969  16.398  11.708  1.00 20.00     0.168 C 
HETATM    3  C4  UNL     1     -22.246  17.790  10.989  1.00 20.00     0.172 C 
HETATM    4  C5  UNL     1     -22.885  17.153   9.768  1.00 20.00     0.012 C 
HETATM    5  O9  UNL     1     -22.815  17.138  12.134  1.00 20.00    -0.391 OA
ENDROOT
BRANCH   4   6
HETATM    6  C7  UNL     1     -22.873  18.039   8.538  1.00 20.00     0.013 C 
BRANCH   6   7
HETATM    7  C6  UNL     1     -24.108  18.933   8.476  1.00 20.00     0.070 C 
BRANCH   7   8
HETATM    8  C1  UNL     1     -24.593  19.159   7.063  1.00 20.00     0.231 C 
HETATM    9  O8  UNL     1     -23.878  19.132   6.067  1.00 20.00    -0.307 OA
ENDBRANCH   7   8
ENDBRANCH   6   7
ENDBRANCH   4   6
TORSDOF 3
ENDMDL
MODEL 5
REMARK VINA RESULT:      -4.0     15.976     16.917
REMARK  3 active torsions:
REMARK  status: ('A' for Active; 'I' for Inactive)
REMARK    1  A    between atoms: C1_1  and  C6_6 
REMARK    2  A    between atoms: C5_5  and  C7_7 
REMARK    3  A    between atoms: C6_6  and  C7_7 
ROOT
HETATM    1  C2  UNL     1     -25.368  19.044   7.968  1.00 20.00     0.033 C 
HETATM    2  C3  UNL     1     -24.576  19.258   6.695  1.00 20.00     0.168 C 
HETATM    3  C4  UNL     1     -23.225  18.122   8.215  1.00 20.00     0.172 C 
HETATM    4  C5  UNL     1     -24.265  18.908   8.995  1.00 20.00     0.012 C 
HETATM    5  O9  UNL     1     -23.345  18.536   6.846  1.00 20.00    -0.391 OA
ENDROOT
BRANCH   4   6
HETATM    6  C7  UNL     1     -24.696  18.240  10.286  1.00 20.00     0.013 C 
BRANCH   6   7
HETATM    7  C6  UNL     1     -23.892  16.973  10.560  1.00 20.00     0.070 C 
BRANCH   7   8
HETATM    8  C1  UNL     1     -23.166  17.019  11.884  1.00 20.00     0.231 C 
HETATM    9  O8  UNL     1     -22.592  18.006  12.332  1.00 20.00    -0.307 OA
ENDBRANCH   7   8
ENDBRANCH   6   7
ENDBRANCH   4   6
TORSDOF 3
ENDMDL
MODEL 6
REMARK VINA RESULT:      -4.0     15.717     16.403
REMARK  3 active torsions:
REMARK  status: ('A' for Active; 'I' for Inactive)
REMARK    1  A    between atoms: C1_1  and  C6_6 
REMARK    2  A    between atoms: C5_5  and  C7_7 
REMARK    3  A    between atoms: C6_6  and  C7_7 
ROOT
HETATM    1  C2  UNL     1     -24.167  16.452  10.714  1.00 20.00     0.033 C 
HETATM    2  C3  UNL     1     -25.117  16.250  11.876  1.00 20.00     0.168 C 
HETATM    3  C4  UNL     1     -25.356  18.435  11.106  1.00 20.00     0.172 C 
HETATM    4  C5  UNL     1     -23.964  17.951  10.742  1.00 20.00     0.012 C 
HETATM    5  O9  UNL     1     -25.925  17.433  11.962  1.00 20.00    -0.391 OA
ENDROOT
BRANCH   4   6
HETATM    6  C7  UNL     1     -23.433  18.531   9.446  1.00 20.00     0.013 C 
BRANCH   6   7
HETATM    7  C6  UNL     1     -21.954  18.216   9.252  1.00 20.00     0.070 C 
BRANCH   7   8
HETATM    8  C1  UNL     1     -21.690  17.396   8.011  1.00 20.00     0.231 C 
HETATM    9  O8  UNL     1     -22.012  17.727   6.875  1.00 20.00    -0.307 OA
ENDBRANCH   7   8
ENDBRANCH   6   7
ENDBRANCH   4   6
TORSDOF 3
ENDMDL
MODEL 7
REMARK VINA RESULT:      -3.9     16.020     16.961
REMARK  3 active torsions:
REMARK  status: ('A' for Active; 'I' for Inactive)
REMARK    1  A    between atoms: C1_1  and  C6_6 
REMARK    2  A    between atoms: C5_5  and  C7_7 
REMARK    3  A    between atoms: C6_6  and  C7_7 
ROOT
HETATM    1  C2  UNL     1     -24.184  18.723   9.170  1.00 20.00     0.033 C 
HETATM    2  C3  UNL     1     -24.264  18.999   7.683  1.00 20.00     0.168 C 
HETATM    3  C4  UNL     1     -22.335  17.761   8.095  1.00 20.00     0.172 C 
HETATM    4  C5  UNL     1     -22.698  18.514   9.362  1.00 20.00     0.012 C 
HETATM    5  O9  UNL     1     -23.204  18.255   7.064  1.00 20.00    -0.391 OA
ENDROOT
BRANCH   4   6
HETATM    6  C7  UNL     1     -22.333  17.778  10.637  1.00 20.00     0.013 C 
BRANCH   6   7
HETATM    7  C6  UNL     1     -23.491  17.766  11.630  1.00 20.00     0.070 C 
BRANCH   7   8
HETATM    8  C1  UNL     1     -23.935  16.368  11.989  1.00 20.00     0.231 C 
HETATM    9  O8  UNL     1     -24.647  15.659  11.286  1.00 20.00    -0.307 OA
ENDBRANCH   7   8
ENDBRANCH   6   7
ENDBRANCH   4   6
TORSDOF 3
ENDMDL
MODEL 8
REMARK VINA RESULT:      -3.8     11.053     11.899
REMARK  3 active torsions:
REMARK  status: ('A' for Active; 'I' for Inactive)
REMARK    1  A    between atoms: C1_1  and  C6_6 
REMARK    2  A    between atoms: C5_5  and  C7_7 
REMARK    3  A    between atoms: C6_6  and  C7_7 
ROOT
HETATM    1  C2  UNL     1     -33.547  15.669  -3.322  1.00 20.00     0.033 C 
HETATM    2  C3  UNL     1     -34.455  14.592  -3.878  1.00 20.00     0.168 C 
HETATM    3  C4  UNL     1     -35.773  16.162  -2.772  1.00 20.00     0.172 C 
HETATM    4  C5  UNL     1     -34.378  16.208  -2.177  1.00 20.00     0.012 C 
HETATM    5  O9  UNL     1     -35.804  15.030  -3.654  1.00 20.00    -0.391 OA
ENDROOT
BRANCH   4   6
HETATM    6  C7  UNL     1     -33.960  17.585  -1.700  1.00 20.00     0.013 C 
BRANCH   6   7
HETATM    7  C6  UNL     1     -32.467  17.824  -1.908  1.00 20.00     0.070 C 
BRANCH   7   8
HETATM    8  C1  UNL     1     -31.770  18.282  -0.649  1.00 20.00     0.231 C 
HETATM    9  O8  UNL     1     -30.567  18.498  -0.556  1.00 20.00    -0.307 OA
ENDBRANCH   7   8
ENDBRANCH   6   7
ENDBRANCH   4   6
TORSDOF 3
ENDMDL
MODEL 9
REMARK VINA RESULT:      -3.8     10.996     11.594
REMARK  3 active torsions:
REMARK  status: ('A' for Active; 'I' for Inactive)
REMARK    1  A    between atoms: C1_1  and  C6_6 
REMARK    2  A    between atoms: C5_5  and  C7_7 
REMARK    3  A    between atoms: C6_6  and  C7_7 
ROOT
HETATM    1  C2  UNL     1     -36.574  15.711  -3.794  1.00 20.00     0.033 C 
HETATM    2  C3  UNL     1     -37.844  15.078  -4.323  1.00 20.00     0.168 C 
HETATM    3  C4  UNL     1     -36.133  13.503  -4.449  1.00 20.00     0.172 C 
HETATM    4  C5  UNL     1     -35.510  14.886  -4.485  1.00 20.00     0.012 C 
HETATM    5  O9  UNL     1     -37.552  13.692  -4.553  1.00 20.00    -0.391 OA
ENDROOT
BRANCH   4   6
HETATM    6  C7  UNL     1     -34.144  14.961  -3.833  1.00 20.00     0.013 C 
BRANCH   6   7
HETATM    7  C6  UNL     1     -34.144  15.901  -2.632  1.00 20.00     0.070 C 
BRANCH   7   8
HETATM    8  C1  UNL     1     -33.054  16.944  -2.709  1.00 20.00     0.231 C 
HETATM    9  O8  UNL     1     -32.599  17.551  -1.745  1.00 20.00    -0.307 OA
ENDBRANCH   7   8
ENDBRANCH   6   7
ENDBRANCH   4   6
TORSDOF 3
ENDMDL
