MODEL 1
REMARK VINA RESULT:      -5.1      0.000      0.000
REMARK  1 active torsions:
REMARK  status: ('A' for Active; 'I' for Inactive)
REMARK    1  A    between atoms: C2_2  and  C6_6 
REMARK       I    between atoms: C2_2  and  N7_7 
ROOT
HETATM    1  C1  UNL     1     -32.563   7.736   1.663  1.00 20.00     0.167 C 
HETATM    2  C2  UNL     1     -33.018   5.899   2.763  1.00 20.00     0.273 C 
HETATM    3  N7  UNL     1     -32.126   6.811   2.241  1.00 20.00    -0.197 NA
HETATM    4  O8  UNL     1     -33.106   4.704   2.499  1.00 20.00    -0.268 OA
HETATM    5  S10 UNL     1     -33.118   9.002   0.872  1.00 20.00    -0.055 SA
ENDROOT
BRANCH   2   6
HETATM    6  C6  UNL     1     -33.963   6.486   3.757  1.00 20.00     0.215 C 
HETATM    7  C4  UNL     1     -33.271   6.941   5.029  1.00 20.00     0.044 C 
HETATM    8  C3  UNL     1     -34.277   6.572   6.092  1.00 20.00     0.029 C 
HETATM    9  C5  UNL     1     -34.855   5.289   5.541  1.00 20.00     0.168 C 
HETATM   10  O9  UNL     1     -34.872   5.438   4.115  1.00 20.00    -0.376 OA
ENDBRANCH   2   6
TORSDOF 1
ENDMDL
MODEL 2
REMARK VINA RESULT:      -4.7     15.789     16.232
REMARK  1 active torsions:
REMARK  status: ('A' for Active; 'I' for Inactive)
REMARK    1  A    between atoms: C2_2  and  C6_6 
REMARK       I    between atoms: C2_2  and  N7_7 
ROOT
HETATM    1  C1  UNL     1     -24.510  18.881   7.342  1.00 20.00     0.167 C 
HETATM    2  C2  UNL     1     -22.978  17.686   8.350  1.00 20.00     0.273 C 
HETATM    3  N7  UNL     1     -23.368  18.619   7.412  1.00 20.00    -0.197 NA
HETATM    4  O8  UNL     1     -22.412  16.617   8.150  1.00 20.00    -0.268 OA
HETATM    5  S10 UNL     1     -26.052  19.263   7.217  1.00 20.00    -0.055 SA
ENDROOT
BRANCH   2   6
HETATM    6  C6  UNL     1     -23.308  18.073   9.752  1.00 20.00     0.215 C 
HETATM    7  C4  UNL     1     -22.119  17.967  10.688  1.00 20.00     0.044 C 
HETATM    8  C3  UNL     1     -22.752  17.452  11.957  1.00 20.00     0.029 C 
HETATM    9  C5  UNL     1     -23.826  16.535  11.418  1.00 20.00     0.168 C 
HETATM   10  O9  UNL     1     -24.294  17.138  10.205  1.00 20.00    -0.376 OA
ENDBRANCH   2   6
TORSDOF 1
ENDMDL
MODEL 3
REMARK VINA RESULT:      -4.3     11.434     11.974
REMARK  1 active torsions:
REMARK  status: ('A' for Active; 'I' for Inactive)
REMARK    1  A    between atoms: C2_2  and  C6_6 
REMARK       I    between atoms: C2_2  and  N7_7 
ROOT
HETATM    1  C1  UNL     1     -34.093  15.104  -6.651  1.00 20.00     0.167 C 
HETATM    2  C2  UNL     1     -34.255  14.481  -4.558  1.00 20.00     0.273 C 
HETATM    3  N7  UNL     1     -33.610  14.486  -5.777  1.00 20.00    -0.197 NA
HETATM    4  O8  UNL     1     -34.700  13.512  -3.952  1.00 20.00    -0.268 OA
HETATM    5  S10 UNL     1     -34.719  15.931  -7.860  1.00 20.00    -0.055 SA
ENDROOT
BRANCH   2   6
HETATM    6  C6  UNL     1     -34.402  15.837  -3.953  1.00 20.00     0.215 C 
HETATM    7  C4  UNL     1     -33.181  16.263  -3.159  1.00 20.00     0.044 C 
HETATM    8  C3  UNL     1     -33.796  16.995  -1.992  1.00 20.00     0.029 C 
HETATM    9  C5  UNL     1     -35.053  16.194  -1.750  1.00 20.00     0.168 C 
HETATM   10  O9  UNL     1     -35.500  15.751  -3.037  1.00 20.00    -0.376 OA
ENDBRANCH   2   6
TORSDOF 1
ENDMDL
MODEL 4
REMARK VINA RESULT:      -4.1     11.234     11.773
REMARK  1 active torsions:
REMARK  status: ('A' for Active; 'I' for Inactive)
REMARK    1  A    between atoms: C2_2  and  C6_6 
REMARK       I    between atoms: C2_2  and  N7_7 
ROOT
HETATM    1  C1  UNL     1     -37.972  14.569  -4.459  1.00 20.00     0.167 C 
HETATM    2  C2  UNL     1     -35.929  13.783  -4.446  1.00 20.00     0.273 C 
HETATM    3  N7  UNL     1     -37.189  13.877  -4.996  1.00 20.00    -0.197 NA
HETATM    4  O8  UNL     1     -35.367  12.775  -4.031  1.00 20.00    -0.268 OA
HETATM    5  S10 UNL     1     -39.061  15.497  -3.758  1.00 20.00    -0.055 SA
ENDROOT
BRANCH   2   6
HETATM    6  C6  UNL     1     -35.210  15.089  -4.370  1.00 20.00     0.215 C 
HETATM    7  C4  UNL     1     -33.703  14.937  -4.470  1.00 20.00     0.044 C 
HETATM    8  C3  UNL     1     -33.210  15.980  -3.497  1.00 20.00     0.029 C 
HETATM    9  C5  UNL     1     -34.262  15.917  -2.414  1.00 20.00     0.168 C 
HETATM   10  O9  UNL     1     -35.501  15.632  -3.076  1.00 20.00    -0.376 OA
ENDBRANCH   2   6
TORSDOF 1
ENDMDL
MODEL 5
REMARK VINA RESULT:      -4.0     11.740     12.141
REMARK  1 active torsions:
REMARK  status: ('A' for Active; 'I' for Inactive)
REMARK    1  A    between atoms: C2_2  and  C6_6 
REMARK       I    between atoms: C2_2  and  N7_7 
ROOT
HETATM    1  C1  UNL     1     -35.597  14.644  -6.575  1.00 20.00     0.167 C 
HETATM    2  C2  UNL     1     -36.222  14.608  -4.478  1.00 20.00     0.273 C 
HETATM    3  N7  UNL     1     -35.701  13.999  -5.600  1.00 20.00    -0.197 NA
HETATM    4  O8  UNL     1     -37.233  14.293  -3.857  1.00 20.00    -0.268 OA
HETATM    5  S10 UNL     1     -35.440  15.487  -7.918  1.00 20.00    -0.055 SA
ENDROOT
BRANCH   2   6
HETATM    6  C6  UNL     1     -35.427  15.780  -4.008  1.00 20.00     0.215 C 
HETATM    7  C4  UNL     1     -34.115  15.379  -3.360  1.00 20.00     0.044 C 
HETATM    8  C3  UNL     1     -33.997  16.373  -2.231  1.00 20.00     0.029 C 
HETATM    9  C5  UNL     1     -35.438  16.538  -1.810  1.00 20.00     0.168 C 
HETATM   10  O9  UNL     1     -36.220  16.427  -3.006  1.00 20.00    -0.376 OA
ENDBRANCH   2   6
TORSDOF 1
ENDMDL
MODEL 6
REMARK VINA RESULT:      -3.8     11.352     11.962
REMARK  1 active torsions:
REMARK  status: ('A' for Active; 'I' for Inactive)
REMARK    1  A    between atoms: C2_2  and  C6_6 
REMARK       I    between atoms: C2_2  and  N7_7 
ROOT
HETATM    1  C1  UNL     1     -35.464  15.001  -6.479  1.00 20.00     0.167 C 
HETATM    2  C2  UNL     1     -36.359  13.874  -4.830  1.00 20.00     0.273 C 
HETATM    3  N7  UNL     1     -35.920  13.976  -6.133  1.00 20.00    -0.197 NA
HETATM    4  O8  UNL     1     -37.494  13.619  -4.441  1.00 20.00    -0.268 OA
HETATM    5  S10 UNL     1     -34.840  16.377  -6.986  1.00 20.00    -0.055 SA
ENDROOT
BRANCH   2   6
HETATM    6  C6  UNL     1     -35.289  14.113  -3.816  1.00 20.00     0.215 C 
HETATM    7  C4  UNL     1     -35.068  15.586  -3.530  1.00 20.00     0.044 C 
HETATM    8  C3  UNL     1     -33.570  15.659  -3.362  1.00 20.00     0.029 C 
HETATM    9  C5  UNL     1     -33.094  14.641  -4.371  1.00 20.00     0.168 C 
HETATM   10  O9  UNL     1     -34.078  13.599  -4.383  1.00 20.00    -0.376 OA
ENDBRANCH   2   6
TORSDOF 1
ENDMDL
MODEL 7
REMARK VINA RESULT:      -3.8     11.664     12.955
REMARK  1 active torsions:
REMARK  status: ('A' for Active; 'I' for Inactive)
REMARK    1  A    between atoms: C2_2  and  C6_6 
REMARK       I    between atoms: C2_2  and  N7_7 
ROOT
HETATM    1  C1  UNL     1     -38.224  14.886  -4.242  1.00 20.00     0.167 C 
HETATM    2  C2  UNL     1     -36.310  13.951  -4.747  1.00 20.00     0.273 C 
HETATM    3  N7  UNL     1     -37.686  13.932  -4.665  1.00 20.00    -0.197 NA
HETATM    4  O8  UNL     1     -35.518  13.195  -4.195  1.00 20.00    -0.268 OA
HETATM    5  S10 UNL     1     -38.988  16.163  -3.672  1.00 20.00    -0.055 SA
ENDROOT
BRANCH   2   6
HETATM    6  C6  UNL     1     -35.777  15.037  -5.620  1.00 20.00     0.215 C 
HETATM    7  C4  UNL     1     -35.909  14.722  -7.098  1.00 20.00     0.044 C 
HETATM    8  C3  UNL     1     -34.629  15.287  -7.663  1.00 20.00     0.029 C 
HETATM    9  C5  UNL     1     -33.647  15.003  -6.552  1.00 20.00     0.168 C 
HETATM   10  O9  UNL     1     -34.378  15.138  -5.327  1.00 20.00    -0.376 OA
ENDBRANCH   2   6
TORSDOF 1
ENDMDL
MODEL 8
REMARK VINA RESULT:      -3.8     11.738     12.388
REMARK  1 active torsions:
REMARK  status: ('A' for Active; 'I' for Inactive)
REMARK    1  A    between atoms: C2_2  and  C6_6 
REMARK       I    between atoms: C2_2  and  N7_7 
ROOT
HETATM    1  C1  UNL     1     -34.348  14.894  -6.341  1.00 20.00     0.167 C 
HETATM    2  C2  UNL     1     -35.778  13.988  -4.953  1.00 20.00     0.273 C 
HETATM    3  N7  UNL     1     -34.537  14.511  -5.247  1.00 20.00    -0.197 NA
HETATM    4  O8  UNL     1     -36.038  12.856  -4.559  1.00 20.00    -0.268 OA
HETATM    5  S10 UNL     1     -34.055  15.423  -7.815  1.00 20.00    -0.055 SA
ENDROOT
BRANCH   2   6
HETATM    6  C6  UNL     1     -36.899  14.952  -5.157  1.00 20.00     0.215 C 
HETATM    7  C4  UNL     1     -36.853  16.120  -4.190  1.00 20.00     0.044 C 
HETATM    8  C3  UNL     1     -38.314  16.343  -3.886  1.00 20.00     0.029 C 
HETATM    9  C5  UNL     1     -38.852  14.932  -3.896  1.00 20.00     0.168 C 
HETATM   10  O9  UNL     1     -38.105  14.226  -4.895  1.00 20.00    -0.376 OA
ENDBRANCH   2   6
TORSDOF 1
ENDMDL
MODEL 9
REMARK VINA RESULT:      -3.7     11.166     12.549
REMARK  1 active torsions:
REMARK  status: ('A' for Active; 'I' for Inactive)
REMARK    1  A    between atoms: C2_2  and  C6_6 
REMARK       I    between atoms: C2_2  and  N7_7 
ROOT
HETATM    1  C1  UNL     1     -34.000  16.236  -2.490  1.00 20.00     0.167 C 
HETATM    2  C2  UNL     1     -34.694  14.663  -3.845  1.00 20.00     0.273 C 
HETATM    3  N7  UNL     1     -34.791  15.389  -2.677  1.00 20.00    -0.197 NA
HETATM    4  O8  UNL     1     -34.527  13.453  -3.961  1.00 20.00    -0.268 OA
HETATM    5  S10 UNL     1     -32.943  17.394  -2.202  1.00 20.00    -0.055 SA
ENDROOT
BRANCH   2   6
HETATM    6  C6  UNL     1     -34.812  15.494  -5.079  1.00 20.00     0.215 C 
HETATM    7  C4  UNL     1     -36.215  16.027  -5.297  1.00 20.00     0.044 C 
HETATM    8  C3  UNL     1     -36.364  15.934  -6.796  1.00 20.00     0.029 C 
HETATM    9  C5  UNL     1     -35.596  14.672  -7.108  1.00 20.00     0.168 C 
HETATM   10  O9  UNL     1     -34.507  14.626  -6.177  1.00 20.00    -0.376 OA
ENDBRANCH   2   6
TORSDOF 1
ENDMDL
