MODEL 1
REMARK VINA RESULT:      -5.2      0.000      0.000
REMARK  1 active torsions:
REMARK  status: ('A' for Active; 'I' for Inactive)
REMARK    1  A    between atoms: C4_4  and  C5_5 
ROOT
HETATM    1  C1  UNL     1     -35.003   5.243   5.770  1.00 20.00     0.135 A 
HETATM    2  C2  UNL     1     -34.281   6.395   6.001  1.00 20.00     0.136 A 
HETATM    3  C3  UNL     1     -34.212   5.179   3.626  1.00 20.00     0.152 A 
HETATM    4  C4  UNL     1     -33.492   6.330   3.855  1.00 20.00     0.157 A 
HETATM    5  N6  UNL     1     -34.981   4.615   4.579  1.00 20.00    -0.269 NA
HETATM    6  N7  UNL     1     -33.513   6.958   5.048  1.00 20.00    -0.254 NA
ENDROOT
BRANCH   4   7
HETATM    7  C5  UNL     1     -32.654   6.925   2.778  1.00 20.00     0.435 C 
HETATM    8  F8  UNL     1     -33.260   7.957   2.118  1.00 20.00    -0.165 F 
HETATM    9  F9  UNL     1     -31.468   7.438   3.225  1.00 20.00    -0.165 F 
HETATM   10  F10 UNL     1     -32.319   6.020   1.811  1.00 20.00    -0.165 F 
ENDBRANCH   4   7
TORSDOF 1
ENDMDL
MODEL 2
REMARK VINA RESULT:      -5.0      0.849      1.510
REMARK  1 active torsions:
REMARK  status: ('A' for Active; 'I' for Inactive)
REMARK    1  A    between atoms: C4_4  and  C5_5 
ROOT
HETATM    1  C1  UNL     1     -34.962   5.375   5.875  1.00 20.00     0.135 A 
HETATM    2  C2  UNL     1     -34.946   4.788   4.628  1.00 20.00     0.136 A 
HETATM    3  C3  UNL     1     -33.499   6.971   5.142  1.00 20.00     0.152 A 
HETATM    4  C4  UNL     1     -33.481   6.385   3.896  1.00 20.00     0.157 A 
HETATM    5  N6  UNL     1     -34.239   6.476   6.154  1.00 20.00    -0.269 NA
HETATM    6  N7  UNL     1     -34.205   5.283   3.616  1.00 20.00    -0.254 NA
ENDROOT
BRANCH   4   7
HETATM    7  C5  UNL     1     -32.650   6.959   2.802  1.00 20.00     0.435 C 
HETATM    8  F8  UNL     1     -33.252   7.992   2.139  1.00 20.00    -0.165 F 
HETATM    9  F9  UNL     1     -31.452   7.461   3.228  1.00 20.00    -0.165 F 
HETATM   10  F10 UNL     1     -32.339   6.041   1.840  1.00 20.00    -0.165 F 
ENDBRANCH   4   7
TORSDOF 1
ENDMDL
MODEL 3
REMARK VINA RESULT:      -4.4     16.338     16.946
REMARK  1 active torsions:
REMARK  status: ('A' for Active; 'I' for Inactive)
REMARK    1  A    between atoms: C4_4  and  C5_5 
ROOT
HETATM    1  C1  UNL     1     -24.355  18.906   7.511  1.00 20.00     0.135 A 
HETATM    2  C2  UNL     1     -25.121  19.115   8.638  1.00 20.00     0.136 A 
HETATM    3  C3  UNL     1     -22.746  17.908   8.793  1.00 20.00     0.152 A 
HETATM    4  C4  UNL     1     -23.510  18.118   9.919  1.00 20.00     0.157 A 
HETATM    5  N6  UNL     1     -23.153  18.299   7.569  1.00 20.00    -0.269 NA
HETATM    6  N7  UNL     1     -24.713  18.725   9.861  1.00 20.00    -0.254 NA
ENDROOT
BRANCH   4   7
HETATM    7  C5  UNL     1     -23.027  17.673  11.254  1.00 20.00     0.435 C 
HETATM    8  F8  UNL     1     -23.568  18.373  12.296  1.00 20.00    -0.165 F 
HETATM    9  F9  UNL     1     -23.300  16.362  11.529  1.00 20.00    -0.165 F 
HETATM   10  F10 UNL     1     -21.674  17.800  11.394  1.00 20.00    -0.165 F 
ENDBRANCH   4   7
TORSDOF 1
ENDMDL
MODEL 4
REMARK VINA RESULT:      -4.4      1.156      1.864
REMARK  1 active torsions:
REMARK  status: ('A' for Active; 'I' for Inactive)
REMARK    1  A    between atoms: C4_4  and  C5_5 
ROOT
HETATM    1  C1  UNL     1     -34.807   5.824   6.243  1.00 20.00     0.135 A 
HETATM    2  C2  UNL     1     -33.982   6.801   5.729  1.00 20.00     0.136 A 
HETATM    3  C3  UNL     1     -34.628   4.648   4.291  1.00 20.00     0.152 A 
HETATM    4  C4  UNL     1     -33.805   5.625   3.776  1.00 20.00     0.157 A 
HETATM    5  N6  UNL     1     -35.145   4.730   5.533  1.00 20.00    -0.269 NA
HETATM    6  N7  UNL     1     -33.466   6.719   4.487  1.00 20.00    -0.254 NA
ENDROOT
BRANCH   4   7
HETATM    7  C5  UNL     1     -33.254   5.501   2.399  1.00 20.00     0.435 C 
HETATM    8  F8  UNL     1     -32.500   4.377   2.207  1.00 20.00    -0.165 F 
HETATM    9  F9  UNL     1     -34.213   5.456   1.426  1.00 20.00    -0.165 F 
HETATM   10  F10 UNL     1     -32.441   6.545   2.061  1.00 20.00    -0.165 F 
ENDBRANCH   4   7
TORSDOF 1
ENDMDL
MODEL 5
REMARK VINA RESULT:      -4.3      2.740      3.851
REMARK  1 active torsions:
REMARK  status: ('A' for Active; 'I' for Inactive)
REMARK    1  A    between atoms: C4_4  and  C5_5 
ROOT
HETATM    1  C1  UNL     1     -31.876   7.605   3.254  1.00 20.00     0.135 A 
HETATM    2  C2  UNL     1     -32.438   6.662   2.420  1.00 20.00     0.136 A 
HETATM    3  C3  UNL     1     -33.312   6.982   4.921  1.00 20.00     0.152 A 
HETATM    4  C4  UNL     1     -33.874   6.041   4.088  1.00 20.00     0.157 A 
HETATM    5  N6  UNL     1     -32.303   7.782   4.520  1.00 20.00    -0.269 NA
HETATM    6  N7  UNL     1     -33.446   5.864   2.821  1.00 20.00    -0.254 NA
ENDROOT
BRANCH   4   7
HETATM    7  C5  UNL     1     -34.988   5.177   4.565  1.00 20.00     0.435 C 
HETATM    8  F8  UNL     1     -35.161   5.203   5.921  1.00 20.00    -0.165 F 
HETATM    9  F9  UNL     1     -36.206   5.513   4.045  1.00 20.00    -0.165 F 
HETATM   10  F10 UNL     1     -34.807   3.861   4.248  1.00 20.00    -0.165 F 
ENDBRANCH   4   7
TORSDOF 1
ENDMDL
MODEL 6
REMARK VINA RESULT:      -4.3      2.893      3.667
REMARK  1 active torsions:
REMARK  status: ('A' for Active; 'I' for Inactive)
REMARK    1  A    between atoms: C4_4  and  C5_5 
ROOT
HETATM    1  C1  UNL     1     -32.856   5.959   2.075  1.00 20.00     0.135 A 
HETATM    2  C2  UNL     1     -32.694   6.985   2.981  1.00 20.00     0.136 A 
HETATM    3  C3  UNL     1     -34.055   4.781   3.625  1.00 20.00     0.152 A 
HETATM    4  C4  UNL     1     -33.893   5.805   4.531  1.00 20.00     0.157 A 
HETATM    5  N6  UNL     1     -33.539   4.838   2.381  1.00 20.00    -0.269 NA
HETATM    6  N7  UNL     1     -33.210   6.927   4.224  1.00 20.00    -0.254 NA
ENDROOT
BRANCH   4   7
HETATM    7  C5  UNL     1     -34.476   5.706   5.897  1.00 20.00     0.435 C 
HETATM    8  F8  UNL     1     -34.525   6.899   6.562  1.00 20.00    -0.165 F 
HETATM    9  F9  UNL     1     -35.760   5.238   5.913  1.00 20.00    -0.165 F 
HETATM   10  F10 UNL     1     -33.771   4.865   6.711  1.00 20.00    -0.165 F 
ENDBRANCH   4   7
TORSDOF 1
ENDMDL
MODEL 7
REMARK VINA RESULT:      -4.3      2.945      3.963
REMARK  1 active torsions:
REMARK  status: ('A' for Active; 'I' for Inactive)
REMARK    1  A    between atoms: C4_4  and  C5_5 
ROOT
HETATM    1  C1  UNL     1     -32.853   6.036   2.095  1.00 20.00     0.135 A 
HETATM    2  C2  UNL     1     -33.487   4.866   2.454  1.00 20.00     0.136 A 
HETATM    3  C3  UNL     1     -33.294   6.909   4.161  1.00 20.00     0.152 A 
HETATM    4  C4  UNL     1     -33.928   5.741   4.521  1.00 20.00     0.157 A 
HETATM    5  N6  UNL     1     -32.745   7.078   2.941  1.00 20.00    -0.269 NA
HETATM    6  N7  UNL     1     -34.035   4.698   3.673  1.00 20.00    -0.254 NA
ENDROOT
BRANCH   4   7
HETATM    7  C5  UNL     1     -34.524   5.591   5.877  1.00 20.00     0.435 C 
HETATM    8  F8  UNL     1     -35.786   5.067   5.867  1.00 20.00    -0.165 F 
HETATM    9  F9  UNL     1     -33.806   4.772   6.704  1.00 20.00    -0.165 F 
HETATM   10  F10 UNL     1     -34.628   6.780   6.541  1.00 20.00    -0.165 F 
ENDBRANCH   4   7
TORSDOF 1
ENDMDL
MODEL 8
REMARK VINA RESULT:      -4.2     11.602     12.175
REMARK  1 active torsions:
REMARK  status: ('A' for Active; 'I' for Inactive)
REMARK    1  A    between atoms: C4_4  and  C5_5 
ROOT
HETATM    1  C1  UNL     1     -38.549  15.121  -4.283  1.00 20.00     0.135 A 
HETATM    2  C2  UNL     1     -37.885  16.264  -3.894  1.00 20.00     0.136 A 
HETATM    3  C3  UNL     1     -36.568  13.980  -4.311  1.00 20.00     0.152 A 
HETATM    4  C4  UNL     1     -35.904  15.123  -3.923  1.00 20.00     0.157 A 
HETATM    5  N6  UNL     1     -37.903  13.958  -4.499  1.00 20.00    -0.269 NA
HETATM    6  N7  UNL     1     -36.551  16.285  -3.707  1.00 20.00    -0.254 NA
ENDROOT
BRANCH   4   7
HETATM    7  C5  UNL     1     -34.428  15.109  -3.726  1.00 20.00     0.435 C 
HETATM    8  F8  UNL     1     -33.751  15.921  -4.593  1.00 20.00    -0.165 F 
HETATM    9  F9  UNL     1     -34.037  15.516  -2.481  1.00 20.00    -0.165 F 
HETATM   10  F10 UNL     1     -33.886  13.867  -3.891  1.00 20.00    -0.165 F 
ENDBRANCH   4   7
TORSDOF 1
ENDMDL
MODEL 9
REMARK VINA RESULT:      -4.1     15.395     16.050
REMARK  1 active torsions:
REMARK  status: ('A' for Active; 'I' for Inactive)
REMARK    1  A    between atoms: C4_4  and  C5_5 
ROOT
HETATM    1  C1  UNL     1     -25.478  16.811  12.326  1.00 20.00     0.135 A 
HETATM    2  C2  UNL     1     -24.668  15.972  11.592  1.00 20.00     0.136 A 
HETATM    3  C3  UNL     1     -25.058  18.506  10.851  1.00 20.00     0.152 A 
HETATM    4  C4  UNL     1     -24.247  17.669  10.117  1.00 20.00     0.157 A 
HETATM    5  N6  UNL     1     -25.688  18.093  11.968  1.00 20.00    -0.269 NA
HETATM    6  N7  UNL     1     -24.038  16.386  10.475  1.00 20.00    -0.254 NA
ENDROOT
BRANCH   4   7
HETATM    7  C5  UNL     1     -23.566  18.161   8.888  1.00 20.00     0.435 C 
HETATM    8  F8  UNL     1     -22.730  17.242   8.318  1.00 20.00    -0.165 F 
HETATM    9  F9  UNL     1     -24.429  18.523   7.891  1.00 20.00    -0.165 F 
HETATM   10  F10 UNL     1     -22.793  19.263   9.120  1.00 20.00    -0.165 F 
ENDBRANCH   4   7
TORSDOF 1
ENDMDL
