MODEL 1
REMARK VINA RESULT:      -4.7      0.000      0.000
REMARK  3 active torsions:
REMARK  status: ('A' for Active; 'I' for Inactive)
REMARK    1  A    between atoms: C4_4  and  C7_7 
REMARK    2  A    between atoms: C6_6  and  N9_9 
REMARK    3  A    between atoms: C7_7  and  N9_9 
ROOT
HETATM    1  C1  UNL     1     -32.727   8.443   1.170  1.00 20.00     0.089 C 
HETATM    2  C6  UNL     1     -32.502   7.145   1.803  1.00 20.00     0.393 C 
HETATM    3  N8  UNL     1     -32.904   9.471   0.664  1.00 20.00    -0.195 NA
ENDROOT
BRANCH   2   4
HETATM    4  N9  UNL     1     -32.771   7.211   3.224  1.00 20.00     0.100 N 
HETATM    5  H21 UNL     1     -31.926   7.438   3.732  1.00 20.00     0.317 HD
BRANCH   4   6
HETATM    6  C7  UNL     1     -33.251   5.894   3.710  1.00 20.00     0.221 C 
HETATM    7  C5  UNL     1     -33.600   5.025   2.510  1.00 20.00     0.043 C 
BRANCH   6   8
HETATM    8  C4  UNL     1     -34.453   6.107   4.620  1.00 20.00     0.018 A 
HETATM    9  C2  UNL     1     -34.702   5.176   5.775  1.00 20.00     0.007 A 
HETATM   10  C3  UNL     1     -34.256   6.589   6.031  1.00 20.00     0.007 A 
ENDBRANCH   6   8
ENDBRANCH   4   6
ENDBRANCH   2   4
TORSDOF 3
ENDMDL
MODEL 2
REMARK VINA RESULT:      -4.2     11.222     11.634
REMARK  3 active torsions:
REMARK  status: ('A' for Active; 'I' for Inactive)
REMARK    1  A    between atoms: C4_4  and  C7_7 
REMARK    2  A    between atoms: C6_6  and  N9_9 
REMARK    3  A    between atoms: C7_7  and  N9_9 
ROOT
HETATM    1  C1  UNL     1     -36.941  14.160  -4.607  1.00 20.00     0.089 C 
HETATM    2  C6  UNL     1     -35.549  14.375  -4.999  1.00 20.00     0.393 C 
HETATM    3  N8  UNL     1     -38.045  13.984  -4.297  1.00 20.00    -0.195 NA
ENDROOT
BRANCH   2   4
HETATM    4  N9  UNL     1     -35.162  15.754  -4.788  1.00 20.00     0.100 N 
HETATM    5  H21 UNL     1     -35.019  16.220  -5.674  1.00 20.00     0.317 HD
BRANCH   4   6
HETATM    6  C7  UNL     1     -33.885  15.812  -4.035  1.00 20.00     0.221 C 
HETATM    7  C5  UNL     1     -33.040  14.602  -4.407  1.00 20.00     0.043 C 
BRANCH   6   8
HETATM    8  C4  UNL     1     -34.188  15.852  -2.544  1.00 20.00     0.018 A 
HETATM    9  C2  UNL     1     -33.941  17.108  -1.754  1.00 20.00     0.007 A 
HETATM   10  C3  UNL     1     -35.348  16.657  -2.029  1.00 20.00     0.007 A 
ENDBRANCH   6   8
ENDBRANCH   4   6
ENDBRANCH   2   4
TORSDOF 3
ENDMDL
MODEL 3
REMARK VINA RESULT:      -4.2     15.493     16.352
REMARK  3 active torsions:
REMARK  status: ('A' for Active; 'I' for Inactive)
REMARK    1  A    between atoms: C4_4  and  C7_7 
REMARK    2  A    between atoms: C6_6  and  N9_9 
REMARK    3  A    between atoms: C7_7  and  N9_9 
ROOT
HETATM    1  C1  UNL     1     -24.599  19.177   7.520  1.00 20.00     0.089 C 
HETATM    2  C6  UNL     1     -25.151  19.232   8.872  1.00 20.00     0.393 C 
HETATM    3  N8  UNL     1     -24.165  19.134   6.445  1.00 20.00    -0.195 NA
ENDROOT
BRANCH   2   4
HETATM    4  N9  UNL     1     -24.158  18.842   9.851  1.00 20.00     0.100 N 
HETATM    5  H21 UNL     1     -23.304  19.366   9.715  1.00 20.00     0.317 HD
BRANCH   4   6
HETATM    6  C7  UNL     1     -23.834  17.402   9.696  1.00 20.00     0.221 C 
HETATM    7  C5  UNL     1     -24.459  16.632  10.850  1.00 20.00     0.043 C 
BRANCH   6   8
HETATM    8  C4  UNL     1     -22.321  17.234   9.659  1.00 20.00     0.018 A 
HETATM    9  C2  UNL     1     -21.595  17.212   8.342  1.00 20.00     0.007 A 
HETATM   10  C3  UNL     1     -21.441  18.388   9.266  1.00 20.00     0.007 A 
ENDBRANCH   6   8
ENDBRANCH   4   6
ENDBRANCH   2   4
TORSDOF 3
ENDMDL
MODEL 4
REMARK VINA RESULT:      -4.1     15.959     16.391
REMARK  3 active torsions:
REMARK  status: ('A' for Active; 'I' for Inactive)
REMARK    1  A    between atoms: C4_4  and  C7_7 
REMARK    2  A    between atoms: C6_6  and  N9_9 
REMARK    3  A    between atoms: C7_7  and  N9_9 
ROOT
HETATM    1  C1  UNL     1     -23.833  18.483   8.053  1.00 20.00     0.089 C 
HETATM    2  C6  UNL     1     -25.017  18.901   8.801  1.00 20.00     0.393 C 
HETATM    3  N8  UNL     1     -22.895  18.150   7.456  1.00 20.00    -0.195 NA
ENDROOT
BRANCH   2   4
HETATM    4  N9  UNL     1     -24.668  19.262  10.158  1.00 20.00     0.100 N 
HETATM    5  H21 UNL     1     -23.663  19.265  10.276  1.00 20.00     0.317 HD
BRANCH   4   6
HETATM    6  C7  UNL     1     -25.232  18.271  11.107  1.00 20.00     0.221 C 
HETATM    7  C5  UNL     1     -26.360  18.927  11.890  1.00 20.00     0.043 C 
BRANCH   6   8
HETATM    8  C4  UNL     1     -24.124  17.774  12.025  1.00 20.00     0.018 A 
HETATM    9  C2  UNL     1     -23.676  16.339  11.962  1.00 20.00     0.007 A 
HETATM   10  C3  UNL     1     -22.772  17.432  11.462  1.00 20.00     0.007 A 
ENDBRANCH   6   8
ENDBRANCH   4   6
ENDBRANCH   2   4
TORSDOF 3
ENDMDL
MODEL 5
REMARK VINA RESULT:      -4.0      1.176      1.593
REMARK  3 active torsions:
REMARK  status: ('A' for Active; 'I' for Inactive)
REMARK    1  A    between atoms: C4_4  and  C7_7 
REMARK    2  A    between atoms: C6_6  and  N9_9 
REMARK    3  A    between atoms: C7_7  and  N9_9 
ROOT
HETATM    1  C1  UNL     1     -32.559   8.022   1.410  1.00 20.00     0.089 C 
HETATM    2  C6  UNL     1     -32.139   7.274   2.593  1.00 20.00     0.393 C 
HETATM    3  N8  UNL     1     -32.888   8.619   0.471  1.00 20.00    -0.195 NA
ENDROOT
BRANCH   2   4
HETATM    4  N9  UNL     1     -33.107   6.251   2.926  1.00 20.00     0.100 N 
HETATM    5  H21 UNL     1     -33.665   6.015   2.115  1.00 20.00     0.317 HD
BRANCH   4   6
HETATM    6  C7  UNL     1     -34.027   6.748   3.978  1.00 20.00     0.221 C 
HETATM    7  C5  UNL     1     -33.204   7.226   5.165  1.00 20.00     0.043 C 
BRANCH   6   8
HETATM    8  C4  UNL     1     -34.986   5.632   4.369  1.00 20.00     0.018 A 
HETATM    9  C2  UNL     1     -34.503   4.210   4.441  1.00 20.00     0.007 A 
HETATM   10  C3  UNL     1     -34.849   4.950   5.702  1.00 20.00     0.007 A 
ENDBRANCH   6   8
ENDBRANCH   4   6
ENDBRANCH   2   4
TORSDOF 3
ENDMDL
MODEL 6
REMARK VINA RESULT:      -3.9     15.418     16.104
REMARK  3 active torsions:
REMARK  status: ('A' for Active; 'I' for Inactive)
REMARK    1  A    between atoms: C4_4  and  C7_7 
REMARK    2  A    between atoms: C6_6  and  N9_9 
REMARK    3  A    between atoms: C7_7  and  N9_9 
ROOT
HETATM    1  C1  UNL     1     -25.252  19.007   7.298  1.00 20.00     0.089 C 
HETATM    2  C6  UNL     1     -24.685  19.242   8.624  1.00 20.00     0.393 C 
HETATM    3  N8  UNL     1     -25.701  18.824   6.244  1.00 20.00    -0.195 NA
ENDROOT
BRANCH   2   4
HETATM    4  N9  UNL     1     -24.643  18.016   9.392  1.00 20.00     0.100 N 
HETATM    5  H21 UNL     1     -25.198  18.105  10.232  1.00 20.00     0.317 HD
BRANCH   4   6
HETATM    6  C7  UNL     1     -23.247  17.723   9.802  1.00 20.00     0.221 C 
HETATM    7  C5  UNL     1     -22.625  16.776   8.786  1.00 20.00     0.043 C 
BRANCH   6   8
HETATM    8  C4  UNL     1     -23.254  17.125  11.201  1.00 20.00     0.018 A 
HETATM    9  C2  UNL     1     -22.563  17.836  12.332  1.00 20.00     0.007 A 
HETATM   10  C3  UNL     1     -24.064  17.766  12.294  1.00 20.00     0.007 A 
ENDBRANCH   6   8
ENDBRANCH   4   6
ENDBRANCH   2   4
TORSDOF 3
ENDMDL
MODEL 7
REMARK VINA RESULT:      -3.9     11.085     11.924
REMARK  3 active torsions:
REMARK  status: ('A' for Active; 'I' for Inactive)
REMARK    1  A    between atoms: C4_4  and  C7_7 
REMARK    2  A    between atoms: C6_6  and  N9_9 
REMARK    3  A    between atoms: C7_7  and  N9_9 
ROOT
HETATM    1  C1  UNL     1     -31.632  18.298  -0.932  1.00 20.00     0.089 C 
HETATM    2  C6  UNL     1     -32.905  18.149  -1.633  1.00 20.00     0.393 C 
HETATM    3  N8  UNL     1     -30.623  18.420  -0.373  1.00 20.00    -0.195 NA
ENDROOT
BRANCH   2   4
HETATM    4  N9  UNL     1     -32.900  16.965  -2.465  1.00 20.00     0.100 N 
HETATM    5  H21 UNL     1     -32.463  17.160  -3.356  1.00 20.00     0.317 HD
BRANCH   4   6
HETATM    6  C7  UNL     1     -34.293  16.527  -2.732  1.00 20.00     0.221 C 
HETATM    7  C5  UNL     1     -35.088  16.605  -1.437  1.00 20.00     0.043 C 
BRANCH   6   8
HETATM    8  C4  UNL     1     -34.271  15.114  -3.297  1.00 20.00     0.018 A 
HETATM    9  C2  UNL     1     -34.711  14.858  -4.712  1.00 20.00     0.007 A 
HETATM   10  C3  UNL     1     -33.259  14.733  -4.341  1.00 20.00     0.007 A 
ENDBRANCH   6   8
ENDBRANCH   4   6
ENDBRANCH   2   4
TORSDOF 3
ENDMDL
MODEL 8
REMARK VINA RESULT:      -3.9     11.136     11.884
REMARK  3 active torsions:
REMARK  status: ('A' for Active; 'I' for Inactive)
REMARK    1  A    between atoms: C4_4  and  C7_7 
REMARK    2  A    between atoms: C6_6  and  N9_9 
REMARK    3  A    between atoms: C7_7  and  N9_9 
ROOT
HETATM    1  C1  UNL     1     -37.488  14.843  -4.117  1.00 20.00     0.089 C 
HETATM    2  C6  UNL     1     -36.703  16.014  -3.731  1.00 20.00     0.393 C 
HETATM    3  N8  UNL     1     -38.114  13.917  -4.427  1.00 20.00    -0.195 NA
ENDROOT
BRANCH   2   4
HETATM    4  N9  UNL     1     -35.612  15.637  -2.857  1.00 20.00     0.100 N 
HETATM    5  H21 UNL     1     -35.648  16.169  -1.998  1.00 20.00     0.317 HD
BRANCH   4   6
HETATM    6  C7  UNL     1     -34.314  15.927  -3.515  1.00 20.00     0.221 C 
HETATM    7  C5  UNL     1     -33.777  14.642  -4.129  1.00 20.00     0.043 C 
BRANCH   6   8
HETATM    8  C4  UNL     1     -33.353  16.505  -2.485  1.00 20.00     0.018 A 
HETATM    9  C2  UNL     1     -32.873  17.925  -2.611  1.00 20.00     0.007 A 
HETATM   10  C3  UNL     1     -33.826  17.548  -1.511  1.00 20.00     0.007 A 
ENDBRANCH   6   8
ENDBRANCH   4   6
ENDBRANCH   2   4
TORSDOF 3
ENDMDL
MODEL 9
REMARK VINA RESULT:      -3.8     10.887     11.923
REMARK  3 active torsions:
REMARK  status: ('A' for Active; 'I' for Inactive)
REMARK    1  A    between atoms: C4_4  and  C7_7 
REMARK    2  A    between atoms: C6_6  and  N9_9 
REMARK    3  A    between atoms: C7_7  and  N9_9 
ROOT
HETATM    1  C1  UNL     1     -37.667  15.030  -4.138  1.00 20.00     0.089 C 
HETATM    2  C6  UNL     1     -37.500  16.435  -3.773  1.00 20.00     0.393 C 
HETATM    3  N8  UNL     1     -37.805  13.915  -4.427  1.00 20.00    -0.195 NA
ENDROOT
BRANCH   2   4
HETATM    4  N9  UNL     1     -36.097  16.785  -3.702  1.00 20.00     0.100 N 
HETATM    5  H21 UNL     1     -35.660  16.680  -4.608  1.00 20.00     0.317 HD
BRANCH   4   6
HETATM    6  C7  UNL     1     -35.397  15.881  -2.756  1.00 20.00     0.221 C 
HETATM    7  C5  UNL     1     -35.167  16.623  -1.447  1.00 20.00     0.043 C 
BRANCH   6   8
HETATM    8  C4  UNL     1     -34.087  15.422  -3.382  1.00 20.00     0.018 A 
HETATM    9  C2  UNL     1     -33.993  14.070  -4.032  1.00 20.00     0.007 A 
HETATM   10  C3  UNL     1     -33.961  15.313  -4.876  1.00 20.00     0.007 A 
ENDBRANCH   6   8
ENDBRANCH   4   6
ENDBRANCH   2   4
TORSDOF 3
ENDMDL
