MODEL 1
REMARK VINA RESULT:      -4.4      0.000      0.000
REMARK  3 active torsions:
REMARK  status: ('A' for Active; 'I' for Inactive)
REMARK    1  A    between atoms: C4_4  and  C7_7 
REMARK    2  A    between atoms: C6_6  and  N9_9 
REMARK    3  A    between atoms: C7_7  and  N9_9 
ROOT
HETATM    1  C1  UNL     1     -32.676   8.249   1.239  1.00 20.00     0.089 C 
HETATM    2  C6  UNL     1     -32.402   7.110   2.112  1.00 20.00     0.393 C 
HETATM    3  N8  UNL     1     -32.892   9.154   0.545  1.00 20.00    -0.195 NA
ENDROOT
BRANCH   2   4
HETATM    4  N9  UNL     1     -33.230   7.157   3.298  1.00 20.00     0.100 N 
HETATM    5  H21 UNL     1     -32.663   7.321   4.118  1.00 20.00     0.317 HD
BRANCH   4   6
HETATM    6  C7  UNL     1     -33.926   5.858   3.481  1.00 20.00     0.221 C 
HETATM    7  C5  UNL     1     -33.277   4.821   2.576  1.00 20.00     0.043 C 
BRANCH   6   8
HETATM    8  C4  UNL     1     -33.849   5.455   4.946  1.00 20.00     0.018 A 
HETATM    9  C2  UNL     1     -34.164   6.455   6.024  1.00 20.00     0.007 A 
HETATM   10  C3  UNL     1     -35.106   5.314   5.759  1.00 20.00     0.007 A 
ENDBRANCH   6   8
ENDBRANCH   4   6
ENDBRANCH   2   4
TORSDOF 3
ENDMDL
MODEL 2
REMARK VINA RESULT:      -4.2     16.159     16.851
REMARK  3 active torsions:
REMARK  status: ('A' for Active; 'I' for Inactive)
REMARK    1  A    between atoms: C4_4  and  C7_7 
REMARK    2  A    between atoms: C6_6  and  N9_9 
REMARK    3  A    between atoms: C7_7  and  N9_9 
ROOT
HETATM    1  C1  UNL     1     -22.203  17.583   8.668  1.00 20.00     0.089 C 
HETATM    2  C6  UNL     1     -22.283  18.388   9.886  1.00 20.00     0.393 C 
HETATM    3  N8  UNL     1     -22.138  16.944   7.702  1.00 20.00    -0.195 NA
ENDROOT
BRANCH   2   4
HETATM    4  N9  UNL     1     -23.660  18.575  10.291  1.00 20.00     0.100 N 
HETATM    5  H21 UNL     1     -23.836  19.549  10.499  1.00 20.00     0.317 HD
BRANCH   4   6
HETATM    6  C7  UNL     1     -23.936  17.791  11.521  1.00 20.00     0.221 C 
HETATM    7  C5  UNL     1     -22.653  17.680  12.332  1.00 20.00     0.043 C 
BRANCH   6   8
HETATM    8  C4  UNL     1     -25.043  18.476  12.309  1.00 20.00     0.018 A 
HETATM    9  C2  UNL     1     -26.162  19.177  11.588  1.00 20.00     0.007 A 
HETATM   10  C3  UNL     1     -26.430  17.894  12.326  1.00 20.00     0.007 A 
ENDBRANCH   6   8
ENDBRANCH   4   6
ENDBRANCH   2   4
TORSDOF 3
ENDMDL
MODEL 3
REMARK VINA RESULT:      -4.0     15.402     16.064
REMARK  3 active torsions:
REMARK  status: ('A' for Active; 'I' for Inactive)
REMARK    1  A    between atoms: C4_4  and  C7_7 
REMARK    2  A    between atoms: C6_6  and  N9_9 
REMARK    3  A    between atoms: C7_7  and  N9_9 
ROOT
HETATM    1  C1  UNL     1     -24.497  19.150   7.501  1.00 20.00     0.089 C 
HETATM    2  C6  UNL     1     -24.876  19.132   8.912  1.00 20.00     0.393 C 
HETATM    3  N8  UNL     1     -24.199  19.164   6.379  1.00 20.00    -0.195 NA
ENDROOT
BRANCH   2   4
HETATM    4  N9  UNL     1     -23.736  18.820   9.748  1.00 20.00     0.100 N 
HETATM    5  H21 UNL     1     -22.904  19.269   9.391  1.00 20.00     0.317 HD
BRANCH   4   6
HETATM    6  C7  UNL     1     -23.497  17.355   9.750  1.00 20.00     0.221 C 
HETATM    7  C5  UNL     1     -22.151  17.076   9.096  1.00 20.00     0.043 C 
BRANCH   6   8
HETATM    8  C4  UNL     1     -23.543  16.846  11.184  1.00 20.00     0.018 A 
HETATM    9  C2  UNL     1     -24.641  17.290  12.110  1.00 20.00     0.007 A 
HETATM   10  C3  UNL     1     -24.609  15.874  11.608  1.00 20.00     0.007 A 
ENDBRANCH   6   8
ENDBRANCH   4   6
ENDBRANCH   2   4
TORSDOF 3
ENDMDL
MODEL 4
REMARK VINA RESULT:      -3.9     15.603     16.212
REMARK  3 active torsions:
REMARK  status: ('A' for Active; 'I' for Inactive)
REMARK    1  A    between atoms: C4_4  and  C7_7 
REMARK    2  A    between atoms: C6_6  and  N9_9 
REMARK    3  A    between atoms: C7_7  and  N9_9 
ROOT
HETATM    1  C1  UNL     1     -21.490  17.311   7.819  1.00 20.00     0.089 C 
HETATM    2  C6  UNL     1     -21.737  17.943   9.113  1.00 20.00     0.393 C 
HETATM    3  N8  UNL     1     -21.293  16.811   6.790  1.00 20.00    -0.195 NA
ENDROOT
BRANCH   2   4
HETATM    4  N9  UNL     1     -22.432  17.039  10.004  1.00 20.00     0.100 N 
HETATM    5  H21 UNL     1     -22.729  16.211   9.506  1.00 20.00     0.317 HD
BRANCH   4   6
HETATM    6  C7  UNL     1     -23.645  17.698  10.550  1.00 20.00     0.221 C 
HETATM    7  C5  UNL     1     -24.175  18.683   9.518  1.00 20.00     0.043 C 
BRANCH   6   8
HETATM    8  C4  UNL     1     -24.676  16.634  10.896  1.00 20.00     0.018 A 
HETATM    9  C2  UNL     1     -24.385  15.617  11.965  1.00 20.00     0.007 A 
HETATM   10  C3  UNL     1     -25.409  16.690  12.208  1.00 20.00     0.007 A 
ENDBRANCH   6   8
ENDBRANCH   4   6
ENDBRANCH   2   4
TORSDOF 3
ENDMDL
MODEL 5
REMARK VINA RESULT:      -3.9     11.168     11.741
REMARK  3 active torsions:
REMARK  status: ('A' for Active; 'I' for Inactive)
REMARK    1  A    between atoms: C4_4  and  C7_7 
REMARK    2  A    between atoms: C6_6  and  N9_9 
REMARK    3  A    between atoms: C7_7  and  N9_9 
ROOT
HETATM    1  C1  UNL     1     -37.259  14.075  -4.577  1.00 20.00     0.089 C 
HETATM    2  C6  UNL     1     -35.883  13.903  -5.036  1.00 20.00     0.393 C 
HETATM    3  N8  UNL     1     -38.353  14.211  -4.214  1.00 20.00    -0.195 NA
ENDROOT
BRANCH   2   4
HETATM    4  N9  UNL     1     -34.961  13.917  -3.921  1.00 20.00     0.100 N 
HETATM    5  H21 UNL     1     -35.420  14.261  -3.088  1.00 20.00     0.317 HD
BRANCH   4   6
HETATM    6  C7  UNL     1     -33.822  14.822  -4.217  1.00 20.00     0.221 C 
HETATM    7  C5  UNL     1     -33.665  14.937  -5.726  1.00 20.00     0.043 C 
BRANCH   6   8
HETATM    8  C4  UNL     1     -34.083  16.176  -3.572  1.00 20.00     0.018 A 
HETATM    9  C2  UNL     1     -34.536  16.258  -2.141  1.00 20.00     0.007 A 
HETATM   10  C3  UNL     1     -33.151  16.705  -2.517  1.00 20.00     0.007 A 
ENDBRANCH   6   8
ENDBRANCH   4   6
ENDBRANCH   2   4
TORSDOF 3
ENDMDL
MODEL 6
REMARK VINA RESULT:      -3.9     11.163     11.993
REMARK  3 active torsions:
REMARK  status: ('A' for Active; 'I' for Inactive)
REMARK    1  A    between atoms: C4_4  and  C7_7 
REMARK    2  A    between atoms: C6_6  and  N9_9 
REMARK    3  A    between atoms: C7_7  and  N9_9 
ROOT
HETATM    1  C1  UNL     1     -36.286  13.856  -4.533  1.00 20.00     0.089 C 
HETATM    2  C6  UNL     1     -36.741  15.237  -4.382  1.00 20.00     0.393 C 
HETATM    3  N8  UNL     1     -35.926  12.760  -4.656  1.00 20.00    -0.195 NA
ENDROOT
BRANCH   2   4
HETATM    4  N9  UNL     1     -36.637  15.666  -3.003  1.00 20.00     0.100 N 
HETATM    5  H21 UNL     1     -37.528  16.012  -2.674  1.00 20.00     0.317 HD
BRANCH   4   6
HETATM    6  C7  UNL     1     -35.652  16.769  -2.889  1.00 20.00     0.221 C 
HETATM    7  C5  UNL     1     -36.197  17.820  -1.933  1.00 20.00     0.043 C 
BRANCH   6   8
HETATM    8  C4  UNL     1     -34.324  16.203  -2.407  1.00 20.00     0.018 A 
HETATM    9  C2  UNL     1     -33.278  15.776  -3.399  1.00 20.00     0.007 A 
HETATM   10  C3  UNL     1     -33.060  17.003  -2.558  1.00 20.00     0.007 A 
ENDBRANCH   6   8
ENDBRANCH   4   6
ENDBRANCH   2   4
TORSDOF 3
ENDMDL
MODEL 7
REMARK VINA RESULT:      -3.9     10.998     11.993
REMARK  3 active torsions:
REMARK  status: ('A' for Active; 'I' for Inactive)
REMARK    1  A    between atoms: C4_4  and  C7_7 
REMARK    2  A    between atoms: C6_6  and  N9_9 
REMARK    3  A    between atoms: C7_7  and  N9_9 
ROOT
HETATM    1  C1  UNL     1     -31.689  18.244  -0.952  1.00 20.00     0.089 C 
HETATM    2  C6  UNL     1     -32.991  18.073  -1.592  1.00 20.00     0.393 C 
HETATM    3  N8  UNL     1     -30.655  18.381  -0.442  1.00 20.00    -0.195 NA
ENDROOT
BRANCH   2   4
HETATM    4  N9  UNL     1     -32.941  17.029  -2.594  1.00 20.00     0.100 N 
HETATM    5  H21 UNL     1     -33.046  17.422  -3.519  1.00 20.00     0.317 HD
BRANCH   4   6
HETATM    6  C7  UNL     1     -34.053  16.069  -2.380  1.00 20.00     0.221 C 
HETATM    7  C5  UNL     1     -35.186  16.783  -1.658  1.00 20.00     0.043 C 
BRANCH   6   8
HETATM    8  C4  UNL     1     -34.501  15.520  -3.728  1.00 20.00     0.018 A 
HETATM    9  C2  UNL     1     -33.547  14.725  -4.575  1.00 20.00     0.007 A 
HETATM   10  C3  UNL     1     -34.709  14.042  -3.910  1.00 20.00     0.007 A 
ENDBRANCH   6   8
ENDBRANCH   4   6
ENDBRANCH   2   4
TORSDOF 3
ENDMDL
MODEL 8
REMARK VINA RESULT:      -3.9     15.324     16.020
REMARK  3 active torsions:
REMARK  status: ('A' for Active; 'I' for Inactive)
REMARK    1  A    between atoms: C4_4  and  C7_7 
REMARK    2  A    between atoms: C6_6  and  N9_9 
REMARK    3  A    between atoms: C7_7  and  N9_9 
ROOT
HETATM    1  C1  UNL     1     -24.638  19.109   7.404  1.00 20.00     0.089 C 
HETATM    2  C6  UNL     1     -24.483  19.263   8.849  1.00 20.00     0.393 C 
HETATM    3  N8  UNL     1     -24.759  18.989   6.256  1.00 20.00    -0.195 NA
ENDROOT
BRANCH   2   4
HETATM    4  N9  UNL     1     -25.480  18.491   9.560  1.00 20.00     0.100 N 
HETATM    5  H21 UNL     1     -26.404  18.863   9.386  1.00 20.00     0.317 HD
BRANCH   4   6
HETATM    6  C7  UNL     1     -25.229  18.563  11.021  1.00 20.00     0.221 C 
HETATM    7  C5  UNL     1     -26.451  19.162  11.701  1.00 20.00     0.043 C 
BRANCH   6   8
HETATM    8  C4  UNL     1     -24.921  17.167  11.542  1.00 20.00     0.018 A 
HETATM    9  C2  UNL     1     -24.162  16.190  10.686  1.00 20.00     0.007 A 
HETATM   10  C3  UNL     1     -23.511  16.787  11.903  1.00 20.00     0.007 A 
ENDBRANCH   6   8
ENDBRANCH   4   6
ENDBRANCH   2   4
TORSDOF 3
ENDMDL
MODEL 9
REMARK VINA RESULT:      -3.9     15.480     16.221
REMARK  3 active torsions:
REMARK  status: ('A' for Active; 'I' for Inactive)
REMARK    1  A    between atoms: C4_4  and  C7_7 
REMARK    2  A    between atoms: C6_6  and  N9_9 
REMARK    3  A    between atoms: C7_7  and  N9_9 
ROOT
HETATM    1  C1  UNL     1     -22.814  17.790   8.210  1.00 20.00     0.089 C 
HETATM    2  C6  UNL     1     -23.782  18.778   8.684  1.00 20.00     0.393 C 
HETATM    3  N8  UNL     1     -22.045  17.007   7.834  1.00 20.00    -0.195 NA
ENDROOT
BRANCH   2   4
HETATM    4  N9  UNL     1     -24.885  18.134   9.365  1.00 20.00     0.100 N 
HETATM    5  H21 UNL     1     -25.764  18.400   8.943  1.00 20.00     0.317 HD
BRANCH   4   6
HETATM    6  C7  UNL     1     -24.918  18.559  10.787  1.00 20.00     0.221 C 
HETATM    7  C5  UNL     1     -26.239  19.263  11.059  1.00 20.00     0.043 C 
BRANCH   6   8
HETATM    8  C4  UNL     1     -24.737  17.336  11.675  1.00 20.00     0.018 A 
HETATM    9  C2  UNL     1     -24.303  16.025  11.079  1.00 20.00     0.007 A 
HETATM   10  C3  UNL     1     -23.359  16.801  11.955  1.00 20.00     0.007 A 
ENDBRANCH   6   8
ENDBRANCH   4   6
ENDBRANCH   2   4
TORSDOF 3
ENDMDL
