MODEL 1
REMARK VINA RESULT:      -5.7      0.000      0.000
REMARK  1 active torsions:
REMARK  status: ('A' for Active; 'I' for Inactive)
REMARK    1  A    between atoms: C7_7  and  O9_9 
ROOT
HETATM    1  C1  UNL     1     -32.767   7.083   2.571  1.00 20.00     0.097 C 
HETATM    2  C2  UNL     1     -33.350   7.105   4.886  1.00 20.00    -0.006 C 
HETATM    3  C3  UNL     1     -33.479   6.531   3.676  1.00 20.00     0.047 C 
HETATM    4  C4  UNL     1     -34.054   6.619   6.119  1.00 20.00     0.028 C 
HETATM    5  C5  UNL     1     -34.703   5.246   5.951  1.00 20.00     0.007 C 
HETATM    6  C6  UNL     1     -35.390   5.127   4.592  1.00 20.00     0.037 C 
HETATM    7  C7  UNL     1     -34.395   5.351   3.447  1.00 20.00     0.161 C 
HETATM    8  N8  UNL     1     -32.186   7.532   1.671  1.00 20.00    -0.192 NA
ENDROOT
BRANCH   7   9
HETATM    9  O9  UNL     1     -33.609   4.168   3.299  1.00 20.00    -0.390 OA
HETATM   10  H18 UNL     1     -33.693   3.896   2.373  1.00 20.00     0.210 HD
ENDBRANCH   7   9
TORSDOF 1
ENDMDL
MODEL 2
REMARK VINA RESULT:      -4.9     12.231     12.527
REMARK  1 active torsions:
REMARK  status: ('A' for Active; 'I' for Inactive)
REMARK    1  A    between atoms: C7_7  and  O9_9 
ROOT
HETATM    1  C1  UNL     1     -36.805  14.359  -4.157  1.00 20.00     0.097 C 
HETATM    2  C2  UNL     1     -35.400  15.642  -2.715  1.00 20.00    -0.006 C 
HETATM    3  C3  UNL     1     -35.534  14.926  -3.846  1.00 20.00     0.047 C 
HETATM    4  C4  UNL     1     -34.114  16.279  -2.278  1.00 20.00     0.028 C 
HETATM    5  C5  UNL     1     -33.040  16.295  -3.365  1.00 20.00     0.007 C 
HETATM    6  C6  UNL     1     -33.007  14.968  -4.122  1.00 20.00     0.037 C 
HETATM    7  C7  UNL     1     -34.365  14.666  -4.767  1.00 20.00     0.161 C 
HETATM    8  N8  UNL     1     -37.840  13.899  -4.411  1.00 20.00    -0.192 NA
ENDROOT
BRANCH   7   9
HETATM    9  O9  UNL     1     -34.497  15.479  -5.934  1.00 20.00    -0.390 OA
HETATM   10  H18 UNL     1     -33.611  15.554  -6.318  1.00 20.00     0.210 HD
ENDBRANCH   7   9
TORSDOF 1
ENDMDL
MODEL 3
REMARK VINA RESULT:      -4.8     15.876     16.316
REMARK  1 active torsions:
REMARK  status: ('A' for Active; 'I' for Inactive)
REMARK    1  A    between atoms: C7_7  and  O9_9 
ROOT
HETATM    1  C1  UNL     1     -22.868  16.940   9.199  1.00 20.00     0.097 C 
HETATM    2  C2  UNL     1     -24.575  18.393  10.018  1.00 20.00    -0.006 C 
HETATM    3  C3  UNL     1     -23.859  17.265  10.172  1.00 20.00     0.047 C 
HETATM    4  C4  UNL     1     -25.649  18.836  10.969  1.00 20.00     0.028 C 
HETATM    5  C5  UNL     1     -25.663  18.053  12.281  1.00 20.00     0.007 C 
HETATM    6  C6  UNL     1     -25.443  16.562  12.032  1.00 20.00     0.037 C 
HETATM    7  C7  UNL     1     -24.109  16.312  11.316  1.00 20.00     0.161 C 
HETATM    8  N8  UNL     1     -22.060  16.676   8.408  1.00 20.00    -0.192 NA
ENDROOT
BRANCH   7   9
HETATM    9  O9  UNL     1     -23.057  16.440  12.273  1.00 20.00    -0.390 OA
HETATM   10  H18 UNL     1     -22.313  15.921  11.935  1.00 20.00     0.210 HD
ENDBRANCH   7   9
TORSDOF 1
ENDMDL
MODEL 4
REMARK VINA RESULT:      -4.6     15.864     16.308
REMARK  1 active torsions:
REMARK  status: ('A' for Active; 'I' for Inactive)
REMARK    1  A    between atoms: C7_7  and  O9_9 
ROOT
HETATM    1  C1  UNL     1     -23.953  18.416   8.221  1.00 20.00     0.097 C 
HETATM    2  C2  UNL     1     -25.218  18.855  10.197  1.00 20.00    -0.006 C 
HETATM    3  C3  UNL     1     -24.349  18.062   9.545  1.00 20.00     0.047 C 
HETATM    4  C4  UNL     1     -25.714  18.582  11.588  1.00 20.00     0.028 C 
HETATM    5  C5  UNL     1     -24.930  17.489  12.312  1.00 20.00     0.007 C 
HETATM    6  C6  UNL     1     -24.625  16.320  11.376  1.00 20.00     0.037 C 
HETATM    7  C7  UNL     1     -23.821  16.785  10.155  1.00 20.00     0.161 C 
HETATM    8  N8  UNL     1     -23.630  18.705   7.144  1.00 20.00    -0.192 NA
ENDROOT
BRANCH   7   9
HETATM    9  O9  UNL     1     -22.466  16.984  10.560  1.00 20.00    -0.390 OA
HETATM   10  H18 UNL     1     -22.115  17.697  10.006  1.00 20.00     0.210 HD
ENDBRANCH   7   9
TORSDOF 1
ENDMDL
MODEL 5
REMARK VINA RESULT:      -4.6     11.810     12.427
REMARK  1 active torsions:
REMARK  status: ('A' for Active; 'I' for Inactive)
REMARK    1  A    between atoms: C7_7  and  O9_9 
ROOT
HETATM    1  C1  UNL     1     -35.546  13.813  -4.094  1.00 20.00     0.097 C 
HETATM    2  C2  UNL     1     -35.392  15.553  -2.467  1.00 20.00    -0.006 C 
HETATM    3  C3  UNL     1     -34.865  14.938  -3.541  1.00 20.00     0.047 C 
HETATM    4  C4  UNL     1     -34.764  16.739  -1.795  1.00 20.00     0.028 C 
HETATM    5  C5  UNL     1     -33.630  17.370  -2.602  1.00 20.00     0.007 C 
HETATM    6  C6  UNL     1     -32.741  16.299  -3.229  1.00 20.00     0.037 C 
HETATM    7  C7  UNL     1     -33.551  15.373  -4.146  1.00 20.00     0.161 C 
HETATM    8  N8  UNL     1     -36.101  12.898  -4.544  1.00 20.00    -0.192 NA
ENDROOT
BRANCH   7   9
HETATM    9  O9  UNL     1     -33.803  16.064  -5.370  1.00 20.00    -0.390 OA
HETATM   10  H18 UNL     1     -33.725  15.407  -6.077  1.00 20.00     0.210 HD
ENDBRANCH   7   9
TORSDOF 1
ENDMDL
MODEL 6
REMARK VINA RESULT:      -4.6     15.702     16.138
REMARK  1 active torsions:
REMARK  status: ('A' for Active; 'I' for Inactive)
REMARK    1  A    between atoms: C7_7  and  O9_9 
ROOT
HETATM    1  C1  UNL     1     -23.696  18.079   8.584  1.00 20.00     0.097 C 
HETATM    2  C2  UNL     1     -24.027  16.481  10.326  1.00 20.00    -0.006 C 
HETATM    3  C3  UNL     1     -24.281  17.705   9.830  1.00 20.00     0.047 C 
HETATM    4  C4  UNL     1     -24.578  15.978  11.628  1.00 20.00     0.028 C 
HETATM    5  C5  UNL     1     -25.684  16.860  12.205  1.00 20.00     0.007 C 
HETATM    6  C6  UNL     1     -25.341  18.341  12.052  1.00 20.00     0.037 C 
HETATM    7  C7  UNL     1     -25.126  18.709  10.578  1.00 20.00     0.161 C 
HETATM    8  N8  UNL     1     -23.221  18.384   7.570  1.00 20.00    -0.192 NA
ENDROOT
BRANCH   7   9
HETATM    9  O9  UNL     1     -26.406  18.807   9.951  1.00 20.00    -0.390 OA
HETATM   10  H18 UNL     1     -26.321  19.478   9.258  1.00 20.00     0.210 HD
ENDBRANCH   7   9
TORSDOF 1
ENDMDL
MODEL 7
REMARK VINA RESULT:      -4.6     12.128     12.608
REMARK  1 active torsions:
REMARK  status: ('A' for Active; 'I' for Inactive)
REMARK    1  A    between atoms: C7_7  and  O9_9 
ROOT
HETATM    1  C1  UNL     1     -36.883  14.425  -4.133  1.00 20.00     0.097 C 
HETATM    2  C2  UNL     1     -34.502  14.443  -4.298  1.00 20.00    -0.006 C 
HETATM    3  C3  UNL     1     -35.627  15.049  -3.877  1.00 20.00     0.047 C 
HETATM    4  C4  UNL     1     -33.125  15.006  -4.094  1.00 20.00     0.028 C 
HETATM    5  C5  UNL     1     -33.083  16.179  -3.116  1.00 20.00     0.007 C 
HETATM    6  C6  UNL     1     -34.260  17.126  -3.345  1.00 20.00     0.037 C 
HETATM    7  C7  UNL     1     -35.599  16.393  -3.188  1.00 20.00     0.161 C 
HETATM    8  N8  UNL     1     -37.906  13.916  -4.341  1.00 20.00    -0.192 NA
ENDROOT
BRANCH   7   9
HETATM    9  O9  UNL     1     -35.848  16.211  -1.793  1.00 20.00    -0.390 OA
HETATM   10  H18 UNL     1     -36.798  16.045  -1.703  1.00 20.00     0.210 HD
ENDBRANCH   7   9
TORSDOF 1
ENDMDL
MODEL 8
REMARK VINA RESULT:      -4.4     12.142     12.699
REMARK  1 active torsions:
REMARK  status: ('A' for Active; 'I' for Inactive)
REMARK    1  A    between atoms: C7_7  and  O9_9 
ROOT
HETATM    1  C1  UNL     1     -33.781  14.823  -4.055  1.00 20.00     0.097 C 
HETATM    2  C2  UNL     1     -34.978  15.842  -2.258  1.00 20.00    -0.006 C 
HETATM    3  C3  UNL     1     -33.911  15.854  -3.077  1.00 20.00     0.047 C 
HETATM    4  C4  UNL     1     -35.220  16.866  -1.188  1.00 20.00     0.028 C 
HETATM    5  C5  UNL     1     -34.307  18.087  -1.294  1.00 20.00     0.007 C 
HETATM    6  C6  UNL     1     -32.877  17.675  -1.636  1.00 20.00     0.037 C 
HETATM    7  C7  UNL     1     -32.826  16.898  -2.958  1.00 20.00     0.161 C 
HETATM    8  N8  UNL     1     -33.676  13.985  -4.851  1.00 20.00    -0.192 NA
ENDROOT
BRANCH   7   9
HETATM    9  O9  UNL     1     -32.952  17.832  -4.031  1.00 20.00    -0.390 OA
HETATM   10  H18 UNL     1     -32.060  17.968  -4.383  1.00 20.00     0.210 HD
ENDBRANCH   7   9
TORSDOF 1
ENDMDL
MODEL 9
REMARK VINA RESULT:      -4.4     16.297     17.115
REMARK  1 active torsions:
REMARK  status: ('A' for Active; 'I' for Inactive)
REMARK    1  A    between atoms: C7_7  and  O9_9 
ROOT
HETATM    1  C1  UNL     1     -25.915  17.900  11.848  1.00 20.00     0.097 C 
HETATM    2  C2  UNL     1     -24.465  18.479  10.042  1.00 20.00    -0.006 C 
HETATM    3  C3  UNL     1     -24.619  17.912  11.252  1.00 20.00     0.047 C 
HETATM    4  C4  UNL     1     -23.152  18.559   9.319  1.00 20.00     0.028 C 
HETATM    5  C5  UNL     1     -22.060  17.688   9.939  1.00 20.00     0.007 C 
HETATM    6  C6  UNL     1     -22.089  17.773  11.463  1.00 20.00     0.037 C 
HETATM    7  C7  UNL     1     -23.451  17.333  12.016  1.00 20.00     0.161 C 
HETATM    8  N8  UNL     1     -26.970  17.889  12.332  1.00 20.00    -0.192 NA
ENDROOT
BRANCH   7   9
HETATM    9  O9  UNL     1     -23.516  15.908  11.964  1.00 20.00    -0.390 OA
HETATM   10  H18 UNL     1     -22.958  15.581  12.686  1.00 20.00     0.210 HD
ENDBRANCH   7   9
TORSDOF 1
ENDMDL
