MODEL 1
REMARK VINA RESULT:      -5.1      0.000      0.000
REMARK  1 active torsions:
REMARK  status: ('A' for Active; 'I' for Inactive)
REMARK    1  A    between atoms: C7_7  and  N8_8 
ROOT
HETATM    1  C1  UNL     1     -32.895   8.701   0.542  1.00 20.00     0.013 C 
HETATM    2  C2  UNL     1     -32.621   7.987   1.467  1.00 20.00    -0.087 C 
HETATM    3  C7  UNL     1     -32.281   7.116   2.595  1.00 20.00     0.365 C 
ENDROOT
BRANCH   3   4
HETATM    4  N8  UNL     1     -33.486   6.588   3.218  1.00 20.00     0.106 N 
HETATM    5  C5  UNL     1     -33.523   6.838   4.659  1.00 20.00     0.351 C 
HETATM    6  C3  UNL     1     -34.460   5.751   5.122  1.00 20.00     0.156 C 
HETATM    7  C4  UNL     1     -34.711   4.751   4.032  1.00 20.00     0.110 C 
HETATM    8  O9  UNL     1     -34.952   5.694   6.241  1.00 20.00    -0.296 OA
HETATM    9  C6  UNL     1     -33.617   5.137   3.045  1.00 20.00     0.281 C 
ENDBRANCH   3   4
TORSDOF 1
ENDMDL
MODEL 2
REMARK VINA RESULT:      -4.3     15.978     16.909
REMARK  1 active torsions:
REMARK  status: ('A' for Active; 'I' for Inactive)
REMARK    1  A    between atoms: C7_7  and  N8_8 
ROOT
HETATM    1  C1  UNL     1     -24.634  15.797  11.629  1.00 20.00     0.013 C 
HETATM    2  C2  UNL     1     -23.839  16.695  11.586  1.00 20.00    -0.087 C 
HETATM    3  C7  UNL     1     -22.869  17.793  11.540  1.00 20.00     0.365 C 
ENDROOT
BRANCH   3   4
HETATM    4  N8  UNL     1     -22.575  18.161  10.164  1.00 20.00     0.106 N 
HETATM    5  C5  UNL     1     -23.768  18.592   9.434  1.00 20.00     0.351 C 
HETATM    6  C3  UNL     1     -23.352  18.333   8.009  1.00 20.00     0.156 C 
HETATM    7  C4  UNL     1     -22.092  17.520   7.951  1.00 20.00     0.110 C 
HETATM    8  O9  UNL     1     -23.962  18.735   7.027  1.00 20.00    -0.296 OA
HETATM    9  C6  UNL     1     -21.999  17.050   9.397  1.00 20.00     0.281 C 
ENDBRANCH   3   4
TORSDOF 1
ENDMDL
MODEL 3
REMARK VINA RESULT:      -4.2     11.309     11.962
REMARK  1 active torsions:
REMARK  status: ('A' for Active; 'I' for Inactive)
REMARK    1  A    between atoms: C7_7  and  N8_8 
ROOT
HETATM    1  C1  UNL     1     -33.280  17.441  -1.820  1.00 20.00     0.013 C 
HETATM    2  C2  UNL     1     -33.246  16.619  -2.693  1.00 20.00    -0.087 C 
HETATM    3  C7  UNL     1     -33.197  15.616  -3.760  1.00 20.00     0.365 C 
ENDROOT
BRANCH   3   4
HETATM    4  N8  UNL     1     -34.496  15.486  -4.403  1.00 20.00     0.106 N 
HETATM    5  C5  UNL     1     -35.416  14.644  -3.637  1.00 20.00     0.351 C 
HETATM    6  C3  UNL     1     -36.369  14.194  -4.714  1.00 20.00     0.156 C 
HETATM    7  C4  UNL     1     -35.844  14.530  -6.079  1.00 20.00     0.110 C 
HETATM    8  O9  UNL     1     -37.434  13.630  -4.502  1.00 20.00    -0.296 OA
HETATM    9  C6  UNL     1     -34.403  14.888  -5.740  1.00 20.00     0.281 C 
ENDBRANCH   3   4
TORSDOF 1
ENDMDL
MODEL 4
REMARK VINA RESULT:      -4.1     10.878     11.616
REMARK  1 active torsions:
REMARK  status: ('A' for Active; 'I' for Inactive)
REMARK    1  A    between atoms: C7_7  and  N8_8 
ROOT
HETATM    1  C1  UNL     1     -33.440  17.910  -1.053  1.00 20.00     0.013 C 
HETATM    2  C2  UNL     1     -33.422  17.185  -2.010  1.00 20.00    -0.087 C 
HETATM    3  C7  UNL     1     -33.396  16.304  -3.180  1.00 20.00     0.365 C 
ENDROOT
BRANCH   3   4
HETATM    4  N8  UNL     1     -34.550  15.418  -3.183  1.00 20.00     0.106 N 
HETATM    5  C5  UNL     1     -34.288  14.162  -3.886  1.00 20.00     0.351 C 
HETATM    6  C3  UNL     1     -35.685  13.737  -4.261  1.00 20.00     0.156 C 
HETATM    7  C4  UNL     1     -36.668  14.848  -4.036  1.00 20.00     0.110 C 
HETATM    8  O9  UNL     1     -35.978  12.630  -4.691  1.00 20.00    -0.296 OA
HETATM    9  C6  UNL     1     -35.719  16.022  -3.834  1.00 20.00     0.281 C 
ENDBRANCH   3   4
TORSDOF 1
ENDMDL
MODEL 5
REMARK VINA RESULT:      -4.0     11.219     11.859
REMARK  1 active torsions:
REMARK  status: ('A' for Active; 'I' for Inactive)
REMARK    1  A    between atoms: C7_7  and  N8_8 
ROOT
HETATM    1  C1  UNL     1     -35.164  16.802  -0.892  1.00 20.00     0.013 C 
HETATM    2  C2  UNL     1     -34.948  16.861  -2.071  1.00 20.00    -0.087 C 
HETATM    3  C7  UNL     1     -34.682  16.940  -3.510  1.00 20.00     0.365 C 
ENDROOT
BRANCH   3   4
HETATM    4  N8  UNL     1     -35.325  15.839  -4.211  1.00 20.00     0.106 N 
HETATM    5  C5  UNL     1     -36.773  15.810  -3.997  1.00 20.00     0.351 C 
HETATM    6  C3  UNL     1     -37.083  14.362  -4.275  1.00 20.00     0.156 C 
HETATM    7  C4  UNL     1     -35.828  13.544  -4.360  1.00 20.00     0.110 C 
HETATM    8  O9  UNL     1     -38.212  13.912  -4.417  1.00 20.00    -0.296 OA
HETATM    9  C6  UNL     1     -34.817  14.529  -3.787  1.00 20.00     0.281 C 
ENDBRANCH   3   4
TORSDOF 1
ENDMDL
MODEL 6
REMARK VINA RESULT:      -3.8     15.390     15.969
REMARK  1 active torsions:
REMARK  status: ('A' for Active; 'I' for Inactive)
REMARK    1  A    between atoms: C7_7  and  N8_8 
ROOT
HETATM    1  C1  UNL     1     -25.771  18.880   7.262  1.00 20.00     0.013 C 
HETATM    2  C2  UNL     1     -24.821  18.982   7.989  1.00 20.00    -0.087 C 
HETATM    3  C7  UNL     1     -23.659  19.108   8.872  1.00 20.00     0.365 C 
ENDROOT
BRANCH   3   4
HETATM    4  N8  UNL     1     -23.907  18.447  10.145  1.00 20.00     0.106 N 
HETATM    5  C5  UNL     1     -23.793  16.991  10.049  1.00 20.00     0.351 C 
HETATM    6  C3  UNL     1     -24.633  16.552  11.220  1.00 20.00     0.156 C 
HETATM    7  C4  UNL     1     -25.424  17.697  11.780  1.00 20.00     0.110 C 
HETATM    8  O9  UNL     1     -24.663  15.410  11.659  1.00 20.00    -0.296 OA
HETATM    9  C6  UNL     1     -25.249  18.724  10.669  1.00 20.00     0.281 C 
ENDBRANCH   3   4
TORSDOF 1
ENDMDL
MODEL 7
REMARK VINA RESULT:      -3.8     11.528     12.168
REMARK  1 active torsions:
REMARK  status: ('A' for Active; 'I' for Inactive)
REMARK    1  A    between atoms: C7_7  and  N8_8 
ROOT
HETATM    1  C1  UNL     1     -34.409  16.756  -1.802  1.00 20.00     0.013 C 
HETATM    2  C2  UNL     1     -33.832  16.180  -2.683  1.00 20.00    -0.087 C 
HETATM    3  C7  UNL     1     -33.124  15.481  -3.758  1.00 20.00     0.365 C 
ENDROOT
BRANCH   3   4
HETATM    4  N8  UNL     1     -34.032  14.615  -4.493  1.00 20.00     0.106 N 
HETATM    5  C5  UNL     1     -34.372  15.152  -5.811  1.00 20.00     0.351 C 
HETATM    6  C3  UNL     1     -35.684  14.462  -6.082  1.00 20.00     0.156 C 
HETATM    7  C4  UNL     1     -36.208  13.789  -4.847  1.00 20.00     0.110 C 
HETATM    8  O9  UNL     1     -36.247  14.451  -7.168  1.00 20.00    -0.296 OA
HETATM    9  C6  UNL     1     -35.304  14.409  -3.790  1.00 20.00     0.281 C 
ENDBRANCH   3   4
TORSDOF 1
ENDMDL
MODEL 8
REMARK VINA RESULT:      -3.8     11.302     12.033
REMARK  1 active torsions:
REMARK  status: ('A' for Active; 'I' for Inactive)
REMARK    1  A    between atoms: C7_7  and  N8_8 
ROOT
HETATM    1  C1  UNL     1     -33.748  15.059  -7.191  1.00 20.00     0.013 C 
HETATM    2  C2  UNL     1     -33.725  14.848  -6.010  1.00 20.00    -0.087 C 
HETATM    3  C7  UNL     1     -33.690  14.588  -4.568  1.00 20.00     0.365 C 
ENDROOT
BRANCH   3   4
HETATM    4  N8  UNL     1     -35.018  14.726  -3.990  1.00 20.00     0.106 N 
HETATM    5  C5  UNL     1     -35.962  13.741  -4.519  1.00 20.00     0.351 C 
HETATM    6  C3  UNL     1     -37.279  14.429  -4.267  1.00 20.00     0.156 C 
HETATM    7  C4  UNL     1     -37.075  15.864  -3.879  1.00 20.00     0.110 C 
HETATM    8  O9  UNL     1     -38.372  13.887  -4.364  1.00 20.00    -0.296 OA
HETATM    9  C6  UNL     1     -35.608  16.045  -4.246  1.00 20.00     0.281 C 
ENDBRANCH   3   4
TORSDOF 1
ENDMDL
MODEL 9
REMARK VINA RESULT:      -3.8     16.532     16.933
REMARK  1 active torsions:
REMARK  status: ('A' for Active; 'I' for Inactive)
REMARK    1  A    between atoms: C7_7  and  N8_8 
ROOT
HETATM    1  C1  UNL     1     -21.678  17.387   7.320  1.00 20.00     0.013 C 
HETATM    2  C2  UNL     1     -21.668  17.576   8.506  1.00 20.00    -0.087 C 
HETATM    3  C7  UNL     1     -21.648  17.806   9.952  1.00 20.00     0.365 C 
ENDROOT
BRANCH   3   4
HETATM    4  N8  UNL     1     -22.958  17.547  10.531  1.00 20.00     0.106 N 
HETATM    5  C5  UNL     1     -23.992  18.429   9.989  1.00 20.00     0.351 C 
HETATM    6  C3  UNL     1     -25.017  18.396  11.094  1.00 20.00     0.156 C 
HETATM    7  C4  UNL     1     -24.459  17.757  12.332  1.00 20.00     0.110 C 
HETATM    8  O9  UNL     1     -26.155  18.832  10.993  1.00 20.00    -0.296 OA
HETATM    9  C6  UNL     1     -22.975  17.733  11.986  1.00 20.00     0.281 C 
ENDBRANCH   3   4
TORSDOF 1
ENDMDL
