MODEL 1
REMARK VINA RESULT:      -4.7      0.000      0.000
REMARK  1 active torsions:
REMARK  status: ('A' for Active; 'I' for Inactive)
REMARK    1  A    between atoms: C1_1  and  C3_3 
ROOT
HETATM    1  C1  UNL     1     -33.449   6.312   3.733  1.00 20.00     0.035 C 
HETATM    2  C2  UNL     1     -33.759   5.085   3.318  1.00 20.00     0.053 C 
HETATM    3  C4  UNL     1     -34.257   6.651   4.923  1.00 20.00     0.073 C 
HETATM    4  C5  UNL     1     -34.839   5.284   5.260  1.00 20.00     0.180 C 
HETATM    5  C6  UNL     1     -33.247   4.313   2.155  1.00 20.00     0.077 C 
HETATM    6  O8  UNL     1     -34.730   4.446   4.091  1.00 20.00    -0.355 OA
ENDROOT
BRANCH   1   7
HETATM    7  C3  UNL     1     -32.488   7.228   3.144  1.00 20.00     0.250 C 
HETATM    8  O7  UNL     1     -31.507   7.595   3.810  1.00 20.00    -0.274 OA
HETATM    9 CL9  UNL     1     -32.788   7.766   1.500  1.00 20.00    -0.039 Cl
ENDBRANCH   1   7
TORSDOF 1
ENDMDL
MODEL 2
REMARK VINA RESULT:      -4.3     16.246     16.694
REMARK  1 active torsions:
REMARK  status: ('A' for Active; 'I' for Inactive)
REMARK    1  A    between atoms: C1_1  and  C3_3 
ROOT
HETATM    1  C1  UNL     1     -23.728  18.043   9.341  1.00 20.00     0.035 C 
HETATM    2  C2  UNL     1     -22.948  17.952   8.266  1.00 20.00     0.053 C 
HETATM    3  C4  UNL     1     -24.915  18.865   9.023  1.00 20.00     0.073 C 
HETATM    4  C5  UNL     1     -24.793  18.950   7.507  1.00 20.00     0.180 C 
HETATM    5  C6  UNL     1     -21.639  17.267   8.091  1.00 20.00     0.077 C 
HETATM    6  O8  UNL     1     -23.436  18.625   7.144  1.00 20.00    -0.355 OA
ENDROOT
BRANCH   1   7
HETATM    7  C3  UNL     1     -23.498  17.463  10.653  1.00 20.00     0.250 C 
HETATM    8  O7  UNL     1     -22.649  17.970  11.403  1.00 20.00    -0.274 OA
HETATM    9 CL9  UNL     1     -24.455  16.059  11.094  1.00 20.00    -0.039 Cl
ENDBRANCH   1   7
TORSDOF 1
ENDMDL
MODEL 3
REMARK VINA RESULT:      -4.2     11.431     12.295
REMARK  1 active torsions:
REMARK  status: ('A' for Active; 'I' for Inactive)
REMARK    1  A    between atoms: C1_1  and  C3_3 
ROOT
HETATM    1  C1  UNL     1     -35.134  14.814  -3.996  1.00 20.00     0.035 C 
HETATM    2  C2  UNL     1     -34.201  15.295  -4.815  1.00 20.00     0.053 C 
HETATM    3  C4  UNL     1     -34.943  15.379  -2.644  1.00 20.00     0.073 C 
HETATM    4  C5  UNL     1     -33.933  16.479  -2.944  1.00 20.00     0.180 C 
HETATM    5  C6  UNL     1     -33.953  15.007  -6.254  1.00 20.00     0.077 C 
HETATM    6  O8  UNL     1     -33.314  16.189  -4.213  1.00 20.00    -0.355 OA
ENDROOT
BRANCH   1   7
HETATM    7  C3  UNL     1     -36.189  13.869  -4.315  1.00 20.00     0.250 C 
HETATM    8  O7  UNL     1     -35.899  12.683  -4.539  1.00 20.00    -0.274 OA
HETATM    9 CL9  UNL     1     -37.834  14.481  -4.363  1.00 20.00    -0.039 Cl
ENDBRANCH   1   7
TORSDOF 1
ENDMDL
MODEL 4
REMARK VINA RESULT:      -4.2      0.738      2.041
REMARK  1 active torsions:
REMARK  status: ('A' for Active; 'I' for Inactive)
REMARK    1  A    between atoms: C1_1  and  C3_3 
ROOT
HETATM    1  C1  UNL     1     -33.197   6.180   3.441  1.00 20.00     0.035 C 
HETATM    2  C2  UNL     1     -33.854   6.104   4.596  1.00 20.00     0.053 C 
HETATM    3  C4  UNL     1     -33.415   4.941   2.665  1.00 20.00     0.073 C 
HETATM    4  C5  UNL     1     -34.546   4.309   3.466  1.00 20.00     0.180 C 
HETATM    5  C6  UNL     1     -33.923   7.074   5.722  1.00 20.00     0.077 C 
HETATM    6  O8  UNL     1     -34.568   4.917   4.774  1.00 20.00    -0.355 OA
ENDROOT
BRANCH   1   7
HETATM    7  C3  UNL     1     -32.367   7.273   2.966  1.00 20.00     0.250 C 
HETATM    8  O7  UNL     1     -31.452   7.702   3.687  1.00 20.00    -0.274 OA
HETATM    9 CL9  UNL     1     -32.723   7.925   1.375  1.00 20.00    -0.039 Cl
ENDBRANCH   1   7
TORSDOF 1
ENDMDL
MODEL 5
REMARK VINA RESULT:      -4.1     16.310     17.228
REMARK  1 active torsions:
REMARK  status: ('A' for Active; 'I' for Inactive)
REMARK    1  A    between atoms: C1_1  and  C3_3 
ROOT
HETATM    1  C1  UNL     1     -24.168  17.954  10.664  1.00 20.00     0.035 C 
HETATM    2  C2  UNL     1     -22.878  17.929  10.996  1.00 20.00     0.053 C 
HETATM    3  C4  UNL     1     -24.299  18.183   9.210  1.00 20.00     0.073 C 
HETATM    4  C5  UNL     1     -22.857  17.976   8.766  1.00 20.00     0.180 C 
HETATM    5  C6  UNL     1     -22.239  17.761  12.329  1.00 20.00     0.077 C 
HETATM    6  O8  UNL     1     -22.005  18.110   9.922  1.00 20.00    -0.355 OA
ENDROOT
BRANCH   1   7
HETATM    7  C3  UNL     1     -25.312  17.802  11.546  1.00 20.00     0.250 C 
HETATM    8  O7  UNL     1     -25.649  16.666  11.916  1.00 20.00    -0.274 OA
HETATM    9 CL9  UNL     1     -26.153  19.263  12.036  1.00 20.00    -0.039 Cl
ENDBRANCH   1   7
TORSDOF 1
ENDMDL
MODEL 6
REMARK VINA RESULT:      -4.1     16.484     16.822
REMARK  1 active torsions:
REMARK  status: ('A' for Active; 'I' for Inactive)
REMARK    1  A    between atoms: C1_1  and  C3_3 
ROOT
HETATM    1  C1  UNL     1     -23.248  17.529   9.640  1.00 20.00     0.035 C 
HETATM    2  C2  UNL     1     -23.841  18.321   8.749  1.00 20.00     0.053 C 
HETATM    3  C4  UNL     1     -22.100  16.845   9.008  1.00 20.00     0.073 C 
HETATM    4  C5  UNL     1     -21.992  17.631   7.708  1.00 20.00     0.180 C 
HETATM    5  C6  UNL     1     -25.044  19.185   8.890  1.00 20.00     0.077 C 
HETATM    6  O8  UNL     1     -23.244  18.312   7.487  1.00 20.00    -0.355 OA
ENDROOT
BRANCH   1   7
HETATM    7  C3  UNL     1     -23.628  17.316  11.026  1.00 20.00     0.250 C 
HETATM    8  O7  UNL     1     -23.246  18.117  11.893  1.00 20.00    -0.274 OA
HETATM    9 CL9  UNL     1     -24.620  15.912  11.384  1.00 20.00    -0.039 Cl
ENDBRANCH   1   7
TORSDOF 1
ENDMDL
MODEL 7
REMARK VINA RESULT:      -4.1     15.714     16.472
REMARK  1 active torsions:
REMARK  status: ('A' for Active; 'I' for Inactive)
REMARK    1  A    between atoms: C1_1  and  C3_3 
ROOT
HETATM    1  C1  UNL     1     -24.265  17.902  10.125  1.00 20.00     0.035 C 
HETATM    2  C2  UNL     1     -25.177  18.099  11.076  1.00 20.00     0.053 C 
HETATM    3  C4  UNL     1     -23.607  16.595  10.335  1.00 20.00     0.073 C 
HETATM    4  C5  UNL     1     -24.528  15.986  11.384  1.00 20.00     0.180 C 
HETATM    5  C6  UNL     1     -26.072  19.263  11.314  1.00 20.00     0.077 C 
HETATM    6  O8  UNL     1     -25.284  17.053  11.994  1.00 20.00    -0.355 OA
ENDROOT
BRANCH   1   7
HETATM    7  C3  UNL     1     -23.915  18.797   9.036  1.00 20.00     0.250 C 
HETATM    8  O7  UNL     1     -22.766  19.263   8.976  1.00 20.00    -0.274 OA
HETATM    9 CL9  UNL     1     -25.165  19.165   7.860  1.00 20.00    -0.039 Cl
ENDBRANCH   1   7
TORSDOF 1
ENDMDL
MODEL 8
REMARK VINA RESULT:      -4.1     16.591     17.278
REMARK  1 active torsions:
REMARK  status: ('A' for Active; 'I' for Inactive)
REMARK    1  A    between atoms: C1_1  and  C3_3 
ROOT
HETATM    1  C1  UNL     1     -23.435  18.303  10.000  1.00 20.00     0.035 C 
HETATM    2  C2  UNL     1     -23.468  18.028  11.303  1.00 20.00     0.053 C 
HETATM    3  C4  UNL     1     -24.803  18.597   9.522  1.00 20.00     0.073 C 
HETATM    4  C5  UNL     1     -25.537  18.730  10.850  1.00 20.00     0.180 C 
HETATM    5  C6  UNL     1     -22.367  17.645  12.226  1.00 20.00     0.077 C 
HETATM    6  O8  UNL     1     -24.742  18.094  11.872  1.00 20.00    -0.355 OA
ENDROOT
BRANCH   1   7
HETATM    7  C3  UNL     1     -22.274  18.315   9.128  1.00 20.00     0.250 C 
HETATM    8  O7  UNL     1     -21.457  19.245   9.212  1.00 20.00    -0.274 OA
HETATM    9 CL9  UNL     1     -22.105  16.987   7.992  1.00 20.00    -0.039 Cl
ENDBRANCH   1   7
TORSDOF 1
ENDMDL
MODEL 9
REMARK VINA RESULT:      -4.0     16.660     17.080
REMARK  1 active torsions:
REMARK  status: ('A' for Active; 'I' for Inactive)
REMARK    1  A    between atoms: C1_1  and  C3_3 
ROOT
HETATM    1  C1  UNL     1     -23.950  18.006  10.618  1.00 20.00     0.035 C 
HETATM    2  C2  UNL     1     -25.132  18.617  10.583  1.00 20.00     0.053 C 
HETATM    3  C4  UNL     1     -23.260  18.187   9.324  1.00 20.00     0.073 C 
HETATM    4  C5  UNL     1     -24.141  19.256   8.689  1.00 20.00     0.180 C 
HETATM    5  C6  UNL     1     -26.198  18.696  11.618  1.00 20.00     0.077 C 
HETATM    6  O8  UNL     1     -25.409  19.262   9.376  1.00 20.00    -0.355 OA
ENDROOT
BRANCH   1   7
HETATM    7  C3  UNL     1     -23.378  17.250  11.719  1.00 20.00     0.250 C 
HETATM    8  O7  UNL     1     -22.396  17.706  12.326  1.00 20.00    -0.274 OA
HETATM    9 CL9  UNL     1     -24.128  15.714  12.121  1.00 20.00    -0.039 Cl
ENDBRANCH   1   7
TORSDOF 1
ENDMDL
