MODEL 1
REMARK VINA RESULT:      -4.8      0.000      0.000
REMARK  0 active torsions:
REMARK  status: ('A' for Active; 'I' for Inactive)
ROOT
HETATM    1  C1  UNL     1     -24.293  19.051   7.785  1.00 20.00     0.071 C 
HETATM    2  C2  UNL     1     -23.272  18.240   9.886  1.00 20.00     0.152 C 
HETATM    3  C3  UNL     1     -25.506  19.002   9.952  1.00 20.00     0.028 C 
HETATM    4  C4  UNL     1     -25.092  18.587  11.360  1.00 20.00     0.018 C 
HETATM    5  C5  UNL     1     -24.185  19.253   9.229  1.00 20.00     0.163 C 
HETATM    6  C6  UNL     1     -23.877  17.665  11.162  1.00 20.00     0.015 C 
HETATM    7  C7  UNL     1     -24.292  16.213  10.915  1.00 20.00     0.023 C 
HETATM    8  C8  UNL     1     -22.902  17.762  12.332  1.00 20.00     0.023 C 
HETATM    9  N9  UNL     1     -24.379  18.890   6.640  1.00 20.00    -0.196 NA
HETATM   10  O10 UNL     1     -22.172  17.921   9.448  1.00 20.00    -0.296 OA
ENDROOT
TORSDOF 0
ENDMDL
MODEL 2
REMARK VINA RESULT:      -4.7     17.163     18.663
REMARK  0 active torsions:
REMARK  status: ('A' for Active; 'I' for Inactive)
ROOT
HETATM    1  C1  UNL     1     -37.468  14.410  -4.707  1.00 20.00     0.071 C 
HETATM    2  C2  UNL     1     -35.031  14.292  -4.301  1.00 20.00     0.152 C 
HETATM    3  C3  UNL     1     -35.925  16.305  -5.154  1.00 20.00     0.028 C 
HETATM    4  C4  UNL     1     -34.414  16.462  -5.019  1.00 20.00     0.018 C 
HETATM    5  C5  UNL     1     -36.144  14.794  -5.195  1.00 20.00     0.163 C 
HETATM    6  C6  UNL     1     -33.987  15.368  -4.025  1.00 20.00     0.015 C 
HETATM    7  C7  UNL     1     -34.111  15.832  -2.573  1.00 20.00     0.023 C 
HETATM    8  C8  UNL     1     -32.577  14.863  -4.319  1.00 20.00     0.023 C 
HETATM    9  N9  UNL     1     -38.517  14.105  -4.318  1.00 20.00    -0.196 NA
HETATM   10  O10 UNL     1     -34.972  13.153  -3.853  1.00 20.00    -0.296 OA
ENDROOT
TORSDOF 0
ENDMDL
MODEL 3
REMARK VINA RESULT:      -4.6     16.088     17.663
REMARK  0 active torsions:
REMARK  status: ('A' for Active; 'I' for Inactive)
ROOT
HETATM    1  C1  UNL     1     -36.400  14.243  -4.061  1.00 20.00     0.071 C 
HETATM    2  C2  UNL     1     -35.058  15.995  -2.944  1.00 20.00     0.152 C 
HETATM    3  C3  UNL     1     -33.951  14.494  -4.394  1.00 20.00     0.028 C 
HETATM    4  C4  UNL     1     -32.920  15.453  -3.806  1.00 20.00     0.018 C 
HETATM    5  C5  UNL     1     -35.125  14.559  -3.419  1.00 20.00     0.163 C 
HETATM    6  C6  UNL     1     -33.735  16.660  -3.311  1.00 20.00     0.015 C 
HETATM    7  C7  UNL     1     -33.975  17.684  -4.421  1.00 20.00     0.023 C 
HETATM    8  C8  UNL     1     -33.086  17.313  -2.095  1.00 20.00     0.023 C 
HETATM    9  N9  UNL     1     -37.412  13.994  -4.570  1.00 20.00    -0.196 NA
HETATM   10  O10 UNL     1     -35.958  16.558  -2.333  1.00 20.00    -0.296 OA
ENDROOT
TORSDOF 0
ENDMDL
MODEL 4
REMARK VINA RESULT:      -4.2     17.060     18.040
REMARK  0 active torsions:
REMARK  status: ('A' for Active; 'I' for Inactive)
ROOT
HETATM    1  C1  UNL     1     -35.480  13.813  -4.098  1.00 20.00     0.071 C 
HETATM    2  C2  UNL     1     -35.560  16.239  -3.620  1.00 20.00     0.152 C 
HETATM    3  C3  UNL     1     -33.444  15.204  -3.799  1.00 20.00     0.028 C 
HETATM    4  C4  UNL     1     -33.238  16.680  -3.473  1.00 20.00     0.018 C 
HETATM    5  C5  UNL     1     -34.875  14.915  -3.351  1.00 20.00     0.163 C 
HETATM    6  C6  UNL     1     -34.559  17.363  -3.866  1.00 20.00     0.015 C 
HETATM    7  C7  UNL     1     -34.587  17.749  -5.346  1.00 20.00     0.023 C 
HETATM    8  C8  UNL     1     -34.852  18.570  -2.981  1.00 20.00     0.023 C 
HETATM    9  N9  UNL     1     -35.961  12.940  -4.690  1.00 20.00    -0.196 NA
HETATM   10  O10 UNL     1     -36.776  16.392  -3.635  1.00 20.00    -0.296 OA
ENDROOT
TORSDOF 0
ENDMDL
MODEL 5
REMARK VINA RESULT:      -4.2      1.760      2.025
REMARK  0 active torsions:
REMARK  status: ('A' for Active; 'I' for Inactive)
ROOT
HETATM    1  C1  UNL     1     -25.699  18.782   6.524  1.00 20.00     0.071 C 
HETATM    2  C2  UNL     1     -23.626  18.472   7.836  1.00 20.00     0.152 C 
HETATM    3  C3  UNL     1     -25.604  19.046   8.992  1.00 20.00     0.028 C 
HETATM    4  C4  UNL     1     -24.464  18.942  10.000  1.00 20.00     0.018 C 
HETATM    5  C5  UNL     1     -24.903  19.263   7.652  1.00 20.00     0.163 C 
HETATM    6  C6  UNL     1     -23.385  18.103   9.296  1.00 20.00     0.015 C 
HETATM    7  C7  UNL     1     -23.614  16.602   9.481  1.00 20.00     0.023 C 
HETATM    8  C8  UNL     1     -21.982  18.501   9.745  1.00 20.00     0.023 C 
HETATM    9  N9  UNL     1     -26.329  18.399   5.628  1.00 20.00    -0.196 NA
HETATM   10  O10 UNL     1     -22.870  18.168   6.921  1.00 20.00    -0.296 OA
ENDROOT
TORSDOF 0
ENDMDL
MODEL 6
REMARK VINA RESULT:      -4.2      2.625      3.501
REMARK  0 active torsions:
REMARK  status: ('A' for Active; 'I' for Inactive)
ROOT
HETATM    1  C1  UNL     1     -26.066  17.790  12.116  1.00 20.00     0.071 C 
HETATM    2  C2  UNL     1     -24.423  18.416  10.376  1.00 20.00     0.152 C 
HETATM    3  C3  UNL     1     -23.630  17.354  12.331  1.00 20.00     0.028 C 
HETATM    4  C4  UNL     1     -22.440  17.668  11.431  1.00 20.00     0.018 C 
HETATM    5  C5  UNL     1     -24.724  18.309  11.856  1.00 20.00     0.163 C 
HETATM    6  C6  UNL     1     -23.042  17.871  10.030  1.00 20.00     0.015 C 
HETATM    7  C7  UNL     1     -23.196  16.549   9.275  1.00 20.00     0.023 C 
HETATM    8  C8  UNL     1     -22.236  18.876   9.213  1.00 20.00     0.023 C 
HETATM    9  N9  UNL     1     -27.131  17.379  12.320  1.00 20.00    -0.196 NA
HETATM   10  O10 UNL     1     -25.196  18.891   9.552  1.00 20.00    -0.296 OA
ENDROOT
TORSDOF 0
ENDMDL
MODEL 7
REMARK VINA RESULT:      -4.2     16.706     17.945
REMARK  0 active torsions:
REMARK  status: ('A' for Active; 'I' for Inactive)
ROOT
HETATM    1  C1  UNL     1     -35.509  14.327  -5.444  1.00 20.00     0.071 C 
HETATM    2  C2  UNL     1     -35.722  15.682  -3.386  1.00 20.00     0.152 C 
HETATM    3  C3  UNL     1     -33.552  15.181  -4.173  1.00 20.00     0.028 C 
HETATM    4  C4  UNL     1     -33.429  15.991  -2.887  1.00 20.00     0.018 C 
HETATM    5  C5  UNL     1     -34.961  14.595  -4.115  1.00 20.00     0.163 C 
HETATM    6  C6  UNL     1     -34.789  16.690  -2.723  1.00 20.00     0.015 C 
HETATM    7  C7  UNL     1     -34.850  18.013  -3.488  1.00 20.00     0.023 C 
HETATM    8  C8  UNL     1     -35.143  16.891  -1.253  1.00 20.00     0.023 C 
HETATM    9  N9  UNL     1     -35.943  14.116  -6.498  1.00 20.00    -0.196 NA
HETATM   10  O10 UNL     1     -36.945  15.744  -3.330  1.00 20.00    -0.296 OA
ENDROOT
TORSDOF 0
ENDMDL
MODEL 8
REMARK VINA RESULT:      -4.1     16.875     18.324
REMARK  0 active torsions:
REMARK  status: ('A' for Active; 'I' for Inactive)
ROOT
HETATM    1  C1  UNL     1     -36.683  15.965  -5.990  1.00 20.00     0.071 C 
HETATM    2  C2  UNL     1     -34.675  16.589  -4.689  1.00 20.00     0.152 C 
HETATM    3  C3  UNL     1     -36.173  15.023  -3.749  1.00 20.00     0.028 C 
HETATM    4  C4  UNL     1     -35.041  15.269  -2.758  1.00 20.00     0.018 C 
HETATM    5  C5  UNL     1     -36.150  16.250  -4.659  1.00 20.00     0.163 C 
HETATM    6  C6  UNL     1     -33.897  15.862  -3.598  1.00 20.00     0.015 C 
HETATM    7  C7  UNL     1     -33.030  14.774  -4.235  1.00 20.00     0.023 C 
HETATM    8  C8  UNL     1     -33.046  16.830  -2.782  1.00 20.00     0.023 C 
HETATM    9  N9  UNL     1     -37.105  15.740  -7.047  1.00 20.00    -0.196 NA
HETATM   10  O10 UNL     1     -34.164  17.361  -5.492  1.00 20.00    -0.296 OA
ENDROOT
TORSDOF 0
ENDMDL
MODEL 9
REMARK VINA RESULT:      -4.0     16.316     17.815
REMARK  0 active torsions:
REMARK  status: ('A' for Active; 'I' for Inactive)
ROOT
HETATM    1  C1  UNL     1     -35.380  14.936  -5.951  1.00 20.00     0.071 C 
HETATM    2  C2  UNL     1     -33.930  15.748  -4.119  1.00 20.00     0.152 C 
HETATM    3  C3  UNL     1     -35.688  17.143  -4.854  1.00 20.00     0.028 C 
HETATM    4  C4  UNL     1     -34.921  17.866  -3.751  1.00 20.00     0.018 C 
HETATM    5  C5  UNL     1     -34.704  16.096  -5.372  1.00 20.00     0.163 C 
HETATM    6  C6  UNL     1     -34.163  16.757  -3.001  1.00 20.00     0.015 C 
HETATM    7  C7  UNL     1     -35.020  16.114  -1.910  1.00 20.00     0.023 C 
HETATM    8  C8  UNL     1     -32.844  17.268  -2.430  1.00 20.00     0.023 C 
HETATM    9  N9  UNL     1     -35.916  14.015  -6.408  1.00 20.00    -0.196 NA
HETATM   10  O10 UNL     1     -33.197  14.771  -4.015  1.00 20.00    -0.296 OA
ENDROOT
TORSDOF 0
ENDMDL
