MODEL 1
REMARK VINA RESULT:      -4.6      0.000      0.000
REMARK  0 active torsions:
REMARK  status: ('A' for Active; 'I' for Inactive)
ROOT
HETATM    1  C1  UNL     1     -24.981  18.601   8.528  1.00 20.00     0.003 C 
HETATM    2  C2  UNL     1     -23.475  18.334   8.506  1.00 20.00     0.001 C 
HETATM    3  C3  UNL     1     -25.432  19.259   9.823  1.00 20.00     0.041 C 
HETATM    4  C4  UNL     1     -22.832  18.320   9.896  1.00 20.00     0.012 C 
HETATM    5  C5  UNL     1     -26.190  17.935  11.942  1.00 20.00     0.207 A 
HETATM    6  C6  UNL     1     -25.077  18.408  11.019  1.00 20.00     0.089 A 
HETATM    7  C7  UNL     1     -23.723  17.680  10.992  1.00 20.00    -0.014 C 
HETATM    8  C8  UNL     1     -23.928  16.182  10.685  1.00 20.00     0.018 C 
HETATM    9  C9  UNL     1     -22.967  17.793  12.332  1.00 20.00     0.018 C 
HETATM   10  O10 UNL     1     -25.390  19.073  12.260  1.00 20.00    -0.374 OA
ENDROOT
TORSDOF 0
ENDMDL
MODEL 2
REMARK VINA RESULT:      -4.2     16.608     18.312
REMARK  0 active torsions:
REMARK  status: ('A' for Active; 'I' for Inactive)
ROOT
HETATM    1  C1  UNL     1     -33.274  17.765  -3.661  1.00 20.00     0.003 C 
HETATM    2  C2  UNL     1     -33.401  16.839  -2.451  1.00 20.00     0.001 C 
HETATM    3  C3  UNL     1     -34.468  17.657  -4.599  1.00 20.00     0.041 C 
HETATM    4  C4  UNL     1     -34.395  15.692  -2.655  1.00 20.00     0.012 C 
HETATM    5  C5  UNL     1     -34.609  15.974  -6.590  1.00 20.00     0.207 A 
HETATM    6  C6  UNL     1     -34.647  16.241  -5.093  1.00 20.00     0.089 A 
HETATM    7  C7  UNL     1     -34.389  15.105  -4.090  1.00 20.00    -0.014 C 
HETATM    8  C8  UNL     1     -33.025  14.442  -4.374  1.00 20.00     0.018 C 
HETATM    9  C9  UNL     1     -35.473  14.009  -4.151  1.00 20.00     0.018 C 
HETATM   10  O10 UNL     1     -35.844  16.099  -5.885  1.00 20.00    -0.374 OA
ENDROOT
TORSDOF 0
ENDMDL
MODEL 3
REMARK VINA RESULT:      -4.1     17.355     19.071
REMARK  0 active torsions:
REMARK  status: ('A' for Active; 'I' for Inactive)
ROOT
HETATM    1  C1  UNL     1     -35.158  15.898  -2.562  1.00 20.00     0.003 C 
HETATM    2  C2  UNL     1     -33.669  15.864  -2.907  1.00 20.00     0.001 C 
HETATM    3  C3  UNL     1     -35.978  14.969  -3.445  1.00 20.00     0.041 C 
HETATM    4  C4  UNL     1     -33.374  15.320  -4.308  1.00 20.00     0.012 C 
HETATM    5  C5  UNL     1     -37.048  15.687  -5.716  1.00 20.00     0.207 A 
HETATM    6  C6  UNL     1     -35.814  15.320  -4.905  1.00 20.00     0.089 A 
HETATM    7  C7  UNL     1     -34.414  15.745  -5.377  1.00 20.00    -0.014 C 
HETATM    8  C8  UNL     1     -34.359  17.274  -5.575  1.00 20.00     0.018 C 
HETATM    9  C9  UNL     1     -34.014  15.077  -6.709  1.00 20.00     0.018 C 
HETATM   10  O10 UNL     1     -36.488  14.374  -5.760  1.00 20.00    -0.374 OA
ENDROOT
TORSDOF 0
ENDMDL
MODEL 4
REMARK VINA RESULT:      -4.1     16.937     18.643
REMARK  0 active torsions:
REMARK  status: ('A' for Active; 'I' for Inactive)
ROOT
HETATM    1  C1  UNL     1     -33.234  16.831  -3.468  1.00 20.00     0.003 C 
HETATM    2  C2  UNL     1     -34.017  16.294  -2.270  1.00 20.00     0.001 C 
HETATM    3  C3  UNL     1     -34.134  17.144  -4.654  1.00 20.00     0.041 C 
HETATM    4  C4  UNL     1     -35.396  15.737  -2.635  1.00 20.00     0.012 C 
HETATM    5  C5  UNL     1     -34.739  15.419  -6.518  1.00 20.00     0.207 A 
HETATM    6  C6  UNL     1     -34.904  15.920  -5.092  1.00 20.00     0.089 A 
HETATM    7  C7  UNL     1     -35.429  14.984  -3.990  1.00 20.00    -0.014 C 
HETATM    8  C8  UNL     1     -34.551  13.719  -3.902  1.00 20.00     0.018 C 
HETATM    9  C9  UNL     1     -36.884  14.539  -4.242  1.00 20.00     0.018 C 
HETATM   10  O10 UNL     1     -35.850  16.230  -6.135  1.00 20.00    -0.374 OA
ENDROOT
TORSDOF 0
ENDMDL
MODEL 5
REMARK VINA RESULT:      -4.0     16.843     18.475
REMARK  0 active torsions:
REMARK  status: ('A' for Active; 'I' for Inactive)
ROOT
HETATM    1  C1  UNL     1     -36.580  14.587  -4.958  1.00 20.00     0.003 C 
HETATM    2  C2  UNL     1     -35.595  13.670  -4.232  1.00 20.00     0.001 C 
HETATM    3  C3  UNL     1     -35.889  15.774  -5.614  1.00 20.00     0.041 C 
HETATM    4  C4  UNL     1     -34.260  14.341  -3.899  1.00 20.00     0.012 C 
HETATM    5  C5  UNL     1     -35.482  18.062  -4.423  1.00 20.00     0.207 A 
HETATM    6  C6  UNL     1     -35.129  16.592  -4.597  1.00 20.00     0.089 A 
HETATM    7  C7  UNL     1     -34.393  15.829  -3.483  1.00 20.00    -0.014 C 
HETATM    8  C8  UNL     1     -35.176  15.930  -2.158  1.00 20.00     0.018 C 
HETATM    9  C9  UNL     1     -32.970  16.374  -3.238  1.00 20.00     0.018 C 
HETATM   10  O10 UNL     1     -34.371  17.649  -5.220  1.00 20.00    -0.374 OA
ENDROOT
TORSDOF 0
ENDMDL
MODEL 6
REMARK VINA RESULT:      -3.8     17.521     18.895
REMARK  0 active torsions:
REMARK  status: ('A' for Active; 'I' for Inactive)
ROOT
HETATM    1  C1  UNL     1     -34.979  17.642  -4.175  1.00 20.00     0.003 C 
HETATM    2  C2  UNL     1     -34.704  16.972  -2.829  1.00 20.00     0.001 C 
HETATM    3  C3  UNL     1     -35.934  16.830  -5.040  1.00 20.00     0.041 C 
HETATM    4  C4  UNL     1     -35.020  15.474  -2.810  1.00 20.00     0.012 C 
HETATM    5  C5  UNL     1     -35.164  14.995  -6.729  1.00 20.00     0.207 A 
HETATM    6  C6  UNL     1     -35.393  15.443  -5.294  1.00 20.00     0.089 A 
HETATM    7  C7  UNL     1     -34.670  14.743  -4.132  1.00 20.00    -0.014 C 
HETATM    8  C8  UNL     1     -33.143  14.777  -4.355  1.00 20.00     0.018 C 
HETATM    9  C9  UNL     1     -35.096  13.268  -3.976  1.00 20.00     0.018 C 
HETATM   10  O10 UNL     1     -36.340  14.624  -6.009  1.00 20.00    -0.374 OA
ENDROOT
TORSDOF 0
ENDMDL
MODEL 7
REMARK VINA RESULT:      -3.8     17.449     19.194
REMARK  0 active torsions:
REMARK  status: ('A' for Active; 'I' for Inactive)
ROOT
HETATM    1  C1  UNL     1     -33.725  15.790  -3.120  1.00 20.00     0.003 C 
HETATM    2  C2  UNL     1     -33.705  17.139  -3.840  1.00 20.00     0.001 C 
HETATM    3  C3  UNL     1     -34.028  14.635  -4.065  1.00 20.00     0.041 C 
HETATM    4  C4  UNL     1     -34.438  17.130  -5.185  1.00 20.00     0.012 C 
HETATM    5  C5  UNL     1     -36.436  13.774  -4.587  1.00 20.00     0.207 A 
HETATM    6  C6  UNL     1     -35.356  14.831  -4.757  1.00 20.00     0.089 A 
HETATM    7  C7  UNL     1     -35.721  16.259  -5.193  1.00 20.00    -0.014 C 
HETATM    8  C8  UNL     1     -36.764  16.862  -4.229  1.00 20.00     0.018 C 
HETATM    9  C9  UNL     1     -36.307  16.307  -6.620  1.00 20.00     0.018 C 
HETATM   10  O10 UNL     1     -35.599  13.808  -5.743  1.00 20.00    -0.374 OA
ENDROOT
TORSDOF 0
ENDMDL
MODEL 8
REMARK VINA RESULT:      -3.8     16.117     17.755
REMARK  0 active torsions:
REMARK  status: ('A' for Active; 'I' for Inactive)
ROOT
HETATM    1  C1  UNL     1     -34.836  15.229  -5.537  1.00 20.00     0.003 C 
HETATM    2  C2  UNL     1     -33.780  14.522  -4.688  1.00 20.00     0.001 C 
HETATM    3  C3  UNL     1     -34.593  16.729  -5.631  1.00 20.00     0.041 C 
HETATM    4  C4  UNL     1     -33.020  15.459  -3.744  1.00 20.00     0.012 C 
HETATM    5  C5  UNL     1     -35.569  18.470  -3.948  1.00 20.00     0.207 A 
HETATM    6  C6  UNL     1     -34.573  17.364  -4.261  1.00 20.00     0.089 A 
HETATM    7  C7  UNL     1     -33.900  16.575  -3.126  1.00 20.00    -0.014 C 
HETATM    8  C8  UNL     1     -34.968  15.944  -2.208  1.00 20.00     0.018 C 
HETATM    9  C9  UNL     1     -32.986  17.461  -2.254  1.00 20.00     0.018 C 
HETATM   10  O10 UNL     1     -34.223  18.762  -4.326  1.00 20.00    -0.374 OA
ENDROOT
TORSDOF 0
ENDMDL
MODEL 9
REMARK VINA RESULT:      -3.8     16.710     18.194
REMARK  0 active torsions:
REMARK  status: ('A' for Active; 'I' for Inactive)
ROOT
HETATM    1  C1  UNL     1     -34.746  18.284  -2.991  1.00 20.00     0.003 C 
HETATM    2  C2  UNL     1     -34.615  17.281  -1.844  1.00 20.00     0.001 C 
HETATM    3  C3  UNL     1     -35.639  17.768  -4.111  1.00 20.00     0.041 C 
HETATM    4  C4  UNL     1     -34.973  15.845  -2.238  1.00 20.00     0.012 C 
HETATM    5  C5  UNL     1     -34.768  16.386  -6.147  1.00 20.00     0.207 A 
HETATM    6  C6  UNL     1     -35.116  16.466  -4.668  1.00 20.00     0.089 A 
HETATM    7  C7  UNL     1     -34.523  15.457  -3.670  1.00 20.00    -0.014 C 
HETATM    8  C8  UNL     1     -32.982  15.469  -3.751  1.00 20.00     0.018 C 
HETATM    9  C9  UNL     1     -35.003  14.015  -3.936  1.00 20.00     0.018 C 
HETATM   10  O10 UNL     1     -36.015  15.904  -5.646  1.00 20.00    -0.374 OA
ENDROOT
TORSDOF 0
ENDMDL
