MODEL 1
REMARK VINA RESULT:      -5.0      0.000      0.000
REMARK  1 active torsions:
REMARK  status: ('A' for Active; 'I' for Inactive)
REMARK    1  A    between atoms: C6_6  and  C8_8 
ROOT
HETATM    1  C1  UNL     1     -33.942  14.905  -4.198  1.00 20.00     0.144 C 
HETATM    2  C2  UNL     1     -33.131  15.983  -3.505  1.00 20.00     0.079 C 
HETATM    3  C3  UNL     1     -33.808  16.435  -2.221  1.00 20.00     0.007 C 
HETATM    4  C4  UNL     1     -35.254  16.851  -2.461  1.00 20.00     0.002 C 
HETATM    5  C5  UNL     1     -36.050  15.709  -3.093  1.00 20.00     0.026 C 
HETATM    6  C6  UNL     1     -35.438  15.182  -4.408  1.00 20.00     0.114 C 
HETATM    7  C7  UNL     1     -35.595  16.197  -5.550  1.00 20.00     0.033 C 
HETATM    8  O9  UNL     1     -33.388  13.899  -4.644  1.00 20.00    -0.297 OA
ENDROOT
BRANCH   6   9
HETATM    9  C8  UNL     1     -36.161  13.883  -4.801  1.00 20.00     0.401 C 
HETATM   10  F10 UNL     1     -35.663  12.860  -4.096  1.00 20.00    -0.170 F 
HETATM   11  F11 UNL     1     -37.469  14.002  -4.545  1.00 20.00    -0.170 F 
HETATM   12  F12 UNL     1     -35.985  13.648  -6.106  1.00 20.00    -0.170 F 
ENDBRANCH   6   9
TORSDOF 1
ENDMDL
MODEL 2
REMARK VINA RESULT:      -5.0      0.001      1.092
REMARK  1 active torsions:
REMARK  status: ('A' for Active; 'I' for Inactive)
REMARK    1  A    between atoms: C6_6  and  C8_8 
ROOT
HETATM    1  C1  UNL     1     -33.942  14.905  -4.198  1.00 20.00     0.144 C 
HETATM    2  C2  UNL     1     -33.131  15.983  -3.505  1.00 20.00     0.079 C 
HETATM    3  C3  UNL     1     -33.807  16.435  -2.221  1.00 20.00     0.007 C 
HETATM    4  C4  UNL     1     -35.254  16.851  -2.461  1.00 20.00     0.002 C 
HETATM    5  C5  UNL     1     -36.050  15.709  -3.093  1.00 20.00     0.026 C 
HETATM    6  C6  UNL     1     -35.438  15.182  -4.408  1.00 20.00     0.114 C 
HETATM    7  C7  UNL     1     -35.595  16.197  -5.550  1.00 20.00     0.033 C 
HETATM    8  O9  UNL     1     -33.388  13.900  -4.645  1.00 20.00    -0.297 OA
ENDROOT
BRANCH   6   9
HETATM    9  C8  UNL     1     -36.161  13.883  -4.801  1.00 20.00     0.401 C 
HETATM   10  F10 UNL     1     -35.985  13.648  -6.107  1.00 20.00    -0.170 F 
HETATM   11  F11 UNL     1     -35.663  12.861  -4.096  1.00 20.00    -0.170 F 
HETATM   12  F12 UNL     1     -37.469  14.001  -4.546  1.00 20.00    -0.170 F 
ENDBRANCH   6   9
TORSDOF 1
ENDMDL
MODEL 3
REMARK VINA RESULT:      -4.9      1.972      3.286
REMARK  1 active torsions:
REMARK  status: ('A' for Active; 'I' for Inactive)
REMARK    1  A    between atoms: C6_6  and  C8_8 
ROOT
HETATM    1  C1  UNL     1     -36.104  14.081  -4.353  1.00 20.00     0.144 C 
HETATM    2  C2  UNL     1     -37.548  14.544  -4.346  1.00 20.00     0.079 C 
HETATM    3  C3  UNL     1     -37.730  15.780  -5.213  1.00 20.00     0.007 C 
HETATM    4  C4  UNL     1     -36.756  16.887  -4.828  1.00 20.00     0.002 C 
HETATM    5  C5  UNL     1     -35.311  16.396  -4.921  1.00 20.00     0.026 C 
HETATM    6  C6  UNL     1     -35.029  15.141  -4.070  1.00 20.00     0.114 C 
HETATM    7  C7  UNL     1     -35.040  15.462  -2.568  1.00 20.00     0.033 C 
HETATM    8  O9  UNL     1     -35.834  12.888  -4.493  1.00 20.00    -0.297 OA
ENDROOT
BRANCH   6   9
HETATM    9  C8  UNL     1     -33.642  14.592  -4.446  1.00 20.00     0.401 C 
HETATM   10  F10 UNL     1     -33.491  13.363  -3.938  1.00 20.00    -0.170 F 
HETATM   11  F11 UNL     1     -33.527  14.539  -5.778  1.00 20.00    -0.170 F 
HETATM   12  F12 UNL     1     -32.692  15.394  -3.952  1.00 20.00    -0.170 F 
ENDBRANCH   6   9
TORSDOF 1
ENDMDL
MODEL 4
REMARK VINA RESULT:      -4.8     12.426     13.128
REMARK  1 active torsions:
REMARK  status: ('A' for Active; 'I' for Inactive)
REMARK    1  A    between atoms: C6_6  and  C8_8 
ROOT
HETATM    1  C1  UNL     1     -33.963   4.537   3.772  1.00 20.00     0.144 C 
HETATM    2  C2  UNL     1     -33.465   4.714   2.350  1.00 20.00     0.079 C 
HETATM    3  C3  UNL     1     -32.466   5.856   2.259  1.00 20.00     0.007 C 
HETATM    4  C4  UNL     1     -33.026   7.144   2.850  1.00 20.00     0.002 C 
HETATM    5  C5  UNL     1     -33.446   6.937   4.306  1.00 20.00     0.026 C 
HETATM    6  C6  UNL     1     -34.464   5.794   4.499  1.00 20.00     0.114 C 
HETATM    7  C7  UNL     1     -35.845   6.168   3.938  1.00 20.00     0.033 C 
HETATM    8  O9  UNL     1     -34.036   3.414   4.270  1.00 20.00    -0.297 OA
ENDROOT
BRANCH   6   9
HETATM    9  C8  UNL     1     -34.605   5.509   6.003  1.00 20.00     0.401 C 
HETATM   10  F10 UNL     1     -33.538   4.824   6.432  1.00 20.00    -0.170 F 
HETATM   11  F11 UNL     1     -34.689   6.664   6.674  1.00 20.00    -0.170 F 
HETATM   12  F12 UNL     1     -35.710   4.788   6.223  1.00 20.00    -0.170 F 
ENDBRANCH   6   9
TORSDOF 1
ENDMDL
MODEL 5
REMARK VINA RESULT:      -4.6      2.735      3.774
REMARK  1 active torsions:
REMARK  status: ('A' for Active; 'I' for Inactive)
REMARK    1  A    between atoms: C6_6  and  C8_8 
ROOT
HETATM    1  C1  UNL     1     -35.763  16.424  -4.237  1.00 20.00     0.144 C 
HETATM    2  C2  UNL     1     -37.116  15.975  -4.755  1.00 20.00     0.079 C 
HETATM    3  C3  UNL     1     -37.443  14.568  -4.279  1.00 20.00     0.007 C 
HETATM    4  C4  UNL     1     -36.328  13.585  -4.618  1.00 20.00     0.002 C 
HETATM    5  C5  UNL     1     -35.000  14.042  -4.014  1.00 20.00     0.026 C 
HETATM    6  C6  UNL     1     -34.582  15.464  -4.442  1.00 20.00     0.114 C 
HETATM    7  C7  UNL     1     -34.162  15.509  -5.918  1.00 20.00     0.033 C 
HETATM    8  O9  UNL     1     -35.623  17.550  -3.758  1.00 20.00    -0.297 OA
ENDROOT
BRANCH   6   9
HETATM    9  C8  UNL     1     -33.390  15.908  -3.577  1.00 20.00     0.401 C 
HETATM   10  F10 UNL     1     -33.733  15.868  -2.284  1.00 20.00    -0.170 F 
HETATM   11  F11 UNL     1     -32.353  15.088  -3.786  1.00 20.00    -0.170 F 
HETATM   12  F12 UNL     1     -33.039  17.157  -3.903  1.00 20.00    -0.170 F 
ENDBRANCH   6   9
TORSDOF 1
ENDMDL
MODEL 6
REMARK VINA RESULT:      -4.5      2.431      3.712
REMARK  1 active torsions:
REMARK  status: ('A' for Active; 'I' for Inactive)
REMARK    1  A    between atoms: C6_6  and  C8_8 
ROOT
HETATM    1  C1  UNL     1     -35.039  14.480  -4.641  1.00 20.00     0.144 C 
HETATM    2  C2  UNL     1     -36.028  14.197  -5.754  1.00 20.00     0.079 C 
HETATM    3  C3  UNL     1     -35.653  14.949  -7.022  1.00 20.00     0.007 C 
HETATM    4  C4  UNL     1     -35.472  16.439  -6.762  1.00 20.00     0.002 C 
HETATM    5  C5  UNL     1     -34.414  16.678  -5.685  1.00 20.00     0.026 C 
HETATM    6  C6  UNL     1     -34.710  15.954  -4.355  1.00 20.00     0.114 C 
HETATM    7  C7  UNL     1     -35.898  16.588  -3.619  1.00 20.00     0.033 C 
HETATM    8  O9  UNL     1     -34.599  13.560  -3.950  1.00 20.00    -0.297 OA
ENDROOT
BRANCH   6   9
HETATM    9  C8  UNL     1     -33.466  16.047  -3.456  1.00 20.00     0.401 C 
HETATM   10  F10 UNL     1     -32.954  17.282  -3.524  1.00 20.00    -0.170 F 
HETATM   11  F11 UNL     1     -33.806  15.777  -2.190  1.00 20.00    -0.170 F 
HETATM   12  F12 UNL     1     -32.548  15.164  -3.865  1.00 20.00    -0.170 F 
ENDBRANCH   6   9
TORSDOF 1
ENDMDL
MODEL 7
REMARK VINA RESULT:      -4.4      2.084      3.353
REMARK  1 active torsions:
REMARK  status: ('A' for Active; 'I' for Inactive)
REMARK    1  A    between atoms: C6_6  and  C8_8 
ROOT
HETATM    1  C1  UNL     1     -34.838  14.950  -6.250  1.00 20.00     0.144 C 
HETATM    2  C2  UNL     1     -35.865  15.213  -7.335  1.00 20.00     0.079 C 
HETATM    3  C3  UNL     1     -36.675  16.463  -7.029  1.00 20.00     0.007 C 
HETATM    4  C4  UNL     1     -37.293  16.408  -5.637  1.00 20.00     0.002 C 
HETATM    5  C5  UNL     1     -36.214  16.215  -4.571  1.00 20.00     0.026 C 
HETATM    6  C6  UNL     1     -35.337  14.966  -4.797  1.00 20.00     0.114 C 
HETATM    7  C7  UNL     1     -36.120  13.672  -4.532  1.00 20.00     0.033 C 
HETATM    8  O9  UNL     1     -33.681  14.652  -6.547  1.00 20.00    -0.297 OA
ENDROOT
BRANCH   6   9
HETATM    9  C8  UNL     1     -34.140  15.024  -3.833  1.00 20.00     0.401 C 
HETATM   10  F10 UNL     1     -33.370  16.076  -4.135  1.00 20.00    -0.170 F 
HETATM   11  F11 UNL     1     -34.582  15.145  -2.575  1.00 20.00    -0.170 F 
HETATM   12  F12 UNL     1     -33.420  13.902  -3.942  1.00 20.00    -0.170 F 
ENDBRANCH   6   9
TORSDOF 1
ENDMDL
MODEL 8
REMARK VINA RESULT:      -4.4      1.610      2.203
REMARK  1 active torsions:
REMARK  status: ('A' for Active; 'I' for Inactive)
REMARK    1  A    between atoms: C6_6  and  C8_8 
ROOT
HETATM    1  C1  UNL     1     -35.284  14.764  -5.643  1.00 20.00     0.144 C 
HETATM    2  C2  UNL     1     -33.768  14.764  -5.685  1.00 20.00     0.079 C 
HETATM    3  C3  UNL     1     -33.182  14.623  -4.289  1.00 20.00     0.007 C 
HETATM    4  C4  UNL     1     -33.743  15.669  -3.334  1.00 20.00     0.002 C 
HETATM    5  C5  UNL     1     -35.268  15.582  -3.268  1.00 20.00     0.026 C 
HETATM    6  C6  UNL     1     -35.955  15.717  -4.642  1.00 20.00     0.114 C 
HETATM    7  C7  UNL     1     -35.855  17.150  -5.186  1.00 20.00     0.033 C 
HETATM    8  O9  UNL     1     -35.929  14.088  -6.445  1.00 20.00    -0.297 OA
ENDROOT
BRANCH   6   9
HETATM    9  C8  UNL     1     -37.441  15.352  -4.488  1.00 20.00     0.401 C 
HETATM   10  F10 UNL     1     -37.559  14.042  -4.241  1.00 20.00    -0.170 F 
HETATM   11  F11 UNL     1     -37.970  16.044  -3.472  1.00 20.00    -0.170 F 
HETATM   12  F12 UNL     1     -38.097  15.650  -5.616  1.00 20.00    -0.170 F 
ENDBRANCH   6   9
TORSDOF 1
ENDMDL
MODEL 9
REMARK VINA RESULT:      -4.4      2.861      3.914
REMARK  1 active torsions:
REMARK  status: ('A' for Active; 'I' for Inactive)
REMARK    1  A    between atoms: C6_6  and  C8_8 
ROOT
HETATM    1  C1  UNL     1     -34.499  16.087  -5.445  1.00 20.00     0.144 C 
HETATM    2  C2  UNL     1     -35.123  15.034  -6.340  1.00 20.00     0.079 C 
HETATM    3  C3  UNL     1     -36.201  14.258  -5.601  1.00 20.00     0.007 C 
HETATM    4  C4  UNL     1     -35.681  13.681  -4.289  1.00 20.00     0.002 C 
HETATM    5  C5  UNL     1     -35.129  14.788  -3.390  1.00 20.00     0.026 C 
HETATM    6  C6  UNL     1     -34.024  15.633  -4.057  1.00 20.00     0.114 C 
HETATM    7  C7  UNL     1     -32.723  14.833  -4.220  1.00 20.00     0.033 C 
HETATM    8  O9  UNL     1     -34.309  17.229  -5.866  1.00 20.00    -0.297 OA
ENDROOT
BRANCH   6   9
HETATM    9  C8  UNL     1     -33.741  16.859  -3.173  1.00 20.00     0.401 C 
HETATM   10  F10 UNL     1     -34.767  17.715  -3.249  1.00 20.00    -0.170 F 
HETATM   11  F11 UNL     1     -33.582  16.469  -1.902  1.00 20.00    -0.170 F 
HETATM   12  F12 UNL     1     -32.625  17.467  -3.592  1.00 20.00    -0.170 F 
ENDBRANCH   6   9
TORSDOF 1
ENDMDL
