MODEL 1
REMARK VINA RESULT:      -4.3      0.000      0.000
REMARK  2 active torsions:
REMARK  status: ('A' for Active; 'I' for Inactive)
REMARK    1  A    between atoms: C4_4  and  C6_6 
REMARK    2  A    between atoms: C5_5  and  C7_7 
ROOT
HETATM    1  C1  UNL     1     -34.159   6.626   5.779  1.00 20.00     0.007 C 
HETATM    2  C2  UNL     1     -34.210   5.099   6.042  1.00 20.00     0.007 C 
HETATM    3  C3  UNL     1     -35.439   5.588   4.075  1.00 20.00     0.014 C 
HETATM    4  C4  UNL     1     -34.411   6.721   4.258  1.00 20.00     0.017 C 
HETATM    5  C5  UNL     1     -34.485   4.518   4.637  1.00 20.00     0.017 C 
ENDROOT
BRANCH   4   6
HETATM    6  C6  UNL     1     -33.168   6.183   3.564  1.00 20.00     0.155 A 
HETATM    7  C7  UNL     1     -32.997   7.075   2.379  1.00 20.00     0.155 A 
HETATM    8  O8  UNL     1     -32.038   7.052   3.440  1.00 20.00    -0.375 OA
ENDBRANCH   4   6
TORSDOF 2
ENDMDL
MODEL 2
REMARK VINA RESULT:      -3.9     15.941     16.720
REMARK  2 active torsions:
REMARK  status: ('A' for Active; 'I' for Inactive)
REMARK    1  A    between atoms: C4_4  and  C6_6 
REMARK    2  A    between atoms: C5_5  and  C7_7 
ROOT
HETATM    1  C1  UNL     1     -24.960  18.458  10.897  1.00 20.00     0.007 C 
HETATM    2  C2  UNL     1     -24.334  18.121  12.274  1.00 20.00     0.007 C 
HETATM    3  C3  UNL     1     -24.167  16.224  10.862  1.00 20.00     0.014 C 
HETATM    4  C4  UNL     1     -24.260  17.461   9.947  1.00 20.00     0.017 C 
HETATM    5  C5  UNL     1     -23.355  16.974  11.934  1.00 20.00     0.017 C 
ENDROOT
BRANCH   4   6
HETATM    6  C6  UNL     1     -22.812  17.910   9.816  1.00 20.00     0.155 A 
HETATM    7  C7  UNL     1     -22.531  17.813   8.353  1.00 20.00     0.155 A 
HETATM    8  O8  UNL     1     -22.538  19.074   9.030  1.00 20.00    -0.375 OA
ENDBRANCH   4   6
TORSDOF 2
ENDMDL
MODEL 3
REMARK VINA RESULT:      -3.8      9.010      9.779
REMARK  2 active torsions:
REMARK  status: ('A' for Active; 'I' for Inactive)
REMARK    1  A    between atoms: C4_4  and  C6_6 
REMARK    2  A    between atoms: C5_5  and  C7_7 
ROOT
HETATM    1  C1  UNL     1     -43.039   6.754  -1.440  1.00 20.00     0.007 C 
HETATM    2  C2  UNL     1     -43.327   5.576  -0.474  1.00 20.00     0.007 C 
HETATM    3  C3  UNL     1     -40.988   5.951  -0.565  1.00 20.00     0.014 C 
HETATM    4  C4  UNL     1     -41.672   7.277  -0.946  1.00 20.00     0.017 C 
HETATM    5  C5  UNL     1     -42.087   5.578   0.448  1.00 20.00     0.017 C 
ENDROOT
BRANCH   4   6
HETATM    6  C6  UNL     1     -41.910   7.949   0.398  1.00 20.00     0.155 A 
HETATM    7  C7  UNL     1     -41.418   9.345   0.200  1.00 20.00     0.155 A 
HETATM    8  O8  UNL     1     -42.801   9.068   0.442  1.00 20.00    -0.375 OA
ENDBRANCH   4   6
TORSDOF 2
ENDMDL
MODEL 4
REMARK VINA RESULT:      -3.8     15.796     16.652
REMARK  2 active torsions:
REMARK  status: ('A' for Active; 'I' for Inactive)
REMARK    1  A    between atoms: C4_4  and  C6_6 
REMARK    2  A    between atoms: C5_5  and  C7_7 
ROOT
HETATM    1  C1  UNL     1     -24.263  16.107  11.084  1.00 20.00     0.007 C 
HETATM    2  C2  UNL     1     -25.280  16.728  12.075  1.00 20.00     0.007 C 
HETATM    3  C3  UNL     1     -23.188  17.812  12.331  1.00 20.00     0.014 C 
HETATM    4  C4  UNL     1     -23.226  17.238  10.902  1.00 20.00     0.017 C 
HETATM    5  C5  UNL     1     -24.694  18.134  12.332  1.00 20.00     0.017 C 
ENDROOT
BRANCH   4   6
HETATM    6  C6  UNL     1     -23.902  18.339  10.099  1.00 20.00     0.155 A 
HETATM    7  C7  UNL     1     -22.959  18.599   8.971  1.00 20.00     0.155 A 
HETATM    8  O8  UNL     1     -24.264  18.057   8.744  1.00 20.00    -0.375 OA
ENDBRANCH   4   6
TORSDOF 2
ENDMDL
MODEL 5
REMARK VINA RESULT:      -3.7      8.775      9.756
REMARK  2 active torsions:
REMARK  status: ('A' for Active; 'I' for Inactive)
REMARK    1  A    between atoms: C4_4  and  C6_6 
REMARK    2  A    between atoms: C5_5  and  C7_7 
ROOT
HETATM    1  C1  UNL     1     -41.140   7.956   0.740  1.00 20.00     0.007 C 
HETATM    2  C2  UNL     1     -41.792   8.762  -0.412  1.00 20.00     0.007 C 
HETATM    3  C3  UNL     1     -41.168   6.622  -1.219  1.00 20.00     0.014 C 
HETATM    4  C4  UNL     1     -41.362   6.491   0.304  1.00 20.00     0.017 C 
HETATM    5  C5  UNL     1     -42.304   7.653  -1.359  1.00 20.00     0.017 C 
ENDROOT
BRANCH   4   6
HETATM    6  C6  UNL     1     -42.849   6.203   0.445  1.00 20.00     0.155 A 
HETATM    7  C7  UNL     1     -42.905   4.977   1.296  1.00 20.00     0.155 A 
HETATM    8  O8  UNL     1     -43.417   6.230   1.758  1.00 20.00    -0.375 OA
ENDBRANCH   4   6
TORSDOF 2
ENDMDL
MODEL 6
REMARK VINA RESULT:      -3.7     11.853     12.642
REMARK  2 active torsions:
REMARK  status: ('A' for Active; 'I' for Inactive)
REMARK    1  A    between atoms: C4_4  and  C6_6 
REMARK    2  A    between atoms: C5_5  and  C7_7 
ROOT
HETATM    1  C1  UNL     1     -33.692  14.801  -5.425  1.00 20.00     0.007 C 
HETATM    2  C2  UNL     1     -32.881  15.028  -4.124  1.00 20.00     0.007 C 
HETATM    3  C3  UNL     1     -34.789  16.435  -4.104  1.00 20.00     0.014 C 
HETATM    4  C4  UNL     1     -35.116  15.243  -5.024  1.00 20.00     0.017 C 
HETATM    5  C5  UNL     1     -33.947  15.571  -3.146  1.00 20.00     0.017 C 
ENDROOT
BRANCH   4   6
HETATM    6  C6  UNL     1     -35.656  14.195  -4.063  1.00 20.00     0.155 A 
HETATM    7  C7  UNL     1     -37.045  13.937  -4.546  1.00 20.00     0.155 A 
HETATM    8  O8  UNL     1     -36.036  12.924  -4.599  1.00 20.00    -0.375 OA
ENDBRANCH   4   6
TORSDOF 2
ENDMDL
MODEL 7
REMARK VINA RESULT:      -3.6     16.179     16.932
REMARK  2 active torsions:
REMARK  status: ('A' for Active; 'I' for Inactive)
REMARK    1  A    between atoms: C4_4  and  C6_6 
REMARK    2  A    between atoms: C5_5  and  C7_7 
ROOT
HETATM    1  C1  UNL     1     -23.806  18.987   9.179  1.00 20.00     0.007 C 
HETATM    2  C2  UNL     1     -23.393  18.356   7.825  1.00 20.00     0.007 C 
HETATM    3  C3  UNL     1     -21.597  18.147   9.358  1.00 20.00     0.014 C 
HETATM    4  C4  UNL     1     -22.889  18.265  10.190  1.00 20.00     0.017 C 
HETATM    5  C5  UNL     1     -22.292  17.353   8.237  1.00 20.00     0.017 C 
ENDROOT
BRANCH   4   6
HETATM    6  C6  UNL     1     -23.376  16.827  10.287  1.00 20.00     0.155 A 
HETATM    7  C7  UNL     1     -23.595  16.614  11.748  1.00 20.00     0.155 A 
HETATM    8  O8  UNL     1     -24.684  16.595  10.820  1.00 20.00    -0.375 OA
ENDBRANCH   4   6
TORSDOF 2
ENDMDL
MODEL 8
REMARK VINA RESULT:      -3.6     11.676     12.431
REMARK  2 active torsions:
REMARK  status: ('A' for Active; 'I' for Inactive)
REMARK    1  A    between atoms: C4_4  and  C6_6 
REMARK    2  A    between atoms: C5_5  and  C7_7 
ROOT
HETATM    1  C1  UNL     1     -33.646  15.888  -4.090  1.00 20.00     0.007 C 
HETATM    2  C2  UNL     1     -33.584  16.220  -2.577  1.00 20.00     0.007 C 
HETATM    3  C3  UNL     1     -35.726  16.800  -3.410  1.00 20.00     0.014 C 
HETATM    4  C4  UNL     1     -35.160  15.709  -4.340  1.00 20.00     0.017 C 
HETATM    5  C5  UNL     1     -35.071  16.188  -2.158  1.00 20.00     0.017 C 
ENDROOT
BRANCH   4   6
HETATM    6  C6  UNL     1     -35.577  14.415  -3.659  1.00 20.00     0.155 A 
HETATM    7  C7  UNL     1     -36.267  13.642  -4.734  1.00 20.00     0.155 A 
HETATM    8  O8  UNL     1     -35.038  13.188  -4.160  1.00 20.00    -0.375 OA
ENDBRANCH   4   6
TORSDOF 2
ENDMDL
MODEL 9
REMARK VINA RESULT:      -3.6     11.895     13.035
REMARK  2 active torsions:
REMARK  status: ('A' for Active; 'I' for Inactive)
REMARK    1  A    between atoms: C4_4  and  C6_6 
REMARK    2  A    between atoms: C5_5  and  C7_7 
ROOT
HETATM    1  C1  UNL     1     -34.865  14.196  -3.721  1.00 20.00     0.007 C 
HETATM    2  C2  UNL     1     -35.281  15.444  -2.901  1.00 20.00     0.007 C 
HETATM    3  C3  UNL     1     -33.037  15.702  -3.621  1.00 20.00     0.014 C 
HETATM    4  C4  UNL     1     -33.718  14.732  -4.606  1.00 20.00     0.017 C 
HETATM    5  C5  UNL     1     -34.318  16.534  -3.424  1.00 20.00     0.017 C 
ENDROOT
BRANCH   4   6
HETATM    6  C6  UNL     1     -34.345  15.661  -5.636  1.00 20.00     0.155 A 
HETATM    7  C7  UNL     1     -33.924  15.087  -6.948  1.00 20.00     0.155 A 
HETATM    8  O8  UNL     1     -35.297  15.107  -6.549  1.00 20.00    -0.375 OA
ENDBRANCH   4   6
TORSDOF 2
ENDMDL
