MODEL 1
REMARK VINA RESULT:      -5.1      0.000      0.000
REMARK  4 active torsions:
REMARK  status: ('A' for Active; 'I' for Inactive)
REMARK    1  A    between atoms: C4_4  and  C5_5 
REMARK    2  A    between atoms: C5_5  and  C6_6 
REMARK    3  A    between atoms: C6_6  and  C7_7 
REMARK    4  A    between atoms: C7_7  and  O8_8 
ROOT
HETATM    1  C1  UNL     1     -32.937   8.690   0.362  1.00 20.00     0.012 C 
HETATM    2  C2  UNL     1     -32.609   8.042   1.318  1.00 20.00    -0.117 C 
HETATM    3  C4  UNL     1     -32.203   7.251   2.488  1.00 20.00     0.093 C 
ENDROOT
BRANCH   3   4
HETATM    4  C5  UNL     1     -33.206   6.131   2.771  1.00 20.00     0.014 C 
BRANCH   4   5
HETATM    5  C6  UNL     1     -34.024   6.424   4.028  1.00 20.00     0.032 C 
BRANCH   5   6
HETATM    6  C7  UNL     1     -34.602   5.170   4.691  1.00 20.00     0.114 C 
HETATM    7  C3  UNL     1     -34.689   5.271   6.208  1.00 20.00     0.039 C 
BRANCH   6   8
HETATM    8  O8  UNL     1     -35.918   4.980   4.171  1.00 20.00    -0.396 OA
HETATM    9  H20 UNL     1     -35.965   4.057   3.877  1.00 20.00     0.210 HD
ENDBRANCH   6   8
ENDBRANCH   5   6
ENDBRANCH   4   5
ENDBRANCH   3   4
TORSDOF 4
ENDMDL
MODEL 2
REMARK VINA RESULT:      -4.7      1.629      2.163
REMARK  4 active torsions:
REMARK  status: ('A' for Active; 'I' for Inactive)
REMARK    1  A    between atoms: C4_4  and  C5_5 
REMARK    2  A    between atoms: C5_5  and  C6_6 
REMARK    3  A    between atoms: C6_6  and  C7_7 
REMARK    4  A    between atoms: C7_7  and  O8_8 
ROOT
HETATM    1  C1  UNL     1     -32.208   7.265   2.873  1.00 20.00     0.012 C 
HETATM    2  C2  UNL     1     -32.753   6.234   2.588  1.00 20.00    -0.117 C 
HETATM    3  C4  UNL     1     -33.419   4.972   2.236  1.00 20.00     0.093 C 
ENDROOT
BRANCH   3   4
HETATM    4  C5  UNL     1     -33.986   4.282   3.479  1.00 20.00     0.014 C 
BRANCH   4   5
HETATM    5  C6  UNL     1     -34.880   5.229   4.279  1.00 20.00     0.032 C 
BRANCH   5   6
HETATM    6  C7  UNL     1     -34.415   5.436   5.724  1.00 20.00     0.114 C 
HETATM    7  C3  UNL     1     -34.028   6.876   6.035  1.00 20.00     0.039 C 
BRANCH   6   8
HETATM    8  O8  UNL     1     -35.496   5.062   6.578  1.00 20.00    -0.396 OA
HETATM    9  H20 UNL     1     -35.338   5.501   7.427  1.00 20.00     0.210 HD
ENDBRANCH   6   8
ENDBRANCH   5   6
ENDBRANCH   4   5
ENDBRANCH   3   4
TORSDOF 4
ENDMDL
MODEL 3
REMARK VINA RESULT:      -4.5      1.833      4.453
REMARK  4 active torsions:
REMARK  status: ('A' for Active; 'I' for Inactive)
REMARK    1  A    between atoms: C4_4  and  C5_5 
REMARK    2  A    between atoms: C5_5  and  C6_6 
REMARK    3  A    between atoms: C6_6  and  C7_7 
REMARK    4  A    between atoms: C7_7  and  O8_8 
ROOT
HETATM    1  C1  UNL     1     -34.354   6.439   6.219  1.00 20.00     0.012 C 
HETATM    2  C2  UNL     1     -34.525   5.651   5.330  1.00 20.00    -0.117 C 
HETATM    3  C4  UNL     1     -34.737   4.685   4.243  1.00 20.00     0.093 C 
ENDROOT
BRANCH   3   4
HETATM    4  C5  UNL     1     -33.642   4.800   3.181  1.00 20.00     0.014 C 
BRANCH   4   5
HETATM    5  C6  UNL     1     -33.760   6.111   2.403  1.00 20.00     0.032 C 
BRANCH   5   6
HETATM    6  C7  UNL     1     -32.432   6.861   2.260  1.00 20.00     0.114 C 
HETATM    7  C3  UNL     1     -32.503   8.043   1.303  1.00 20.00     0.039 C 
BRANCH   6   8
HETATM    8  O8  UNL     1     -32.074   7.344   3.555  1.00 20.00    -0.396 OA
HETATM    9  H20 UNL     1     -31.221   7.793   3.452  1.00 20.00     0.210 HD
ENDBRANCH   6   8
ENDBRANCH   5   6
ENDBRANCH   4   5
ENDBRANCH   3   4
TORSDOF 4
ENDMDL
MODEL 4
REMARK VINA RESULT:      -4.2     10.667     11.521
REMARK  4 active torsions:
REMARK  status: ('A' for Active; 'I' for Inactive)
REMARK    1  A    between atoms: C4_4  and  C5_5 
REMARK    2  A    between atoms: C5_5  and  C6_6 
REMARK    3  A    between atoms: C6_6  and  C7_7 
REMARK    4  A    between atoms: C7_7  and  O8_8 
ROOT
HETATM    1  C1  UNL     1     -35.160  16.677  -1.247  1.00 20.00     0.012 C 
HETATM    2  C2  UNL     1     -34.280  16.517  -2.049  1.00 20.00    -0.117 C 
HETATM    3  C4  UNL     1     -33.201  16.323  -3.027  1.00 20.00     0.093 C 
ENDROOT
BRANCH   3   4
HETATM    4  C5  UNL     1     -33.683  15.504  -4.225  1.00 20.00     0.014 C 
BRANCH   4   5
HETATM    5  C6  UNL     1     -34.405  14.234  -3.774  1.00 20.00     0.032 C 
BRANCH   5   6
HETATM    6  C7  UNL     1     -35.749  14.011  -4.475  1.00 20.00     0.114 C 
HETATM    7  C3  UNL     1     -35.801  14.586  -5.884  1.00 20.00     0.039 C 
BRANCH   6   8
HETATM    8  O8  UNL     1     -35.962  12.602  -4.550  1.00 20.00    -0.396 OA
HETATM    9  H20 UNL     1     -35.188  12.186  -4.140  1.00 20.00     0.210 HD
ENDBRANCH   6   8
ENDBRANCH   5   6
ENDBRANCH   4   5
ENDBRANCH   3   4
TORSDOF 4
ENDMDL
MODEL 5
REMARK VINA RESULT:      -4.1      2.418      4.705
REMARK  4 active torsions:
REMARK  status: ('A' for Active; 'I' for Inactive)
REMARK    1  A    between atoms: C4_4  and  C5_5 
REMARK    2  A    between atoms: C5_5  and  C6_6 
REMARK    3  A    between atoms: C6_6  and  C7_7 
REMARK    4  A    between atoms: C7_7  and  O8_8 
ROOT
HETATM    1  C1  UNL     1     -34.048   6.666   5.888  1.00 20.00     0.012 C 
HETATM    2  C2  UNL     1     -34.118   6.231   4.771  1.00 20.00    -0.117 C 
HETATM    3  C4  UNL     1     -34.208   5.697   3.406  1.00 20.00     0.093 C 
ENDROOT
BRANCH   3   4
HETATM    4  C5  UNL     1     -32.896   5.902   2.646  1.00 20.00     0.014 C 
BRANCH   4   5
HETATM    5  C6  UNL     1     -32.562   7.387   2.508  1.00 20.00     0.032 C 
BRANCH   5   6
HETATM    6  C7  UNL     1     -32.782   7.937   1.095  1.00 20.00     0.114 C 
HETATM    7  C3  UNL     1     -33.110   9.423   1.067  1.00 20.00     0.039 C 
BRANCH   6   8
HETATM    8  O8  UNL     1     -31.575   7.723   0.362  1.00 20.00    -0.396 OA
HETATM    9  H20 UNL     1     -31.121   6.983   0.793  1.00 20.00     0.210 HD
ENDBRANCH   6   8
ENDBRANCH   5   6
ENDBRANCH   4   5
ENDBRANCH   3   4
TORSDOF 4
ENDMDL
MODEL 6
REMARK VINA RESULT:      -4.0     11.222     12.499
REMARK  4 active torsions:
REMARK  status: ('A' for Active; 'I' for Inactive)
REMARK    1  A    between atoms: C4_4  and  C5_5 
REMARK    2  A    between atoms: C5_5  and  C6_6 
REMARK    3  A    between atoms: C6_6  and  C7_7 
REMARK    4  A    between atoms: C7_7  and  O8_8 
ROOT
HETATM    1  C1  UNL     1     -33.055  17.077  -2.268  1.00 20.00     0.012 C 
HETATM    2  C2  UNL     1     -33.964  16.337  -2.530  1.00 20.00    -0.117 C 
HETATM    3  C4  UNL     1     -35.078  15.433  -2.848  1.00 20.00     0.093 C 
ENDROOT
BRANCH   3   4
HETATM    4  C5  UNL     1     -34.616  14.280  -3.740  1.00 20.00     0.014 C 
BRANCH   4   5
HETATM    5  C6  UNL     1     -33.579  14.749  -4.760  1.00 20.00     0.032 C 
BRANCH   5   6
HETATM    6  C7  UNL     1     -34.161  15.000  -6.155  1.00 20.00     0.114 C 
HETATM    7  C3  UNL     1     -34.493  16.462  -6.420  1.00 20.00     0.039 C 
BRANCH   6   8
HETATM    8  O8  UNL     1     -33.184  14.576  -7.107  1.00 20.00    -0.396 OA
HETATM    9  H20 UNL     1     -32.401  15.127  -6.959  1.00 20.00     0.210 HD
ENDBRANCH   6   8
ENDBRANCH   5   6
ENDBRANCH   4   5
ENDBRANCH   3   4
TORSDOF 4
ENDMDL
MODEL 7
REMARK VINA RESULT:      -4.0     11.483     12.621
REMARK  4 active torsions:
REMARK  status: ('A' for Active; 'I' for Inactive)
REMARK    1  A    between atoms: C4_4  and  C5_5 
REMARK    2  A    between atoms: C5_5  and  C6_6 
REMARK    3  A    between atoms: C6_6  and  C7_7 
REMARK    4  A    between atoms: C7_7  and  O8_8 
ROOT
HETATM    1  C1  UNL     1     -35.094  16.487  -1.565  1.00 20.00     0.012 C 
HETATM    2  C2  UNL     1     -34.262  16.224  -2.390  1.00 20.00    -0.117 C 
HETATM    3  C4  UNL     1     -33.242  15.906  -3.398  1.00 20.00     0.093 C 
ENDROOT
BRANCH   3   4
HETATM    4  C5  UNL     1     -33.583  14.611  -4.139  1.00 20.00     0.014 C 
BRANCH   4   5
HETATM    5  C6  UNL     1     -34.813  14.790  -5.028  1.00 20.00     0.032 C 
BRANCH   5   6
HETATM    6  C7  UNL     1     -34.474  15.039  -6.501  1.00 20.00     0.114 C 
HETATM    7  C3  UNL     1     -34.529  16.508  -6.896  1.00 20.00     0.039 C 
BRANCH   6   8
HETATM    8  O8  UNL     1     -33.148  14.558  -6.721  1.00 20.00    -0.396 OA
HETATM    9  H20 UNL     1     -32.746  14.455  -5.845  1.00 20.00     0.210 HD
ENDBRANCH   6   8
ENDBRANCH   5   6
ENDBRANCH   4   5
ENDBRANCH   3   4
TORSDOF 4
ENDMDL
MODEL 8
REMARK VINA RESULT:      -4.0     10.919     11.627
REMARK  4 active torsions:
REMARK  status: ('A' for Active; 'I' for Inactive)
REMARK    1  A    between atoms: C4_4  and  C5_5 
REMARK    2  A    between atoms: C5_5  and  C6_6 
REMARK    3  A    between atoms: C6_6  and  C7_7 
REMARK    4  A    between atoms: C7_7  and  O8_8 
ROOT
HETATM    1  C1  UNL     1     -33.002  17.804  -1.551  1.00 20.00     0.012 C 
HETATM    2  C2  UNL     1     -33.158  16.954  -2.383  1.00 20.00    -0.117 C 
HETATM    3  C4  UNL     1     -33.345  15.913  -3.404  1.00 20.00     0.093 C 
ENDROOT
BRANCH   3   4
HETATM    4  C5  UNL     1     -34.681  15.192  -3.218  1.00 20.00     0.014 C 
BRANCH   4   5
HETATM    5  C6  UNL     1     -34.733  13.903  -4.038  1.00 20.00     0.032 C 
BRANCH   5   6
HETATM    6  C7  UNL     1     -36.096  13.645  -4.688  1.00 20.00     0.114 C 
HETATM    7  C3  UNL     1     -37.145  14.691  -4.335  1.00 20.00     0.039 C 
BRANCH   6   8
HETATM    8  O8  UNL     1     -35.902  13.655  -6.103  1.00 20.00    -0.396 OA
HETATM    9  H20 UNL     1     -35.657  12.751  -6.351  1.00 20.00     0.210 HD
ENDBRANCH   6   8
ENDBRANCH   5   6
ENDBRANCH   4   5
ENDBRANCH   3   4
TORSDOF 4
ENDMDL
MODEL 9
REMARK VINA RESULT:      -3.9     10.914     11.722
REMARK  4 active torsions:
REMARK  status: ('A' for Active; 'I' for Inactive)
REMARK    1  A    between atoms: C4_4  and  C5_5 
REMARK    2  A    between atoms: C5_5  and  C6_6 
REMARK    3  A    between atoms: C6_6  and  C7_7 
REMARK    4  A    between atoms: C7_7  and  O8_8 
ROOT
HETATM    1  C1  UNL     1     -33.020  17.242  -2.297  1.00 20.00     0.012 C 
HETATM    2  C2  UNL     1     -33.898  16.441  -2.474  1.00 20.00    -0.117 C 
HETATM    3  C4  UNL     1     -34.974  15.464  -2.687  1.00 20.00     0.093 C 
ENDROOT
BRANCH   3   4
HETATM    4  C5  UNL     1     -34.578  14.428  -3.741  1.00 20.00     0.014 C 
BRANCH   4   5
HETATM    5  C6  UNL     1     -35.808  13.847  -4.437  1.00 20.00     0.032 C 
BRANCH   5   6
HETATM    6  C7  UNL     1     -37.052  14.735  -4.326  1.00 20.00     0.114 C 
HETATM    7  C3  UNL     1     -37.187  15.734  -5.467  1.00 20.00     0.039 C 
BRANCH   6   8
HETATM    8  O8  UNL     1     -38.192  13.875  -4.337  1.00 20.00    -0.396 OA
HETATM    9  H20 UNL     1     -38.006  13.183  -4.989  1.00 20.00     0.210 HD
ENDBRANCH   6   8
ENDBRANCH   5   6
ENDBRANCH   4   5
ENDBRANCH   3   4
TORSDOF 4
ENDMDL
