MODEL 1
REMARK VINA RESULT:      -4.2      0.000      0.000
REMARK  0 active torsions:
REMARK  status: ('A' for Active; 'I' for Inactive)
ROOT
HETATM    1  C1  UNL     1     -33.977   5.675   3.816  1.00 20.00    -0.064 C 
HETATM    2  C2  UNL     1     -33.453   5.363   2.627  1.00 20.00     0.016 C 
HETATM    3  C3  UNL     1     -35.034   4.910   4.532  1.00 20.00     0.061 C 
HETATM    4  C4  UNL     1     -33.541   6.804   4.686  1.00 20.00     0.201 C 
HETATM    5  C5  UNL     1     -34.729   5.295   5.964  1.00 20.00     0.172 C 
HETATM    6  O6  UNL     1     -34.287   6.658   5.909  1.00 20.00    -0.387 OA
ENDROOT
TORSDOF 0
ENDMDL
MODEL 2
REMARK VINA RESULT:      -4.2      1.607      2.137
REMARK  0 active torsions:
REMARK  status: ('A' for Active; 'I' for Inactive)
ROOT
HETATM    1  C1  UNL     1     -33.338   6.137   3.266  1.00 20.00    -0.064 C 
HETATM    2  C2  UNL     1     -32.653   7.018   2.530  1.00 20.00     0.016 C 
HETATM    3  C3  UNL     1     -34.074   6.436   4.525  1.00 20.00     0.061 C 
HETATM    4  C4  UNL     1     -33.561   4.705   2.918  1.00 20.00     0.201 C 
HETATM    5  C5  UNL     1     -35.116   5.338   4.500  1.00 20.00     0.172 C 
HETATM    6  O6  UNL     1     -34.461   4.201   3.923  1.00 20.00    -0.387 OA
ENDROOT
TORSDOF 0
ENDMDL
MODEL 3
REMARK VINA RESULT:      -4.1      1.469      2.678
REMARK  0 active torsions:
REMARK  status: ('A' for Active; 'I' for Inactive)
ROOT
HETATM    1  C1  UNL     1     -34.135   6.303   5.274  1.00 20.00    -0.064 C 
HETATM    2  C2  UNL     1     -33.669   7.196   6.153  1.00 20.00     0.016 C 
HETATM    3  C3  UNL     1     -33.943   6.350   3.798  1.00 20.00     0.061 C 
HETATM    4  C4  UNL     1     -34.864   5.048   5.615  1.00 20.00     0.201 C 
HETATM    5  C5  UNL     1     -34.057   4.878   3.460  1.00 20.00     0.172 C 
HETATM    6  O6  UNL     1     -35.035   4.351   4.367  1.00 20.00    -0.387 OA
ENDROOT
TORSDOF 0
ENDMDL
MODEL 4
REMARK VINA RESULT:      -4.0      1.735      2.969
REMARK  0 active torsions:
REMARK  status: ('A' for Active; 'I' for Inactive)
ROOT
HETATM    1  C1  UNL     1     -34.397   5.488   4.733  1.00 20.00    -0.064 C 
HETATM    2  C2  UNL     1     -34.821   5.334   5.991  1.00 20.00     0.016 C 
HETATM    3  C3  UNL     1     -33.909   6.758   4.127  1.00 20.00     0.061 C 
HETATM    4  C4  UNL     1     -34.256   4.400   3.725  1.00 20.00     0.201 C 
HETATM    5  C5  UNL     1     -33.003   6.213   3.043  1.00 20.00     0.172 C 
HETATM    6  O6  UNL     1     -33.639   5.015   2.578  1.00 20.00    -0.387 OA
ENDROOT
TORSDOF 0
ENDMDL
MODEL 5
REMARK VINA RESULT:      -3.7      1.516      2.560
REMARK  0 active torsions:
REMARK  status: ('A' for Active; 'I' for Inactive)
ROOT
HETATM    1  C1  UNL     1     -34.308   5.436   4.757  1.00 20.00    -0.064 C 
HETATM    2  C2  UNL     1     -35.077   5.397   5.849  1.00 20.00     0.016 C 
HETATM    3  C3  UNL     1     -34.014   4.287   3.856  1.00 20.00     0.061 C 
HETATM    4  C4  UNL     1     -33.666   6.656   4.190  1.00 20.00     0.201 C 
HETATM    5  C5  UNL     1     -33.723   5.021   2.563  1.00 20.00     0.172 C 
HETATM    6  O6  UNL     1     -33.065   6.234   2.951  1.00 20.00    -0.387 OA
ENDROOT
TORSDOF 0
ENDMDL
MODEL 6
REMARK VINA RESULT:      -3.4     12.336     12.736
REMARK  0 active torsions:
REMARK  status: ('A' for Active; 'I' for Inactive)
ROOT
HETATM    1  C1  UNL     1     -34.533  15.548  -3.026  1.00 20.00    -0.064 C 
HETATM    2  C2  UNL     1     -35.001  16.100  -1.903  1.00 20.00     0.016 C 
HETATM    3  C3  UNL     1     -33.190  15.790  -3.623  1.00 20.00     0.061 C 
HETATM    4  C4  UNL     1     -35.236  14.524  -3.849  1.00 20.00     0.201 C 
HETATM    5  C5  UNL     1     -32.993  14.498  -4.387  1.00 20.00     0.172 C 
HETATM    6  O6  UNL     1     -34.294  14.134  -4.866  1.00 20.00    -0.387 OA
ENDROOT
TORSDOF 0
ENDMDL
MODEL 7
REMARK VINA RESULT:      -3.4      8.895      9.262
REMARK  0 active torsions:
REMARK  status: ('A' for Active; 'I' for Inactive)
ROOT
HETATM    1  C1  UNL     1     -41.690   7.960  -0.012  1.00 20.00    -0.064 C 
HETATM    2  C2  UNL     1     -41.502   9.254   0.267  1.00 20.00     0.016 C 
HETATM    3  C3  UNL     1     -41.215   7.253  -1.233  1.00 20.00     0.061 C 
HETATM    4  C4  UNL     1     -42.340   6.964   0.887  1.00 20.00     0.201 C 
HETATM    5  C5  UNL     1     -41.108   5.838  -0.705  1.00 20.00     0.172 C 
HETATM    6  O6  UNL     1     -42.187   5.693   0.228  1.00 20.00    -0.387 OA
ENDROOT
TORSDOF 0
ENDMDL
MODEL 8
REMARK VINA RESULT:      -3.3     12.263     12.685
REMARK  0 active torsions:
REMARK  status: ('A' for Active; 'I' for Inactive)
ROOT
HETATM    1  C1  UNL     1     -33.648  15.772  -3.283  1.00 20.00    -0.064 C 
HETATM    2  C2  UNL     1     -33.024  16.898  -2.923  1.00 20.00     0.016 C 
HETATM    3  C3  UNL     1     -35.009  15.352  -2.850  1.00 20.00     0.061 C 
HETATM    4  C4  UNL     1     -33.130  14.765  -4.252  1.00 20.00     0.201 C 
HETATM    5  C5  UNL     1     -35.405  14.465  -4.011  1.00 20.00     0.172 C 
HETATM    6  O6  UNL     1     -34.196  13.813  -4.425  1.00 20.00    -0.387 OA
ENDROOT
TORSDOF 0
ENDMDL
MODEL 9
REMARK VINA RESULT:      -3.1     16.965     17.591
REMARK  0 active torsions:
REMARK  status: ('A' for Active; 'I' for Inactive)
ROOT
HETATM    1  C1  UNL     1     -22.694  18.035   9.707  1.00 20.00    -0.064 C 
HETATM    2  C2  UNL     1     -23.040  17.958  10.996  1.00 20.00     0.016 C 
HETATM    3  C3  UNL     1     -21.337  17.776   9.151  1.00 20.00     0.061 C 
HETATM    4  C4  UNL     1     -23.622  18.314   8.575  1.00 20.00     0.201 C 
HETATM    5  C5  UNL     1     -21.694  17.361   7.740  1.00 20.00     0.172 C 
HETATM    6  O6  UNL     1     -22.831  18.157   7.382  1.00 20.00    -0.387 OA
ENDROOT
TORSDOF 0
ENDMDL
