MODEL 1
REMARK VINA RESULT:      -3.6      0.000      0.000
REMARK  3 active torsions:
REMARK  status: ('A' for Active; 'I' for Inactive)
REMARK    1  A    between atoms: C6_6  and  N8_8 
REMARK    2  A    between atoms: C6_6  and  O9_9 
REMARK    3  A    between atoms: C7_7  and  O9_9 
ROOT
HETATM    1  O9  UNL     1     -24.529  17.532  10.330  1.00 20.00    -0.352 OA
ENDROOT
BRANCH   1   2
HETATM    2  C6  UNL     1     -23.491  16.732   9.751  1.00 20.00     0.440 C 
BRANCH   2   3
HETATM    3  N8  UNL     1     -22.796  17.431   8.660  1.00 20.00     0.102 N 
HETATM    4  C4  UNL     1     -21.516  17.962   9.130  1.00 20.00     0.312 C 
HETATM    5  C5  UNL     1     -23.622  18.513   8.122  1.00 20.00     0.312 C 
ENDBRANCH   2   3
ENDBRANCH   1   2
BRANCH   1   6
HETATM    6  C7  UNL     1     -24.584  17.383  11.742  1.00 20.00     0.052 C 
HETATM    7  C1  UNL     1     -23.246  17.828  12.332  1.00 20.00     0.045 C 
HETATM    8  C2  UNL     1     -25.718  18.269  12.254  1.00 20.00     0.045 C 
HETATM    9  C3  UNL     1     -24.861  15.915  12.066  1.00 20.00     0.045 C 
ENDBRANCH   1   6
TORSDOF 3
ENDMDL
MODEL 2
REMARK VINA RESULT:      -3.6      1.141      2.153
REMARK  3 active torsions:
REMARK  status: ('A' for Active; 'I' for Inactive)
REMARK    1  A    between atoms: C6_6  and  N8_8 
REMARK    2  A    between atoms: C6_6  and  O9_9 
REMARK    3  A    between atoms: C7_7  and  O9_9 
ROOT
HETATM    1  O9  UNL     1     -24.296  17.211  10.104  1.00 20.00    -0.352 OA
ENDROOT
BRANCH   1   2
HETATM    2  C6  UNL     1     -24.586  18.534   9.634  1.00 20.00     0.440 C 
BRANCH   2   3
HETATM    3  N8  UNL     1     -23.758  18.904   8.476  1.00 20.00     0.102 N 
HETATM    4  C4  UNL     1     -24.599  19.107   7.295  1.00 20.00     0.312 C 
HETATM    5  C5  UNL     1     -22.749  17.879   8.204  1.00 20.00     0.312 C 
ENDBRANCH   2   3
ENDBRANCH   1   2
BRANCH   1   6
HETATM    6  C7  UNL     1     -24.287  17.146  11.523  1.00 20.00     0.052 C 
HETATM    7  C1  UNL     1     -25.294  18.160  12.064  1.00 20.00     0.045 C 
HETATM    8  C2  UNL     1     -24.686  15.727  11.921  1.00 20.00     0.045 C 
HETATM    9  C3  UNL     1     -22.875  17.465  12.015  1.00 20.00     0.045 C 
ENDBRANCH   1   6
TORSDOF 3
ENDMDL
MODEL 3
REMARK VINA RESULT:      -3.2     15.815     16.614
REMARK  3 active torsions:
REMARK  status: ('A' for Active; 'I' for Inactive)
REMARK    1  A    between atoms: C6_6  and  N8_8 
REMARK    2  A    between atoms: C6_6  and  O9_9 
REMARK    3  A    between atoms: C7_7  and  O9_9 
ROOT
HETATM    1  O9  UNL     1     -33.736   6.372   4.061  1.00 20.00    -0.352 OA
ENDROOT
BRANCH   1   2
HETATM    2  C6  UNL     1     -33.286   6.137   2.720  1.00 20.00     0.440 C 
BRANCH   2   3
HETATM    3  N8  UNL     1     -32.187   7.035   2.340  1.00 20.00     0.102 N 
HETATM    4  C4  UNL     1     -31.663   7.725   3.520  1.00 20.00     0.312 C 
HETATM    5  C5  UNL     1     -32.628   8.011   1.343  1.00 20.00     0.312 C 
ENDBRANCH   2   3
ENDBRANCH   1   2
BRANCH   1   6
HETATM    6  C7  UNL     1     -34.628   5.358   4.504  1.00 20.00     0.052 C 
HETATM    7  C1  UNL     1     -36.009   5.630   3.911  1.00 20.00     0.045 C 
HETATM    8  C2  UNL     1     -34.084   4.020   4.009  1.00 20.00     0.045 C 
HETATM    9  C3  UNL     1     -34.676   5.387   6.032  1.00 20.00     0.045 C 
ENDBRANCH   1   6
TORSDOF 3
ENDMDL
MODEL 4
REMARK VINA RESULT:      -3.2     15.818     16.566
REMARK  3 active torsions:
REMARK  status: ('A' for Active; 'I' for Inactive)
REMARK    1  A    between atoms: C6_6  and  N8_8 
REMARK    2  A    between atoms: C6_6  and  O9_9 
REMARK    3  A    between atoms: C7_7  and  O9_9 
ROOT
HETATM    1  O9  UNL     1     -33.729   6.355   4.070  1.00 20.00    -0.352 OA
ENDROOT
BRANCH   1   2
HETATM    2  C6  UNL     1     -33.269   6.113   2.735  1.00 20.00     0.440 C 
BRANCH   2   3
HETATM    3  N8  UNL     1     -32.181   7.023   2.350  1.00 20.00     0.102 N 
HETATM    4  C4  UNL     1     -31.679   7.738   3.525  1.00 20.00     0.312 C 
HETATM    5  C5  UNL     1     -32.629   7.977   1.335  1.00 20.00     0.312 C 
ENDBRANCH   2   3
ENDBRANCH   1   2
BRANCH   1   6
HETATM    6  C7  UNL     1     -34.619   5.340   4.515  1.00 20.00     0.052 C 
HETATM    7  C1  UNL     1     -34.688   5.388   6.041  1.00 20.00     0.045 C 
HETATM    8  C2  UNL     1     -35.988   5.630   3.905  1.00 20.00     0.045 C 
HETATM    9  C3  UNL     1     -34.091   3.988   4.036  1.00 20.00     0.045 C 
ENDBRANCH   1   6
TORSDOF 3
ENDMDL
MODEL 5
REMARK VINA RESULT:      -3.2     17.163     18.550
REMARK  3 active torsions:
REMARK  status: ('A' for Active; 'I' for Inactive)
REMARK    1  A    between atoms: C6_6  and  N8_8 
REMARK    2  A    between atoms: C6_6  and  O9_9 
REMARK    3  A    between atoms: C7_7  and  O9_9 
ROOT
HETATM    1  O9  UNL     1     -35.419  15.258  -2.918  1.00 20.00    -0.352 OA
ENDROOT
BRANCH   1   2
HETATM    2  C6  UNL     1     -34.939  14.338  -3.908  1.00 20.00     0.440 C 
BRANCH   2   3
HETATM    3  N8  UNL     1     -35.990  13.952  -4.861  1.00 20.00     0.102 N 
HETATM    4  C4  UNL     1     -35.720  14.533  -6.177  1.00 20.00     0.312 C 
HETATM    5  C5  UNL     1     -37.309  14.375  -4.387  1.00 20.00     0.312 C 
ENDBRANCH   2   3
ENDBRANCH   1   2
BRANCH   1   6
HETATM    6  C7  UNL     1     -34.615  16.427  -2.850  1.00 20.00     0.052 C 
HETATM    7  C1  UNL     1     -34.617  16.936  -1.409  1.00 20.00     0.045 C 
HETATM    8  C2  UNL     1     -33.203  16.040  -3.282  1.00 20.00     0.045 C 
HETATM    9  C3  UNL     1     -35.199  17.475  -3.798  1.00 20.00     0.045 C 
ENDBRANCH   1   6
TORSDOF 3
ENDMDL
MODEL 6
REMARK VINA RESULT:      -3.2     17.180     18.550
REMARK  3 active torsions:
REMARK  status: ('A' for Active; 'I' for Inactive)
REMARK    1  A    between atoms: C6_6  and  N8_8 
REMARK    2  A    between atoms: C6_6  and  O9_9 
REMARK    3  A    between atoms: C7_7  and  O9_9 
ROOT
HETATM    1  O9  UNL     1     -35.435  15.275  -2.938  1.00 20.00    -0.352 OA
ENDROOT
BRANCH   1   2
HETATM    2  C6  UNL     1     -34.960  14.339  -3.914  1.00 20.00     0.440 C 
BRANCH   2   3
HETATM    3  N8  UNL     1     -36.009  13.955  -4.870  1.00 20.00     0.102 N 
HETATM    4  C4  UNL     1     -35.736  14.539  -6.184  1.00 20.00     0.312 C 
HETATM    5  C5  UNL     1     -37.328  14.376  -4.397  1.00 20.00     0.312 C 
ENDBRANCH   2   3
ENDBRANCH   1   2
BRANCH   1   6
HETATM    6  C7  UNL     1     -34.617  16.434  -2.876  1.00 20.00     0.052 C 
HETATM    7  C1  UNL     1     -35.194  17.489  -3.819  1.00 20.00     0.045 C 
HETATM    8  C2  UNL     1     -34.636  16.934  -1.434  1.00 20.00     0.045 C 
HETATM    9  C3  UNL     1     -33.197  16.050  -3.293  1.00 20.00     0.045 C 
ENDBRANCH   1   6
TORSDOF 3
ENDMDL
MODEL 7
REMARK VINA RESULT:      -3.1     17.620     18.983
REMARK  3 active torsions:
REMARK  status: ('A' for Active; 'I' for Inactive)
REMARK    1  A    between atoms: C6_6  and  N8_8 
REMARK    2  A    between atoms: C6_6  and  O9_9 
REMARK    3  A    between atoms: C7_7  and  O9_9 
ROOT
HETATM    1  O9  UNL     1     -35.285  16.372  -4.440  1.00 20.00    -0.352 OA
ENDROOT
BRANCH   1   2
HETATM    2  C6  UNL     1     -34.420  16.850  -5.477  1.00 20.00     0.440 C 
BRANCH   2   3
HETATM    3  N8  UNL     1     -34.832  16.372  -6.805  1.00 20.00     0.102 N 
HETATM    4  C4  UNL     1     -36.243  15.985  -6.790  1.00 20.00     0.312 C 
HETATM    5  C5  UNL     1     -34.006  15.243  -7.235  1.00 20.00     0.312 C 
ENDBRANCH   2   3
ENDBRANCH   1   2
BRANCH   1   6
HETATM    6  C7  UNL     1     -34.580  15.589  -3.485  1.00 20.00     0.052 C 
HETATM    7  C1  UNL     1     -33.089  15.897  -3.608  1.00 20.00     0.045 C 
HETATM    8  C2  UNL     1     -35.098  15.975  -2.102  1.00 20.00     0.045 C 
HETATM    9  C3  UNL     1     -34.856  14.112  -3.769  1.00 20.00     0.045 C 
ENDBRANCH   1   6
TORSDOF 3
ENDMDL
MODEL 8
REMARK VINA RESULT:      -3.1     17.586     18.995
REMARK  3 active torsions:
REMARK  status: ('A' for Active; 'I' for Inactive)
REMARK    1  A    between atoms: C6_6  and  N8_8 
REMARK    2  A    between atoms: C6_6  and  O9_9 
REMARK    3  A    between atoms: C7_7  and  O9_9 
ROOT
HETATM    1  O9  UNL     1     -35.284  16.426  -4.395  1.00 20.00    -0.352 OA
ENDROOT
BRANCH   1   2
HETATM    2  C6  UNL     1     -34.427  16.884  -5.449  1.00 20.00     0.440 C 
BRANCH   2   3
HETATM    3  N8  UNL     1     -34.869  16.407  -6.767  1.00 20.00     0.102 N 
HETATM    4  C4  UNL     1     -36.279  16.019  -6.721  1.00 20.00     0.312 C 
HETATM    5  C5  UNL     1     -34.053  15.278  -7.217  1.00 20.00     0.312 C 
ENDBRANCH   2   3
ENDBRANCH   1   2
BRANCH   1   6
HETATM    6  C7  UNL     1     -34.573  15.658  -3.433  1.00 20.00     0.052 C 
HETATM    7  C1  UNL     1     -35.096  16.015  -2.042  1.00 20.00     0.045 C 
HETATM    8  C2  UNL     1     -34.828  14.185  -3.742  1.00 20.00     0.045 C 
HETATM    9  C3  UNL     1     -33.084  15.983  -3.555  1.00 20.00     0.045 C 
ENDBRANCH   1   6
TORSDOF 3
ENDMDL
MODEL 9
REMARK VINA RESULT:      -3.1     17.617     19.030
REMARK  3 active torsions:
REMARK  status: ('A' for Active; 'I' for Inactive)
REMARK    1  A    between atoms: C6_6  and  N8_8 
REMARK    2  A    between atoms: C6_6  and  O9_9 
REMARK    3  A    between atoms: C7_7  and  O9_9 
ROOT
HETATM    1  O9  UNL     1     -35.282  16.381  -4.445  1.00 20.00    -0.352 OA
ENDROOT
BRANCH   1   2
HETATM    2  C6  UNL     1     -34.420  16.848  -5.490  1.00 20.00     0.440 C 
BRANCH   2   3
HETATM    3  N8  UNL     1     -34.844  16.368  -6.814  1.00 20.00     0.102 N 
HETATM    4  C4  UNL     1     -36.247  15.952  -6.776  1.00 20.00     0.312 C 
HETATM    5  C5  UNL     1     -34.003  15.258  -7.263  1.00 20.00     0.312 C 
ENDBRANCH   2   3
ENDBRANCH   1   2
BRANCH   1   6
HETATM    6  C7  UNL     1     -34.574  15.617  -3.478  1.00 20.00     0.052 C 
HETATM    7  C1  UNL     1     -34.792  14.134  -3.775  1.00 20.00     0.045 C 
HETATM    8  C2  UNL     1     -33.095  15.978  -3.600  1.00 20.00     0.045 C 
HETATM    9  C3  UNL     1     -35.103  15.978  -2.090  1.00 20.00     0.045 C 
ENDBRANCH   1   6
TORSDOF 3
ENDMDL
