MODEL 1
REMARK VINA RESULT:      -4.4      0.000      0.000
REMARK  2 active torsions:
REMARK  status: ('A' for Active; 'I' for Inactive)
REMARK    1  A    between atoms: C3_3  and  C8_8 
REMARK    2  A    between atoms: C8_8  and  N10_10 
ROOT
HETATM    1  C1  UNL     1     -22.597  17.403   9.182  1.00 20.00     0.100 C 
HETATM    2  C8  UNL     1     -23.387  18.321  10.022  1.00 20.00     0.356 C 
HETATM    3  N9  UNL     1     -21.969  16.682   8.522  1.00 20.00    -0.195 NA
ENDROOT
BRANCH   2   4
HETATM    4  C3  UNL     1     -24.608  18.802   9.245  1.00 20.00    -0.041 C 
HETATM    5  C2  UNL     1     -24.580  18.799   7.896  1.00 20.00    -0.025 C 
HETATM    6  C4  UNL     1     -25.639  19.261   6.949  1.00 20.00     0.036 C 
HETATM    7  C5  UNL     1     -25.793  19.263  10.058  1.00 20.00     0.046 C 
ENDBRANCH   2   4
BRANCH   2   8
HETATM    8  N10 UNL     1     -23.750  17.670  11.282  1.00 20.00     0.102 N 
HETATM    9  C6  UNL     1     -22.602  17.631  12.185  1.00 20.00     0.311 C 
HETATM   10  C7  UNL     1     -24.252  16.321  11.031  1.00 20.00     0.311 C 
ENDBRANCH   2   8
TORSDOF 2
ENDMDL
MODEL 2
REMARK VINA RESULT:      -4.2     16.309     18.433
REMARK  2 active torsions:
REMARK  status: ('A' for Active; 'I' for Inactive)
REMARK    1  A    between atoms: C3_3  and  C8_8 
REMARK    2  A    between atoms: C8_8  and  N10_10 
ROOT
HETATM    1  C1  UNL     1     -35.719  13.853  -4.483  1.00 20.00     0.100 C 
HETATM    2  C8  UNL     1     -35.643  15.323  -4.534  1.00 20.00     0.356 C 
HETATM    3  N9  UNL     1     -35.784  12.693  -4.444  1.00 20.00    -0.195 NA
ENDROOT
BRANCH   2   4
HETATM    4  C3  UNL     1     -34.832  15.836  -3.349  1.00 20.00    -0.041 C 
HETATM    5  C2  UNL     1     -35.473  16.366  -2.286  1.00 20.00    -0.025 C 
HETATM    6  C4  UNL     1     -34.879  16.958  -1.049  1.00 20.00     0.036 C 
HETATM    7  C5  UNL     1     -33.332  15.715  -3.447  1.00 20.00     0.046 C 
ENDBRANCH   2   4
BRANCH   2   8
HETATM    8  N10 UNL     1     -35.089  15.759  -5.817  1.00 20.00     0.102 N 
HETATM    9  C6  UNL     1     -35.395  17.168  -6.052  1.00 20.00     0.311 C 
HETATM   10  C7  UNL     1     -35.611  14.932  -6.903  1.00 20.00     0.311 C 
ENDBRANCH   2   8
TORSDOF 2
ENDMDL
MODEL 3
REMARK VINA RESULT:      -4.2     15.913     18.236
REMARK  2 active torsions:
REMARK  status: ('A' for Active; 'I' for Inactive)
REMARK    1  A    between atoms: C3_3  and  C8_8 
REMARK    2  A    between atoms: C8_8  and  N10_10 
ROOT
HETATM    1  C1  UNL     1     -35.897  13.880  -4.178  1.00 20.00     0.100 C 
HETATM    2  C8  UNL     1     -35.886  15.183  -3.491  1.00 20.00     0.356 C 
HETATM    3  N9  UNL     1     -35.908  12.850  -4.716  1.00 20.00    -0.195 NA
ENDROOT
BRANCH   2   4
HETATM    4  C3  UNL     1     -34.447  15.644  -3.286  1.00 20.00    -0.041 C 
HETATM    5  C2  UNL     1     -34.190  16.659  -2.437  1.00 20.00    -0.025 C 
HETATM    6  C4  UNL     1     -32.871  17.289  -2.121  1.00 20.00     0.036 C 
HETATM    7  C5  UNL     1     -33.382  14.916  -4.070  1.00 20.00     0.046 C 
ENDBRANCH   2   4
BRANCH   2   8
HETATM    8  N10 UNL     1     -36.681  16.158  -4.240  1.00 20.00     0.102 N 
HETATM    9  C6  UNL     1     -38.096  15.795  -4.207  1.00 20.00     0.311 C 
HETATM   10  C7  UNL     1     -36.206  16.249  -5.619  1.00 20.00     0.311 C 
ENDBRANCH   2   8
TORSDOF 2
ENDMDL
MODEL 4
REMARK VINA RESULT:      -4.2     15.234     17.300
REMARK  2 active torsions:
REMARK  status: ('A' for Active; 'I' for Inactive)
REMARK    1  A    between atoms: C3_3  and  C8_8 
REMARK    2  A    between atoms: C8_8  and  N10_10 
ROOT
HETATM    1  C1  UNL     1     -34.079  14.657  -4.109  1.00 20.00     0.100 C 
HETATM    2  C8  UNL     1     -35.059  15.097  -3.101  1.00 20.00     0.356 C 
HETATM    3  N9  UNL     1     -33.306  14.305  -4.902  1.00 20.00    -0.195 NA
ENDROOT
BRANCH   2   4
HETATM    4  C3  UNL     1     -34.470  16.237  -2.276  1.00 20.00    -0.041 C 
HETATM    5  C2  UNL     1     -33.251  16.722  -2.590  1.00 20.00    -0.025 C 
HETATM    6  C4  UNL     1     -32.477  17.797  -1.898  1.00 20.00     0.036 C 
HETATM    7  C5  UNL     1     -35.310  16.756  -1.136  1.00 20.00     0.046 C 
ENDBRANCH   2   4
BRANCH   2   8
HETATM    8  N10 UNL     1     -36.318  15.471  -3.747  1.00 20.00     0.102 N 
HETATM    9  C6  UNL     1     -36.950  14.299  -4.348  1.00 20.00     0.311 C 
HETATM   10  C7  UNL     1     -36.085  16.503  -4.756  1.00 20.00     0.311 C 
ENDBRANCH   2   8
TORSDOF 2
ENDMDL
MODEL 5
REMARK VINA RESULT:      -4.1      1.324      3.601
REMARK  2 active torsions:
REMARK  status: ('A' for Active; 'I' for Inactive)
REMARK    1  A    between atoms: C3_3  and  C8_8 
REMARK    2  A    between atoms: C8_8  and  N10_10 
ROOT
HETATM    1  C1  UNL     1     -22.602  17.382   8.059  1.00 20.00     0.100 C 
HETATM    2  C8  UNL     1     -23.804  17.628   8.875  1.00 20.00     0.356 C 
HETATM    3  N9  UNL     1     -21.657  17.185   7.413  1.00 20.00    -0.195 NA
ENDROOT
BRANCH   2   4
HETATM    4  C3  UNL     1     -23.502  17.322  10.338  1.00 20.00    -0.041 C 
HETATM    5  C2  UNL     1     -22.442  17.907  10.932  1.00 20.00    -0.025 C 
HETATM    6  C4  UNL     1     -21.946  17.720  12.330  1.00 20.00     0.036 C 
HETATM    7  C5  UNL     1     -24.431  16.362  11.039  1.00 20.00     0.046 C 
ENDBRANCH   2   4
BRANCH   2   8
HETATM    8  N10 UNL     1     -24.278  18.999   8.679  1.00 20.00     0.102 N 
HETATM    9  C6  UNL     1     -25.449  19.257   9.514  1.00 20.00     0.311 C 
HETATM   10  C7  UNL     1     -24.591  19.232   7.270  1.00 20.00     0.311 C 
ENDBRANCH   2   8
TORSDOF 2
ENDMDL
MODEL 6
REMARK VINA RESULT:      -4.1     15.501     17.417
REMARK  2 active torsions:
REMARK  status: ('A' for Active; 'I' for Inactive)
REMARK    1  A    between atoms: C3_3  and  C8_8 
REMARK    2  A    between atoms: C8_8  and  N10_10 
ROOT
HETATM    1  C1  UNL     1     -34.124  14.582  -4.138  1.00 20.00     0.100 C 
HETATM    2  C8  UNL     1     -35.107  15.057  -3.149  1.00 20.00     0.356 C 
HETATM    3  N9  UNL     1     -33.349  14.203  -4.916  1.00 20.00    -0.195 NA
ENDROOT
BRANCH   2   4
HETATM    4  C3  UNL     1     -34.491  16.167  -2.305  1.00 20.00    -0.041 C 
HETATM    5  C2  UNL     1     -35.173  16.653  -1.247  1.00 20.00    -0.025 C 
HETATM    6  C4  UNL     1     -34.778  17.756  -0.320  1.00 20.00     0.036 C 
HETATM    7  C5  UNL     1     -33.128  16.662  -2.722  1.00 20.00     0.046 C 
ENDBRANCH   2   4
BRANCH   2   8
HETATM    8  N10 UNL     1     -36.336  15.484  -3.820  1.00 20.00     0.102 N 
HETATM    9  C6  UNL     1     -37.045  14.331  -4.369  1.00 20.00     0.311 C 
HETATM   10  C7  UNL     1     -36.029  16.447  -4.876  1.00 20.00     0.311 C 
ENDBRANCH   2   8
TORSDOF 2
ENDMDL
MODEL 7
REMARK VINA RESULT:      -4.0     16.446     18.338
REMARK  2 active torsions:
REMARK  status: ('A' for Active; 'I' for Inactive)
REMARK    1  A    between atoms: C3_3  and  C8_8 
REMARK    2  A    between atoms: C8_8  and  N10_10 
ROOT
HETATM    1  C1  UNL     1     -36.710  14.560  -3.986  1.00 20.00     0.100 C 
HETATM    2  C8  UNL     1     -36.079  15.656  -3.229  1.00 20.00     0.356 C 
HETATM    3  N9  UNL     1     -37.210  13.694  -4.578  1.00 20.00    -0.195 NA
ENDROOT
BRANCH   2   4
HETATM    4  C3  UNL     1     -34.561  15.537  -3.325  1.00 20.00    -0.041 C 
HETATM    5  C2  UNL     1     -34.018  14.625  -4.157  1.00 20.00    -0.025 C 
HETATM    6  C4  UNL     1     -32.572  14.317  -4.374  1.00 20.00     0.036 C 
HETATM    7  C5  UNL     1     -33.750  16.470  -2.460  1.00 20.00     0.046 C 
ENDBRANCH   2   4
BRANCH   2   8
HETATM    8  N10 UNL     1     -36.567  16.950  -3.709  1.00 20.00     0.102 N 
HETATM    9  C6  UNL     1     -37.980  17.116  -3.377  1.00 20.00     0.311 C 
HETATM   10  C7  UNL     1     -36.362  17.068  -5.151  1.00 20.00     0.311 C 
ENDBRANCH   2   8
TORSDOF 2
ENDMDL
MODEL 8
REMARK VINA RESULT:      -3.9     16.422     18.527
REMARK  2 active torsions:
REMARK  status: ('A' for Active; 'I' for Inactive)
REMARK    1  A    between atoms: C3_3  and  C8_8 
REMARK    2  A    between atoms: C8_8  and  N10_10 
ROOT
HETATM    1  C1  UNL     1     -35.832  13.998  -4.668  1.00 20.00     0.100 C 
HETATM    2  C8  UNL     1     -35.782  15.458  -4.865  1.00 20.00     0.356 C 
HETATM    3  N9  UNL     1     -35.875  12.847  -4.517  1.00 20.00    -0.195 NA
ENDROOT
BRANCH   2   4
HETATM    4  C3  UNL     1     -36.008  16.162  -3.531  1.00 20.00    -0.041 C 
HETATM    5  C2  UNL     1     -35.103  16.017  -2.542  1.00 20.00    -0.025 C 
HETATM    6  C4  UNL     1     -35.147  16.580  -1.158  1.00 20.00     0.036 C 
HETATM    7  C5  UNL     1     -37.261  16.993  -3.405  1.00 20.00     0.046 C 
ENDBRANCH   2   4
BRANCH   2   8
HETATM    8  N10 UNL     1     -34.515  15.842  -5.489  1.00 20.00     0.102 N 
HETATM    9  C6  UNL     1     -34.541  17.253  -5.868  1.00 20.00     0.311 C 
HETATM   10  C7  UNL     1     -34.247  15.003  -6.655  1.00 20.00     0.311 C 
ENDBRANCH   2   8
TORSDOF 2
ENDMDL
MODEL 9
REMARK VINA RESULT:      -3.9      1.694      3.108
REMARK  2 active torsions:
REMARK  status: ('A' for Active; 'I' for Inactive)
REMARK    1  A    between atoms: C3_3  and  C8_8 
REMARK    2  A    between atoms: C8_8  and  N10_10 
ROOT
HETATM    1  C1  UNL     1     -24.206  18.674   8.108  1.00 20.00     0.100 C 
HETATM    2  C8  UNL     1     -23.541  18.462   9.406  1.00 20.00     0.356 C 
HETATM    3  N9  UNL     1     -24.728  18.847   7.085  1.00 20.00    -0.195 NA
ENDROOT
BRANCH   2   4
HETATM    4  C3  UNL     1     -24.559  17.968  10.428  1.00 20.00    -0.041 C 
HETATM    5  C2  UNL     1     -25.501  18.817  10.889  1.00 20.00    -0.025 C 
HETATM    6  C4  UNL     1     -26.559  18.556  11.912  1.00 20.00     0.036 C 
HETATM    7  C5  UNL     1     -24.439  16.530  10.868  1.00 20.00     0.046 C 
ENDBRANCH   2   4
BRANCH   2   8
HETATM    8  N10 UNL     1     -22.414  17.540   9.253  1.00 20.00     0.102 N 
HETATM    9  C6  UNL     1     -21.294  17.961  10.092  1.00 20.00     0.311 C 
HETATM   10  C7  UNL     1     -22.006  17.464   7.852  1.00 20.00     0.311 C 
ENDBRANCH   2   8
TORSDOF 2
ENDMDL
