MODEL 1
REMARK VINA RESULT:      -4.5      0.000      0.000
REMARK  0 active torsions:
REMARK  status: ('A' for Active; 'I' for Inactive)
ROOT
HETATM    1  C1  UNL     1     -33.089   4.837   2.582  1.00 20.00     0.047 C 
HETATM    2  C2  UNL     1     -32.756   6.110   2.338  1.00 20.00    -0.023 C 
HETATM    3  C3  UNL     1     -33.939   4.489   3.751  1.00 20.00     0.157 C 
HETATM    4  C4  UNL     1     -33.136   7.265   3.209  1.00 20.00     0.028 C 
HETATM    5  C5  UNL     1     -33.567   6.820   4.606  1.00 20.00     0.021 C 
HETATM    6  C6  UNL     1     -34.541   5.626   4.586  1.00 20.00     0.017 C 
HETATM    7  C7  UNL     1     -35.896   6.011   3.974  1.00 20.00     0.023 C 
HETATM    8  C8  UNL     1     -34.762   5.145   6.030  1.00 20.00     0.023 C 
HETATM    9  O9  UNL     1     -34.179   3.303   3.977  1.00 20.00    -0.292 OA
ENDROOT
TORSDOF 0
ENDMDL
MODEL 2
REMARK VINA RESULT:      -4.5     16.606     17.696
REMARK  0 active torsions:
REMARK  status: ('A' for Active; 'I' for Inactive)
ROOT
HETATM    1  C1  UNL     1     -21.811  18.111  10.021  1.00 20.00     0.047 C 
HETATM    2  C2  UNL     1     -22.381  18.259   8.820  1.00 20.00    -0.023 C 
HETATM    3  C3  UNL     1     -22.646  17.916  11.235  1.00 20.00     0.157 C 
HETATM    4  C4  UNL     1     -23.857  18.303   8.584  1.00 20.00     0.028 C 
HETATM    5  C5  UNL     1     -24.639  18.587   9.865  1.00 20.00     0.021 C 
HETATM    6  C6  UNL     1     -24.161  17.747  11.065  1.00 20.00     0.017 C 
HETATM    7  C7  UNL     1     -24.462  16.254  10.867  1.00 20.00     0.023 C 
HETATM    8  C8  UNL     1     -24.880  18.240  12.332  1.00 20.00     0.023 C 
HETATM    9  O9  UNL     1     -22.090  17.840  12.330  1.00 20.00    -0.292 OA
ENDROOT
TORSDOF 0
ENDMDL
MODEL 3
REMARK VINA RESULT:      -4.4     16.326     17.260
REMARK  0 active torsions:
REMARK  status: ('A' for Active; 'I' for Inactive)
ROOT
HETATM    1  C1  UNL     1     -24.772  19.176   9.555  1.00 20.00     0.047 C 
HETATM    2  C2  UNL     1     -23.731  19.052   8.725  1.00 20.00    -0.023 C 
HETATM    3  C3  UNL     1     -24.956  18.226  10.684  1.00 20.00     0.157 C 
HETATM    4  C4  UNL     1     -22.714  17.958   8.802  1.00 20.00     0.028 C 
HETATM    5  C5  UNL     1     -23.201  16.772   9.632  1.00 20.00     0.021 C 
HETATM    6  C6  UNL     1     -23.857  17.194  10.962  1.00 20.00     0.017 C 
HETATM    7  C7  UNL     1     -22.836  17.821  11.922  1.00 20.00     0.023 C 
HETATM    8  C8  UNL     1     -24.471  15.951  11.625  1.00 20.00     0.023 C 
HETATM    9  O9  UNL     1     -25.956  18.336  11.393  1.00 20.00    -0.292 OA
ENDROOT
TORSDOF 0
ENDMDL
MODEL 4
REMARK VINA RESULT:      -4.3     11.700     12.726
REMARK  0 active torsions:
REMARK  status: ('A' for Active; 'I' for Inactive)
ROOT
HETATM    1  C1  UNL     1     -36.755  14.026  -4.587  1.00 20.00     0.047 C 
HETATM    2  C2  UNL     1     -37.207  15.238  -4.928  1.00 20.00    -0.023 C 
HETATM    3  C3  UNL     1     -35.331  13.829  -4.207  1.00 20.00     0.157 C 
HETATM    4  C4  UNL     1     -36.354  16.464  -5.017  1.00 20.00     0.028 C 
HETATM    5  C5  UNL     1     -34.866  16.129  -5.098  1.00 20.00     0.021 C 
HETATM    6  C6  UNL     1     -34.429  15.062  -4.075  1.00 20.00     0.017 C 
HETATM    7  C7  UNL     1     -34.530  15.585  -2.635  1.00 20.00     0.023 C 
HETATM    8  C8  UNL     1     -32.971  14.669  -4.364  1.00 20.00     0.023 C 
HETATM    9  O9  UNL     1     -34.938  12.691  -3.954  1.00 20.00    -0.292 OA
ENDROOT
TORSDOF 0
ENDMDL
MODEL 5
REMARK VINA RESULT:      -4.2     11.703     12.657
REMARK  0 active torsions:
REMARK  status: ('A' for Active; 'I' for Inactive)
ROOT
HETATM    1  C1  UNL     1     -34.294  14.171  -3.854  1.00 20.00     0.047 C 
HETATM    2  C2  UNL     1     -33.927  15.402  -3.484  1.00 20.00    -0.023 C 
HETATM    3  C3  UNL     1     -35.682  13.902  -4.314  1.00 20.00     0.157 C 
HETATM    4  C4  UNL     1     -34.848  16.581  -3.436  1.00 20.00     0.028 C 
HETATM    5  C5  UNL     1     -36.318  16.167  -3.439  1.00 20.00     0.021 C 
HETATM    6  C6  UNL     1     -36.640  15.086  -4.489  1.00 20.00     0.017 C 
HETATM    7  C7  UNL     1     -36.488  15.625  -5.920  1.00 20.00     0.023 C 
HETATM    8  C8  UNL     1     -38.088  14.614  -4.283  1.00 20.00     0.023 C 
HETATM    9  O9  UNL     1     -35.999  12.746  -4.594  1.00 20.00    -0.292 OA
ENDROOT
TORSDOF 0
ENDMDL
MODEL 6
REMARK VINA RESULT:      -4.2      1.678      3.160
REMARK  0 active torsions:
REMARK  status: ('A' for Active; 'I' for Inactive)
ROOT
HETATM    1  C1  UNL     1     -33.426   7.189   5.270  1.00 20.00     0.047 C 
HETATM    2  C2  UNL     1     -34.081   6.589   6.271  1.00 20.00    -0.023 C 
HETATM    3  C3  UNL     1     -33.398   6.581   3.914  1.00 20.00     0.157 C 
HETATM    4  C4  UNL     1     -34.777   5.270   6.155  1.00 20.00     0.028 C 
HETATM    5  C5  UNL     1     -34.319   4.479   4.931  1.00 20.00     0.021 C 
HETATM    6  C6  UNL     1     -34.250   5.333   3.650  1.00 20.00     0.017 C 
HETATM    7  C7  UNL     1     -35.645   5.787   3.196  1.00 20.00     0.023 C 
HETATM    8  C8  UNL     1     -33.607   4.496   2.532  1.00 20.00     0.023 C 
HETATM    9  O9  UNL     1     -32.739   7.131   3.032  1.00 20.00    -0.292 OA
ENDROOT
TORSDOF 0
ENDMDL
MODEL 7
REMARK VINA RESULT:      -4.2     12.167     12.796
REMARK  0 active torsions:
REMARK  status: ('A' for Active; 'I' for Inactive)
ROOT
HETATM    1  C1  UNL     1     -32.873  15.758  -3.789  1.00 20.00     0.047 C 
HETATM    2  C2  UNL     1     -33.166  16.521  -2.731  1.00 20.00    -0.023 C 
HETATM    3  C3  UNL     1     -33.940  15.003  -4.497  1.00 20.00     0.157 C 
HETATM    4  C4  UNL     1     -34.531  16.647  -2.132  1.00 20.00     0.028 C 
HETATM    5  C5  UNL     1     -35.460  15.514  -2.565  1.00 20.00     0.021 C 
HETATM    6  C6  UNL     1     -35.399  15.227  -4.078  1.00 20.00     0.017 C 
HETATM    7  C7  UNL     1     -35.963  16.396  -4.900  1.00 20.00     0.023 C 
HETATM    8  C8  UNL     1     -36.221  13.963  -4.375  1.00 20.00     0.023 C 
HETATM    9  O9  UNL     1     -33.625  14.267  -5.431  1.00 20.00    -0.292 OA
ENDROOT
TORSDOF 0
ENDMDL
MODEL 8
REMARK VINA RESULT:      -4.1      8.652      9.810
REMARK  0 active torsions:
REMARK  status: ('A' for Active; 'I' for Inactive)
ROOT
HETATM    1  C1  UNL     1     -43.376   8.051  -1.114  1.00 20.00     0.047 C 
HETATM    2  C2  UNL     1     -42.803   8.813  -0.176  1.00 20.00    -0.023 C 
HETATM    3  C3  UNL     1     -42.905   6.661  -1.351  1.00 20.00     0.157 C 
HETATM    4  C4  UNL     1     -41.637   8.390   0.661  1.00 20.00     0.028 C 
HETATM    5  C5  UNL     1     -40.901   7.192   0.064  1.00 20.00     0.021 C 
HETATM    6  C6  UNL     1     -41.849   6.073  -0.408  1.00 20.00     0.017 C 
HETATM    7  C7  UNL     1     -42.572   5.409   0.774  1.00 20.00     0.023 C 
HETATM    8  C8  UNL     1     -41.026   5.009  -1.152  1.00 20.00     0.023 C 
HETATM    9  O9  UNL     1     -43.417   6.009  -2.260  1.00 20.00    -0.292 OA
ENDROOT
TORSDOF 0
ENDMDL
MODEL 9
REMARK VINA RESULT:      -4.0     11.793     12.893
REMARK  0 active torsions:
REMARK  status: ('A' for Active; 'I' for Inactive)
ROOT
HETATM    1  C1  UNL     1     -35.661  13.600  -4.194  1.00 20.00     0.047 C 
HETATM    2  C2  UNL     1     -34.482  14.138  -3.863  1.00 20.00    -0.023 C 
HETATM    3  C3  UNL     1     -36.882  14.445  -4.274  1.00 20.00     0.157 C 
HETATM    4  C4  UNL     1     -34.281  15.574  -3.495  1.00 20.00     0.028 C 
HETATM    5  C5  UNL     1     -35.591  16.264  -3.122  1.00 20.00     0.021 C 
HETATM    6  C6  UNL     1     -36.736  15.963  -4.109  1.00 20.00     0.017 C 
HETATM    7  C7  UNL     1     -36.468  16.577  -5.491  1.00 20.00     0.023 C 
HETATM    8  C8  UNL     1     -38.041  16.548  -3.545  1.00 20.00     0.023 C 
HETATM    9  O9  UNL     1     -37.959  13.907  -4.526  1.00 20.00    -0.292 OA
ENDROOT
TORSDOF 0
ENDMDL
