MODEL 1
REMARK VINA RESULT:      -5.6      0.000      0.000
REMARK  3 active torsions:
REMARK  status: ('A' for Active; 'I' for Inactive)
REMARK    1  A    between atoms: C3_3  and  C6_6 
REMARK    2  A    between atoms: C3_3  and  O11_11 
REMARK    3  A    between atoms: C8_8  and  O11_11 
ROOT
HETATM    1  C1  UNL     1     -34.395   6.115   6.132  1.00 20.00    -0.025 C 
HETATM    2  C2  UNL     1     -35.005   5.048   5.602  1.00 20.00    -0.005 C 
HETATM    3  C4  UNL     1     -33.474   6.969   5.314  1.00 20.00     0.069 C 
HETATM    4  C5  UNL     1     -34.774   4.629   4.181  1.00 20.00     0.196 C 
HETATM    5  C6  UNL     1     -33.643   6.680   3.824  1.00 20.00     0.224 C 
HETATM    6  O10 UNL     1     -33.634   5.272   3.597  1.00 20.00    -0.372 OA
ENDROOT
BRANCH   5   7
HETATM    7  C3  UNL     1     -32.485   7.203   3.040  1.00 20.00     0.288 C 
HETATM    8  O9  UNL     1     -31.434   7.579   3.539  1.00 20.00    -0.262 OA
BRANCH   7   9
HETATM    9  O11 UNL     1     -32.793   7.193   1.711  1.00 20.00    -0.320 OA
BRANCH   9  10
HETATM   10  C8  UNL     1     -32.328   8.320   0.963  1.00 20.00     0.174 C 
HETATM   11  C7  UNL     1     -33.366   8.684  -0.076  1.00 20.00     0.034 C 
ENDBRANCH   9  10
ENDBRANCH   7   9
ENDBRANCH   5   7
TORSDOF 3
ENDMDL
MODEL 2
REMARK VINA RESULT:      -4.7     10.893     11.786
REMARK  3 active torsions:
REMARK  status: ('A' for Active; 'I' for Inactive)
REMARK    1  A    between atoms: C3_3  and  C6_6 
REMARK    2  A    between atoms: C3_3  and  O11_11 
REMARK    3  A    between atoms: C8_8  and  O11_11 
ROOT
HETATM    1  C1  UNL     1     -33.030  15.612  -3.790  1.00 20.00    -0.025 C 
HETATM    2  C2  UNL     1     -33.458  16.375  -2.777  1.00 20.00    -0.005 C 
HETATM    3  C4  UNL     1     -33.929  14.603  -4.437  1.00 20.00     0.069 C 
HETATM    4  C5  UNL     1     -34.841  16.239  -2.213  1.00 20.00     0.196 C 
HETATM    5  C6  UNL     1     -35.387  14.848  -4.052  1.00 20.00     0.224 C 
HETATM    6  O10 UNL     1     -35.493  15.037  -2.643  1.00 20.00    -0.372 OA
ENDROOT
BRANCH   5   7
HETATM    7  C3  UNL     1     -36.228  13.649  -4.344  1.00 20.00     0.288 C 
HETATM    8  O9  UNL     1     -35.783  12.519  -4.488  1.00 20.00    -0.262 OA
BRANCH   7   9
HETATM    9  O11 UNL     1     -37.538  14.019  -4.421  1.00 20.00    -0.320 OA
BRANCH   9  10
HETATM   10  C8  UNL     1     -37.774  15.354  -4.879  1.00 20.00     0.174 C 
HETATM   11  C7  UNL     1     -38.946  15.936  -4.119  1.00 20.00     0.034 C 
ENDBRANCH   9  10
ENDBRANCH   7   9
ENDBRANCH   5   7
TORSDOF 3
ENDMDL
MODEL 3
REMARK VINA RESULT:      -4.6     11.175     12.021
REMARK  3 active torsions:
REMARK  status: ('A' for Active; 'I' for Inactive)
REMARK    1  A    between atoms: C3_3  and  C6_6 
REMARK    2  A    between atoms: C3_3  and  O11_11 
REMARK    3  A    between atoms: C8_8  and  O11_11 
ROOT
HETATM    1  C1  UNL     1     -33.223  15.898  -3.196  1.00 20.00    -0.025 C 
HETATM    2  C2  UNL     1     -34.090  16.600  -2.456  1.00 20.00    -0.005 C 
HETATM    3  C4  UNL     1     -33.694  14.854  -4.161  1.00 20.00     0.069 C 
HETATM    4  C5  UNL     1     -35.568  16.358  -2.525  1.00 20.00     0.196 C 
HETATM    5  C6  UNL     1     -35.192  14.991  -4.423  1.00 20.00     0.224 C 
HETATM    6  O10 UNL     1     -35.891  15.129  -3.189  1.00 20.00    -0.372 OA
ENDROOT
BRANCH   5   7
HETATM    7  C3  UNL     1     -35.745  13.749  -5.042  1.00 20.00     0.288 C 
HETATM    8  O9  UNL     1     -35.957  12.714  -4.427  1.00 20.00    -0.262 OA
BRANCH   7   9
HETATM    9  O11 UNL     1     -35.967  13.962  -6.371  1.00 20.00    -0.320 OA
BRANCH   9  10
HETATM   10  C8  UNL     1     -35.959  15.332  -6.784  1.00 20.00     0.174 C 
HETATM   11  C7  UNL     1     -34.971  15.499  -7.918  1.00 20.00     0.034 C 
ENDBRANCH   9  10
ENDBRANCH   7   9
ENDBRANCH   5   7
TORSDOF 3
ENDMDL
MODEL 4
REMARK VINA RESULT:      -4.4     10.920     11.832
REMARK  3 active torsions:
REMARK  status: ('A' for Active; 'I' for Inactive)
REMARK    1  A    between atoms: C3_3  and  C6_6 
REMARK    2  A    between atoms: C3_3  and  O11_11 
REMARK    3  A    between atoms: C8_8  and  O11_11 
ROOT
HETATM    1  C1  UNL     1     -32.996  17.118  -2.387  1.00 20.00    -0.025 C 
HETATM    2  C2  UNL     1     -34.056  17.348  -1.603  1.00 20.00    -0.005 C 
HETATM    3  C4  UNL     1     -33.019  16.041  -3.429  1.00 20.00     0.069 C 
HETATM    4  C5  UNL     1     -35.305  16.523  -1.698  1.00 20.00     0.196 C 
HETATM    5  C6  UNL     1     -34.447  15.566  -3.688  1.00 20.00     0.224 C 
HETATM    6  O10 UNL     1     -35.110  15.319  -2.451  1.00 20.00    -0.372 OA
ENDROOT
BRANCH   5   7
HETATM    7  C3  UNL     1     -34.455  14.252  -4.398  1.00 20.00     0.288 C 
HETATM    8  O9  UNL     1     -34.882  13.214  -3.912  1.00 20.00    -0.262 OA
BRANCH   7   9
HETATM    9  O11 UNL     1     -33.921  14.404  -5.644  1.00 20.00    -0.320 OA
BRANCH   9  10
HETATM   10  C8  UNL     1     -34.780  15.014  -6.611  1.00 20.00     0.174 C 
HETATM   11  C7  UNL     1     -33.952  15.444  -7.803  1.00 20.00     0.034 C 
ENDBRANCH   9  10
ENDBRANCH   7   9
ENDBRANCH   5   7
TORSDOF 3
ENDMDL
MODEL 5
REMARK VINA RESULT:      -4.4     11.020     12.035
REMARK  3 active torsions:
REMARK  status: ('A' for Active; 'I' for Inactive)
REMARK    1  A    between atoms: C3_3  and  C6_6 
REMARK    2  A    between atoms: C3_3  and  O11_11 
REMARK    3  A    between atoms: C8_8  and  O11_11 
ROOT
HETATM    1  C1  UNL     1     -38.077  16.703  -3.730  1.00 20.00    -0.025 C 
HETATM    2  C2  UNL     1     -39.256  16.094  -3.906  1.00 20.00    -0.005 C 
HETATM    3  C4  UNL     1     -36.787  15.996  -4.015  1.00 20.00     0.069 C 
HETATM    4  C5  UNL     1     -39.351  14.669  -4.361  1.00 20.00     0.196 C 
HETATM    5  C6  UNL     1     -37.030  14.731  -4.835  1.00 20.00     0.224 C 
HETATM    6  O10 UNL     1     -38.098  13.978  -4.265  1.00 20.00    -0.372 OA
ENDROOT
BRANCH   5   7
HETATM    7  C3  UNL     1     -35.847  13.821  -4.783  1.00 20.00     0.288 C 
HETATM    8  O9  UNL     1     -35.898  12.652  -4.427  1.00 20.00    -0.262 OA
BRANCH   7   9
HETATM    9  O11 UNL     1     -34.735  14.497  -5.189  1.00 20.00    -0.320 OA
BRANCH   9  10
HETATM   10  C8  UNL     1     -33.566  14.294  -4.389  1.00 20.00     0.174 C 
HETATM   11  C7  UNL     1     -33.217  15.590  -3.689  1.00 20.00     0.034 C 
ENDBRANCH   9  10
ENDBRANCH   7   9
ENDBRANCH   5   7
TORSDOF 3
ENDMDL
MODEL 6
REMARK VINA RESULT:      -4.4     11.190     12.037
REMARK  3 active torsions:
REMARK  status: ('A' for Active; 'I' for Inactive)
REMARK    1  A    between atoms: C3_3  and  C6_6 
REMARK    2  A    between atoms: C3_3  and  O11_11 
REMARK    3  A    between atoms: C8_8  and  O11_11 
ROOT
HETATM    1  C1  UNL     1     -34.621  16.438  -2.369  1.00 20.00    -0.025 C 
HETATM    2  C2  UNL     1     -33.338  16.293  -2.725  1.00 20.00    -0.005 C 
HETATM    3  C4  UNL     1     -35.706  15.654  -3.042  1.00 20.00     0.069 C 
HETATM    4  C5  UNL     1     -32.923  15.371  -3.832  1.00 20.00     0.196 C 
HETATM    5  C6  UNL     1     -35.122  14.490  -3.840  1.00 20.00     0.224 C 
HETATM    6  O10 UNL     1     -34.030  14.946  -4.636  1.00 20.00    -0.372 OA
ENDROOT
BRANCH   5   7
HETATM    7  C3  UNL     1     -36.116  13.958  -4.820  1.00 20.00     0.288 C 
HETATM    8  O9  UNL     1     -37.238  13.577  -4.517  1.00 20.00    -0.262 OA
BRANCH   7   9
HETATM    9  O11 UNL     1     -35.574  13.968  -6.071  1.00 20.00    -0.320 OA
BRANCH   9  10
HETATM   10  C8  UNL     1     -36.103  14.953  -6.963  1.00 20.00     0.174 C 
HETATM   11  C7  UNL     1     -35.012  15.389  -7.918  1.00 20.00     0.034 C 
ENDBRANCH   9  10
ENDBRANCH   7   9
ENDBRANCH   5   7
TORSDOF 3
ENDMDL
MODEL 7
REMARK VINA RESULT:      -4.3     11.374     12.313
REMARK  3 active torsions:
REMARK  status: ('A' for Active; 'I' for Inactive)
REMARK    1  A    between atoms: C3_3  and  C6_6 
REMARK    2  A    between atoms: C3_3  and  O11_11 
REMARK    3  A    between atoms: C8_8  and  O11_11 
ROOT
HETATM    1  C1  UNL     1     -33.925  16.162  -2.636  1.00 20.00    -0.025 C 
HETATM    2  C2  UNL     1     -33.054  15.688  -3.536  1.00 20.00    -0.005 C 
HETATM    3  C4  UNL     1     -35.390  15.864  -2.741  1.00 20.00     0.069 C 
HETATM    4  C5  UNL     1     -33.497  14.867  -4.710  1.00 20.00     0.196 C 
HETATM    5  C6  UNL     1     -35.643  14.717  -3.718  1.00 20.00     0.224 C 
HETATM    6  O10 UNL     1     -34.913  14.934  -4.923  1.00 20.00    -0.372 OA
ENDROOT
BRANCH   5   7
HETATM    7  C3  UNL     1     -37.076  14.675  -4.138  1.00 20.00     0.288 C 
HETATM    8  O9  UNL     1     -37.672  13.650  -4.436  1.00 20.00    -0.262 OA
BRANCH   7   9
HETATM    9  O11 UNL     1     -37.589  15.939  -4.134  1.00 20.00    -0.320 OA
BRANCH   9  10
HETATM   10  C8  UNL     1     -38.511  16.231  -5.188  1.00 20.00     0.174 C 
HETATM   11  C7  UNL     1     -37.737  16.655  -6.417  1.00 20.00     0.034 C 
ENDBRANCH   9  10
ENDBRANCH   7   9
ENDBRANCH   5   7
TORSDOF 3
ENDMDL
MODEL 8
REMARK VINA RESULT:      -4.3     11.047     11.590
REMARK  3 active torsions:
REMARK  status: ('A' for Active; 'I' for Inactive)
REMARK    1  A    between atoms: C3_3  and  C6_6 
REMARK    2  A    between atoms: C3_3  and  O11_11 
REMARK    3  A    between atoms: C8_8  and  O11_11 
ROOT
HETATM    1  C1  UNL     1     -32.938  17.470  -2.009  1.00 20.00    -0.025 C 
HETATM    2  C2  UNL     1     -34.017  17.631  -1.231  1.00 20.00    -0.005 C 
HETATM    3  C4  UNL     1     -32.900  16.420  -3.077  1.00 20.00     0.069 C 
HETATM    4  C5  UNL     1     -35.224  16.752  -1.362  1.00 20.00     0.196 C 
HETATM    5  C6  UNL     1     -34.302  15.887  -3.365  1.00 20.00     0.224 C 
HETATM    6  O10 UNL     1     -34.967  15.578  -2.142  1.00 20.00    -0.372 OA
ENDROOT
BRANCH   5   7
HETATM    7  C3  UNL     1     -34.242  14.592  -4.108  1.00 20.00     0.288 C 
HETATM    8  O9  UNL     1     -33.334  14.279  -4.865  1.00 20.00    -0.262 OA
BRANCH   7   9
HETATM    9  O11 UNL     1     -35.341  13.843  -3.807  1.00 20.00    -0.320 OA
BRANCH   9  10
HETATM   10  C8  UNL     1     -36.343  13.784  -4.827  1.00 20.00     0.174 C 
HETATM   11  C7  UNL     1     -37.584  14.502  -4.341  1.00 20.00     0.034 C 
ENDBRANCH   9  10
ENDBRANCH   7   9
ENDBRANCH   5   7
TORSDOF 3
ENDMDL
MODEL 9
REMARK VINA RESULT:      -4.2     11.079     12.109
REMARK  3 active torsions:
REMARK  status: ('A' for Active; 'I' for Inactive)
REMARK    1  A    between atoms: C3_3  and  C6_6 
REMARK    2  A    between atoms: C3_3  and  O11_11 
REMARK    3  A    between atoms: C8_8  and  O11_11 
ROOT
HETATM    1  C1  UNL     1     -35.010  16.716  -1.475  1.00 20.00    -0.025 C 
HETATM    2  C2  UNL     1     -34.024  17.612  -1.338  1.00 20.00    -0.005 C 
HETATM    3  C4  UNL     1     -34.979  15.687  -2.564  1.00 20.00     0.069 C 
HETATM    4  C5  UNL     1     -32.860  17.659  -2.283  1.00 20.00     0.196 C 
HETATM    5  C6  UNL     1     -33.584  15.589  -3.179  1.00 20.00     0.224 C 
HETATM    6  O10 UNL     1     -33.088  16.893  -3.473  1.00 20.00    -0.372 OA
ENDROOT
BRANCH   5   7
HETATM    7  C3  UNL     1     -33.627  14.888  -4.498  1.00 20.00     0.288 C 
HETATM    8  O9  UNL     1     -33.271  13.731  -4.669  1.00 20.00    -0.262 OA
BRANCH   7   9
HETATM    9  O11 UNL     1     -34.117  15.735  -5.448  1.00 20.00    -0.320 OA
BRANCH   9  10
HETATM   10  C8  UNL     1     -34.751  15.105  -6.565  1.00 20.00     0.174 C 
HETATM   11  C7  UNL     1     -33.959  15.411  -7.818  1.00 20.00     0.034 C 
ENDBRANCH   9  10
ENDBRANCH   7   9
ENDBRANCH   5   7
TORSDOF 3
ENDMDL
