MODEL 1
REMARK VINA RESULT:      -4.9      0.000      0.000
REMARK  1 active torsions:
REMARK  status: ('A' for Active; 'I' for Inactive)
REMARK    1  A    between atoms: C5_5  and  C10_10 
ROOT
HETATM    1  C1  UNL     1     -34.759  14.214  -4.123  1.00 20.00     0.166 C 
HETATM    2  C2  UNL     1     -34.739  15.158  -2.937  1.00 20.00     0.086 C 
HETATM    3  C3  UNL     1     -35.250  17.134  -4.454  1.00 20.00     0.009 C 
HETATM    4  C4  UNL     1     -35.986  16.064  -5.263  1.00 20.00     0.052 C 
HETATM    5  C5  UNL     1     -34.315  16.560  -3.374  1.00 20.00    -0.004 C 
HETATM    6  C6  UNL     1     -35.188  14.779  -5.469  1.00 20.00     0.159 C 
HETATM    7  C7  UNL     1     -33.979  14.966  -6.375  1.00 20.00     0.060 C 
HETATM    8  O11 UNL     1     -34.484  13.021  -3.992  1.00 20.00    -0.294 OA
HETATM    9  F12 UNL     1     -36.018  13.887  -6.092  1.00 20.00    -0.235 F 
ENDROOT
BRANCH   5  10
HETATM   10  C10 UNL     1     -34.221  17.503  -2.176  1.00 20.00    -0.018 C 
HETATM   11  C8  UNL     1     -35.061  16.979  -1.013  1.00 20.00     0.010 C 
HETATM   12  C9  UNL     1     -32.767  17.685  -1.749  1.00 20.00     0.010 C 
ENDBRANCH   5  10
TORSDOF 1
ENDMDL
MODEL 2
REMARK VINA RESULT:      -4.9      1.227      1.658
REMARK  1 active torsions:
REMARK  status: ('A' for Active; 'I' for Inactive)
REMARK    1  A    between atoms: C5_5  and  C10_10 
ROOT
HETATM    1  C1  UNL     1     -35.655  14.471  -5.286  1.00 20.00     0.166 C 
HETATM    2  C2  UNL     1     -35.420  14.902  -3.852  1.00 20.00     0.086 C 
HETATM    3  C3  UNL     1     -34.356  17.073  -4.639  1.00 20.00     0.009 C 
HETATM    4  C4  UNL     1     -35.326  16.889  -5.808  1.00 20.00     0.052 C 
HETATM    5  C5  UNL     1     -34.201  15.819  -3.759  1.00 20.00    -0.004 C 
HETATM    6  C6  UNL     1     -35.345  15.476  -6.386  1.00 20.00     0.159 C 
HETATM    7  C7  UNL     1     -34.051  15.102  -7.095  1.00 20.00     0.060 C 
HETATM    8  O11 UNL     1     -36.125  13.364  -5.549  1.00 20.00    -0.294 OA
HETATM    9  F12 UNL     1     -36.339  15.440  -7.326  1.00 20.00    -0.235 F 
ENDROOT
BRANCH   5  10
HETATM   10  C10 UNL     1     -33.912  16.203  -2.309  1.00 20.00    -0.018 C 
HETATM   11  C8  UNL     1     -32.932  17.373  -2.249  1.00 20.00     0.010 C 
HETATM   12  C9  UNL     1     -35.206  16.548  -1.577  1.00 20.00     0.010 C 
ENDBRANCH   5  10
TORSDOF 1
ENDMDL
MODEL 3
REMARK VINA RESULT:      -4.8      1.374      1.992
REMARK  1 active torsions:
REMARK  status: ('A' for Active; 'I' for Inactive)
REMARK    1  A    between atoms: C5_5  and  C10_10 
ROOT
HETATM    1  C1  UNL     1     -34.243  14.864  -5.700  1.00 20.00     0.166 C 
HETATM    2  C2  UNL     1     -33.684  15.116  -4.314  1.00 20.00     0.086 C 
HETATM    3  C3  UNL     1     -36.031  15.405  -3.379  1.00 20.00     0.009 C 
HETATM    4  C4  UNL     1     -36.378  14.412  -4.489  1.00 20.00     0.052 C 
HETATM    5  C5  UNL     1     -34.623  16.015  -3.511  1.00 20.00    -0.004 C 
HETATM    6  C6  UNL     1     -35.753  14.745  -5.842  1.00 20.00     0.159 C 
HETATM    7  C7  UNL     1     -36.327  16.008  -6.471  1.00 20.00     0.060 C 
HETATM    8  O11 UNL     1     -33.498  14.713  -6.669  1.00 20.00    -0.294 OA
HETATM    9  F12 UNL     1     -36.049  13.711  -6.687  1.00 20.00    -0.235 F 
ENDROOT
BRANCH   5  10
HETATM   10  C10 UNL     1     -34.036  16.335  -2.137  1.00 20.00    -0.018 C 
HETATM   11  C8  UNL     1     -32.950  17.402  -2.252  1.00 20.00     0.010 C 
HETATM   12  C9  UNL     1     -35.134  16.787  -1.177  1.00 20.00     0.010 C 
ENDBRANCH   5  10
TORSDOF 1
ENDMDL
MODEL 4
REMARK VINA RESULT:      -4.8      1.391      1.854
REMARK  1 active torsions:
REMARK  status: ('A' for Active; 'I' for Inactive)
REMARK    1  A    between atoms: C5_5  and  C10_10 
ROOT
HETATM    1  C1  UNL     1     -35.019  14.327  -4.065  1.00 20.00     0.166 C 
HETATM    2  C2  UNL     1     -35.640  15.179  -2.976  1.00 20.00     0.086 C 
HETATM    3  C3  UNL     1     -33.872  16.974  -3.321  1.00 20.00     0.009 C 
HETATM    4  C4  UNL     1     -33.914  16.455  -4.759  1.00 20.00     0.052 C 
HETATM    5  C5  UNL     1     -34.580  16.054  -2.309  1.00 20.00    -0.004 C 
HETATM    6  C6  UNL     1     -33.880  14.933  -4.874  1.00 20.00     0.159 C 
HETATM    7  C7  UNL     1     -32.549  14.331  -4.446  1.00 20.00     0.060 C 
HETATM    8  O11 UNL     1     -35.452  13.203  -4.319  1.00 20.00    -0.294 OA
HETATM    9  F12 UNL     1     -34.050  14.626  -6.196  1.00 20.00    -0.235 F 
ENDROOT
BRANCH   5  10
HETATM   10  C10 UNL     1     -35.180  16.865  -1.161  1.00 20.00    -0.018 C 
HETATM   11  C8  UNL     1     -34.130  17.793  -0.553  1.00 20.00     0.010 C 
HETATM   12  C9  UNL     1     -36.389  17.663  -1.643  1.00 20.00     0.010 C 
ENDBRANCH   5  10
TORSDOF 1
ENDMDL
MODEL 5
REMARK VINA RESULT:      -4.6      2.951      4.576
REMARK  1 active torsions:
REMARK  status: ('A' for Active; 'I' for Inactive)
REMARK    1  A    between atoms: C5_5  and  C10_10 
ROOT
HETATM    1  C1  UNL     1     -33.426  17.375  -1.861  1.00 20.00     0.166 C 
HETATM    2  C2  UNL     1     -33.376  16.328  -2.956  1.00 20.00     0.086 C 
HETATM    3  C3  UNL     1     -35.915  16.170  -2.971  1.00 20.00     0.009 C 
HETATM    4  C4  UNL     1     -35.807  17.640  -2.561  1.00 20.00     0.052 C 
HETATM    5  C5  UNL     1     -34.586  15.399  -2.865  1.00 20.00    -0.004 C 
HETATM    6  C6  UNL     1     -34.793  17.905  -1.451  1.00 20.00     0.159 C 
HETATM    7  C7  UNL     1     -35.207  17.318  -0.109  1.00 20.00     0.060 C 
HETATM    8  O11 UNL     1     -32.394  17.817  -1.355  1.00 20.00    -0.294 OA
HETATM    9  F12 UNL     1     -34.722  19.261  -1.287  1.00 20.00    -0.235 F 
ENDROOT
BRANCH   5  10
HETATM   10  C10 UNL     1     -34.511  14.294  -3.918  1.00 20.00    -0.018 C 
HETATM   11  C8  UNL     1     -35.912  13.881  -4.364  1.00 20.00     0.010 C 
HETATM   12  C9  UNL     1     -33.679  14.751  -5.114  1.00 20.00     0.010 C 
ENDBRANCH   5  10
TORSDOF 1
ENDMDL
MODEL 6
REMARK VINA RESULT:      -4.6     15.282     17.674
REMARK  1 active torsions:
REMARK  status: ('A' for Active; 'I' for Inactive)
REMARK    1  A    between atoms: C5_5  and  C10_10 
ROOT
HETATM    1  C1  UNL     1     -22.814  18.090   9.996  1.00 20.00     0.166 C 
HETATM    2  C2  UNL     1     -23.350  18.889   8.824  1.00 20.00     0.086 C 
HETATM    3  C3  UNL     1     -25.708  18.758   9.768  1.00 20.00     0.009 C 
HETATM    4  C4  UNL     1     -24.957  18.734  11.100  1.00 20.00     0.052 C 
HETATM    5  C5  UNL     1     -24.806  18.517   8.544  1.00 20.00    -0.004 C 
HETATM    6  C6  UNL     1     -23.774  17.770  11.132  1.00 20.00     0.159 C 
HETATM    7  C7  UNL     1     -24.193  16.307  11.074  1.00 20.00     0.060 C 
HETATM    8  O11 UNL     1     -21.630  17.755  10.048  1.00 20.00    -0.294 OA
HETATM    9  F12 UNL     1     -23.138  17.954  12.329  1.00 20.00    -0.235 F 
ENDROOT
BRANCH   5  10
HETATM   10  C10 UNL     1     -25.337  19.263   7.320  1.00 20.00    -0.018 C 
HETATM   11  C8  UNL     1     -24.300  19.260   6.199  1.00 20.00     0.010 C 
HETATM   12  C9  UNL     1     -26.647  18.643   6.842  1.00 20.00     0.010 C 
ENDBRANCH   5  10
TORSDOF 1
ENDMDL
MODEL 7
REMARK VINA RESULT:      -4.5      1.851      2.412
REMARK  1 active torsions:
REMARK  status: ('A' for Active; 'I' for Inactive)
REMARK    1  A    between atoms: C5_5  and  C10_10 
ROOT
HETATM    1  C1  UNL     1     -34.420  16.629  -5.890  1.00 20.00     0.166 C 
HETATM    2  C2  UNL     1     -34.153  17.401  -4.613  1.00 20.00     0.086 C 
HETATM    3  C3  UNL     1     -34.085  15.238  -3.276  1.00 20.00     0.009 C 
HETATM    4  C4  UNL     1     -33.560  14.675  -4.598  1.00 20.00     0.052 C 
HETATM    5  C5  UNL     1     -34.701  16.644  -3.404  1.00 20.00    -0.004 C 
HETATM    6  C6  UNL     1     -34.360  15.110  -5.823  1.00 20.00     0.159 C 
HETATM    7  C7  UNL     1     -35.765  14.523  -5.860  1.00 20.00     0.060 C 
HETATM    8  O11 UNL     1     -34.630  17.213  -6.954  1.00 20.00    -0.294 OA
HETATM    9  F12 UNL     1     -33.702  14.634  -6.924  1.00 20.00    -0.235 F 
ENDROOT
BRANCH   5  10
HETATM   10  C10 UNL     1     -34.502  17.445  -2.118  1.00 20.00    -0.018 C 
HETATM   11  C8  UNL     1     -35.249  16.791  -0.957  1.00 20.00     0.010 C 
HETATM   12  C9  UNL     1     -33.016  17.577  -1.794  1.00 20.00     0.010 C 
ENDBRANCH   5  10
TORSDOF 1
ENDMDL
MODEL 8
REMARK VINA RESULT:      -4.5      1.549      2.135
REMARK  1 active torsions:
REMARK  status: ('A' for Active; 'I' for Inactive)
REMARK    1  A    between atoms: C5_5  and  C10_10 
ROOT
HETATM    1  C1  UNL     1     -36.500  15.663  -5.001  1.00 20.00     0.166 C 
HETATM    2  C2  UNL     1     -36.024  16.757  -4.067  1.00 20.00     0.086 C 
HETATM    3  C3  UNL     1     -33.938  15.417  -3.501  1.00 20.00     0.009 C 
HETATM    4  C4  UNL     1     -34.123  14.906  -4.931  1.00 20.00     0.052 C 
HETATM    5  C5  UNL     1     -35.162  16.171  -2.949  1.00 20.00    -0.004 C 
HETATM    6  C6  UNL     1     -35.555  14.500  -5.267  1.00 20.00     0.159 C 
HETATM    7  C7  UNL     1     -36.018  13.260  -4.514  1.00 20.00     0.060 C 
HETATM    8  O11 UNL     1     -37.593  15.736  -5.563  1.00 20.00    -0.294 OA
HETATM    9  F12 UNL     1     -35.582  14.189  -6.599  1.00 20.00    -0.235 F 
ENDROOT
BRANCH   5  10
HETATM   10  C10 UNL     1     -34.734  17.255  -1.960  1.00 20.00    -0.018 C 
HETATM   11  C8  UNL     1     -35.287  16.959  -0.568  1.00 20.00     0.010 C 
HETATM   12  C9  UNL     1     -33.213  17.374  -1.920  1.00 20.00     0.010 C 
ENDBRANCH   5  10
TORSDOF 1
ENDMDL
MODEL 9
REMARK VINA RESULT:      -4.5      2.294      3.054
REMARK  1 active torsions:
REMARK  status: ('A' for Active; 'I' for Inactive)
REMARK    1  A    between atoms: C5_5  and  C10_10 
ROOT
HETATM    1  C1  UNL     1     -37.301  14.728  -4.185  1.00 20.00     0.166 C 
HETATM    2  C2  UNL     1     -35.827  14.741  -3.830  1.00 20.00     0.086 C 
HETATM    3  C3  UNL     1     -35.818  17.284  -3.807  1.00 20.00     0.009 C 
HETATM    4  C4  UNL     1     -37.269  17.085  -3.365  1.00 20.00     0.052 C 
HETATM    5  C5  UNL     1     -35.158  16.008  -4.362  1.00 20.00    -0.004 C 
HETATM    6  C6  UNL     1     -38.038  16.059  -4.194  1.00 20.00     0.159 C 
HETATM    7  C7  UNL     1     -38.290  16.515  -5.625  1.00 20.00     0.060 C 
HETATM    8  O11 UNL     1     -37.892  13.672  -4.412  1.00 20.00    -0.294 OA
HETATM    9  F12 UNL     1     -39.263  15.903  -3.604  1.00 20.00    -0.235 F 
ENDROOT
BRANCH   5  10
HETATM   10  C10 UNL     1     -33.658  15.999  -4.072  1.00 20.00    -0.018 C 
HETATM   11  C8  UNL     1     -33.385  16.453  -2.639  1.00 20.00     0.010 C 
HETATM   12  C9  UNL     1     -33.073  14.611  -4.316  1.00 20.00     0.010 C 
ENDBRANCH   5  10
TORSDOF 1
ENDMDL
