MODEL 1
REMARK VINA RESULT:      -4.5      0.000      0.000
REMARK  3 active torsions:
REMARK  status: ('A' for Active; 'I' for Inactive)
REMARK    1  A    between atoms: C6_6  and  C7_7 
REMARK    2  A    between atoms: C7_7  and  C8_8 
REMARK    3  A    between atoms: C7_7  and  O9_9 
ROOT
HETATM    1  C1  UNL     1     -32.628   8.453   0.654  1.00 20.00     0.012 C 
HETATM    2  C2  UNL     1     -32.580   7.778   1.646  1.00 20.00    -0.115 C 
HETATM    3  C6  UNL     1     -32.518   6.951   2.865  1.00 20.00     0.125 C 
ENDROOT
BRANCH   3   4
HETATM    4  C7  UNL     1     -33.577   5.837   2.834  1.00 20.00     0.136 C 
BRANCH   4   5
HETATM    5  C8  UNL     1     -34.340   5.607   4.178  1.00 20.00    -0.025 C 
HETATM    6  C3  UNL     1     -34.047   4.180   4.693  1.00 20.00     0.017 C 
HETATM    7  C4  UNL     1     -33.911   6.605   5.269  1.00 20.00     0.017 C 
HETATM    8  C5  UNL     1     -35.861   5.731   3.964  1.00 20.00     0.017 C 
ENDBRANCH   4   5
BRANCH   4   9
HETATM    9  O9  UNL     1     -32.940   4.622   2.422  1.00 20.00    -0.394 OA
HETATM   10  H23 UNL     1     -31.998   4.829   2.334  1.00 20.00     0.210 HD
ENDBRANCH   4   9
ENDBRANCH   3   4
TORSDOF 3
ENDMDL
MODEL 2
REMARK VINA RESULT:      -4.5     15.774     16.590
REMARK  3 active torsions:
REMARK  status: ('A' for Active; 'I' for Inactive)
REMARK    1  A    between atoms: C6_6  and  C7_7 
REMARK    2  A    between atoms: C7_7  and  C8_8 
REMARK    3  A    between atoms: C7_7  and  O9_9 
ROOT
HETATM    1  C1  UNL     1     -24.954  19.154   7.077  1.00 20.00     0.012 C 
HETATM    2  C2  UNL     1     -24.236  18.883   8.001  1.00 20.00    -0.115 C 
HETATM    3  C6  UNL     1     -23.354  18.552   9.135  1.00 20.00     0.125 C 
ENDROOT
BRANCH   3   4
HETATM    4  C7  UNL     1     -23.697  17.173   9.722  1.00 20.00     0.136 C 
BRANCH   4   5
HETATM    5  C8  UNL     1     -24.000  17.158  11.254  1.00 20.00    -0.025 C 
HETATM    6  C3  UNL     1     -25.068  18.226  11.574  1.00 20.00     0.017 C 
HETATM    7  C4  UNL     1     -24.534  15.793  11.728  1.00 20.00     0.017 C 
HETATM    8  C5  UNL     1     -22.731  17.499  12.059  1.00 20.00     0.017 C 
ENDBRANCH   4   5
BRANCH   4   9
HETATM    9  O9  UNL     1     -22.616  16.278   9.430  1.00 20.00    -0.394 OA
HETATM   10  H23 UNL     1     -21.807  16.805   9.496  1.00 20.00     0.210 HD
ENDBRANCH   4   9
ENDBRANCH   3   4
TORSDOF 3
ENDMDL
MODEL 3
REMARK VINA RESULT:      -4.1     11.121     12.737
REMARK  3 active torsions:
REMARK  status: ('A' for Active; 'I' for Inactive)
REMARK    1  A    between atoms: C6_6  and  C7_7 
REMARK    2  A    between atoms: C7_7  and  C8_8 
REMARK    3  A    between atoms: C7_7  and  O9_9 
ROOT
HETATM    1  C1  UNL     1     -35.014  16.372  -1.767  1.00 20.00     0.012 C 
HETATM    2  C2  UNL     1     -34.810  15.556  -2.625  1.00 20.00    -0.115 C 
HETATM    3  C6  UNL     1     -34.560  14.553  -3.676  1.00 20.00     0.125 C 
ENDROOT
BRANCH   3   4
HETATM    4  C7  UNL     1     -33.755  15.156  -4.839  1.00 20.00     0.136 C 
BRANCH   4   5
HETATM    5  C8  UNL     1     -34.586  15.499  -6.117  1.00 20.00    -0.025 C 
HETATM    6  C3  UNL     1     -33.767  15.127  -7.373  1.00 20.00     0.017 C 
HETATM    7  C4  UNL     1     -35.917  14.725  -6.170  1.00 20.00     0.017 C 
HETATM    8  C5  UNL     1     -34.888  17.008  -6.176  1.00 20.00     0.017 C 
ENDBRANCH   4   5
BRANCH   4   9
HETATM    9  O9  UNL     1     -32.699  14.246  -5.174  1.00 20.00    -0.394 OA
HETATM   10  H23 UNL     1     -31.881  14.763  -5.148  1.00 20.00     0.210 HD
ENDBRANCH   4   9
ENDBRANCH   3   4
TORSDOF 3
ENDMDL
MODEL 4
REMARK VINA RESULT:      -4.1     11.086     12.660
REMARK  3 active torsions:
REMARK  status: ('A' for Active; 'I' for Inactive)
REMARK    1  A    between atoms: C6_6  and  C7_7 
REMARK    2  A    between atoms: C7_7  and  C8_8 
REMARK    3  A    between atoms: C7_7  and  O9_9 
ROOT
HETATM    1  C1  UNL     1     -34.736  16.598  -1.731  1.00 20.00     0.012 C 
HETATM    2  C2  UNL     1     -34.702  15.723  -2.553  1.00 20.00    -0.115 C 
HETATM    3  C6  UNL     1     -34.662  14.647  -3.560  1.00 20.00     0.125 C 
ENDROOT
BRANCH   3   4
HETATM    4  C7  UNL     1     -33.763  15.031  -4.747  1.00 20.00     0.136 C 
BRANCH   4   5
HETATM    5  C8  UNL     1     -34.520  15.403  -6.062  1.00 20.00    -0.025 C 
HETATM    6  C3  UNL     1     -34.805  16.921  -6.075  1.00 20.00     0.017 C 
HETATM    7  C4  UNL     1     -33.701  15.061  -7.321  1.00 20.00     0.017 C 
HETATM    8  C5  UNL     1     -35.871  14.666  -6.136  1.00 20.00     0.017 C 
ENDBRANCH   4   5
BRANCH   4   9
HETATM    9  O9  UNL     1     -32.859  13.947  -4.995  1.00 20.00    -0.394 OA
HETATM   10  H23 UNL     1     -32.052  14.152  -4.503  1.00 20.00     0.210 HD
ENDBRANCH   4   9
ENDBRANCH   3   4
TORSDOF 3
ENDMDL
MODEL 5
REMARK VINA RESULT:      -4.1     11.090     12.647
REMARK  3 active torsions:
REMARK  status: ('A' for Active; 'I' for Inactive)
REMARK    1  A    between atoms: C6_6  and  C7_7 
REMARK    2  A    between atoms: C7_7  and  C8_8 
REMARK    3  A    between atoms: C7_7  and  O9_9 
ROOT
HETATM    1  C1  UNL     1     -34.772  16.581  -1.734  1.00 20.00     0.012 C 
HETATM    2  C2  UNL     1     -34.721  15.709  -2.558  1.00 20.00    -0.115 C 
HETATM    3  C6  UNL     1     -34.660  14.637  -3.568  1.00 20.00     0.125 C 
ENDROOT
BRANCH   3   4
HETATM    4  C7  UNL     1     -33.781  15.047  -4.761  1.00 20.00     0.136 C 
BRANCH   4   5
HETATM    5  C8  UNL     1     -34.559  15.435  -6.059  1.00 20.00    -0.025 C 
HETATM    6  C3  UNL     1     -35.881  14.638  -6.119  1.00 20.00     0.017 C 
HETATM    7  C4  UNL     1     -34.905  16.935  -6.103  1.00 20.00     0.017 C 
HETATM    8  C5  UNL     1     -33.733  15.081  -7.310  1.00 20.00     0.017 C 
ENDBRANCH   4   5
BRANCH   4   9
HETATM    9  O9  UNL     1     -32.873  13.974  -5.040  1.00 20.00    -0.394 OA
HETATM   10  H23 UNL     1     -33.234  13.194  -4.594  1.00 20.00     0.210 HD
ENDBRANCH   4   9
ENDBRANCH   3   4
TORSDOF 3
ENDMDL
MODEL 6
REMARK VINA RESULT:      -4.1     11.530     12.626
REMARK  3 active torsions:
REMARK  status: ('A' for Active; 'I' for Inactive)
REMARK    1  A    between atoms: C6_6  and  C7_7 
REMARK    2  A    between atoms: C7_7  and  C8_8 
REMARK    3  A    between atoms: C7_7  and  O9_9 
ROOT
HETATM    1  C1  UNL     1     -33.674  16.787  -2.229  1.00 20.00     0.012 C 
HETATM    2  C2  UNL     1     -33.683  15.885  -3.021  1.00 20.00    -0.115 C 
HETATM    3  C6  UNL     1     -33.694  14.774  -3.990  1.00 20.00     0.125 C 
ENDROOT
BRANCH   3   4
HETATM    4  C7  UNL     1     -34.061  15.269  -5.398  1.00 20.00     0.136 C 
BRANCH   4   5
HETATM    5  C8  UNL     1     -35.559  15.081  -5.801  1.00 20.00    -0.025 C 
HETATM    6  C3  UNL     1     -36.350  16.356  -5.435  1.00 20.00     0.017 C 
HETATM    7  C4  UNL     1     -35.728  14.834  -7.312  1.00 20.00     0.017 C 
HETATM    8  C5  UNL     1     -36.181  13.899  -5.033  1.00 20.00     0.017 C 
ENDBRANCH   4   5
BRANCH   4   9
HETATM    9  O9  UNL     1     -33.215  14.603  -6.344  1.00 20.00    -0.394 OA
HETATM   10  H23 UNL     1     -33.032  13.729  -5.971  1.00 20.00     0.210 HD
ENDBRANCH   4   9
ENDBRANCH   3   4
TORSDOF 3
ENDMDL
MODEL 7
REMARK VINA RESULT:      -4.1     15.971     16.722
REMARK  3 active torsions:
REMARK  status: ('A' for Active; 'I' for Inactive)
REMARK    1  A    between atoms: C6_6  and  C7_7 
REMARK    2  A    between atoms: C7_7  and  C8_8 
REMARK    3  A    between atoms: C7_7  and  O9_9 
ROOT
HETATM    1  C1  UNL     1     -21.296  17.194   7.524  1.00 20.00     0.012 C 
HETATM    2  C2  UNL     1     -22.018  17.673   8.355  1.00 20.00    -0.115 C 
HETATM    3  C6  UNL     1     -22.903  18.264   9.376  1.00 20.00     0.125 C 
ENDROOT
BRANCH   3   4
HETATM    4  C7  UNL     1     -23.874  17.216   9.943  1.00 20.00     0.136 C 
BRANCH   4   5
HETATM    5  C8  UNL     1     -24.204  17.367  11.463  1.00 20.00    -0.025 C 
HETATM    6  C3  UNL     1     -24.717  16.017  12.011  1.00 20.00     0.017 C 
HETATM    7  C4  UNL     1     -22.970  17.778  12.288  1.00 20.00     0.017 C 
HETATM    8  C5  UNL     1     -25.311  18.417  11.673  1.00 20.00     0.017 C 
ENDBRANCH   4   5
BRANCH   4   9
HETATM    9  O9  UNL     1     -23.329  15.914   9.691  1.00 20.00    -0.394 OA
HETATM   10  H23 UNL     1     -23.603  15.678   8.793  1.00 20.00     0.210 HD
ENDBRANCH   4   9
ENDBRANCH   3   4
TORSDOF 3
ENDMDL
MODEL 8
REMARK VINA RESULT:      -4.0     11.335     12.446
REMARK  3 active torsions:
REMARK  status: ('A' for Active; 'I' for Inactive)
REMARK    1  A    between atoms: C6_6  and  C7_7 
REMARK    2  A    between atoms: C7_7  and  C8_8 
REMARK    3  A    between atoms: C7_7  and  O9_9 
ROOT
HETATM    1  C1  UNL     1     -34.664  16.503  -1.884  1.00 20.00     0.012 C 
HETATM    2  C2  UNL     1     -34.346  15.698  -2.716  1.00 20.00    -0.115 C 
HETATM    3  C6  UNL     1     -33.955  14.709  -3.737  1.00 20.00     0.125 C 
ENDROOT
BRANCH   3   4
HETATM    4  C7  UNL     1     -34.199  15.248  -5.156  1.00 20.00     0.136 C 
BRANCH   4   5
HETATM    5  C8  UNL     1     -35.653  15.063  -5.697  1.00 20.00    -0.025 C 
HETATM    6  C3  UNL     1     -36.305  13.848  -5.002  1.00 20.00     0.017 C 
HETATM    7  C4  UNL     1     -36.535  16.296  -5.427  1.00 20.00     0.017 C 
HETATM    8  C5  UNL     1     -35.635  14.790  -7.213  1.00 20.00     0.017 C 
ENDBRANCH   4   5
BRANCH   4   9
HETATM    9  O9  UNL     1     -33.265  14.618  -6.042  1.00 20.00    -0.394 OA
HETATM   10  H23 UNL     1     -33.782  14.305  -6.798  1.00 20.00     0.210 HD
ENDBRANCH   4   9
ENDBRANCH   3   4
TORSDOF 3
ENDMDL
MODEL 9
REMARK VINA RESULT:      -3.9     16.420     17.532
REMARK  3 active torsions:
REMARK  status: ('A' for Active; 'I' for Inactive)
REMARK    1  A    between atoms: C6_6  and  C7_7 
REMARK    2  A    between atoms: C7_7  and  C8_8 
REMARK    3  A    between atoms: C7_7  and  O9_9 
ROOT
HETATM    1  C1  UNL     1     -26.348  17.805  12.332  1.00 20.00     0.012 C 
HETATM    2  C2  UNL     1     -25.267  17.319  12.139  1.00 20.00    -0.115 C 
HETATM    3  C6  UNL     1     -23.941  16.719  11.903  1.00 20.00     0.125 C 
ENDROOT
BRANCH   3   4
HETATM    4  C7  UNL     1     -22.932  17.775  11.423  1.00 20.00     0.136 C 
BRANCH   4   5
HETATM    5  C8  UNL     1     -22.749  17.866   9.875  1.00 20.00    -0.025 C 
HETATM    6  C3  UNL     1     -23.643  18.998   9.321  1.00 20.00     0.017 C 
HETATM    7  C4  UNL     1     -21.293  18.173   9.478  1.00 20.00     0.017 C 
HETATM    8  C5  UNL     1     -23.178  16.549   9.201  1.00 20.00     0.017 C 
ENDBRANCH   4   5
BRANCH   4   9
HETATM    9  O9  UNL     1     -21.670  17.507  12.048  1.00 20.00    -0.394 OA
HETATM   10  H23 UNL     1     -21.637  16.549  12.186  1.00 20.00     0.210 HD
ENDBRANCH   4   9
ENDBRANCH   3   4
TORSDOF 3
ENDMDL
