MODEL 1
REMARK VINA RESULT:      -5.9      0.000      0.000
REMARK  0 active torsions:
REMARK  status: ('A' for Active; 'I' for Inactive)
ROOT
HETATM    1  C1  UNL     1     -34.713   5.271   6.063  1.00 20.00    -0.003 C 
HETATM    2  C2  UNL     1     -34.583   4.558   4.808  1.00 20.00     0.011 C 
HETATM    3  C3  UNL     1     -34.331   6.554   5.917  1.00 20.00    -0.017 C 
HETATM    4  C4  UNL     1     -34.158   5.442   3.907  1.00 20.00    -0.005 C 
HETATM    5  C5  UNL     1     -33.413   5.365   2.646  1.00 20.00     0.156 C 
HETATM    6  C6  UNL     1     -32.543   6.598   2.552  1.00 20.00     0.084 C 
HETATM    7  C7  UNL     1     -32.640   7.189   3.983  1.00 20.00     0.021 C 
HETATM    8  C8  UNL     1     -34.040   6.821   4.472  1.00 20.00     0.045 C 
HETATM    9  O9  UNL     1     -33.486   4.460   1.836  1.00 20.00    -0.293 OA
ENDROOT
TORSDOF 0
ENDMDL
MODEL 2
REMARK VINA RESULT:      -5.8      1.866      3.674
REMARK  0 active torsions:
REMARK  status: ('A' for Active; 'I' for Inactive)
ROOT
HETATM    1  C1  UNL     1     -32.573   6.252   2.361  1.00 20.00    -0.003 C 
HETATM    2  C2  UNL     1     -32.760   7.069   3.543  1.00 20.00     0.011 C 
HETATM    3  C3  UNL     1     -33.434   5.216   2.364  1.00 20.00    -0.017 C 
HETATM    4  C4  UNL     1     -33.769   6.529   4.227  1.00 20.00    -0.005 C 
HETATM    5  C5  UNL     1     -34.184   6.522   5.634  1.00 20.00     0.156 C 
HETATM    6  C6  UNL     1     -34.797   5.170   5.922  1.00 20.00     0.084 C 
HETATM    7  C7  UNL     1     -34.407   4.347   4.667  1.00 20.00     0.021 C 
HETATM    8  C8  UNL     1     -34.374   5.359   3.522  1.00 20.00     0.045 C 
HETATM    9  O9  UNL     1     -34.045   7.443   6.417  1.00 20.00    -0.293 OA
ENDROOT
TORSDOF 0
ENDMDL
MODEL 3
REMARK VINA RESULT:      -5.0     11.775     12.319
REMARK  0 active torsions:
REMARK  status: ('A' for Active; 'I' for Inactive)
ROOT
HETATM    1  C1  UNL     1     -33.026  15.825  -3.506  1.00 20.00    -0.003 C 
HETATM    2  C2  UNL     1     -33.514  14.582  -4.070  1.00 20.00     0.011 C 
HETATM    3  C3  UNL     1     -34.026  16.487  -2.892  1.00 20.00    -0.017 C 
HETATM    4  C4  UNL     1     -34.804  14.495  -3.749  1.00 20.00    -0.005 C 
HETATM    5  C5  UNL     1     -35.973  13.816  -4.318  1.00 20.00     0.156 C 
HETATM    6  C6  UNL     1     -37.174  14.706  -4.090  1.00 20.00     0.084 C 
HETATM    7  C7  UNL     1     -36.525  16.040  -3.638  1.00 20.00     0.021 C 
HETATM    8  C8  UNL     1     -35.257  15.632  -2.891  1.00 20.00     0.045 C 
HETATM    9  O9  UNL     1     -35.960  12.734  -4.876  1.00 20.00    -0.293 OA
ENDROOT
TORSDOF 0
ENDMDL
MODEL 4
REMARK VINA RESULT:      -4.8      1.292      2.158
REMARK  0 active torsions:
REMARK  status: ('A' for Active; 'I' for Inactive)
ROOT
HETATM    1  C1  UNL     1     -34.570   6.468   6.333  1.00 20.00    -0.003 C 
HETATM    2  C2  UNL     1     -33.723   7.191   5.405  1.00 20.00     0.011 C 
HETATM    3  C3  UNL     1     -34.734   5.195   5.925  1.00 20.00    -0.017 C 
HETATM    4  C4  UNL     1     -33.356   6.322   4.465  1.00 20.00    -0.005 C 
HETATM    5  C5  UNL     1     -32.928   6.425   3.065  1.00 20.00     0.156 C 
HETATM    6  C6  UNL     1     -33.459   5.213   2.335  1.00 20.00     0.084 C 
HETATM    7  C7  UNL     1     -34.456   4.611   3.359  1.00 20.00     0.021 C 
HETATM    8  C8  UNL     1     -33.868   4.944   4.729  1.00 20.00     0.045 C 
HETATM    9  O9  UNL     1     -32.270   7.333   2.592  1.00 20.00    -0.293 OA
ENDROOT
TORSDOF 0
ENDMDL
MODEL 5
REMARK VINA RESULT:      -4.7     11.987     12.636
REMARK  0 active torsions:
REMARK  status: ('A' for Active; 'I' for Inactive)
ROOT
HETATM    1  C1  UNL     1     -33.655  16.800  -2.198  1.00 20.00    -0.003 C 
HETATM    2  C2  UNL     1     -33.140  16.251  -3.436  1.00 20.00     0.011 C 
HETATM    3  C3  UNL     1     -34.853  16.258  -1.905  1.00 20.00    -0.017 C 
HETATM    4  C4  UNL     1     -34.027  15.349  -3.853  1.00 20.00    -0.005 C 
HETATM    5  C5  UNL     1     -34.394  14.776  -5.153  1.00 20.00     0.156 C 
HETATM    6  C6  UNL     1     -35.885  14.520  -5.135  1.00 20.00     0.084 C 
HETATM    7  C7  UNL     1     -36.341  15.274  -3.859  1.00 20.00     0.021 C 
HETATM    8  C8  UNL     1     -35.161  15.177  -2.895  1.00 20.00     0.045 C 
HETATM    9  O9  UNL     1     -33.627  14.560  -6.073  1.00 20.00    -0.293 OA
ENDROOT
TORSDOF 0
ENDMDL
MODEL 6
REMARK VINA RESULT:      -4.7      1.239      2.976
REMARK  0 active torsions:
REMARK  status: ('A' for Active; 'I' for Inactive)
ROOT
HETATM    1  C1  UNL     1     -32.586   7.097   2.210  1.00 20.00    -0.003 C 
HETATM    2  C2  UNL     1     -33.451   5.951   2.402  1.00 20.00     0.011 C 
HETATM    3  C3  UNL     1     -32.226   7.618   3.398  1.00 20.00    -0.017 C 
HETATM    4  C4  UNL     1     -33.567   5.774   3.717  1.00 20.00    -0.005 C 
HETATM    5  C5  UNL     1     -34.568   5.163   4.599  1.00 20.00     0.156 C 
HETATM    6  C6  UNL     1     -34.600   5.968   5.879  1.00 20.00     0.084 C 
HETATM    7  C7  UNL     1     -33.776   7.227   5.507  1.00 20.00     0.021 C 
HETATM    8  C8  UNL     1     -32.738   6.739   4.498  1.00 20.00     0.045 C 
HETATM    9  O9  UNL     1     -35.247   4.190   4.331  1.00 20.00    -0.293 OA
ENDROOT
TORSDOF 0
ENDMDL
MODEL 7
REMARK VINA RESULT:      -4.5     16.415     16.723
REMARK  0 active torsions:
REMARK  status: ('A' for Active; 'I' for Inactive)
ROOT
HETATM    1  C1  UNL     1     -26.075  19.075  10.819  1.00 20.00    -0.003 C 
HETATM    2  C2  UNL     1     -25.559  19.263   9.478  1.00 20.00     0.011 C 
HETATM    3  C3  UNL     1     -25.203  18.368  11.563  1.00 20.00    -0.017 C 
HETATM    4  C4  UNL     1     -24.355  18.695   9.448  1.00 20.00    -0.005 C 
HETATM    5  C5  UNL     1     -23.504  18.119   8.400  1.00 20.00     0.156 C 
HETATM    6  C6  UNL     1     -22.755  16.955   9.009  1.00 20.00     0.084 C 
HETATM    7  C7  UNL     1     -23.486  16.753  10.361  1.00 20.00     0.021 C 
HETATM    8  C8  UNL     1     -23.947  18.149  10.777  1.00 20.00     0.045 C 
HETATM    9  O9  UNL     1     -23.431  18.514   7.252  1.00 20.00    -0.293 OA
ENDROOT
TORSDOF 0
ENDMDL
MODEL 8
REMARK VINA RESULT:      -4.4     16.645     17.120
REMARK  0 active torsions:
REMARK  status: ('A' for Active; 'I' for Inactive)
ROOT
HETATM    1  C1  UNL     1     -22.884  17.913   8.259  1.00 20.00    -0.003 C 
HETATM    2  C2  UNL     1     -24.113  18.518   8.735  1.00 20.00     0.011 C 
HETATM    3  C3  UNL     1     -22.395  17.059   9.178  1.00 20.00    -0.017 C 
HETATM    4  C4  UNL     1     -24.367  17.983   9.928  1.00 20.00    -0.005 C 
HETATM    5  C5  UNL     1     -25.110  18.406  11.120  1.00 20.00     0.156 C 
HETATM    6  C6  UNL     1     -24.379  17.868  12.329  1.00 20.00     0.084 C 
HETATM    7  C7  UNL     1     -23.033  17.391  11.725  1.00 20.00     0.021 C 
HETATM    8  C8  UNL     1     -23.372  16.935  10.307  1.00 20.00     0.045 C 
HETATM    9  O9  UNL     1     -26.125  19.077  11.119  1.00 20.00    -0.293 OA
ENDROOT
TORSDOF 0
ENDMDL
MODEL 9
REMARK VINA RESULT:      -4.4     11.832     12.881
REMARK  0 active torsions:
REMARK  status: ('A' for Active; 'I' for Inactive)
ROOT
HETATM    1  C1  UNL     1     -33.973  16.066  -2.667  1.00 20.00    -0.003 C 
HETATM    2  C2  UNL     1     -35.164  15.244  -2.741  1.00 20.00     0.011 C 
HETATM    3  C3  UNL     1     -33.629  16.506  -3.893  1.00 20.00    -0.017 C 
HETATM    4  C4  UNL     1     -35.545  15.235  -4.018  1.00 20.00    -0.005 C 
HETATM    5  C5  UNL     1     -36.318  14.320  -4.865  1.00 20.00     0.156 C 
HETATM    6  C6  UNL     1     -35.721  14.370  -6.254  1.00 20.00     0.084 C 
HETATM    7  C7  UNL     1     -34.392  15.135  -6.023  1.00 20.00     0.021 C 
HETATM    8  C8  UNL     1     -34.683  16.102  -4.877  1.00 20.00     0.045 C 
HETATM    9  O9  UNL     1     -37.261  13.644  -4.499  1.00 20.00    -0.293 OA
ENDROOT
TORSDOF 0
ENDMDL
