MODEL 1
REMARK VINA RESULT:      -4.1      0.000      0.000
REMARK  5 active torsions:
REMARK  status: ('A' for Active; 'I' for Inactive)
REMARK    1  A    between atoms: C5_5  and  C9_9 
REMARK    2  A    between atoms: C6_6  and  C9_9 
REMARK    3  A    between atoms: C7_7  and  N11_11 
REMARK    4  A    between atoms: C8_8  and  N11_11 
REMARK    5  A    between atoms: C9_9  and  N11_11 
ROOT
HETATM    1  C1  UNL     1     -24.530  19.076   7.113  1.00 20.00     0.061 C 
HETATM    2  C5  UNL     1     -24.995  18.932   8.502  1.00 20.00     0.159 C 
HETATM    3  N10 UNL     1     -24.168  19.192   6.017  1.00 20.00    -0.197 NA
ENDROOT
BRANCH   2   4
HETATM    4  C9  UNL     1     -23.846  18.576   9.463  1.00 20.00     0.235 C 
BRANCH   4   5
HETATM    5  C6  UNL     1     -22.975  17.429   8.915  1.00 20.00     0.032 C 
HETATM    6  C2  UNL     1     -21.481  17.736   8.920  1.00 20.00     0.007 C 
ENDBRANCH   4   5
BRANCH   4   7
HETATM    7  N11 UNL     1     -24.429  18.201  10.756  1.00 20.00     0.093 N 
BRANCH   7   8
HETATM    8  C7  UNL     1     -24.612  16.753  10.829  1.00 20.00     0.268 C 
HETATM    9  C3  UNL     1     -23.825  16.168  11.952  1.00 20.00     0.037 C 
ENDBRANCH   7   8
BRANCH   7  10
HETATM   10  C8  UNL     1     -25.702  18.890  10.955  1.00 20.00     0.268 C 
HETATM   11  C4  UNL     1     -26.426  18.350  12.142  1.00 20.00     0.037 C 
ENDBRANCH   7  10
ENDBRANCH   4   7
ENDBRANCH   2   4
TORSDOF 5
ENDMDL
MODEL 2
REMARK VINA RESULT:      -4.0     16.034     18.113
REMARK  5 active torsions:
REMARK  status: ('A' for Active; 'I' for Inactive)
REMARK    1  A    between atoms: C5_5  and  C9_9 
REMARK    2  A    between atoms: C6_6  and  C9_9 
REMARK    3  A    between atoms: C7_7  and  N11_11 
REMARK    4  A    between atoms: C8_8  and  N11_11 
REMARK    5  A    between atoms: C9_9  and  N11_11 
ROOT
HETATM    1  C1  UNL     1     -36.633  14.076  -4.296  1.00 20.00     0.061 C 
HETATM    2  C5  UNL     1     -35.190  14.306  -4.130  1.00 20.00     0.159 C 
HETATM    3  N10 UNL     1     -37.772  13.893  -4.423  1.00 20.00    -0.197 NA
ENDROOT
BRANCH   2   4
HETATM    4  C9  UNL     1     -34.669  15.419  -5.058  1.00 20.00     0.235 C 
BRANCH   4   5
HETATM    5  C6  UNL     1     -33.855  14.847  -6.236  1.00 20.00     0.032 C 
HETATM    6  C2  UNL     1     -34.134  15.539  -7.566  1.00 20.00     0.007 C 
ENDBRANCH   4   5
BRANCH   4   7
HETATM    7  N11 UNL     1     -33.842  16.331  -4.261  1.00 20.00     0.093 N 
BRANCH   7   8
HETATM    8  C7  UNL     1     -33.906  15.969  -2.846  1.00 20.00     0.268 C 
HETATM    9  C3  UNL     1     -33.522  17.119  -1.979  1.00 20.00     0.037 C 
ENDBRANCH   7   8
BRANCH   7  10
HETATM   10  C8  UNL     1     -34.276  17.712  -4.458  1.00 20.00     0.268 C 
HETATM   11  C4  UNL     1     -35.685  17.768  -4.944  1.00 20.00     0.037 C 
ENDBRANCH   7  10
ENDBRANCH   4   7
ENDBRANCH   2   4
TORSDOF 5
ENDMDL
MODEL 3
REMARK VINA RESULT:      -3.9     14.761     16.807
REMARK  5 active torsions:
REMARK  status: ('A' for Active; 'I' for Inactive)
REMARK    1  A    between atoms: C5_5  and  C9_9 
REMARK    2  A    between atoms: C6_6  and  C9_9 
REMARK    3  A    between atoms: C7_7  and  N11_11 
REMARK    4  A    between atoms: C8_8  and  N11_11 
REMARK    5  A    between atoms: C9_9  and  N11_11 
ROOT
HETATM    1  C1  UNL     1     -35.272  13.724  -4.148  1.00 20.00     0.061 C 
HETATM    2  C5  UNL     1     -34.420  14.823  -3.666  1.00 20.00     0.159 C 
HETATM    3  N10 UNL     1     -35.940  12.855  -4.529  1.00 20.00    -0.197 NA
ENDROOT
BRANCH   2   4
HETATM    4  C9  UNL     1     -35.197  15.811  -2.776  1.00 20.00     0.235 C 
BRANCH   4   5
HETATM    5  C6  UNL     1     -35.947  16.866  -3.614  1.00 20.00     0.032 C 
HETATM    6  C2  UNL     1     -37.455  16.641  -3.674  1.00 20.00     0.007 C 
ENDBRANCH   4   5
BRANCH   4   7
HETATM    7  N11 UNL     1     -34.243  16.462  -1.872  1.00 20.00     0.093 N 
BRANCH   7   8
HETATM    8  C7  UNL     1     -34.883  17.575  -1.174  1.00 20.00     0.268 C 
HETATM    9  C3  UNL     1     -35.469  17.130   0.122  1.00 20.00     0.037 C 
ENDBRANCH   7   8
BRANCH   7  10
HETATM   10  C8  UNL     1     -33.075  16.927  -2.618  1.00 20.00     0.268 C 
HETATM   11  C4  UNL     1     -32.519  18.175  -2.023  1.00 20.00     0.037 C 
ENDBRANCH   7  10
ENDBRANCH   4   7
ENDBRANCH   2   4
TORSDOF 5
ENDMDL
MODEL 4
REMARK VINA RESULT:      -3.9     15.799     17.601
REMARK  5 active torsions:
REMARK  status: ('A' for Active; 'I' for Inactive)
REMARK    1  A    between atoms: C5_5  and  C9_9 
REMARK    2  A    between atoms: C6_6  and  C9_9 
REMARK    3  A    between atoms: C7_7  and  N11_11 
REMARK    4  A    between atoms: C8_8  and  N11_11 
REMARK    5  A    between atoms: C9_9  and  N11_11 
ROOT
HETATM    1  C1  UNL     1     -36.914  14.094  -4.264  1.00 20.00     0.061 C 
HETATM    2  C5  UNL     1     -35.457  14.160  -4.075  1.00 20.00     0.159 C 
HETATM    3  N10 UNL     1     -38.064  14.037  -4.411  1.00 20.00    -0.197 NA
ENDROOT
BRANCH   2   4
HETATM    4  C9  UNL     1     -34.954  15.611  -3.948  1.00 20.00     0.235 C 
BRANCH   4   5
HETATM    5  C6  UNL     1     -33.449  15.667  -3.621  1.00 20.00     0.032 C 
HETATM    6  C2  UNL     1     -32.618  14.638  -4.380  1.00 20.00     0.007 C 
ENDBRANCH   4   5
BRANCH   4   7
HETATM    7  N11 UNL     1     -35.730  16.274  -2.895  1.00 20.00     0.093 N 
BRANCH   7   8
HETATM    8  C7  UNL     1     -36.087  17.630  -3.306  1.00 20.00     0.268 C 
HETATM    9  C3  UNL     1     -36.315  17.704  -4.777  1.00 20.00     0.037 C 
ENDBRANCH   7   8
BRANCH   7  10
HETATM   10  C8  UNL     1     -34.972  16.298  -1.646  1.00 20.00     0.268 C 
HETATM   11  C4  UNL     1     -35.599  17.217  -0.654  1.00 20.00     0.037 C 
ENDBRANCH   7  10
ENDBRANCH   4   7
ENDBRANCH   2   4
TORSDOF 5
ENDMDL
MODEL 5
REMARK VINA RESULT:      -3.9     16.296     18.548
REMARK  5 active torsions:
REMARK  status: ('A' for Active; 'I' for Inactive)
REMARK    1  A    between atoms: C5_5  and  C9_9 
REMARK    2  A    between atoms: C6_6  and  C9_9 
REMARK    3  A    between atoms: C7_7  and  N11_11 
REMARK    4  A    between atoms: C8_8  and  N11_11 
REMARK    5  A    between atoms: C9_9  and  N11_11 
ROOT
HETATM    1  C1  UNL     1     -37.274  14.756  -4.192  1.00 20.00     0.061 C 
HETATM    2  C5  UNL     1     -36.339  15.865  -3.950  1.00 20.00     0.159 C 
HETATM    3  N10 UNL     1     -38.015  13.883  -4.384  1.00 20.00    -0.197 NA
ENDROOT
BRANCH   2   4
HETATM    4  C9  UNL     1     -34.872  15.398  -3.954  1.00 20.00     0.235 C 
BRANCH   4   5
HETATM    5  C6  UNL     1     -34.136  15.812  -2.664  1.00 20.00     0.032 C 
HETATM    6  C2  UNL     1     -35.038  16.484  -1.633  1.00 20.00     0.007 C 
ENDBRANCH   4   5
BRANCH   4   7
HETATM    7  N11 UNL     1     -34.209  15.978  -5.127  1.00 20.00     0.093 N 
BRANCH   7   8
HETATM    8  C7  UNL     1     -34.937  17.158  -5.589  1.00 20.00     0.268 C 
HETATM    9  C3  UNL     1     -34.112  18.391  -5.441  1.00 20.00     0.037 C 
ENDBRANCH   7   8
BRANCH   7  10
HETATM   10  C8  UNL     1     -34.109  14.985  -6.194  1.00 20.00     0.268 C 
HETATM   11  C4  UNL     1     -35.049  15.297  -7.309  1.00 20.00     0.037 C 
ENDBRANCH   7  10
ENDBRANCH   4   7
ENDBRANCH   2   4
TORSDOF 5
ENDMDL
MODEL 6
REMARK VINA RESULT:      -3.9     15.543     17.558
REMARK  5 active torsions:
REMARK  status: ('A' for Active; 'I' for Inactive)
REMARK    1  A    between atoms: C5_5  and  C9_9 
REMARK    2  A    between atoms: C6_6  and  C9_9 
REMARK    3  A    between atoms: C7_7  and  N11_11 
REMARK    4  A    between atoms: C8_8  and  N11_11 
REMARK    5  A    between atoms: C9_9  and  N11_11 
ROOT
HETATM    1  C1  UNL     1     -36.965  14.110  -4.299  1.00 20.00     0.061 C 
HETATM    2  C5  UNL     1     -35.505  14.253  -4.185  1.00 20.00     0.159 C 
HETATM    3  N10 UNL     1     -38.117  13.993  -4.387  1.00 20.00    -0.197 NA
ENDROOT
BRANCH   2   4
HETATM    4  C9  UNL     1     -35.073  15.728  -4.084  1.00 20.00     0.235 C 
BRANCH   4   5
HETATM    5  C6  UNL     1     -34.278  16.177  -5.326  1.00 20.00     0.032 C 
HETATM    6  C2  UNL     1     -34.075  15.072  -6.356  1.00 20.00     0.007 C 
ENDBRANCH   4   5
BRANCH   4   7
HETATM    7  N11 UNL     1     -34.261  15.886  -2.873  1.00 20.00     0.093 N 
BRANCH   7   8
HETATM    8  C7  UNL     1     -35.077  16.411  -1.780  1.00 20.00     0.268 C 
HETATM    9  C3  UNL     1     -36.188  17.260  -2.298  1.00 20.00     0.037 C 
ENDBRANCH   7   8
BRANCH   7  10
HETATM   10  C8  UNL     1     -33.126  16.767  -3.136  1.00 20.00     0.268 C 
HETATM   11  C4  UNL     1     -32.725  17.510  -1.907  1.00 20.00     0.037 C 
ENDBRANCH   7  10
ENDBRANCH   4   7
ENDBRANCH   2   4
TORSDOF 5
ENDMDL
MODEL 7
REMARK VINA RESULT:      -3.9     16.100     18.290
REMARK  5 active torsions:
REMARK  status: ('A' for Active; 'I' for Inactive)
REMARK    1  A    between atoms: C5_5  and  C9_9 
REMARK    2  A    between atoms: C6_6  and  C9_9 
REMARK    3  A    between atoms: C7_7  and  N11_11 
REMARK    4  A    between atoms: C8_8  and  N11_11 
REMARK    5  A    between atoms: C9_9  and  N11_11 
ROOT
HETATM    1  C1  UNL     1     -35.330  13.781  -4.095  1.00 20.00     0.061 C 
HETATM    2  C5  UNL     1     -34.633  14.897  -3.439  1.00 20.00     0.159 C 
HETATM    3  N10 UNL     1     -35.883  12.899  -4.609  1.00 20.00    -0.197 NA
ENDROOT
BRANCH   2   4
HETATM    4  C9  UNL     1     -34.043  15.891  -4.457  1.00 20.00     0.235 C 
BRANCH   4   5
HETATM    5  C6  UNL     1     -33.506  17.162  -3.770  1.00 20.00     0.032 C 
HETATM    6  C2  UNL     1     -33.289  17.002  -2.269  1.00 20.00     0.007 C 
ENDBRANCH   4   5
BRANCH   4   7
HETATM    7  N11 UNL     1     -35.093  16.237  -5.421  1.00 20.00     0.093 N 
BRANCH   7   8
HETATM    8  C7  UNL     1     -34.513  16.456  -6.745  1.00 20.00     0.268 C 
HETATM    9  C3  UNL     1     -33.938  15.196  -7.295  1.00 20.00     0.037 C 
ENDBRANCH   7   8
BRANCH   7  10
HETATM   10  C8  UNL     1     -35.818  17.424  -4.975  1.00 20.00     0.268 C 
HETATM   11  C4  UNL     1     -37.278  17.146  -4.847  1.00 20.00     0.037 C 
ENDBRANCH   7  10
ENDBRANCH   4   7
ENDBRANCH   2   4
TORSDOF 5
ENDMDL
MODEL 8
REMARK VINA RESULT:      -3.8     16.129     18.430
REMARK  5 active torsions:
REMARK  status: ('A' for Active; 'I' for Inactive)
REMARK    1  A    between atoms: C5_5  and  C9_9 
REMARK    2  A    between atoms: C6_6  and  C9_9 
REMARK    3  A    between atoms: C7_7  and  N11_11 
REMARK    4  A    between atoms: C8_8  and  N11_11 
REMARK    5  A    between atoms: C9_9  and  N11_11 
ROOT
HETATM    1  C1  UNL     1     -35.814  13.830  -4.227  1.00 20.00     0.061 C 
HETATM    2  C5  UNL     1     -35.564  15.252  -3.946  1.00 20.00     0.159 C 
HETATM    3  N10 UNL     1     -36.016  12.708  -4.447  1.00 20.00    -0.197 NA
ENDROOT
BRANCH   2   4
HETATM    4  C9  UNL     1     -34.255  15.748  -4.588  1.00 20.00     0.235 C 
BRANCH   4   5
HETATM    5  C6  UNL     1     -33.263  16.273  -3.531  1.00 20.00     0.032 C 
HETATM    6  C2  UNL     1     -33.906  16.565  -2.179  1.00 20.00     0.007 C 
ENDBRANCH   4   5
BRANCH   4   7
HETATM    7  N11 UNL     1     -34.587  16.808  -5.546  1.00 20.00     0.093 N 
BRANCH   7   8
HETATM    8  C7  UNL     1     -35.785  17.525  -5.114  1.00 20.00     0.268 C 
HETATM    9  C3  UNL     1     -35.517  18.986  -4.979  1.00 20.00     0.037 C 
ENDBRANCH   7   8
BRANCH   7  10
HETATM   10  C8  UNL     1     -34.780  16.242  -6.879  1.00 20.00     0.268 C 
HETATM   11  C4  UNL     1     -33.790  15.161  -7.153  1.00 20.00     0.037 C 
ENDBRANCH   7  10
ENDBRANCH   4   7
ENDBRANCH   2   4
TORSDOF 5
ENDMDL
MODEL 9
REMARK VINA RESULT:      -3.8     15.937     18.020
REMARK  5 active torsions:
REMARK  status: ('A' for Active; 'I' for Inactive)
REMARK    1  A    between atoms: C5_5  and  C9_9 
REMARK    2  A    between atoms: C6_6  and  C9_9 
REMARK    3  A    between atoms: C7_7  and  N11_11 
REMARK    4  A    between atoms: C8_8  and  N11_11 
REMARK    5  A    between atoms: C9_9  and  N11_11 
ROOT
HETATM    1  C1  UNL     1     -36.402  13.784  -4.461  1.00 20.00     0.061 C 
HETATM    2  C5  UNL     1     -37.055  15.096  -4.339  1.00 20.00     0.159 C 
HETATM    3  N10 UNL     1     -35.889  12.747  -4.559  1.00 20.00    -0.197 NA
ENDROOT
BRANCH   2   4
HETATM    4  C9  UNL     1     -36.046  16.223  -4.049  1.00 20.00     0.235 C 
BRANCH   4   5
HETATM    5  C6  UNL     1     -35.531  16.878  -5.346  1.00 20.00     0.032 C 
HETATM    6  C2  UNL     1     -36.549  16.870  -6.481  1.00 20.00     0.007 C 
ENDBRANCH   4   5
BRANCH   4   7
HETATM    7  N11 UNL     1     -34.929  15.652  -3.287  1.00 20.00     0.093 N 
BRANCH   7   8
HETATM    8  C7  UNL     1     -34.964  16.126  -1.905  1.00 20.00     0.268 C 
HETATM    9  C3  UNL     1     -33.992  17.237  -1.693  1.00 20.00     0.037 C 
ENDBRANCH   7   8
BRANCH   7  10
HETATM   10  C8  UNL     1     -33.658  15.999  -3.918  1.00 20.00     0.268 C 
HETATM   11  C4  UNL     1     -32.868  14.777  -4.244  1.00 20.00     0.037 C 
ENDBRANCH   7  10
ENDBRANCH   4   7
ENDBRANCH   2   4
TORSDOF 5
ENDMDL
