MODEL 1
REMARK VINA RESULT:      -5.4      0.000      0.000
REMARK  3 active torsions:
REMARK  status: ('A' for Active; 'I' for Inactive)
REMARK    1  A    between atoms: C3_3  and  C6_6 
REMARK    2  A    between atoms: C3_3  and  C7_7 
REMARK    3  A    between atoms: C5_5  and  C7_7 
ROOT
HETATM    1  C1  UNL     1     -32.670   8.397   0.759  1.00 20.00     0.012 C 
HETATM    2  C2  UNL     1     -32.667   7.670   1.715  1.00 20.00    -0.117 C 
HETATM    3  C5  UNL     1     -32.662   6.781   2.887  1.00 20.00     0.100 C 
ENDROOT
BRANCH   3   4
HETATM    4  C7  UNL     1     -33.316   5.435   2.584  1.00 20.00     0.090 C 
BRANCH   4   5
HETATM    5  C3  UNL     1     -34.182   4.901   3.719  1.00 20.00     0.127 C 
HETATM    6  O8  UNL     1     -34.309   3.697   3.939  1.00 20.00    -0.298 OA
BRANCH   5   7
HETATM    7  C6  UNL     1     -34.859   5.957   4.577  1.00 20.00     0.074 C 
HETATM    8  C4  UNL     1     -34.509   5.831   6.048  1.00 20.00     0.013 C 
ENDBRANCH   5   7
ENDBRANCH   4   5
ENDBRANCH   3   4
TORSDOF 3
ENDMDL
MODEL 2
REMARK VINA RESULT:      -5.4      1.389      1.904
REMARK  3 active torsions:
REMARK  status: ('A' for Active; 'I' for Inactive)
REMARK    1  A    between atoms: C3_3  and  C6_6 
REMARK    2  A    between atoms: C3_3  and  C7_7 
REMARK    3  A    between atoms: C5_5  and  C7_7 
ROOT
HETATM    1  C1  UNL     1     -32.426   7.147   2.748  1.00 20.00     0.012 C 
HETATM    2  C2  UNL     1     -32.905   6.051   2.638  1.00 20.00    -0.117 C 
HETATM    3  C5  UNL     1     -33.491   4.709   2.500  1.00 20.00     0.100 C 
ENDROOT
BRANCH   3   4
HETATM    4  C7  UNL     1     -34.013   4.176   3.832  1.00 20.00     0.090 C 
BRANCH   4   5
HETATM    5  C3  UNL     1     -34.992   5.114   4.530  1.00 20.00     0.127 C 
HETATM    6  O8  UNL     1     -36.009   5.532   3.980  1.00 20.00    -0.298 OA
BRANCH   5   7
HETATM    7  C6  UNL     1     -34.636   5.480   5.962  1.00 20.00     0.074 C 
HETATM    8  C4  UNL     1     -33.980   6.845   6.074  1.00 20.00     0.013 C 
ENDBRANCH   5   7
ENDBRANCH   4   5
ENDBRANCH   3   4
TORSDOF 3
ENDMDL
MODEL 3
REMARK VINA RESULT:      -5.0      1.540      1.585
REMARK  3 active torsions:
REMARK  status: ('A' for Active; 'I' for Inactive)
REMARK    1  A    between atoms: C3_3  and  C6_6 
REMARK    2  A    between atoms: C3_3  and  C7_7 
REMARK    3  A    between atoms: C5_5  and  C7_7 
ROOT
HETATM    1  C1  UNL     1     -32.979   8.858   0.362  1.00 20.00     0.012 C 
HETATM    2  C2  UNL     1     -32.629   8.143   1.261  1.00 20.00    -0.117 C 
HETATM    3  C5  UNL     1     -32.198   7.267   2.361  1.00 20.00     0.100 C 
ENDROOT
BRANCH   3   4
HETATM    4  C7  UNL     1     -33.275   6.253   2.737  1.00 20.00     0.090 C 
BRANCH   4   5
HETATM    5  C3  UNL     1     -33.751   6.367   4.181  1.00 20.00     0.127 C 
HETATM    6  O8  UNL     1     -33.277   7.185   4.968  1.00 20.00    -0.298 OA
BRANCH   5   7
HETATM    7  C6  UNL     1     -34.869   5.415   4.577  1.00 20.00     0.074 C 
HETATM    8  C4  UNL     1     -34.878   5.107   6.063  1.00 20.00     0.013 C 
ENDBRANCH   5   7
ENDBRANCH   4   5
ENDBRANCH   3   4
TORSDOF 3
ENDMDL
MODEL 4
REMARK VINA RESULT:      -4.5      1.683      4.298
REMARK  3 active torsions:
REMARK  status: ('A' for Active; 'I' for Inactive)
REMARK    1  A    between atoms: C3_3  and  C6_6 
REMARK    2  A    between atoms: C3_3  and  C7_7 
REMARK    3  A    between atoms: C5_5  and  C7_7 
ROOT
HETATM    1  C1  UNL     1     -34.717   5.334   5.965  1.00 20.00     0.012 C 
HETATM    2  C2  UNL     1     -34.661   5.463   4.772  1.00 20.00    -0.117 C 
HETATM    3  C5  UNL     1     -34.596   5.620   3.311  1.00 20.00     0.100 C 
ENDROOT
BRANCH   3   4
HETATM    4  C7  UNL     1     -33.161   5.551   2.795  1.00 20.00     0.090 C 
BRANCH   4   5
HETATM    5  C3  UNL     1     -32.502   6.914   2.621  1.00 20.00     0.127 C 
HETATM    6  O8  UNL     1     -31.980   7.518   3.557  1.00 20.00    -0.298 OA
BRANCH   5   7
HETATM    7  C6  UNL     1     -32.510   7.468   1.205  1.00 20.00     0.074 C 
HETATM    8  C4  UNL     1     -32.908   8.931   1.149  1.00 20.00     0.013 C 
ENDBRANCH   5   7
ENDBRANCH   4   5
ENDBRANCH   3   4
TORSDOF 3
ENDMDL
MODEL 5
REMARK VINA RESULT:      -4.4      1.076      3.778
REMARK  3 active torsions:
REMARK  status: ('A' for Active; 'I' for Inactive)
REMARK    1  A    between atoms: C3_3  and  C6_6 
REMARK    2  A    between atoms: C3_3  and  C7_7 
REMARK    3  A    between atoms: C5_5  and  C7_7 
ROOT
HETATM    1  C1  UNL     1     -34.022   6.976   6.465  1.00 20.00     0.012 C 
HETATM    2  C2  UNL     1     -34.385   6.077   5.756  1.00 20.00    -0.117 C 
HETATM    3  C5  UNL     1     -34.828   4.974   4.892  1.00 20.00     0.100 C 
ENDROOT
BRANCH   3   4
HETATM    4  C7  UNL     1     -34.790   5.357   3.414  1.00 20.00     0.090 C 
BRANCH   4   5
HETATM    5  C3  UNL     1     -33.382   5.430   2.833  1.00 20.00     0.127 C 
HETATM    6  O8  UNL     1     -32.853   4.473   2.269  1.00 20.00    -0.298 OA
BRANCH   5   7
HETATM    7  C6  UNL     1     -32.685   6.773   2.976  1.00 20.00     0.074 C 
HETATM    8  C4  UNL     1     -32.552   7.509   1.655  1.00 20.00     0.013 C 
ENDBRANCH   5   7
ENDBRANCH   4   5
ENDBRANCH   3   4
TORSDOF 3
ENDMDL
MODEL 6
REMARK VINA RESULT:      -4.2      1.959      3.112
REMARK  3 active torsions:
REMARK  status: ('A' for Active; 'I' for Inactive)
REMARK    1  A    between atoms: C3_3  and  C6_6 
REMARK    2  A    between atoms: C3_3  and  C7_7 
REMARK    3  A    between atoms: C5_5  and  C7_7 
ROOT
HETATM    1  C1  UNL     1     -32.388   7.590   4.260  1.00 20.00     0.012 C 
HETATM    2  C2  UNL     1     -33.169   7.230   5.098  1.00 20.00    -0.117 C 
HETATM    3  C5  UNL     1     -34.124   6.790   6.126  1.00 20.00     0.100 C 
ENDROOT
BRANCH   3   4
HETATM    4  C7  UNL     1     -34.557   5.341   5.920  1.00 20.00     0.090 C 
BRANCH   4   5
HETATM    5  C3  UNL     1     -34.983   5.023   4.491  1.00 20.00     0.127 C 
HETATM    6  O8  UNL     1     -35.988   5.512   3.978  1.00 20.00    -0.298 OA
BRANCH   5   7
HETATM    7  C6  UNL     1     -34.067   4.076   3.733  1.00 20.00     0.074 C 
HETATM    8  C4  UNL     1     -33.476   4.705   2.484  1.00 20.00     0.013 C 
ENDBRANCH   5   7
ENDBRANCH   4   5
ENDBRANCH   3   4
TORSDOF 3
ENDMDL
MODEL 7
REMARK VINA RESULT:      -4.1     11.285     11.797
REMARK  3 active torsions:
REMARK  status: ('A' for Active; 'I' for Inactive)
REMARK    1  A    between atoms: C3_3  and  C6_6 
REMARK    2  A    between atoms: C3_3  and  C7_7 
REMARK    3  A    between atoms: C5_5  and  C7_7 
ROOT
HETATM    1  C1  UNL     1     -34.769  16.301  -1.869  1.00 20.00     0.012 C 
HETATM    2  C2  UNL     1     -34.362  15.688  -2.817  1.00 20.00    -0.117 C 
HETATM    3  C5  UNL     1     -33.861  14.938  -3.979  1.00 20.00     0.100 C 
ENDROOT
BRANCH   3   4
HETATM    4  C7  UNL     1     -34.943  14.733  -5.035  1.00 20.00     0.090 C 
BRANCH   4   5
HETATM    5  C3  UNL     1     -36.048  13.772  -4.607  1.00 20.00     0.127 C 
HETATM    6  O8  UNL     1     -35.846  12.570  -4.439  1.00 20.00    -0.298 OA
BRANCH   5   7
HETATM    7  C6  UNL     1     -37.411  14.405  -4.378  1.00 20.00     0.074 C 
HETATM    8  C4  UNL     1     -37.493  15.827  -4.901  1.00 20.00     0.013 C 
ENDBRANCH   5   7
ENDBRANCH   4   5
ENDBRANCH   3   4
TORSDOF 3
ENDMDL
MODEL 8
REMARK VINA RESULT:      -4.0     11.134     12.158
REMARK  3 active torsions:
REMARK  status: ('A' for Active; 'I' for Inactive)
REMARK    1  A    between atoms: C3_3  and  C6_6 
REMARK    2  A    between atoms: C3_3  and  C7_7 
REMARK    3  A    between atoms: C5_5  and  C7_7 
ROOT
HETATM    1  C1  UNL     1     -32.981  16.919  -2.644  1.00 20.00     0.012 C 
HETATM    2  C2  UNL     1     -33.958  16.226  -2.731  1.00 20.00    -0.117 C 
HETATM    3  C5  UNL     1     -35.154  15.377  -2.835  1.00 20.00     0.100 C 
ENDROOT
BRANCH   3   4
HETATM    4  C7  UNL     1     -34.951  14.222  -3.812  1.00 20.00     0.090 C 
BRANCH   4   5
HETATM    5  C3  UNL     1     -36.077  14.070  -4.829  1.00 20.00     0.127 C 
HETATM    6  O8  UNL     1     -37.123  13.477  -4.570  1.00 20.00    -0.298 OA
BRANCH   5   7
HETATM    7  C6  UNL     1     -35.829  14.722  -6.180  1.00 20.00     0.074 C 
HETATM    8  C4  UNL     1     -34.355  14.965  -6.452  1.00 20.00     0.013 C 
ENDBRANCH   5   7
ENDBRANCH   4   5
ENDBRANCH   3   4
TORSDOF 3
ENDMDL
MODEL 9
REMARK VINA RESULT:      -3.9     11.151     11.756
REMARK  3 active torsions:
REMARK  status: ('A' for Active; 'I' for Inactive)
REMARK    1  A    between atoms: C3_3  and  C6_6 
REMARK    2  A    between atoms: C3_3  and  C7_7 
REMARK    3  A    between atoms: C5_5  and  C7_7 
ROOT
HETATM    1  C1  UNL     1     -33.260  17.455  -2.208  1.00 20.00     0.012 C 
HETATM    2  C2  UNL     1     -34.093  16.608  -2.389  1.00 20.00    -0.117 C 
HETATM    3  C5  UNL     1     -35.113  15.572  -2.608  1.00 20.00     0.100 C 
ENDROOT
BRANCH   3   4
HETATM    4  C7  UNL     1     -34.700  14.587  -3.698  1.00 20.00     0.090 C 
BRANCH   4   5
HETATM    5  C3  UNL     1     -35.875  13.916  -4.400  1.00 20.00     0.127 C 
HETATM    6  O8  UNL     1     -35.956  12.695  -4.528  1.00 20.00    -0.298 OA
BRANCH   5   7
HETATM    7  C6  UNL     1     -36.953  14.857  -4.913  1.00 20.00     0.074 C 
HETATM    8  C4  UNL     1     -38.307  14.601  -4.277  1.00 20.00     0.013 C 
ENDBRANCH   5   7
ENDBRANCH   4   5
ENDBRANCH   3   4
TORSDOF 3
ENDMDL
