MODEL 1
REMARK VINA RESULT:      -4.0      0.000      0.000
REMARK  1 active torsions:
REMARK  status: ('A' for Active; 'I' for Inactive)
REMARK    1  A    between atoms: C3_3  and  C8_8 
ROOT
HETATM    1  C1  UNL     1     -34.442  16.503  -5.779  1.00 20.00     0.302 C 
HETATM    2  C2  UNL     1     -33.056  15.193  -3.973  1.00 20.00     0.209 C 
HETATM    3  C3  UNL     1     -34.495  14.970  -5.861  1.00 20.00     0.149 C 
HETATM    4  C4  UNL     1     -33.883  16.367  -3.409  1.00 20.00     0.171 C 
HETATM    5  C5  UNL     1     -32.934  17.433  -2.842  1.00 20.00     0.051 C 
HETATM    6  C6  UNL     1     -34.810  15.870  -2.288  1.00 20.00     0.051 C 
HETATM    7  N9  UNL     1     -34.760  16.966  -4.434  1.00 20.00     0.097 N 
HETATM    8  O10 UNL     1     -33.884  14.322  -4.736  1.00 20.00    -0.382 OA
HETATM    9  H27 UNL     1     -34.651  17.979  -4.407  1.00 20.00     0.317 HD
ENDROOT
BRANCH   3  10
HETATM   10  C8  UNL     1     -35.926  14.447  -5.954  1.00 20.00     0.029 C 
HETATM   11  C7  UNL     1     -36.310  13.659  -4.743  1.00 20.00     0.007 C 
ENDBRANCH   3  10
TORSDOF 1
ENDMDL
MODEL 2
REMARK VINA RESULT:      -3.7      1.464      3.615
REMARK  1 active torsions:
REMARK  status: ('A' for Active; 'I' for Inactive)
REMARK    1  A    between atoms: C3_3  and  C8_8 
ROOT
HETATM    1  C1  UNL     1     -33.139  15.643  -3.844  1.00 20.00     0.302 C 
HETATM    2  C2  UNL     1     -34.718  16.759  -5.622  1.00 20.00     0.209 C 
HETATM    3  C3  UNL     1     -34.220  16.587  -3.296  1.00 20.00     0.149 C 
HETATM    4  C4  UNL     1     -34.480  15.251  -5.842  1.00 20.00     0.171 C 
HETATM    5  C5  UNL     1     -33.733  15.042  -7.168  1.00 20.00     0.051 C 
HETATM    6  C6  UNL     1     -35.825  14.507  -5.899  1.00 20.00     0.051 C 
HETATM    7  N9  UNL     1     -33.720  14.644  -4.733  1.00 20.00     0.097 N 
HETATM    8  O10 UNL     1     -35.165  17.003  -4.292  1.00 20.00    -0.382 OA
HETATM    9  H27 UNL     1     -32.964  14.081  -5.123  1.00 20.00     0.317 HD
ENDROOT
BRANCH   3  10
HETATM   10  C8  UNL     1     -35.019  15.952  -2.161  1.00 20.00     0.029 C 
HETATM   11  C7  UNL     1     -35.168  16.879  -0.998  1.00 20.00     0.007 C 
ENDBRANCH   3  10
TORSDOF 1
ENDMDL
MODEL 3
REMARK VINA RESULT:      -3.7      1.638      2.474
REMARK  1 active torsions:
REMARK  status: ('A' for Active; 'I' for Inactive)
REMARK    1  A    between atoms: C3_3  and  C8_8 
ROOT
HETATM    1  C1  UNL     1     -36.583  14.817  -4.287  1.00 20.00     0.302 C 
HETATM    2  C2  UNL     1     -35.373  17.134  -4.030  1.00 20.00     0.209 C 
HETATM    3  C3  UNL     1     -36.258  15.562  -5.590  1.00 20.00     0.149 C 
HETATM    4  C4  UNL     1     -34.792  16.013  -3.144  1.00 20.00     0.171 C 
HETATM    5  C5  UNL     1     -35.009  16.369  -1.665  1.00 20.00     0.051 C 
HETATM    6  C6  UNL     1     -33.286  15.857  -3.409  1.00 20.00     0.051 C 
HETATM    7  N9  UNL     1     -35.402  14.702  -3.441  1.00 20.00     0.097 N 
HETATM    8  O10 UNL     1     -35.428  16.715  -5.390  1.00 20.00    -0.382 OA
HETATM    9  H27 UNL     1     -35.674  14.261  -2.564  1.00 20.00     0.317 HD
ENDROOT
BRANCH   3  10
HETATM   10  C8  UNL     1     -35.544  14.670  -6.602  1.00 20.00     0.029 C 
HETATM   11  C7  UNL     1     -34.193  15.201  -6.957  1.00 20.00     0.007 C 
ENDBRANCH   3  10
TORSDOF 1
ENDMDL
MODEL 4
REMARK VINA RESULT:      -3.6      1.338      3.561
REMARK  1 active torsions:
REMARK  status: ('A' for Active; 'I' for Inactive)
REMARK    1  A    between atoms: C3_3  and  C8_8 
ROOT
HETATM    1  C1  UNL     1     -35.996  14.311  -4.530  1.00 20.00     0.302 C 
HETATM    2  C2  UNL     1     -33.996  14.855  -6.145  1.00 20.00     0.209 C 
HETATM    3  C3  UNL     1     -34.627  14.529  -3.868  1.00 20.00     0.149 C 
HETATM    4  C4  UNL     1     -35.290  15.638  -6.450  1.00 20.00     0.171 C 
HETATM    5  C5  UNL     1     -35.822  15.225  -7.830  1.00 20.00     0.051 C 
HETATM    6  C6  UNL     1     -35.005  17.148  -6.450  1.00 20.00     0.051 C 
HETATM    7  N9  UNL     1     -36.326  15.414  -5.423  1.00 20.00     0.097 N 
HETATM    8  O10 UNL     1     -33.629  15.014  -4.778  1.00 20.00    -0.382 OA
HETATM    9  H27 UNL     1     -37.207  15.200  -5.888  1.00 20.00     0.317 HD
ENDROOT
BRANCH   3  10
HETATM   10  C8  UNL     1     -34.697  15.524  -2.713  1.00 20.00     0.029 C 
HETATM   11  C7  UNL     1     -33.526  16.454  -2.707  1.00 20.00     0.007 C 
ENDBRANCH   3  10
TORSDOF 1
ENDMDL
MODEL 5
REMARK VINA RESULT:      -3.6     11.130     12.660
REMARK  1 active torsions:
REMARK  status: ('A' for Active; 'I' for Inactive)
REMARK    1  A    between atoms: C3_3  and  C8_8 
ROOT
HETATM    1  C1  UNL     1     -41.161   6.027  -1.111  1.00 20.00     0.302 C 
HETATM    2  C2  UNL     1     -42.651   7.080   0.779  1.00 20.00     0.209 C 
HETATM    3  C3  UNL     1     -42.411   5.231  -0.707  1.00 20.00     0.149 C 
HETATM    4  C4  UNL     1     -42.196   8.082  -0.304  1.00 20.00     0.171 C 
HETATM    5  C5  UNL     1     -41.278   9.136   0.332  1.00 20.00     0.051 C 
HETATM    6  C6  UNL     1     -43.417   8.783  -0.920  1.00 20.00     0.051 C 
HETATM    7  N9  UNL     1     -41.499   7.411  -1.418  1.00 20.00     0.097 N 
HETATM    8  O10 UNL     1     -43.278   5.951   0.179  1.00 20.00    -0.382 OA
HETATM    9  H27 UNL     1     -40.637   7.918  -1.616  1.00 20.00     0.317 HD
ENDROOT
BRANCH   3  10
HETATM   10  C8  UNL     1     -43.249   4.822  -1.916  1.00 20.00     0.029 C 
HETATM   11  C7  UNL     1     -42.755   3.554  -2.533  1.00 20.00     0.007 C 
ENDBRANCH   3  10
TORSDOF 1
ENDMDL
MODEL 6
REMARK VINA RESULT:      -3.6      1.379      1.918
REMARK  1 active torsions:
REMARK  status: ('A' for Active; 'I' for Inactive)
REMARK    1  A    between atoms: C3_3  and  C8_8 
ROOT
HETATM    1  C1  UNL     1     -33.375  14.791  -4.229  1.00 20.00     0.302 C 
HETATM    2  C2  UNL     1     -34.810  15.901  -2.329  1.00 20.00     0.209 C 
HETATM    3  C3  UNL     1     -34.859  14.398  -4.180  1.00 20.00     0.149 C 
HETATM    4  C4  UNL     1     -33.880  16.880  -3.076  1.00 20.00     0.171 C 
HETATM    5  C5  UNL     1     -32.825  17.424  -2.101  1.00 20.00     0.051 C 
HETATM    6  C6  UNL     1     -34.696  18.053  -3.643  1.00 20.00     0.051 C 
HETATM    7  N9  UNL     1     -33.219  16.241  -4.230  1.00 20.00     0.097 N 
HETATM    8  O10 UNL     1     -35.622  15.183  -3.252  1.00 20.00    -0.382 OA
HETATM    9  H27 UNL     1     -32.223  16.458  -4.198  1.00 20.00     0.317 HD
ENDROOT
BRANCH   3  10
HETATM   10  C8  UNL     1     -35.538  14.532  -5.540  1.00 20.00     0.029 C 
HETATM   11  C7  UNL     1     -36.709  15.458  -5.490  1.00 20.00     0.007 C 
ENDBRANCH   3  10
TORSDOF 1
ENDMDL
MODEL 7
REMARK VINA RESULT:      -3.6      1.548      3.483
REMARK  1 active torsions:
REMARK  status: ('A' for Active; 'I' for Inactive)
REMARK    1  A    between atoms: C3_3  and  C8_8 
ROOT
HETATM    1  C1  UNL     1     -34.929  17.292  -4.116  1.00 20.00     0.302 C 
HETATM    2  C2  UNL     1     -35.356  14.718  -4.423  1.00 20.00     0.209 C 
HETATM    3  C3  UNL     1     -35.426  16.532  -2.877  1.00 20.00     0.149 C 
HETATM    4  C4  UNL     1     -34.034  15.220  -5.040  1.00 20.00     0.171 C 
HETATM    5  C5  UNL     1     -34.084  15.044  -6.565  1.00 20.00     0.051 C 
HETATM    6  C6  UNL     1     -32.851  14.415  -4.478  1.00 20.00     0.051 C 
HETATM    7  N9  UNL     1     -33.769  16.632  -4.704  1.00 20.00     0.097 N 
HETATM    8  O10 UNL     1     -35.448  15.109  -3.057  1.00 20.00    -0.382 OA
HETATM    9  H27 UNL     1     -33.512  17.129  -5.556  1.00 20.00     0.317 HD
ENDROOT
BRANCH   3  10
HETATM   10  C8  UNL     1     -34.567  16.812  -1.646  1.00 20.00     0.029 C 
HETATM   11  C7  UNL     1     -35.401  17.080  -0.435  1.00 20.00     0.007 C 
ENDBRANCH   3  10
TORSDOF 1
ENDMDL
MODEL 8
REMARK VINA RESULT:      -3.6      1.179      3.878
REMARK  1 active torsions:
REMARK  status: ('A' for Active; 'I' for Inactive)
REMARK    1  A    between atoms: C3_3  and  C8_8 
ROOT
HETATM    1  C1  UNL     1     -34.847  15.908  -2.305  1.00 20.00     0.302 C 
HETATM    2  C2  UNL     1     -33.859  14.419  -4.230  1.00 20.00     0.209 C 
HETATM    3  C3  UNL     1     -33.399  16.208  -2.721  1.00 20.00     0.149 C 
HETATM    4  C4  UNL     1     -35.287  14.937  -4.498  1.00 20.00     0.171 C 
HETATM    5  C5  UNL     1     -36.256  13.746  -4.564  1.00 20.00     0.051 C 
HETATM    6  C6  UNL     1     -35.331  15.698  -5.833  1.00 20.00     0.051 C 
HETATM    7  N9  UNL     1     -35.732  15.891  -3.464  1.00 20.00     0.097 N 
HETATM    8  O10 UNL     1     -32.992  15.500  -3.900  1.00 20.00    -0.382 OA
HETATM    9  H27 UNL     1     -36.666  15.626  -3.153  1.00 20.00     0.317 HD
ENDROOT
BRANCH   3  10
HETATM   10  C8  UNL     1     -33.173  17.693  -2.992  1.00 20.00     0.029 C 
HETATM   11  C7  UNL     1     -32.385  18.345  -1.902  1.00 20.00     0.007 C 
ENDBRANCH   3  10
TORSDOF 1
ENDMDL
MODEL 9
REMARK VINA RESULT:      -3.5      1.595      3.963
REMARK  1 active torsions:
REMARK  status: ('A' for Active; 'I' for Inactive)
REMARK    1  A    between atoms: C3_3  and  C8_8 
ROOT
HETATM    1  C1  UNL     1     -34.356  17.694  -3.925  1.00 20.00     0.302 C 
HETATM    2  C2  UNL     1     -35.051  15.255  -3.241  1.00 20.00     0.209 C 
HETATM    3  C3  UNL     1     -34.158  17.319  -2.449  1.00 20.00     0.149 C 
HETATM    4  C4  UNL     1     -34.237  15.340  -4.549  1.00 20.00     0.171 C 
HETATM    5  C5  UNL     1     -35.111  14.873  -5.723  1.00 20.00     0.051 C 
HETATM    6  C6  UNL     1     -32.994  14.440  -4.457  1.00 20.00     0.051 C 
HETATM    7  N9  UNL     1     -33.741  16.706  -4.803  1.00 20.00     0.097 N 
HETATM    8  O10 UNL     1     -34.368  15.924  -2.186  1.00 20.00    -0.382 OA
HETATM    9  H27 UNL     1     -33.950  16.957  -5.768  1.00 20.00     0.317 HD
ENDROOT
BRANCH   3  10
HETATM   10  C8  UNL     1     -32.756  17.660  -1.950  1.00 20.00     0.029 C 
HETATM   11  C7  UNL     1     -32.788  18.341  -0.620  1.00 20.00     0.007 C 
ENDBRANCH   3  10
TORSDOF 1
ENDMDL
