MODEL 1
REMARK VINA RESULT:      -4.6      0.000      0.000
REMARK  2 active torsions:
REMARK  status: ('A' for Active; 'I' for Inactive)
REMARK    1  A    between atoms: C1_1  and  C5_5 
REMARK       I    between atoms: C1_1  and  N7_7 
REMARK    2  A    between atoms: C5_5  and  C6_6 
ROOT
HETATM    1  C1  UNL     1     -33.315   5.977   3.010  1.00 20.00     0.220 C 
HETATM    2  C2  UNL     1     -34.942   5.730   5.988  1.00 20.00     0.040 C 
HETATM    3  C3  UNL     1     -34.647   4.764   4.833  1.00 20.00     0.127 C 
HETATM    4  C4  UNL     1     -33.822   6.636   5.463  1.00 20.00     0.127 C 
HETATM    5  N7  UNL     1     -33.858   5.834   4.256  1.00 20.00    -0.352 N 
HETATM    6  O8  UNL     1     -33.423   5.146   2.109  1.00 20.00    -0.273 OA
ENDROOT
BRANCH   1   7
HETATM    7  C5  UNL     1     -32.558   7.261   2.806  1.00 20.00     0.118 C 
BRANCH   7   8
HETATM    8  C6  UNL     1     -32.397   7.560   1.328  1.00 20.00     0.124 C 
HETATM    9 CL9  UNL     1     -32.994   9.188   0.922  1.00 20.00    -0.130 Cl
ENDBRANCH   7   8
ENDBRANCH   1   7
TORSDOF 2
ENDMDL
MODEL 2
REMARK VINA RESULT:      -3.7     15.204     15.802
REMARK  2 active torsions:
REMARK  status: ('A' for Active; 'I' for Inactive)
REMARK    1  A    between atoms: C1_1  and  C5_5 
REMARK       I    between atoms: C1_1  and  N7_7 
REMARK    2  A    between atoms: C5_5  and  C6_6 
ROOT
HETATM    1  C1  UNL     1     -24.194  18.574   7.912  1.00 20.00     0.220 C 
HETATM    2  C2  UNL     1     -23.531  16.887  10.792  1.00 20.00     0.040 C 
HETATM    3  C3  UNL     1     -22.717  17.265   9.548  1.00 20.00     0.127 C 
HETATM    4  C4  UNL     1     -24.548  17.968  10.405  1.00 20.00     0.127 C 
HETATM    5  N7  UNL     1     -23.885  18.008   9.117  1.00 20.00    -0.352 N 
HETATM    6  O8  UNL     1     -23.464  18.536   6.923  1.00 20.00    -0.273 OA
ENDROOT
BRANCH   1   7
HETATM    7  C5  UNL     1     -25.531  19.262   7.874  1.00 20.00     0.118 C 
BRANCH   7   8
HETATM    8  C6  UNL     1     -26.274  18.921   6.598  1.00 20.00     0.124 C 
HETATM    9 CL9  UNL     1     -28.034  19.117   6.793  1.00 20.00    -0.130 Cl
ENDBRANCH   7   8
ENDBRANCH   1   7
TORSDOF 2
ENDMDL
MODEL 3
REMARK VINA RESULT:      -3.7     11.026     11.617
REMARK  2 active torsions:
REMARK  status: ('A' for Active; 'I' for Inactive)
REMARK    1  A    between atoms: C1_1  and  C5_5 
REMARK       I    between atoms: C1_1  and  N7_7 
REMARK    2  A    between atoms: C5_5  and  C6_6 
ROOT
HETATM    1  C1  UNL     1     -34.091  14.484  -4.091  1.00 20.00     0.220 C 
HETATM    2  C2  UNL     1     -33.928  16.943  -1.745  1.00 20.00     0.040 C 
HETATM    3  C3  UNL     1     -33.149  16.617  -3.025  1.00 20.00     0.127 C 
HETATM    4  C4  UNL     1     -35.049  16.022  -2.240  1.00 20.00     0.127 C 
HETATM    5  N7  UNL     1     -34.101  15.542  -3.226  1.00 20.00    -0.352 N 
HETATM    6  O8  UNL     1     -33.194  14.264  -4.903  1.00 20.00    -0.273 OA
ENDROOT
BRANCH   1   7
HETATM    7  C5  UNL     1     -35.286  13.577  -3.976  1.00 20.00     0.118 C 
BRANCH   7   8
HETATM    8  C6  UNL     1     -36.324  13.923  -5.026  1.00 20.00     0.124 C 
HETATM    9 CL9  UNL     1     -37.828  14.525  -4.284  1.00 20.00    -0.130 Cl
ENDBRANCH   7   8
ENDBRANCH   1   7
TORSDOF 2
ENDMDL
MODEL 4
REMARK VINA RESULT:      -3.7     11.285     12.764
REMARK  2 active torsions:
REMARK  status: ('A' for Active; 'I' for Inactive)
REMARK    1  A    between atoms: C1_1  and  C5_5 
REMARK       I    between atoms: C1_1  and  N7_7 
REMARK    2  A    between atoms: C5_5  and  C6_6 
ROOT
HETATM    1  C1  UNL     1     -35.821  14.166  -5.015  1.00 20.00     0.220 C 
HETATM    2  C2  UNL     1     -34.442  15.285  -7.918  1.00 20.00     0.040 C 
HETATM    3  C3  UNL     1     -35.871  15.004  -7.437  1.00 20.00     0.127 C 
HETATM    4  C4  UNL     1     -33.998  15.318  -6.450  1.00 20.00     0.127 C 
HETATM    5  N7  UNL     1     -35.288  14.735  -6.137  1.00 20.00    -0.352 N 
HETATM    6  O8  UNL     1     -36.979  13.760  -4.929  1.00 20.00    -0.273 OA
ENDROOT
BRANCH   1   7
HETATM    7  C5  UNL     1     -34.865  14.062  -3.858  1.00 20.00     0.118 C 
BRANCH   7   8
HETATM    8  C6  UNL     1     -34.951  15.294  -2.979  1.00 20.00     0.124 C 
HETATM    9 CL9  UNL     1     -33.384  16.136  -2.880  1.00 20.00    -0.130 Cl
ENDBRANCH   7   8
ENDBRANCH   1   7
TORSDOF 2
ENDMDL
MODEL 5
REMARK VINA RESULT:      -3.7     16.166     16.798
REMARK  2 active torsions:
REMARK  status: ('A' for Active; 'I' for Inactive)
REMARK    1  A    between atoms: C1_1  and  C5_5 
REMARK       I    between atoms: C1_1  and  N7_7 
REMARK    2  A    between atoms: C5_5  and  C6_6 
ROOT
HETATM    1  C1  UNL     1     -24.790  18.559  10.513  1.00 20.00     0.220 C 
HETATM    2  C2  UNL     1     -22.285  17.480   8.478  1.00 20.00     0.040 C 
HETATM    3  C3  UNL     1     -23.503  18.395   8.302  1.00 20.00     0.127 C 
HETATM    4  C4  UNL     1     -22.414  17.668   9.995  1.00 20.00     0.127 C 
HETATM    5  N7  UNL     1     -23.721  18.234   9.726  1.00 20.00    -0.352 N 
HETATM    6  O8  UNL     1     -25.821  19.085  10.096  1.00 20.00    -0.273 OA
ENDROOT
BRANCH   1   7
HETATM    7  C5  UNL     1     -24.617  18.215  11.968  1.00 20.00     0.118 C 
BRANCH   7   8
HETATM    8  C6  UNL     1     -25.432  16.989  12.328  1.00 20.00     0.124 C 
HETATM    9 CL9  UNL     1     -24.673  15.497  11.717  1.00 20.00    -0.130 Cl
ENDBRANCH   7   8
ENDBRANCH   1   7
TORSDOF 2
ENDMDL
MODEL 6
REMARK VINA RESULT:      -3.6     11.420     12.085
REMARK  2 active torsions:
REMARK  status: ('A' for Active; 'I' for Inactive)
REMARK    1  A    between atoms: C1_1  and  C5_5 
REMARK       I    between atoms: C1_1  and  N7_7 
REMARK    2  A    between atoms: C5_5  and  C6_6 
ROOT
HETATM    1  C1  UNL     1     -35.998  14.005  -4.794  1.00 20.00     0.220 C 
HETATM    2  C2  UNL     1     -38.760  15.990  -4.722  1.00 20.00     0.040 C 
HETATM    3  C3  UNL     1     -38.434  14.574  -4.234  1.00 20.00     0.127 C 
HETATM    4  C4  UNL     1     -37.254  16.270  -4.792  1.00 20.00     0.127 C 
HETATM    5  N7  UNL     1     -37.070  14.840  -4.647  1.00 20.00    -0.352 N 
HETATM    6  O8  UNL     1     -36.030  12.794  -4.578  1.00 20.00    -0.273 OA
ENDROOT
BRANCH   1   7
HETATM    7  C5  UNL     1     -34.739  14.687  -5.257  1.00 20.00     0.118 C 
BRANCH   7   8
HETATM    8  C6  UNL     1     -33.690  14.673  -4.163  1.00 20.00     0.124 C 
HETATM    9 CL9  UNL     1     -34.191  15.656  -2.764  1.00 20.00    -0.130 Cl
ENDBRANCH   7   8
ENDBRANCH   1   7
TORSDOF 2
ENDMDL
MODEL 7
REMARK VINA RESULT:      -3.6     11.925     12.331
REMARK  2 active torsions:
REMARK  status: ('A' for Active; 'I' for Inactive)
REMARK    1  A    between atoms: C1_1  and  C5_5 
REMARK       I    between atoms: C1_1  and  N7_7 
REMARK    2  A    between atoms: C5_5  and  C6_6 
ROOT
HETATM    1  C1  UNL     1     -31.750  18.386  -0.510  1.00 20.00     0.220 C 
HETATM    2  C2  UNL     1     -33.373  18.028   2.459  1.00 20.00     0.040 C 
HETATM    3  C3  UNL     1     -31.918  18.282   2.046  1.00 20.00     0.127 C 
HETATM    4  C4  UNL     1     -33.807  18.482   1.060  1.00 20.00     0.127 C 
HETATM    5  N7  UNL     1     -32.412  18.371   0.686  1.00 20.00    -0.352 N 
HETATM    6  O8  UNL     1     -30.527  18.322  -0.624  1.00 20.00    -0.273 OA
ENDROOT
BRANCH   1   7
HETATM    7  C5  UNL     1     -32.646  18.485  -1.714  1.00 20.00     0.118 C 
BRANCH   7   8
HETATM    8  C6  UNL     1     -32.866  17.118  -2.332  1.00 20.00     0.124 C 
HETATM    9 CL9  UNL     1     -34.462  16.455  -1.902  1.00 20.00    -0.130 Cl
ENDBRANCH   7   8
ENDBRANCH   1   7
TORSDOF 2
ENDMDL
MODEL 8
REMARK VINA RESULT:      -3.5     11.463     12.881
REMARK  2 active torsions:
REMARK  status: ('A' for Active; 'I' for Inactive)
REMARK    1  A    between atoms: C1_1  and  C5_5 
REMARK       I    between atoms: C1_1  and  N7_7 
REMARK    2  A    between atoms: C5_5  and  C6_6 
ROOT
HETATM    1  C1  UNL     1     -33.661  14.945  -4.517  1.00 20.00     0.220 C 
HETATM    2  C2  UNL     1     -34.371  16.598  -7.405  1.00 20.00     0.040 C 
HETATM    3  C3  UNL     1     -34.197  15.125  -7.017  1.00 20.00     0.127 C 
HETATM    4  C4  UNL     1     -34.570  16.924  -5.919  1.00 20.00     0.127 C 
HETATM    5  N7  UNL     1     -34.071  15.590  -5.650  1.00 20.00    -0.352 N 
HETATM    6  O8  UNL     1     -33.306  13.768  -4.481  1.00 20.00    -0.273 OA
ENDROOT
BRANCH   1   7
HETATM    7  C5  UNL     1     -33.669  15.800  -3.279  1.00 20.00     0.118 C 
BRANCH   7   8
HETATM    8  C6  UNL     1     -34.970  15.632  -2.520  1.00 20.00     0.124 C 
HETATM    9 CL9  UNL     1     -35.061  16.736  -1.125  1.00 20.00    -0.130 Cl
ENDBRANCH   7   8
ENDBRANCH   1   7
TORSDOF 2
ENDMDL
MODEL 9
REMARK VINA RESULT:      -3.5      2.322      3.860
REMARK  2 active torsions:
REMARK  status: ('A' for Active; 'I' for Inactive)
REMARK    1  A    between atoms: C1_1  and  C5_5 
REMARK       I    between atoms: C1_1  and  N7_7 
REMARK    2  A    between atoms: C5_5  and  C6_6 
ROOT
HETATM    1  C1  UNL     1     -34.338   4.726   3.826  1.00 20.00     0.220 C 
HETATM    2  C2  UNL     1     -32.401   7.096   2.340  1.00 20.00     0.040 C 
HETATM    3  C3  UNL     1     -32.608   5.589   2.143  1.00 20.00     0.127 C 
HETATM    4  C4  UNL     1     -33.730   7.138   3.104  1.00 20.00     0.127 C 
HETATM    5  N7  UNL     1     -33.654   5.691   3.142  1.00 20.00    -0.352 N 
HETATM    6  O8  UNL     1     -34.154   3.517   3.686  1.00 20.00    -0.273 OA
ENDROOT
BRANCH   1   7
HETATM    7  C5  UNL     1     -35.358   5.257   4.796  1.00 20.00     0.118 C 
BRANCH   7   8
HETATM    8  C6  UNL     1     -34.751   5.424   6.175  1.00 20.00     0.124 C 
HETATM    9 CL9  UNL     1     -33.885   6.973   6.324  1.00 20.00    -0.130 Cl
ENDBRANCH   7   8
ENDBRANCH   1   7
TORSDOF 2
ENDMDL
