MODEL 1
REMARK VINA RESULT:      -4.4      0.000      0.000
REMARK  2 active torsions:
REMARK  status: ('A' for Active; 'I' for Inactive)
REMARK    1  A    between atoms: C6_6  and  C7_7 
REMARK    2  A    between atoms: C7_7  and  N9_9 
ROOT
HETATM    1  C1  UNL     1     -35.791  13.883  -4.255  1.00 20.00     0.101 C 
HETATM    2  C4  UNL     1     -35.456  16.165  -5.097  1.00 20.00     0.066 C 
HETATM    3  C7  UNL     1     -35.712  15.302  -3.850  1.00 20.00     0.243 C 
HETATM    4  N8  UNL     1     -35.854  12.769  -4.574  1.00 20.00    -0.195 NA
ENDROOT
BRANCH   3   5
HETATM    5  C6  UNL     1     -34.620  15.531  -2.756  1.00 20.00     0.030 C 
HETATM    6  C2  UNL     1     -35.063  16.476  -1.630  1.00 20.00     0.013 C 
HETATM    7  C3  UNL     1     -33.285  16.036  -3.333  1.00 20.00     0.013 C 
ENDBRANCH   3   5
BRANCH   3   8
HETATM    8  N9  UNL     1     -37.003  15.711  -3.314  1.00 20.00     0.102 N 
HETATM    9  C5  UNL     1     -38.020  15.718  -4.358  1.00 20.00     0.309 C 
HETATM   10  H23 UNL     1     -36.922  16.647  -2.920  1.00 20.00     0.317 HD
ENDBRANCH   3   8
TORSDOF 2
ENDMDL
MODEL 2
REMARK VINA RESULT:      -4.2     17.924     19.220
REMARK  2 active torsions:
REMARK  status: ('A' for Active; 'I' for Inactive)
REMARK    1  A    between atoms: C6_6  and  C7_7 
REMARK    2  A    between atoms: C7_7  and  N9_9 
ROOT
HETATM    1  C1  UNL     1     -23.192  16.742   9.940  1.00 20.00     0.101 C 
HETATM    2  C4  UNL     1     -24.764  15.633  11.466  1.00 20.00     0.066 C 
HETATM    3  C7  UNL     1     -23.851  16.853  11.259  1.00 20.00     0.243 C 
HETATM    4  N8  UNL     1     -22.674  16.653   8.906  1.00 20.00    -0.195 NA
ENDROOT
BRANCH   3   5
HETATM    5  C6  UNL     1     -24.639  18.195  11.399  1.00 20.00     0.030 C 
HETATM    6  C2  UNL     1     -25.921  18.073  12.235  1.00 20.00     0.013 C 
HETATM    7  C3  UNL     1     -24.988  18.833  10.043  1.00 20.00     0.013 C 
ENDBRANCH   3   5
BRANCH   3   8
HETATM    8  N9  UNL     1     -22.833  16.797  12.299  1.00 20.00     0.102 N 
HETATM    9  C5  UNL     1     -22.054  18.028  12.331  1.00 20.00     0.309 C 
HETATM   10  H23 UNL     1     -22.210  16.011  12.117  1.00 20.00     0.317 HD
ENDBRANCH   3   8
TORSDOF 2
ENDMDL
MODEL 3
REMARK VINA RESULT:      -4.2      1.731      2.217
REMARK  2 active torsions:
REMARK  status: ('A' for Active; 'I' for Inactive)
REMARK    1  A    between atoms: C6_6  and  C7_7 
REMARK    2  A    between atoms: C7_7  and  N9_9 
ROOT
HETATM    1  C1  UNL     1     -35.255  13.763  -4.294  1.00 20.00     0.101 C 
HETATM    2  C4  UNL     1     -32.879  14.374  -4.418  1.00 20.00     0.066 C 
HETATM    3  C7  UNL     1     -34.309  14.895  -4.194  1.00 20.00     0.243 C 
HETATM    4  N8  UNL     1     -35.996  12.874  -4.375  1.00 20.00    -0.195 NA
ENDROOT
BRANCH   3   5
HETATM    5  C6  UNL     1     -34.445  15.641  -2.828  1.00 20.00     0.030 C 
HETATM    6  C2  UNL     1     -35.785  16.369  -2.654  1.00 20.00     0.013 C 
HETATM    7  C3  UNL     1     -33.300  16.638  -2.570  1.00 20.00     0.013 C 
ENDBRANCH   3   5
BRANCH   3   8
HETATM    8  N9  UNL     1     -34.586  15.836  -5.270  1.00 20.00     0.102 N 
HETATM    9  C5  UNL     1     -34.286  15.245  -6.568  1.00 20.00     0.309 C 
HETATM   10  H23 UNL     1     -34.014  16.670  -5.143  1.00 20.00     0.317 HD
ENDBRANCH   3   8
TORSDOF 2
ENDMDL
MODEL 4
REMARK VINA RESULT:      -4.1     17.493     18.857
REMARK  2 active torsions:
REMARK  status: ('A' for Active; 'I' for Inactive)
REMARK    1  A    between atoms: C6_6  and  C7_7 
REMARK    2  A    between atoms: C7_7  and  N9_9 
ROOT
HETATM    1  C1  UNL     1     -24.960  18.406  10.969  1.00 20.00     0.101 C 
HETATM    2  C4  UNL     1     -22.840  17.838  12.072  1.00 20.00     0.066 C 
HETATM    3  C7  UNL     1     -23.654  17.741  10.771  1.00 20.00     0.243 C 
HETATM    4  N8  UNL     1     -25.985  18.926  11.127  1.00 20.00    -0.195 NA
ENDROOT
BRANCH   3   5
HETATM    5  C6  UNL     1     -22.877  18.347   9.557  1.00 20.00     0.030 C 
HETATM    6  C2  UNL     1     -23.733  18.499   8.291  1.00 20.00     0.013 C 
HETATM    7  C3  UNL     1     -21.603  17.560   9.204  1.00 20.00     0.013 C 
ENDBRANCH   3   5
BRANCH   3   8
HETATM    8  N9  UNL     1     -23.881  16.325  10.521  1.00 20.00     0.102 N 
HETATM    9  C5  UNL     1     -24.526  15.692  11.664  1.00 20.00     0.309 C 
HETATM   10  H23 UNL     1     -22.987  15.868  10.345  1.00 20.00     0.317 HD
ENDBRANCH   3   8
TORSDOF 2
ENDMDL
MODEL 5
REMARK VINA RESULT:      -4.1      1.065      1.069
REMARK  2 active torsions:
REMARK  status: ('A' for Active; 'I' for Inactive)
REMARK    1  A    between atoms: C6_6  and  C7_7 
REMARK    2  A    between atoms: C7_7  and  N9_9 
ROOT
HETATM    1  C1  UNL     1     -35.665  13.904  -4.346  1.00 20.00     0.101 C 
HETATM    2  C4  UNL     1     -34.381  15.638  -5.520  1.00 20.00     0.066 C 
HETATM    3  C7  UNL     1     -35.184  15.299  -4.253  1.00 20.00     0.243 C 
HETATM    4  N8  UNL     1     -36.043  12.810  -4.421  1.00 20.00    -0.195 NA
ENDROOT
BRANCH   3   5
HETATM    5  C6  UNL     1     -34.345  15.535  -2.957  1.00 20.00     0.030 C 
HETATM    6  C2  UNL     1     -35.133  16.213  -1.827  1.00 20.00     0.013 C 
HETATM    7  C3  UNL     1     -33.054  16.334  -3.212  1.00 20.00     0.013 C 
ENDBRANCH   3   5
BRANCH   3   8
HETATM    8  N9  UNL     1     -36.334  16.192  -4.234  1.00 20.00     0.102 N 
HETATM    9  C5  UNL     1     -36.234  17.193  -5.289  1.00 20.00     0.309 C 
HETATM   10  H23 UNL     1     -36.380  16.662  -3.331  1.00 20.00     0.317 HD
ENDBRANCH   3   8
TORSDOF 2
ENDMDL
MODEL 6
REMARK VINA RESULT:      -4.1      1.289      1.307
REMARK  2 active torsions:
REMARK  status: ('A' for Active; 'I' for Inactive)
REMARK    1  A    between atoms: C6_6  and  C7_7 
REMARK    2  A    between atoms: C7_7  and  N9_9 
ROOT
HETATM    1  C1  UNL     1     -36.824  14.627  -4.126  1.00 20.00     0.101 C 
HETATM    2  C4  UNL     1     -35.775  16.702  -4.917  1.00 20.00     0.066 C 
HETATM    3  C7  UNL     1     -35.980  15.768  -3.713  1.00 20.00     0.243 C 
HETATM    4  N8  UNL     1     -37.489  13.733  -4.451  1.00 20.00    -0.195 NA
ENDROOT
BRANCH   3   5
HETATM    5  C6  UNL     1     -34.618  15.290  -3.114  1.00 20.00     0.030 C 
HETATM    6  C2  UNL     1     -33.879  16.376  -2.319  1.00 20.00     0.013 C 
HETATM    7  C3  UNL     1     -33.663  14.714  -4.175  1.00 20.00     0.013 C 
ENDBRANCH   3   5
BRANCH   3   8
HETATM    8  N9  UNL     1     -36.691  16.537  -2.701  1.00 20.00     0.102 N 
HETATM    9  C5  UNL     1     -37.809  17.263  -3.290  1.00 20.00     0.309 C 
HETATM   10  H23 UNL     1     -36.049  17.202  -2.273  1.00 20.00     0.317 HD
ENDBRANCH   3   8
TORSDOF 2
ENDMDL
MODEL 7
REMARK VINA RESULT:      -4.0     16.845     18.336
REMARK  2 active torsions:
REMARK  status: ('A' for Active; 'I' for Inactive)
REMARK    1  A    between atoms: C6_6  and  C7_7 
REMARK    2  A    between atoms: C7_7  and  N9_9 
ROOT
HETATM    1  C1  UNL     1     -22.485  17.306   8.454  1.00 20.00     0.101 C 
HETATM    2  C4  UNL     1     -24.118  16.702  10.186  1.00 20.00     0.066 C 
HETATM    3  C7  UNL     1     -23.306  17.847   9.558  1.00 20.00     0.243 C 
HETATM    4  N8  UNL     1     -21.840  16.880   7.589  1.00 20.00    -0.195 NA
ENDROOT
BRANCH   3   5
HETATM    5  C6  UNL     1     -24.229  19.012   9.074  1.00 20.00     0.030 C 
HETATM    6  C2  UNL     1     -25.493  19.192   9.926  1.00 20.00     0.013 C 
HETATM    7  C3  UNL     1     -24.640  18.880   7.596  1.00 20.00     0.013 C 
ENDBRANCH   3   5
BRANCH   3   8
HETATM    8  N9  UNL     1     -22.421  18.353  10.598  1.00 20.00     0.102 N 
HETATM    9  C5  UNL     1     -22.606  17.618  11.842  1.00 20.00     0.309 C 
HETATM   10  H23 UNL     1     -22.622  19.339  10.759  1.00 20.00     0.317 HD
ENDBRANCH   3   8
TORSDOF 2
ENDMDL
MODEL 8
REMARK VINA RESULT:      -3.8     17.298     18.630
REMARK  2 active torsions:
REMARK  status: ('A' for Active; 'I' for Inactive)
REMARK    1  A    between atoms: C6_6  and  C7_7 
REMARK    2  A    between atoms: C7_7  and  N9_9 
ROOT
HETATM    1  C1  UNL     1     -24.804  18.538   9.491  1.00 20.00     0.101 C 
HETATM    2  C4  UNL     1     -24.153  16.362  10.425  1.00 20.00     0.066 C 
HETATM    3  C7  UNL     1     -24.336  17.861  10.718  1.00 20.00     0.243 C 
HETATM    4  N8  UNL     1     -25.170  19.069   8.526  1.00 20.00    -0.195 NA
ENDROOT
BRANCH   3   5
HETATM    5  C6  UNL     1     -25.310  18.100  11.917  1.00 20.00     0.030 C 
HETATM    6  C2  UNL     1     -26.110  16.853  12.319  1.00 20.00     0.013 C 
HETATM    7  C3  UNL     1     -26.289  19.263  11.674  1.00 20.00     0.013 C 
ENDBRANCH   3   5
BRANCH   3   8
HETATM    8  N9  UNL     1     -23.023  18.383  11.072  1.00 20.00     0.102 N 
HETATM    9  C5  UNL     1     -21.999  17.868  10.171  1.00 20.00     0.309 C 
HETATM   10  H23 UNL     1     -22.798  18.107  12.027  1.00 20.00     0.317 HD
ENDBRANCH   3   8
TORSDOF 2
ENDMDL
MODEL 9
REMARK VINA RESULT:      -3.8      1.168      1.188
REMARK  2 active torsions:
REMARK  status: ('A' for Active; 'I' for Inactive)
REMARK    1  A    between atoms: C6_6  and  C7_7 
REMARK    2  A    between atoms: C7_7  and  N9_9 
ROOT
HETATM    1  C1  UNL     1     -34.992  15.027  -5.043  1.00 20.00     0.101 C 
HETATM    2  C4  UNL     1     -36.050  17.102  -4.267  1.00 20.00     0.066 C 
HETATM    3  C7  UNL     1     -35.584  15.693  -3.864  1.00 20.00     0.243 C 
HETATM    4  N8  UNL     1     -34.529  14.504  -5.970  1.00 20.00    -0.195 NA
ENDROOT
BRANCH   3   5
HETATM    5  C6  UNL     1     -34.585  15.736  -2.663  1.00 20.00     0.030 C 
HETATM    6  C2  UNL     1     -35.101  16.538  -1.460  1.00 20.00     0.013 C 
HETATM    7  C3  UNL     1     -33.195  16.267  -3.055  1.00 20.00     0.013 C 
ENDBRANCH   3   5
BRANCH   3   8
HETATM    8  N9  UNL     1     -36.773  14.958  -3.457  1.00 20.00     0.102 N 
HETATM    9  C5  UNL     1     -37.829  15.082  -4.454  1.00 20.00     0.309 C 
HETATM   10  H23 UNL     1     -37.108  15.328  -2.568  1.00 20.00     0.317 HD
ENDBRANCH   3   8
TORSDOF 2
ENDMDL
