MODEL 1
REMARK VINA RESULT:      -3.9      0.000      0.000
REMARK  1 active torsions:
REMARK  status: ('A' for Active; 'I' for Inactive)
REMARK    1  A    between atoms: C1_1  and  S9_9 
ROOT
HETATM    1  C1  UNL     1     -23.457  18.001   9.437  1.00 20.00     0.047 A 
HETATM    2  C2  UNL     1     -24.510  18.734   8.858  1.00 20.00     0.069 A 
HETATM    3  C3  UNL     1     -23.797  17.900  10.764  1.00 20.00     0.044 A 
HETATM    4  C4  UNL     1     -24.674  19.143   7.451  1.00 20.00     0.074 C 
HETATM    5  C5  UNL     1     -23.117  17.255  11.904  1.00 20.00     0.071 C 
HETATM    6  C6  UNL     1     -25.758  18.722  12.105  1.00 20.00     0.179 C 
HETATM    7  N7  UNL     1     -25.450  19.074   9.745  1.00 20.00    -0.176 NA
HETATM    8  N8  UNL     1     -24.988  18.552  10.894  1.00 20.00    -0.277 N 
ENDROOT
BRANCH   1   9
HETATM    9  S9  UNL     1     -22.047  17.372   8.640  1.00 20.00    -0.139 SA
HETATM   10  H19 UNL     1     -22.304  17.791   7.385  1.00 20.00     0.107 HD
ENDBRANCH   1   9
TORSDOF 1
ENDMDL
MODEL 2
REMARK VINA RESULT:      -3.9      1.483      3.037
REMARK  1 active torsions:
REMARK  status: ('A' for Active; 'I' for Inactive)
REMARK    1  A    between atoms: C1_1  and  S9_9 
ROOT
HETATM    1  C1  UNL     1     -24.038  18.078  10.607  1.00 20.00     0.047 A 
HETATM    2  C2  UNL     1     -25.264  18.767  10.694  1.00 20.00     0.069 A 
HETATM    3  C3  UNL     1     -23.725  18.103   9.270  1.00 20.00     0.044 A 
HETATM    4  C4  UNL     1     -26.071  19.046  11.896  1.00 20.00     0.074 C 
HETATM    5  C5  UNL     1     -22.575  17.558   8.523  1.00 20.00     0.071 C 
HETATM    6  C6  UNL     1     -24.869  19.071   7.252  1.00 20.00     0.179 C 
HETATM    7  N7  UNL     1     -25.697  19.199   9.507  1.00 20.00    -0.176 NA
HETATM    8  N8  UNL     1     -24.741  18.780   8.662  1.00 20.00    -0.277 N 
ENDROOT
BRANCH   1   9
HETATM    9  S9  UNL     1     -23.137  17.361  11.908  1.00 20.00    -0.139 SA
HETATM   10  H19 UNL     1     -23.095  18.414  12.748  1.00 20.00     0.107 HD
ENDBRANCH   1   9
TORSDOF 1
ENDMDL
MODEL 3
REMARK VINA RESULT:      -3.9      1.921      2.867
REMARK  1 active torsions:
REMARK  status: ('A' for Active; 'I' for Inactive)
REMARK    1  A    between atoms: C1_1  and  S9_9 
ROOT
HETATM    1  C1  UNL     1     -24.557  18.639   9.867  1.00 20.00     0.047 A 
HETATM    2  C2  UNL     1     -25.242  18.603  11.096  1.00 20.00     0.069 A 
HETATM    3  C3  UNL     1     -23.270  18.274  10.180  1.00 20.00     0.044 A 
HETATM    4  C4  UNL     1     -26.661  18.905  11.361  1.00 20.00     0.074 C 
HETATM    5  C5  UNL     1     -22.064  18.118   9.344  1.00 20.00     0.071 C 
HETATM    6  C6  UNL     1     -22.137  17.640  12.332  1.00 20.00     0.179 C 
HETATM    7  N7  UNL     1     -24.456  18.242  12.114  1.00 20.00    -0.176 NA
HETATM    8  N8  UNL     1     -23.264  18.049  11.525  1.00 20.00    -0.277 N 
ENDROOT
BRANCH   1   9
HETATM    9  S9  UNL     1     -25.205  19.056   8.310  1.00 20.00    -0.139 SA
HETATM   10  H19 UNL     1     -25.723  20.264   8.608  1.00 20.00     0.107 HD
ENDBRANCH   1   9
TORSDOF 1
ENDMDL
MODEL 4
REMARK VINA RESULT:      -3.8      0.915      2.810
REMARK  1 active torsions:
REMARK  status: ('A' for Active; 'I' for Inactive)
REMARK    1  A    between atoms: C1_1  and  S9_9 
ROOT
HETATM    1  C1  UNL     1     -23.512  18.223   9.952  1.00 20.00     0.047 A 
HETATM    2  C2  UNL     1     -23.577  18.010  11.343  1.00 20.00     0.069 A 
HETATM    3  C3  UNL     1     -24.745  18.732   9.624  1.00 20.00     0.044 A 
HETATM    4  C4  UNL     1     -22.532  17.474  12.235  1.00 20.00     0.074 C 
HETATM    5  C5  UNL     1     -25.317  19.162   8.334  1.00 20.00     0.071 C 
HETATM    6  C6  UNL     1     -26.801  19.261  10.971  1.00 20.00     0.179 C 
HETATM    7  N7  UNL     1     -24.758  18.357  11.862  1.00 20.00    -0.176 NA
HETATM    8  N8  UNL     1     -25.445  18.792  10.794  1.00 20.00    -0.277 N 
ENDROOT
BRANCH   1   9
HETATM    9  S9  UNL     1     -22.167  17.906   8.899  1.00 20.00    -0.139 SA
HETATM   10  H19 UNL     1     -22.827  17.334   7.873  1.00 20.00     0.107 HD
ENDBRANCH   1   9
TORSDOF 1
ENDMDL
MODEL 5
REMARK VINA RESULT:      -3.7      1.876      2.560
REMARK  1 active torsions:
REMARK  status: ('A' for Active; 'I' for Inactive)
REMARK    1  A    between atoms: C1_1  and  S9_9 
ROOT
HETATM    1  C1  UNL     1     -24.181  18.528   8.831  1.00 20.00     0.047 A 
HETATM    2  C2  UNL     1     -22.986  17.796   8.969  1.00 20.00     0.069 A 
HETATM    3  C3  UNL     1     -24.681  18.612  10.108  1.00 20.00     0.044 A 
HETATM    4  C4  UNL     1     -22.029  17.402   7.917  1.00 20.00     0.074 C 
HETATM    5  C5  UNL     1     -25.900  19.248  10.643  1.00 20.00     0.071 C 
HETATM    6  C6  UNL     1     -23.871  17.766  12.332  1.00 20.00     0.179 C 
HETATM    7  N7  UNL     1     -22.741  17.442  10.233  1.00 20.00    -0.176 NA
HETATM    8  N8  UNL     1     -23.788  17.953  10.901  1.00 20.00    -0.277 N 
ENDROOT
BRANCH   1   9
HETATM    9  S9  UNL     1     -24.861  19.172   7.368  1.00 20.00    -0.139 SA
HETATM   10  H19 UNL     1     -24.178  18.435   6.470  1.00 20.00     0.107 HD
ENDBRANCH   1   9
TORSDOF 1
ENDMDL
MODEL 6
REMARK VINA RESULT:      -3.7      2.330      3.995
REMARK  1 active torsions:
REMARK  status: ('A' for Active; 'I' for Inactive)
REMARK    1  A    between atoms: C1_1  and  S9_9 
ROOT
HETATM    1  C1  UNL     1     -24.350  18.413  10.164  1.00 20.00     0.047 A 
HETATM    2  C2  UNL     1     -23.269  17.859  10.876  1.00 20.00     0.069 A 
HETATM    3  C3  UNL     1     -23.959  18.360   8.848  1.00 20.00     0.044 A 
HETATM    4  C4  UNL     1     -23.137  17.663  12.331  1.00 20.00     0.074 C 
HETATM    5  C5  UNL     1     -24.636  18.782   7.607  1.00 20.00     0.071 C 
HETATM    6  C6  UNL     1     -21.882  17.528   7.703  1.00 20.00     0.179 C 
HETATM    7  N7  UNL     1     -22.267  17.480  10.077  1.00 20.00    -0.176 NA
HETATM    8  N8  UNL     1     -22.716  17.798   8.852  1.00 20.00    -0.277 N 
ENDROOT
BRANCH   1   9
HETATM    9  S9  UNL     1     -25.839  19.026  10.817  1.00 20.00    -0.139 SA
HETATM   10  H19 UNL     1     -26.210  17.957  11.549  1.00 20.00     0.107 HD
ENDBRANCH   1   9
TORSDOF 1
ENDMDL
MODEL 7
REMARK VINA RESULT:      -3.2     10.692     12.493
REMARK  1 active torsions:
REMARK  status: ('A' for Active; 'I' for Inactive)
REMARK    1  A    between atoms: C1_1  and  S9_9 
ROOT
HETATM    1  C1  UNL     1     -32.053  18.710   1.710  1.00 20.00     0.047 A 
HETATM    2  C2  UNL     1     -30.749  18.903   1.213  1.00 20.00     0.069 A 
HETATM    3  C3  UNL     1     -32.800  18.395   0.600  1.00 20.00     0.044 A 
HETATM    4  C4  UNL     1     -29.530  19.262   1.961  1.00 20.00     0.074 C 
HETATM    5  C5  UNL     1     -34.232  18.080   0.441  1.00 20.00     0.071 C 
HETATM    6  C6  UNL     1     -32.240  18.151  -1.838  1.00 20.00     0.179 C 
HETATM    7  N7  UNL     1     -30.669  18.725  -0.109  1.00 20.00    -0.176 NA
HETATM    8  N8  UNL     1     -31.931  18.417  -0.452  1.00 20.00    -0.277 N 
ENDROOT
BRANCH   1   9
HETATM    9  S9  UNL     1     -32.584  18.844   3.358  1.00 20.00    -0.139 SA
HETATM   10  H19 UNL     1     -33.706  18.101   3.285  1.00 20.00     0.107 HD
ENDBRANCH   1   9
TORSDOF 1
ENDMDL
MODEL 8
REMARK VINA RESULT:      -3.2     10.016     11.474
REMARK  1 active torsions:
REMARK  status: ('A' for Active; 'I' for Inactive)
REMARK    1  A    between atoms: C1_1  and  S9_9 
ROOT
HETATM    1  C1  UNL     1     -32.388  18.485   1.404  1.00 20.00     0.047 A 
HETATM    2  C2  UNL     1     -31.569  18.513   0.259  1.00 20.00     0.069 A 
HETATM    3  C3  UNL     1     -31.535  18.769   2.443  1.00 20.00     0.044 A 
HETATM    4  C4  UNL     1     -31.954  18.278  -1.145  1.00 20.00     0.074 C 
HETATM    5  C5  UNL     1     -31.766  18.890   3.895  1.00 20.00     0.071 C 
HETATM    6  C6  UNL     1     -29.074  19.263   2.562  1.00 20.00     0.179 C 
HETATM    7  N7  UNL     1     -30.295  18.794   0.543  1.00 20.00    -0.176 NA
HETATM    8  N8  UNL     1     -30.306  18.944   1.878  1.00 20.00    -0.277 N 
ENDROOT
BRANCH   1   9
HETATM    9  S9  UNL     1     -34.093  18.160   1.474  1.00 20.00    -0.139 SA
HETATM   10  H19 UNL     1     -34.529  19.111   0.624  1.00 20.00     0.107 HD
ENDBRANCH   1   9
TORSDOF 1
ENDMDL
MODEL 9
REMARK VINA RESULT:      -3.2     17.752     19.121
REMARK  1 active torsions:
REMARK  status: ('A' for Active; 'I' for Inactive)
REMARK    1  A    between atoms: C1_1  and  S9_9 
ROOT
HETATM    1  C1  UNL     1     -35.922  15.509  -5.254  1.00 20.00     0.047 A 
HETATM    2  C2  UNL     1     -35.294  15.099  -6.446  1.00 20.00     0.069 A 
HETATM    3  C3  UNL     1     -34.966  15.330  -4.283  1.00 20.00     0.044 A 
HETATM    4  C4  UNL     1     -35.851  15.075  -7.811  1.00 20.00     0.074 C 
HETATM    5  C5  UNL     1     -34.991  15.572  -2.828  1.00 20.00     0.071 C 
HETATM    6  C6  UNL     1     -32.596  14.496  -4.335  1.00 20.00     0.179 C 
HETATM    7  N7  UNL     1     -34.036  14.691  -6.252  1.00 20.00    -0.176 NA
HETATM    8  N8  UNL     1     -33.867  14.844  -4.928  1.00 20.00    -0.277 N 
ENDROOT
BRANCH   1   9
HETATM    9  S9  UNL     1     -37.543  16.104  -5.067  1.00 20.00    -0.139 SA
HETATM   10  H19 UNL     1     -38.222  15.003  -5.445  1.00 20.00     0.107 HD
ENDBRANCH   1   9
TORSDOF 1
ENDMDL
