MODEL 1
REMARK VINA RESULT:      -4.6      0.000      0.000
REMARK  3 active torsions:
REMARK  status: ('A' for Active; 'I' for Inactive)
REMARK    1  A    between atoms: C2_2  and  C4_4 
REMARK    2  A    between atoms: C2_2  and  C9_9 
REMARK    3  A    between atoms: C8_8  and  C9_9 
ROOT
HETATM    1  C1  UNL     1     -37.231  14.455  -4.613  1.00 20.00     0.071 C 
HETATM    2  C9  UNL     1     -35.905  15.032  -4.899  1.00 20.00     0.162 C 
HETATM    3  N10 UNL     1     -38.276  14.004  -4.387  1.00 20.00    -0.196 NA
ENDROOT
BRANCH   2   4
HETATM    4  C2  UNL     1     -34.879  14.601  -3.863  1.00 20.00     0.148 C 
HETATM    5  O11 UNL     1     -34.073  13.693  -4.024  1.00 20.00    -0.296 OA
BRANCH   4   6
HETATM    6  C4  UNL     1     -34.892  15.354  -2.573  1.00 20.00     0.061 A 
HETATM    7  C3  UNL     1     -35.424  16.752  -2.568  1.00 20.00     0.017 A 
HETATM    8  C5  UNL     1     -33.957  16.503  -2.365  1.00 20.00    -0.007 A 
HETATM    9  C6  UNL     1     -32.975  16.949  -3.395  1.00 20.00     0.011 C 
ENDBRANCH   4   6
ENDBRANCH   2   4
BRANCH   2  10
HETATM   10  C8  UNL     1     -35.432  14.695  -6.322  1.00 20.00     0.022 C 
HETATM   11  C7  UNL     1     -34.397  15.662  -6.893  1.00 20.00     0.007 C 
ENDBRANCH   2  10
TORSDOF 3
ENDMDL
MODEL 2
REMARK VINA RESULT:      -4.6      1.849      2.059
REMARK  3 active torsions:
REMARK  status: ('A' for Active; 'I' for Inactive)
REMARK    1  A    between atoms: C2_2  and  C4_4 
REMARK    2  A    between atoms: C2_2  and  C9_9 
REMARK    3  A    between atoms: C8_8  and  C9_9 
ROOT
HETATM    1  C1  UNL     1     -36.992  14.485  -4.255  1.00 20.00     0.071 C 
HETATM    2  C9  UNL     1     -35.720  15.210  -4.089  1.00 20.00     0.162 C 
HETATM    3  N10 UNL     1     -37.994  13.916  -4.388  1.00 20.00    -0.196 NA
ENDROOT
BRANCH   2   4
HETATM    4  C2  UNL     1     -35.828  16.281  -3.014  1.00 20.00     0.148 C 
HETATM    5  O11 UNL     1     -36.666  17.174  -3.010  1.00 20.00    -0.296 OA
BRANCH   4   6
HETATM    6  C4  UNL     1     -34.823  16.208  -1.911  1.00 20.00     0.061 A 
HETATM    7  C3  UNL     1     -34.687  17.380  -0.992  1.00 20.00     0.017 A 
HETATM    8  C5  UNL     1     -33.589  17.053  -1.964  1.00 20.00    -0.007 A 
HETATM    9  C6  UNL     1     -33.289  17.983  -3.090  1.00 20.00     0.011 C 
ENDBRANCH   4   6
ENDBRANCH   2   4
BRANCH   2  10
HETATM   10  C8  UNL     1     -34.551  14.254  -3.804  1.00 20.00     0.022 C 
HETATM   11  C7  UNL     1     -33.304  14.505  -4.646  1.00 20.00     0.007 C 
ENDBRANCH   2  10
TORSDOF 3
ENDMDL
MODEL 3
REMARK VINA RESULT:      -4.5      1.781      1.824
REMARK  3 active torsions:
REMARK  status: ('A' for Active; 'I' for Inactive)
REMARK    1  A    between atoms: C2_2  and  C4_4 
REMARK    2  A    between atoms: C2_2  and  C9_9 
REMARK    3  A    between atoms: C8_8  and  C9_9 
ROOT
HETATM    1  C1  UNL     1     -36.085  13.882  -4.802  1.00 20.00     0.071 C 
HETATM    2  C9  UNL     1     -36.304  15.308  -5.103  1.00 20.00     0.162 C 
HETATM    3  N10 UNL     1     -35.915  12.759  -4.565  1.00 20.00    -0.196 NA
ENDROOT
BRANCH   2   4
HETATM    4  C2  UNL     1     -36.146  16.167  -3.858  1.00 20.00     0.148 C 
HETATM    5  O11 UNL     1     -36.663  17.267  -3.708  1.00 20.00    -0.296 OA
BRANCH   4   6
HETATM    6  C4  UNL     1     -35.288  15.601  -2.774  1.00 20.00     0.061 A 
HETATM    7  C3  UNL     1     -34.947  16.470  -1.607  1.00 20.00     0.017 A 
HETATM    8  C5  UNL     1     -33.884  16.087  -2.596  1.00 20.00    -0.007 A 
HETATM    9  C6  UNL     1     -33.268  17.127  -3.469  1.00 20.00     0.011 C 
ENDBRANCH   4   6
ENDBRANCH   2   4
BRANCH   2  10
HETATM   10  C8  UNL     1     -35.390  15.799  -6.236  1.00 20.00     0.022 C 
HETATM   11  C7  UNL     1     -34.086  15.021  -6.383  1.00 20.00     0.007 C 
ENDBRANCH   2  10
TORSDOF 3
ENDMDL
MODEL 4
REMARK VINA RESULT:      -4.5      1.207      1.222
REMARK  3 active torsions:
REMARK  status: ('A' for Active; 'I' for Inactive)
REMARK    1  A    between atoms: C2_2  and  C4_4 
REMARK    2  A    between atoms: C2_2  and  C9_9 
REMARK    3  A    between atoms: C8_8  and  C9_9 
ROOT
HETATM    1  C1  UNL     1     -37.300  14.697  -4.568  1.00 20.00     0.071 C 
HETATM    2  C9  UNL     1     -36.223  15.668  -4.837  1.00 20.00     0.162 C 
HETATM    3  N10 UNL     1     -38.148  13.934  -4.354  1.00 20.00    -0.196 NA
ENDROOT
BRANCH   2   4
HETATM    4  C2  UNL     1     -34.851  15.040  -4.645  1.00 20.00     0.148 C 
HETATM    5  O11 UNL     1     -34.193  14.531  -5.542  1.00 20.00    -0.296 OA
BRANCH   4   6
HETATM    6  C4  UNL     1     -34.310  15.059  -3.253  1.00 20.00     0.061 A 
HETATM    7  C3  UNL     1     -34.916  16.003  -2.264  1.00 20.00     0.017 A 
HETATM    8  C5  UNL     1     -33.521  16.235  -2.770  1.00 20.00    -0.007 A 
HETATM    9  C6  UNL     1     -33.226  17.421  -3.624  1.00 20.00     0.011 C 
ENDBRANCH   4   6
ENDBRANCH   2   4
BRANCH   2  10
HETATM   10  C8  UNL     1     -36.356  16.294  -6.233  1.00 20.00     0.022 C 
HETATM   11  C7  UNL     1     -35.709  17.669  -6.378  1.00 20.00     0.007 C 
ENDBRANCH   2  10
TORSDOF 3
ENDMDL
MODEL 5
REMARK VINA RESULT:      -4.3      1.014      3.179
REMARK  3 active torsions:
REMARK  status: ('A' for Active; 'I' for Inactive)
REMARK    1  A    between atoms: C2_2  and  C4_4 
REMARK    2  A    between atoms: C2_2  and  C9_9 
REMARK    3  A    between atoms: C8_8  and  C9_9 
ROOT
HETATM    1  C1  UNL     1     -36.790  14.228  -4.183  1.00 20.00     0.071 C 
HETATM    2  C9  UNL     1     -35.410  14.610  -3.830  1.00 20.00     0.162 C 
HETATM    3  N10 UNL     1     -37.875  13.924  -4.460  1.00 20.00    -0.196 NA
ENDROOT
BRANCH   2   4
HETATM    4  C2  UNL     1     -34.511  14.630  -5.056  1.00 20.00     0.148 C 
HETATM    5  O11 UNL     1     -33.318  14.352  -5.043  1.00 20.00    -0.296 OA
BRANCH   4   6
HETATM    6  C4  UNL     1     -35.160  15.031  -6.341  1.00 20.00     0.061 A 
HETATM    7  C3  UNL     1     -34.287  15.372  -7.505  1.00 20.00     0.017 A 
HETATM    8  C5  UNL     1     -35.076  16.448  -6.815  1.00 20.00    -0.007 A 
HETATM    9  C6  UNL     1     -34.371  17.518  -6.054  1.00 20.00     0.011 C 
ENDBRANCH   4   6
ENDBRANCH   2   4
BRANCH   2  10
HETATM   10  C8  UNL     1     -35.363  15.952  -3.085  1.00 20.00     0.022 C 
HETATM   11  C7  UNL     1     -34.050  16.232  -2.360  1.00 20.00     0.007 C 
ENDBRANCH   2  10
TORSDOF 3
ENDMDL
MODEL 6
REMARK VINA RESULT:      -4.3      1.314      1.380
REMARK  3 active torsions:
REMARK  status: ('A' for Active; 'I' for Inactive)
REMARK    1  A    between atoms: C2_2  and  C4_4 
REMARK    2  A    between atoms: C2_2  and  C9_9 
REMARK    3  A    between atoms: C8_8  and  C9_9 
ROOT
HETATM    1  C1  UNL     1     -35.637  13.868  -4.628  1.00 20.00     0.071 C 
HETATM    2  C9  UNL     1     -34.886  15.117  -4.850  1.00 20.00     0.162 C 
HETATM    3  N10 UNL     1     -36.229  12.887  -4.452  1.00 20.00    -0.196 NA
ENDROOT
BRANCH   2   4
HETATM    4  C2  UNL     1     -33.680  15.210  -3.929  1.00 20.00     0.148 C 
HETATM    5  O11 UNL     1     -32.576  14.745  -4.186  1.00 20.00    -0.296 OA
BRANCH   4   6
HETATM    6  C4  UNL     1     -33.898  15.914  -2.629  1.00 20.00     0.061 A 
HETATM    7  C3  UNL     1     -35.005  16.915  -2.538  1.00 20.00     0.017 A 
HETATM    8  C5  UNL     1     -33.574  17.369  -2.500  1.00 20.00    -0.007 A 
HETATM    9  C6  UNL     1     -33.019  18.180  -3.621  1.00 20.00     0.011 C 
ENDBRANCH   4   6
ENDBRANCH   2   4
BRANCH   2  10
HETATM   10  C8  UNL     1     -34.475  15.282  -6.321  1.00 20.00     0.022 C 
HETATM   11  C7  UNL     1     -34.506  16.719  -6.834  1.00 20.00     0.007 C 
ENDBRANCH   2  10
TORSDOF 3
ENDMDL
MODEL 7
REMARK VINA RESULT:      -4.2     16.619     18.351
REMARK  3 active torsions:
REMARK  status: ('A' for Active; 'I' for Inactive)
REMARK    1  A    between atoms: C2_2  and  C4_4 
REMARK    2  A    between atoms: C2_2  and  C9_9 
REMARK    3  A    between atoms: C8_8  and  C9_9 
ROOT
HETATM    1  C1  UNL     1     -22.379  17.634   7.688  1.00 20.00     0.071 C 
HETATM    2  C9  UNL     1     -23.596  17.927   8.467  1.00 20.00     0.162 C 
HETATM    3  N10 UNL     1     -21.423  17.401   7.074  1.00 20.00    -0.196 NA
ENDROOT
BRANCH   2   4
HETATM    4  C2  UNL     1     -23.308  17.937   9.960  1.00 20.00     0.148 C 
HETATM    5  O11 UNL     1     -22.207  17.723  10.453  1.00 20.00    -0.296 OA
BRANCH   4   6
HETATM    6  C4  UNL     1     -24.472  18.224  10.852  1.00 20.00     0.061 A 
HETATM    7  C3  UNL     1     -24.269  18.163  12.332  1.00 20.00     0.017 A 
HETATM    8  C5  UNL     1     -25.101  17.120  11.642  1.00 20.00    -0.007 A 
HETATM    9  C6  UNL     1     -24.629  15.707  11.584  1.00 20.00     0.011 C 
ENDBRANCH   4   6
ENDBRANCH   2   4
BRANCH   2  10
HETATM   10  C8  UNL     1     -24.257  19.239   8.020  1.00 20.00     0.022 C 
HETATM   11  C7  UNL     1     -25.453  19.064   7.089  1.00 20.00     0.007 C 
ENDBRANCH   2  10
TORSDOF 3
ENDMDL
MODEL 8
REMARK VINA RESULT:      -4.1      3.793      5.744
REMARK  3 active torsions:
REMARK  status: ('A' for Active; 'I' for Inactive)
REMARK    1  A    between atoms: C2_2  and  C4_4 
REMARK    2  A    between atoms: C2_2  and  C9_9 
REMARK    3  A    between atoms: C8_8  and  C9_9 
ROOT
HETATM    1  C1  UNL     1     -31.678  18.378  -0.868  1.00 20.00     0.071 C 
HETATM    2  C9  UNL     1     -33.060  18.485  -1.370  1.00 20.00     0.162 C 
HETATM    3  N10 UNL     1     -30.590  18.298  -0.474  1.00 20.00    -0.196 NA
ENDROOT
BRANCH   2   4
HETATM    4  C2  UNL     1     -33.218  17.784  -2.710  1.00 20.00     0.148 C 
HETATM    5  O11 UNL     1     -33.336  18.364  -3.783  1.00 20.00    -0.296 OA
BRANCH   4   6
HETATM    6  C4  UNL     1     -33.234  16.291  -2.673  1.00 20.00     0.061 A 
HETATM    7  C3  UNL     1     -33.475  15.548  -3.948  1.00 20.00     0.017 A 
HETATM    8  C5  UNL     1     -34.519  15.549  -2.868  1.00 20.00    -0.007 A 
HETATM    9  C6  UNL     1     -35.825  16.232  -3.094  1.00 20.00     0.011 C 
ENDBRANCH   4   6
ENDBRANCH   2   4
BRANCH   2  10
HETATM   10  C8  UNL     1     -34.080  17.961  -0.347  1.00 20.00     0.022 C 
HETATM   11  C7  UNL     1     -33.831  18.415   1.089  1.00 20.00     0.007 C 
ENDBRANCH   2  10
TORSDOF 3
ENDMDL
MODEL 9
REMARK VINA RESULT:      -4.0      1.506      2.027
REMARK  3 active torsions:
REMARK  status: ('A' for Active; 'I' for Inactive)
REMARK    1  A    between atoms: C2_2  and  C4_4 
REMARK    2  A    between atoms: C2_2  and  C9_9 
REMARK    3  A    between atoms: C8_8  and  C9_9 
ROOT
HETATM    1  C1  UNL     1     -37.820  14.689  -4.584  1.00 20.00     0.071 C 
HETATM    2  C9  UNL     1     -36.565  15.385  -4.920  1.00 20.00     0.162 C 
HETATM    3  N10 UNL     1     -38.807  14.142  -4.316  1.00 20.00    -0.196 NA
ENDROOT
BRANCH   2   4
HETATM    4  C2  UNL     1     -35.361  14.471  -4.752  1.00 20.00     0.148 C 
HETATM    5  O11 UNL     1     -35.431  13.286  -4.450  1.00 20.00    -0.296 OA
BRANCH   4   6
HETATM    6  C4  UNL     1     -34.023  15.099  -4.968  1.00 20.00     0.061 A 
HETATM    7  C3  UNL     1     -32.839  14.514  -4.269  1.00 20.00     0.017 A 
HETATM    8  C5  UNL     1     -33.364  15.861  -3.862  1.00 20.00    -0.007 A 
HETATM    9  C6  UNL     1     -33.986  16.045  -2.520  1.00 20.00     0.011 C 
ENDBRANCH   4   6
ENDBRANCH   2   4
BRANCH   2  10
HETATM   10  C8  UNL     1     -36.609  15.989  -6.332  1.00 20.00     0.022 C 
HETATM   11  C7  UNL     1     -37.147  17.416  -6.397  1.00 20.00     0.007 C 
ENDBRANCH   2  10
TORSDOF 3
ENDMDL
