MODEL 1
REMARK VINA RESULT:      -4.8      0.000      0.000
REMARK  3 active torsions:
REMARK  status: ('A' for Active; 'I' for Inactive)
REMARK    1  A    between atoms: C2_2  and  C7_7 
REMARK    2  A    between atoms: C2_2  and  C8_8 
REMARK    3  A    between atoms: C7_7  and  C9_9 
ROOT
HETATM    1  C1  UNL     1     -37.070  14.417  -4.657  1.00 20.00     0.071 C 
HETATM    2  C3  UNL     1     -35.540  14.653  -6.577  1.00 20.00     0.033 C 
HETATM    3  C8  UNL     1     -35.790  14.988  -5.111  1.00 20.00     0.158 C 
HETATM    4  N10 UNL     1     -38.080  13.972  -4.298  1.00 20.00    -0.196 NA
ENDROOT
BRANCH   3   5
HETATM    5  C2  UNL     1     -34.631  14.461  -4.272  1.00 20.00     0.144 C 
HETATM    6  O11 UNL     1     -34.562  13.284  -3.915  1.00 20.00    -0.296 OA
BRANCH   5   7
HETATM    7  C7  UNL     1     -33.561  15.463  -3.858  1.00 20.00     0.088 C 
BRANCH   7   8
HETATM    8  C9  UNL     1     -34.059  16.607  -2.947  1.00 20.00    -0.045 C 
HETATM    9  C4  UNL     1     -35.061  16.092  -1.901  1.00 20.00     0.015 C 
HETATM   10  C5  UNL     1     -34.713  17.731  -3.766  1.00 20.00     0.015 C 
HETATM   11  C6  UNL     1     -32.839  17.192  -2.206  1.00 20.00     0.015 C 
ENDBRANCH   7   8
ENDBRANCH   5   7
ENDBRANCH   3   5
TORSDOF 3
ENDMDL
MODEL 2
REMARK VINA RESULT:      -4.8      0.032      1.303
REMARK  3 active torsions:
REMARK  status: ('A' for Active; 'I' for Inactive)
REMARK    1  A    between atoms: C2_2  and  C7_7 
REMARK    2  A    between atoms: C2_2  and  C8_8 
REMARK    3  A    between atoms: C7_7  and  C9_9 
ROOT
HETATM    1  C1  UNL     1     -37.058  14.413  -4.652  1.00 20.00     0.071 C 
HETATM    2  C3  UNL     1     -35.531  14.657  -6.573  1.00 20.00     0.033 C 
HETATM    3  C8  UNL     1     -35.779  14.986  -5.106  1.00 20.00     0.158 C 
HETATM    4  N10 UNL     1     -38.067  13.966  -4.294  1.00 20.00    -0.196 NA
ENDROOT
BRANCH   3   5
HETATM    5  C2  UNL     1     -34.619  14.457  -4.270  1.00 20.00     0.144 C 
HETATM    6  O11 UNL     1     -34.554  13.281  -3.908  1.00 20.00    -0.296 OA
BRANCH   5   7
HETATM    7  C7  UNL     1     -33.542  15.456  -3.867  1.00 20.00     0.088 C 
BRANCH   7   8
HETATM    8  C9  UNL     1     -34.021  16.587  -2.930  1.00 20.00    -0.045 C 
HETATM    9  C4  UNL     1     -32.845  17.218  -2.168  1.00 20.00     0.015 C 
HETATM   10  C5  UNL     1     -35.063  16.075  -1.922  1.00 20.00     0.015 C 
HETATM   11  C6  UNL     1     -34.681  17.677  -3.799  1.00 20.00     0.015 C 
ENDBRANCH   7   8
ENDBRANCH   5   7
ENDBRANCH   3   5
TORSDOF 3
ENDMDL
MODEL 3
REMARK VINA RESULT:      -4.4      1.745      2.187
REMARK  3 active torsions:
REMARK  status: ('A' for Active; 'I' for Inactive)
REMARK    1  A    between atoms: C2_2  and  C7_7 
REMARK    2  A    between atoms: C2_2  and  C8_8 
REMARK    3  A    between atoms: C7_7  and  C9_9 
ROOT
HETATM    1  C1  UNL     1     -36.076  13.849  -5.109  1.00 20.00     0.071 C 
HETATM    2  C3  UNL     1     -35.112  15.231  -6.908  1.00 20.00     0.033 C 
HETATM    3  C8  UNL     1     -36.183  15.129  -5.829  1.00 20.00     0.158 C 
HETATM    4  N10 UNL     1     -35.996  12.839  -4.542  1.00 20.00    -0.196 NA
ENDROOT
BRANCH   3   5
HETATM    5  C2  UNL     1     -36.045  16.306  -4.871  1.00 20.00     0.144 C 
HETATM    6  O11 UNL     1     -37.014  16.791  -4.284  1.00 20.00    -0.296 OA
BRANCH   5   7
HETATM    7  C7  UNL     1     -34.651  16.889  -4.683  1.00 20.00     0.088 C 
BRANCH   7   8
HETATM    8  C9  UNL     1     -33.863  16.317  -3.483  1.00 20.00    -0.045 C 
HETATM    9  C4  UNL     1     -32.944  15.164  -3.917  1.00 20.00     0.015 C 
HETATM   10  C5  UNL     1     -34.809  15.823  -2.376  1.00 20.00     0.015 C 
HETATM   11  C6  UNL     1     -32.987  17.447  -2.905  1.00 20.00     0.015 C 
ENDBRANCH   7   8
ENDBRANCH   5   7
ENDBRANCH   3   5
TORSDOF 3
ENDMDL
MODEL 4
REMARK VINA RESULT:      -4.4      1.738      2.090
REMARK  3 active torsions:
REMARK  status: ('A' for Active; 'I' for Inactive)
REMARK    1  A    between atoms: C2_2  and  C7_7 
REMARK    2  A    between atoms: C2_2  and  C8_8 
REMARK    3  A    between atoms: C7_7  and  C9_9 
ROOT
HETATM    1  C1  UNL     1     -36.077  13.850  -5.108  1.00 20.00     0.071 C 
HETATM    2  C3  UNL     1     -35.115  15.231  -6.911  1.00 20.00     0.033 C 
HETATM    3  C8  UNL     1     -36.180  15.133  -5.825  1.00 20.00     0.158 C 
HETATM    4  N10 UNL     1     -35.999  12.838  -4.545  1.00 20.00    -0.196 NA
ENDROOT
BRANCH   3   5
HETATM    5  C2  UNL     1     -36.028  16.307  -4.864  1.00 20.00     0.144 C 
HETATM    6  O11 UNL     1     -36.991  16.800  -4.274  1.00 20.00    -0.296 OA
BRANCH   5   7
HETATM    7  C7  UNL     1     -34.627  16.876  -4.679  1.00 20.00     0.088 C 
BRANCH   7   8
HETATM    8  C9  UNL     1     -33.867  16.343  -3.444  1.00 20.00    -0.045 C 
HETATM    9  C4  UNL     1     -34.837  15.806  -2.380  1.00 20.00     0.015 C 
HETATM   10  C5  UNL     1     -32.981  17.434  -2.819  1.00 20.00     0.015 C 
HETATM   11  C6  UNL     1     -32.959  15.185  -3.906  1.00 20.00     0.015 C 
ENDBRANCH   7   8
ENDBRANCH   5   7
ENDBRANCH   3   5
TORSDOF 3
ENDMDL
MODEL 5
REMARK VINA RESULT:      -4.4      1.781      1.946
REMARK  3 active torsions:
REMARK  status: ('A' for Active; 'I' for Inactive)
REMARK    1  A    between atoms: C2_2  and  C7_7 
REMARK    2  A    between atoms: C2_2  and  C8_8 
REMARK    3  A    between atoms: C7_7  and  C9_9 
ROOT
HETATM    1  C1  UNL     1     -35.814  13.865  -4.189  1.00 20.00     0.071 C 
HETATM    2  C3  UNL     1     -36.899  16.072  -4.000  1.00 20.00     0.033 C 
HETATM    3  C8  UNL     1     -35.711  15.209  -3.593  1.00 20.00     0.158 C 
HETATM    4  N10 UNL     1     -35.895  12.806  -4.655  1.00 20.00    -0.196 NA
ENDROOT
BRANCH   3   5
HETATM    5  C2  UNL     1     -34.420  15.897  -4.022  1.00 20.00     0.144 C 
HETATM    6  O11 UNL     1     -34.184  16.172  -5.199  1.00 20.00    -0.296 OA
BRANCH   5   7
HETATM    7  C7  UNL     1     -33.404  16.210  -2.931  1.00 20.00     0.088 C 
BRANCH   7   8
HETATM    8  C9  UNL     1     -33.705  17.484  -2.109  1.00 20.00    -0.045 C 
HETATM    9  C4  UNL     1     -34.696  17.193  -0.971  1.00 20.00     0.015 C 
HETATM   10  C5  UNL     1     -34.268  18.604  -2.999  1.00 20.00     0.015 C 
HETATM   11  C6  UNL     1     -32.381  17.975  -1.490  1.00 20.00     0.015 C 
ENDBRANCH   7   8
ENDBRANCH   5   7
ENDBRANCH   3   5
TORSDOF 3
ENDMDL
MODEL 6
REMARK VINA RESULT:      -4.3      1.484      2.182
REMARK  3 active torsions:
REMARK  status: ('A' for Active; 'I' for Inactive)
REMARK    1  A    between atoms: C2_2  and  C7_7 
REMARK    2  A    between atoms: C2_2  and  C8_8 
REMARK    3  A    between atoms: C7_7  and  C9_9 
ROOT
HETATM    1  C1  UNL     1     -35.968  14.386  -6.293  1.00 20.00     0.071 C 
HETATM    2  C3  UNL     1     -37.278  14.491  -4.206  1.00 20.00     0.033 C 
HETATM    3  C8  UNL     1     -36.039  13.930  -4.894  1.00 20.00     0.158 C 
HETATM    4  N10 UNL     1     -35.913  14.741  -7.396  1.00 20.00    -0.196 NA
ENDROOT
BRANCH   3   5
HETATM    5  C2  UNL     1     -34.797  14.357  -4.119  1.00 20.00     0.144 C 
HETATM    6  O11 UNL     1     -33.664  14.007  -4.454  1.00 20.00    -0.296 OA
BRANCH   5   7
HETATM    7  C7  UNL     1     -35.012  15.218  -2.882  1.00 20.00     0.088 C 
BRANCH   7   8
HETATM    8  C9  UNL     1     -34.486  16.666  -2.999  1.00 20.00    -0.045 C 
HETATM    9  C4  UNL     1     -34.746  17.244  -4.400  1.00 20.00     0.015 C 
HETATM   10  C5  UNL     1     -32.982  16.742  -2.690  1.00 20.00     0.015 C 
HETATM   11  C6  UNL     1     -35.239  17.532  -1.968  1.00 20.00     0.015 C 
ENDBRANCH   7   8
ENDBRANCH   5   7
ENDBRANCH   3   5
TORSDOF 3
ENDMDL
MODEL 7
REMARK VINA RESULT:      -4.3      1.773      2.226
REMARK  3 active torsions:
REMARK  status: ('A' for Active; 'I' for Inactive)
REMARK    1  A    between atoms: C2_2  and  C7_7 
REMARK    2  A    between atoms: C2_2  and  C8_8 
REMARK    3  A    between atoms: C7_7  and  C9_9 
ROOT
HETATM    1  C1  UNL     1     -35.504  13.839  -4.390  1.00 20.00     0.071 C 
HETATM    2  C3  UNL     1     -33.272  14.867  -4.184  1.00 20.00     0.033 C 
HETATM    3  C8  UNL     1     -34.768  15.114  -4.334  1.00 20.00     0.158 C 
HETATM    4  N10 UNL     1     -36.085  12.836  -4.438  1.00 20.00    -0.196 NA
ENDROOT
BRANCH   3   5
HETATM    5  C2  UNL     1     -35.255  15.972  -3.172  1.00 20.00     0.144 C 
HETATM    6  O11 UNL     1     -36.412  16.390  -3.105  1.00 20.00    -0.296 OA
BRANCH   5   7
HETATM    7  C7  UNL     1     -34.237  16.325  -2.095  1.00 20.00     0.088 C 
BRANCH   7   8
HETATM    8  C9  UNL     1     -33.866  17.823  -2.017  1.00 20.00    -0.045 C 
HETATM    9  C4  UNL     1     -34.764  18.569  -1.017  1.00 20.00     0.015 C 
HETATM   10  C5  UNL     1     -33.970  18.498  -3.395  1.00 20.00     0.015 C 
HETATM   11  C6  UNL     1     -32.405  17.928  -1.534  1.00 20.00     0.015 C 
ENDBRANCH   7   8
ENDBRANCH   5   7
ENDBRANCH   3   5
TORSDOF 3
ENDMDL
MODEL 8
REMARK VINA RESULT:      -4.3      1.667      3.509
REMARK  3 active torsions:
REMARK  status: ('A' for Active; 'I' for Inactive)
REMARK    1  A    between atoms: C2_2  and  C7_7 
REMARK    2  A    between atoms: C2_2  and  C8_8 
REMARK    3  A    between atoms: C7_7  and  C9_9 
ROOT
HETATM    1  C1  UNL     1     -35.796  16.179  -3.068  1.00 20.00     0.071 C 
HETATM    2  C3  UNL     1     -33.343  16.349  -2.884  1.00 20.00     0.033 C 
HETATM    3  C8  UNL     1     -34.547  15.415  -2.912  1.00 20.00     0.158 C 
HETATM    4  N10 UNL     1     -36.782  16.780  -3.186  1.00 20.00    -0.196 NA
ENDROOT
BRANCH   3   5
HETATM    5  C2  UNL     1     -34.378  14.412  -4.048  1.00 20.00     0.144 C 
HETATM    6  O11 UNL     1     -34.836  13.269  -3.986  1.00 20.00    -0.296 OA
BRANCH   5   7
HETATM    7  C7  UNL     1     -33.587  14.868  -5.267  1.00 20.00     0.088 C 
BRANCH   7   8
HETATM    8  C9  UNL     1     -34.442  15.437  -6.421  1.00 20.00    -0.045 C 
HETATM    9  C4  UNL     1     -34.584  16.964  -6.310  1.00 20.00     0.015 C 
HETATM   10  C5  UNL     1     -35.840  14.799  -6.449  1.00 20.00     0.015 C 
HETATM   11  C6  UNL     1     -33.730  15.108  -7.749  1.00 20.00     0.015 C 
ENDBRANCH   7   8
ENDBRANCH   5   7
ENDBRANCH   3   5
TORSDOF 3
ENDMDL
MODEL 9
REMARK VINA RESULT:      -4.2     16.142     17.991
REMARK  3 active torsions:
REMARK  status: ('A' for Active; 'I' for Inactive)
REMARK    1  A    between atoms: C2_2  and  C7_7 
REMARK    2  A    between atoms: C2_2  and  C8_8 
REMARK    3  A    between atoms: C7_7  and  C9_9 
ROOT
HETATM    1  C1  UNL     1     -24.097  18.859   6.740  1.00 20.00     0.071 C 
HETATM    2  C3  UNL     1     -25.566  19.263   8.679  1.00 20.00     0.033 C 
HETATM    3  C8  UNL     1     -24.527  18.343   8.051  1.00 20.00     0.158 C 
HETATM    4  N10 UNL     1     -23.761  19.263   5.705  1.00 20.00    -0.196 NA
ENDROOT
BRANCH   3   5
HETATM    5  C2  UNL     1     -23.339  18.205   8.997  1.00 20.00     0.144 C 
HETATM    6  O11 UNL     1     -22.430  19.036   9.033  1.00 20.00    -0.296 OA
BRANCH   5   7
HETATM    7  C7  UNL     1     -23.300  16.971   9.888  1.00 20.00     0.088 C 
BRANCH   7   8
HETATM    8  C9  UNL     1     -23.685  17.221  11.363  1.00 20.00    -0.045 C 
HETATM    9  C4  UNL     1     -24.850  18.217  11.475  1.00 20.00     0.015 C 
HETATM   10  C5  UNL     1     -22.487  17.749  12.172  1.00 20.00     0.015 C 
HETATM   11  C6  UNL     1     -24.130  15.878  11.975  1.00 20.00     0.015 C 
ENDBRANCH   7   8
ENDBRANCH   5   7
ENDBRANCH   3   5
TORSDOF 3
ENDMDL
