MODEL 1
REMARK VINA RESULT:      -5.7      0.000      0.000
REMARK  4 active torsions:
REMARK  status: ('A' for Active; 'I' for Inactive)
REMARK    1  A    between atoms: C3_3  and  C6_6 
REMARK    2  A    between atoms: C3_3  and  C7_7 
REMARK    3  A    between atoms: C5_5  and  C6_6 
REMARK    4  A    between atoms: C7_7  and  C8_8 
ROOT
HETATM    1  C1  UNL     1     -32.587   8.336   0.799  1.00 20.00     0.012 C 
HETATM    2  C2  UNL     1     -32.659   7.586   1.735  1.00 20.00    -0.117 C 
HETATM    3  C5  UNL     1     -32.745   6.669   2.882  1.00 20.00     0.100 C 
ENDROOT
BRANCH   3   4
HETATM    4  C6  UNL     1     -33.364   5.328   2.493  1.00 20.00     0.090 C 
BRANCH   4   5
HETATM    5  C3  UNL     1     -34.176   4.678   3.607  1.00 20.00     0.127 C 
HETATM    6  O9  UNL     1     -34.095   3.480   3.868  1.00 20.00    -0.298 OA
BRANCH   5   7
HETATM    7  C7  UNL     1     -35.079   5.619   4.391  1.00 20.00     0.078 C 
BRANCH   7   8
HETATM    8  C8  UNL     1     -34.710   5.688   5.870  1.00 20.00     0.003 C 
HETATM    9  C4  UNL     1     -33.863   6.912   6.178  1.00 20.00     0.005 C 
ENDBRANCH   7   8
ENDBRANCH   5   7
ENDBRANCH   4   5
ENDBRANCH   3   4
TORSDOF 4
ENDMDL
MODEL 2
REMARK VINA RESULT:      -5.3      0.898      1.073
REMARK  4 active torsions:
REMARK  status: ('A' for Active; 'I' for Inactive)
REMARK    1  A    between atoms: C3_3  and  C6_6 
REMARK    2  A    between atoms: C3_3  and  C7_7 
REMARK    3  A    between atoms: C5_5  and  C6_6 
REMARK    4  A    between atoms: C7_7  and  C8_8 
ROOT
HETATM    1  C1  UNL     1     -32.981   8.803   0.316  1.00 20.00     0.012 C 
HETATM    2  C2  UNL     1     -32.616   8.040   1.169  1.00 20.00    -0.117 C 
HETATM    3  C5  UNL     1     -32.167   7.105   2.212  1.00 20.00     0.100 C 
ENDROOT
BRANCH   3   4
HETATM    4  C6  UNL     1     -33.242   6.875   3.271  1.00 20.00     0.090 C 
BRANCH   4   5
HETATM    5  C3  UNL     1     -33.831   5.469   3.255  1.00 20.00     0.127 C 
HETATM    6  O9  UNL     1     -33.349   4.561   2.581  1.00 20.00    -0.298 OA
BRANCH   5   7
HETATM    7  C7  UNL     1     -35.045   5.260   4.149  1.00 20.00     0.078 C 
BRANCH   7   8
HETATM    8  C8  UNL     1     -34.670   5.111   5.621  1.00 20.00     0.003 C 
HETATM    9  C4  UNL     1     -34.307   6.450   6.242  1.00 20.00     0.005 C 
ENDBRANCH   7   8
ENDBRANCH   5   7
ENDBRANCH   4   5
ENDBRANCH   3   4
TORSDOF 4
ENDMDL
MODEL 3
REMARK VINA RESULT:      -4.9      0.535      3.595
REMARK  4 active torsions:
REMARK  status: ('A' for Active; 'I' for Inactive)
REMARK    1  A    between atoms: C3_3  and  C6_6 
REMARK    2  A    between atoms: C3_3  and  C7_7 
REMARK    3  A    between atoms: C5_5  and  C6_6 
REMARK    4  A    between atoms: C7_7  and  C8_8 
ROOT
HETATM    1  C1  UNL     1     -33.417   7.453   6.274  1.00 20.00     0.012 C 
HETATM    2  C2  UNL     1     -34.160   6.546   6.016  1.00 20.00    -0.117 C 
HETATM    3  C5  UNL     1     -35.071   5.434   5.703  1.00 20.00     0.100 C 
ENDROOT
BRANCH   3   4
HETATM    4  C6  UNL     1     -35.266   5.265   4.198  1.00 20.00     0.090 C 
BRANCH   4   5
HETATM    5  C3  UNL     1     -34.156   4.472   3.518  1.00 20.00     0.127 C 
HETATM    6  O9  UNL     1     -33.883   3.316   3.836  1.00 20.00    -0.298 OA
BRANCH   5   7
HETATM    7  C7  UNL     1     -33.421   5.201   2.402  1.00 20.00     0.078 C 
BRANCH   7   8
HETATM    8  C8  UNL     1     -32.713   6.460   2.893  1.00 20.00     0.003 C 
HETATM    9  C4  UNL     1     -32.569   7.487   1.782  1.00 20.00     0.005 C 
ENDBRANCH   7   8
ENDBRANCH   5   7
ENDBRANCH   4   5
ENDBRANCH   3   4
TORSDOF 4
ENDMDL
MODEL 4
REMARK VINA RESULT:      -4.7      1.680      4.624
REMARK  4 active torsions:
REMARK  status: ('A' for Active; 'I' for Inactive)
REMARK    1  A    between atoms: C3_3  and  C6_6 
REMARK    2  A    between atoms: C3_3  and  C7_7 
REMARK    3  A    between atoms: C5_5  and  C6_6 
REMARK    4  A    between atoms: C7_7  and  C8_8 
ROOT
HETATM    1  C1  UNL     1     -34.760   5.352   6.024  1.00 20.00     0.012 C 
HETATM    2  C2  UNL     1     -34.714   5.466   4.829  1.00 20.00    -0.117 C 
HETATM    3  C5  UNL     1     -34.660   5.605   3.365  1.00 20.00     0.100 C 
ENDROOT
BRANCH   3   4
HETATM    4  C6  UNL     1     -33.228   5.544   2.841  1.00 20.00     0.090 C 
BRANCH   4   5
HETATM    5  C3  UNL     1     -32.512   6.889   2.844  1.00 20.00     0.127 C 
HETATM    6  O9  UNL     1     -32.206   7.470   3.884  1.00 20.00    -0.298 OA
BRANCH   5   7
HETATM    7  C7  UNL     1     -32.181   7.457   1.472  1.00 20.00     0.078 C 
BRANCH   7   8
HETATM    8  C8  UNL     1     -32.988   8.711   1.146  1.00 20.00     0.003 C 
HETATM    9  C4  UNL     1     -33.424   8.731  -0.309  1.00 20.00     0.005 C 
ENDBRANCH   7   8
ENDBRANCH   5   7
ENDBRANCH   4   5
ENDBRANCH   3   4
TORSDOF 4
ENDMDL
MODEL 5
REMARK VINA RESULT:      -4.4      1.800      2.128
REMARK  4 active torsions:
REMARK  status: ('A' for Active; 'I' for Inactive)
REMARK    1  A    between atoms: C3_3  and  C6_6 
REMARK    2  A    between atoms: C3_3  and  C7_7 
REMARK    3  A    between atoms: C5_5  and  C6_6 
REMARK    4  A    between atoms: C7_7  and  C8_8 
ROOT
HETATM    1  C1  UNL     1     -32.949   9.151   0.494  1.00 20.00     0.012 C 
HETATM    2  C2  UNL     1     -32.771   8.161   1.151  1.00 20.00    -0.117 C 
HETATM    3  C5  UNL     1     -32.555   6.948   1.954  1.00 20.00     0.100 C 
ENDROOT
BRANCH   3   4
HETATM    4  C6  UNL     1     -32.215   7.279   3.405  1.00 20.00     0.090 C 
BRANCH   4   5
HETATM    5  C3  UNL     1     -33.313   6.910   4.396  1.00 20.00     0.127 C 
HETATM    6  O9  UNL     1     -33.290   7.273   5.570  1.00 20.00    -0.298 OA
BRANCH   5   7
HETATM    7  C7  UNL     1     -34.453   6.078   3.826  1.00 20.00     0.078 C 
BRANCH   7   8
HETATM    8  C8  UNL     1     -34.663   4.773   4.589  1.00 20.00     0.003 C 
HETATM    9  C4  UNL     1     -34.853   5.021   6.076  1.00 20.00     0.005 C 
ENDBRANCH   7   8
ENDBRANCH   5   7
ENDBRANCH   4   5
ENDBRANCH   3   4
TORSDOF 4
ENDMDL
MODEL 6
REMARK VINA RESULT:      -4.2     11.465     12.186
REMARK  4 active torsions:
REMARK  status: ('A' for Active; 'I' for Inactive)
REMARK    1  A    between atoms: C3_3  and  C6_6 
REMARK    2  A    between atoms: C3_3  and  C7_7 
REMARK    3  A    between atoms: C5_5  and  C6_6 
REMARK    4  A    between atoms: C7_7  and  C8_8 
ROOT
HETATM    1  C1  UNL     1     -34.786  16.292  -1.851  1.00 20.00     0.012 C 
HETATM    2  C2  UNL     1     -34.375  15.691  -2.806  1.00 20.00    -0.117 C 
HETATM    3  C5  UNL     1     -33.870  14.955  -3.975  1.00 20.00     0.100 C 
ENDROOT
BRANCH   3   4
HETATM    4  C6  UNL     1     -34.957  14.740  -5.026  1.00 20.00     0.090 C 
BRANCH   4   5
HETATM    5  C3  UNL     1     -36.047  13.767  -4.594  1.00 20.00     0.127 C 
HETATM    6  O9  UNL     1     -35.834  12.566  -4.439  1.00 20.00    -0.298 OA
BRANCH   5   7
HETATM    7  C7  UNL     1     -37.414  14.387  -4.345  1.00 20.00     0.078 C 
BRANCH   7   8
HETATM    8  C8  UNL     1     -37.524  15.804  -4.900  1.00 20.00     0.003 C 
HETATM    9  C4  UNL     1     -37.959  16.791  -3.829  1.00 20.00     0.005 C 
ENDBRANCH   7   8
ENDBRANCH   5   7
ENDBRANCH   4   5
ENDBRANCH   3   4
TORSDOF 4
ENDMDL
MODEL 7
REMARK VINA RESULT:      -4.2     11.197     12.670
REMARK  4 active torsions:
REMARK  status: ('A' for Active; 'I' for Inactive)
REMARK    1  A    between atoms: C3_3  and  C6_6 
REMARK    2  A    between atoms: C3_3  and  C7_7 
REMARK    3  A    between atoms: C5_5  and  C6_6 
REMARK    4  A    between atoms: C7_7  and  C8_8 
ROOT
HETATM    1  C1  UNL     1     -35.164  16.521  -1.478  1.00 20.00     0.012 C 
HETATM    2  C2  UNL     1     -34.717  15.898  -2.403  1.00 20.00    -0.117 C 
HETATM    3  C5  UNL     1     -34.170  15.137  -3.537  1.00 20.00     0.100 C 
ENDROOT
BRANCH   3   4
HETATM    4  C6  UNL     1     -35.012  13.903  -3.854  1.00 20.00     0.090 C 
BRANCH   4   5
HETATM    5  C3  UNL     1     -36.265  14.205  -4.666  1.00 20.00     0.127 C 
HETATM    6  O9  UNL     1     -37.318  13.591  -4.505  1.00 20.00    -0.298 OA
BRANCH   5   7
HETATM    7  C7  UNL     1     -36.132  15.334  -5.677  1.00 20.00     0.078 C 
BRANCH   7   8
HETATM    8  C8  UNL     1     -35.614  14.853  -7.029  1.00 20.00     0.003 C 
HETATM    9  C4  UNL     1     -34.163  15.251  -7.244  1.00 20.00     0.005 C 
ENDBRANCH   7   8
ENDBRANCH   5   7
ENDBRANCH   4   5
ENDBRANCH   3   4
TORSDOF 4
ENDMDL
MODEL 8
REMARK VINA RESULT:      -4.0     15.929     17.233
REMARK  4 active torsions:
REMARK  status: ('A' for Active; 'I' for Inactive)
REMARK    1  A    between atoms: C3_3  and  C6_6 
REMARK    2  A    between atoms: C3_3  and  C7_7 
REMARK    3  A    between atoms: C5_5  and  C6_6 
REMARK    4  A    between atoms: C7_7  and  C8_8 
ROOT
HETATM    1  C1  UNL     1     -24.750  15.737  11.738  1.00 20.00     0.012 C 
HETATM    2  C2  UNL     1     -23.946  16.622  11.854  1.00 20.00    -0.117 C 
HETATM    3  C5  UNL     1     -22.963  17.708  11.997  1.00 20.00     0.100 C 
ENDROOT
BRANCH   3   4
HETATM    4  C6  UNL     1     -21.915  17.676  10.887  1.00 20.00     0.090 C 
BRANCH   4   5
HETATM    5  C3  UNL     1     -22.506  17.632   9.482  1.00 20.00     0.127 C 
HETATM    6  O9  UNL     1     -22.447  16.628   8.775  1.00 20.00    -0.298 OA
BRANCH   5   7
HETATM    7  C7  UNL     1     -23.194  18.908   9.023  1.00 20.00     0.078 C 
BRANCH   7   8
HETATM    8  C8  UNL     1     -24.666  18.691   8.685  1.00 20.00     0.003 C 
HETATM    9  C4  UNL     1     -25.576  19.262   9.761  1.00 20.00     0.005 C 
ENDBRANCH   7   8
ENDBRANCH   5   7
ENDBRANCH   4   5
ENDBRANCH   3   4
TORSDOF 4
ENDMDL
MODEL 9
REMARK VINA RESULT:      -4.0     12.059     12.645
REMARK  4 active torsions:
REMARK  status: ('A' for Active; 'I' for Inactive)
REMARK    1  A    between atoms: C3_3  and  C6_6 
REMARK    2  A    between atoms: C3_3  and  C7_7 
REMARK    3  A    between atoms: C5_5  and  C6_6 
REMARK    4  A    between atoms: C7_7  and  C8_8 
ROOT
HETATM    1  C1  UNL     1     -35.079  16.236  -1.782  1.00 20.00     0.012 C 
HETATM    2  C2  UNL     1     -34.207  16.009  -2.577  1.00 20.00    -0.117 C 
HETATM    3  C5  UNL     1     -33.139  15.734  -3.550  1.00 20.00     0.100 C 
ENDROOT
BRANCH   3   4
HETATM    4  C6  UNL     1     -33.564  14.692  -4.582  1.00 20.00     0.090 C 
BRANCH   4   5
HETATM    5  C3  UNL     1     -34.483  15.240  -5.668  1.00 20.00     0.127 C 
HETATM    6  O9  UNL     1     -34.234  16.278  -6.279  1.00 20.00    -0.298 OA
BRANCH   5   7
HETATM    7  C7  UNL     1     -35.718  14.402  -5.962  1.00 20.00     0.078 C 
BRANCH   7   8
HETATM    8  C8  UNL     1     -36.331  13.800  -4.700  1.00 20.00     0.003 C 
HETATM    9  C4  UNL     1     -37.543  14.591  -4.237  1.00 20.00     0.005 C 
ENDBRANCH   7   8
ENDBRANCH   5   7
ENDBRANCH   4   5
ENDBRANCH   3   4
TORSDOF 4
ENDMDL
