MODEL 1
REMARK VINA RESULT:      -4.8      0.000      0.000
REMARK  3 active torsions:
REMARK  status: ('A' for Active; 'I' for Inactive)
REMARK    1  A    between atoms: C2_2  and  C5_5 
REMARK    2  A    between atoms: C2_2  and  C7_7 
REMARK    3  A    between atoms: C5_5  and  C6_6 
ROOT
HETATM    1  C1  UNL     1     -33.891   6.638   5.206  1.00 20.00     0.071 C 
HETATM    2  C4  UNL     1     -34.810   4.551   4.270  1.00 20.00     0.033 C 
HETATM    3  C7  UNL     1     -34.341   5.970   3.973  1.00 20.00     0.158 C 
HETATM    4  N8  UNL     1     -33.539   7.167   6.177  1.00 20.00    -0.196 NA
ENDROOT
BRANCH   3   5
HETATM    5  C2  UNL     1     -33.225   5.929   2.934  1.00 20.00     0.144 C 
HETATM    6  O9  UNL     1     -32.892   4.884   2.378  1.00 20.00    -0.297 OA
BRANCH   5   7
HETATM    7  C5  UNL     1     -32.539   7.256   2.637  1.00 20.00     0.079 C 
BRANCH   7   8
HETATM    8  C6  UNL     1     -32.463   7.590   1.149  1.00 20.00     0.003 C 
HETATM    9  C3  UNL     1     -32.925   9.009   0.846  1.00 20.00     0.005 C 
ENDBRANCH   7   8
ENDBRANCH   5   7
ENDBRANCH   3   5
TORSDOF 3
ENDMDL
MODEL 2
REMARK VINA RESULT:      -4.6      1.399      1.701
REMARK  3 active torsions:
REMARK  status: ('A' for Active; 'I' for Inactive)
REMARK    1  A    between atoms: C2_2  and  C5_5 
REMARK    2  A    between atoms: C2_2  and  C7_7 
REMARK    3  A    between atoms: C5_5  and  C6_6 
ROOT
HETATM    1  C1  UNL     1     -34.081   6.193   4.575  1.00 20.00     0.071 C 
HETATM    2  C4  UNL     1     -33.323   4.805   2.685  1.00 20.00     0.033 C 
HETATM    3  C7  UNL     1     -33.680   6.208   3.159  1.00 20.00     0.158 C 
HETATM    4  N8  UNL     1     -34.401   6.182   5.691  1.00 20.00    -0.196 NA
ENDROOT
BRANCH   3   5
HETATM    5  C2  UNL     1     -32.491   7.137   2.936  1.00 20.00     0.144 C 
HETATM    6  O9  UNL     1     -31.806   7.551   3.871  1.00 20.00    -0.297 OA
BRANCH   5   7
HETATM    7  C5  UNL     1     -32.211   7.531   1.492  1.00 20.00     0.079 C 
BRANCH   7   8
HETATM    8  C6  UNL     1     -32.902   8.822   1.061  1.00 20.00     0.003 C 
HETATM    9  C3  UNL     1     -33.439   8.749  -0.361  1.00 20.00     0.005 C 
ENDBRANCH   7   8
ENDBRANCH   5   7
ENDBRANCH   3   5
TORSDOF 3
ENDMDL
MODEL 3
REMARK VINA RESULT:      -4.5     10.982     11.645
REMARK  3 active torsions:
REMARK  status: ('A' for Active; 'I' for Inactive)
REMARK    1  A    between atoms: C2_2  and  C5_5 
REMARK    2  A    between atoms: C2_2  and  C7_7 
REMARK    3  A    between atoms: C5_5  and  C6_6 
ROOT
HETATM    1  C1  UNL     1     -37.083  14.375  -4.620  1.00 20.00     0.071 C 
HETATM    2  C4  UNL     1     -35.557  14.684  -6.532  1.00 20.00     0.033 C 
HETATM    3  C7  UNL     1     -35.765  14.883  -5.035  1.00 20.00     0.158 C 
HETATM    4  N8  UNL     1     -38.123  13.977  -4.292  1.00 20.00    -0.196 NA
ENDROOT
BRANCH   3   5
HETATM    5  C2  UNL     1     -34.644  14.186  -4.270  1.00 20.00     0.144 C 
HETATM    6  O9  UNL     1     -34.696  12.990  -3.988  1.00 20.00    -0.297 OA
BRANCH   5   7
HETATM    7  C5  UNL     1     -33.465  15.061  -3.866  1.00 20.00     0.079 C 
BRANCH   7   8
HETATM    8  C6  UNL     1     -33.870  16.344  -3.143  1.00 20.00     0.003 C 
HETATM    9  C3  UNL     1     -34.817  16.084  -1.981  1.00 20.00     0.005 C 
ENDBRANCH   7   8
ENDBRANCH   5   7
ENDBRANCH   3   5
TORSDOF 3
ENDMDL
MODEL 4
REMARK VINA RESULT:      -4.3      2.503      4.216
REMARK  3 active torsions:
REMARK  status: ('A' for Active; 'I' for Inactive)
REMARK    1  A    between atoms: C2_2  and  C5_5 
REMARK    2  A    between atoms: C2_2  and  C7_7 
REMARK    3  A    between atoms: C5_5  and  C6_6 
ROOT
HETATM    1  C1  UNL     1     -32.584   7.601   1.514  1.00 20.00     0.071 C 
HETATM    2  C4  UNL     1     -33.219   5.363   2.329  1.00 20.00     0.033 C 
HETATM    3  C7  UNL     1     -32.383   6.611   2.584  1.00 20.00     0.158 C 
HETATM    4  N8  UNL     1     -32.740   8.382   0.669  1.00 20.00    -0.196 NA
ENDROOT
BRANCH   3   5
HETATM    5  C2  UNL     1     -32.746   7.196   3.946  1.00 20.00     0.144 C 
HETATM    6  O9  UNL     1     -31.965   7.906   4.577  1.00 20.00    -0.297 OA
BRANCH   5   7
HETATM    7  C5  UNL     1     -34.125   6.836   4.482  1.00 20.00     0.079 C 
BRANCH   7   8
HETATM    8  C6  UNL     1     -34.118   6.365   5.935  1.00 20.00     0.003 C 
HETATM    9  C3  UNL     1     -34.765   4.999   6.108  1.00 20.00     0.005 C 
ENDBRANCH   7   8
ENDBRANCH   5   7
ENDBRANCH   3   5
TORSDOF 3
ENDMDL
MODEL 5
REMARK VINA RESULT:      -4.2      2.098      4.042
REMARK  3 active torsions:
REMARK  status: ('A' for Active; 'I' for Inactive)
REMARK    1  A    between atoms: C2_2  and  C5_5 
REMARK    2  A    between atoms: C2_2  and  C7_7 
REMARK    3  A    between atoms: C5_5  and  C6_6 
ROOT
HETATM    1  C1  UNL     1     -32.763   7.765   1.591  1.00 20.00     0.071 C 
HETATM    2  C4  UNL     1     -31.744   7.405   3.807  1.00 20.00     0.033 C 
HETATM    3  C7  UNL     1     -33.004   7.279   2.960  1.00 20.00     0.158 C 
HETATM    4  N8  UNL     1     -32.575   8.152   0.513  1.00 20.00    -0.196 NA
ENDROOT
BRANCH   3   5
HETATM    5  C2  UNL     1     -33.465   5.825   2.950  1.00 20.00     0.144 C 
HETATM    6  O9  UNL     1     -32.802   4.936   2.418  1.00 20.00    -0.297 OA
BRANCH   5   7
HETATM    7  C5  UNL     1     -34.801   5.542   3.625  1.00 20.00     0.079 C 
BRANCH   7   8
HETATM    8  C6  UNL     1     -34.670   4.931   5.018  1.00 20.00     0.003 C 
HETATM    9  C3  UNL     1     -34.457   5.981   6.098  1.00 20.00     0.005 C 
ENDBRANCH   7   8
ENDBRANCH   5   7
ENDBRANCH   3   5
TORSDOF 3
ENDMDL
MODEL 6
REMARK VINA RESULT:      -4.1     11.215     11.829
REMARK  3 active torsions:
REMARK  status: ('A' for Active; 'I' for Inactive)
REMARK    1  A    between atoms: C2_2  and  C5_5 
REMARK    2  A    between atoms: C2_2  and  C7_7 
REMARK    3  A    between atoms: C5_5  and  C6_6 
ROOT
HETATM    1  C1  UNL     1     -36.272  14.238  -4.777  1.00 20.00     0.071 C 
HETATM    2  C4  UNL     1     -34.795  14.938  -6.622  1.00 20.00     0.033 C 
HETATM    3  C7  UNL     1     -35.102  15.057  -5.134  1.00 20.00     0.158 C 
HETATM    4  N8  UNL     1     -37.197  13.596  -4.495  1.00 20.00    -0.196 NA
ENDROOT
BRANCH   3   5
HETATM    5  C2  UNL     1     -33.876  14.640  -4.328  1.00 20.00     0.144 C 
HETATM    6  O9  UNL     1     -33.412  13.502  -4.393  1.00 20.00    -0.297 OA
BRANCH   5   7
HETATM    7  C5  UNL     1     -33.271  15.710  -3.429  1.00 20.00     0.079 C 
BRANCH   7   8
HETATM    8  C6  UNL     1     -34.204  16.179  -2.316  1.00 20.00     0.003 C 
HETATM    9  C3  UNL     1     -34.483  17.674  -2.380  1.00 20.00     0.005 C 
ENDBRANCH   7   8
ENDBRANCH   5   7
ENDBRANCH   3   5
TORSDOF 3
ENDMDL
MODEL 7
REMARK VINA RESULT:      -4.1     11.504     12.220
REMARK  3 active torsions:
REMARK  status: ('A' for Active; 'I' for Inactive)
REMARK    1  A    between atoms: C2_2  and  C5_5 
REMARK    2  A    between atoms: C2_2  and  C7_7 
REMARK    3  A    between atoms: C5_5  and  C6_6 
ROOT
HETATM    1  C1  UNL     1     -36.804  14.620  -4.562  1.00 20.00     0.071 C 
HETATM    2  C4  UNL     1     -36.161  16.576  -5.919  1.00 20.00     0.033 C 
HETATM    3  C7  UNL     1     -35.798  15.680  -4.740  1.00 20.00     0.158 C 
HETATM    4  N8  UNL     1     -37.599  13.786  -4.419  1.00 20.00    -0.196 NA
ENDROOT
BRANCH   3   5
HETATM    5  C2  UNL     1     -34.411  15.086  -4.963  1.00 20.00     0.144 C 
HETATM    6  O9  UNL     1     -34.131  14.453  -5.981  1.00 20.00    -0.297 OA
BRANCH   5   7
HETATM    7  C5  UNL     1     -33.400  15.309  -3.847  1.00 20.00     0.079 C 
BRANCH   7   8
HETATM    8  C6  UNL     1     -33.989  15.979  -2.607  1.00 20.00     0.003 C 
HETATM    9  C3  UNL     1     -33.190  17.197  -2.167  1.00 20.00     0.005 C 
ENDBRANCH   7   8
ENDBRANCH   5   7
ENDBRANCH   3   5
TORSDOF 3
ENDMDL
MODEL 8
REMARK VINA RESULT:      -4.1     11.116     11.792
REMARK  3 active torsions:
REMARK  status: ('A' for Active; 'I' for Inactive)
REMARK    1  A    between atoms: C2_2  and  C5_5 
REMARK    2  A    between atoms: C2_2  and  C7_7 
REMARK    3  A    between atoms: C5_5  and  C6_6 
ROOT
HETATM    1  C1  UNL     1     -36.009  14.354  -6.152  1.00 20.00     0.071 C 
HETATM    2  C4  UNL     1     -37.289  14.755  -4.084  1.00 20.00     0.033 C 
HETATM    3  C7  UNL     1     -36.214  13.914  -4.763  1.00 20.00     0.158 C 
HETATM    4  N8  UNL     1     -35.849  14.698  -7.249  1.00 20.00    -0.196 NA
ENDROOT
BRANCH   3   5
HETATM    5  C2  UNL     1     -34.919  14.005  -3.963  1.00 20.00     0.144 C 
HETATM    6  O9  UNL     1     -34.080  13.104  -3.980  1.00 20.00    -0.297 OA
BRANCH   5   7
HETATM    7  C5  UNL     1     -34.731  15.269  -3.134  1.00 20.00     0.079 C 
BRANCH   7   8
HETATM    8  C6  UNL     1     -33.364  15.926  -3.314  1.00 20.00     0.003 C 
HETATM    9  C3  UNL     1     -33.142  17.083  -2.351  1.00 20.00     0.005 C 
ENDBRANCH   7   8
ENDBRANCH   5   7
ENDBRANCH   3   5
TORSDOF 3
ENDMDL
MODEL 9
REMARK VINA RESULT:      -4.0     11.230     12.395
REMARK  3 active torsions:
REMARK  status: ('A' for Active; 'I' for Inactive)
REMARK    1  A    between atoms: C2_2  and  C5_5 
REMARK    2  A    between atoms: C2_2  and  C7_7 
REMARK    3  A    between atoms: C5_5  and  C6_6 
ROOT
HETATM    1  C1  UNL     1     -34.744  14.876  -6.497  1.00 20.00     0.071 C 
HETATM    2  C4  UNL     1     -36.644  16.323  -5.886  1.00 20.00     0.033 C 
HETATM    3  C7  UNL     1     -36.131  14.893  -6.004  1.00 20.00     0.158 C 
HETATM    4  N8  UNL     1     -33.651  14.862  -6.889  1.00 20.00    -0.196 NA
ENDROOT
BRANCH   3   5
HETATM    5  C2  UNL     1     -36.238  14.203  -4.648  1.00 20.00     0.144 C 
HETATM    6  O9  UNL     1     -37.293  13.709  -4.251  1.00 20.00    -0.297 OA
BRANCH   5   7
HETATM    7  C5  UNL     1     -34.966  14.173  -3.810  1.00 20.00     0.079 C 
BRANCH   7   8
HETATM    8  C6  UNL     1     -34.812  15.375  -2.881  1.00 20.00     0.003 C 
HETATM    9  C3  UNL     1     -33.490  16.101  -3.081  1.00 20.00     0.005 C 
ENDBRANCH   7   8
ENDBRANCH   5   7
ENDBRANCH   3   5
TORSDOF 3
ENDMDL
