MODEL 1
REMARK VINA RESULT:      -4.9      0.000      0.000
REMARK  2 active torsions:
REMARK  status: ('A' for Active; 'I' for Inactive)
REMARK    1  A    between atoms: C1_1  and  C3_3 
REMARK    2  A    between atoms: C7_7  and  C9_9 
ROOT
HETATM    1  C1  UNL     1     -32.977  17.921  -1.303  1.00 20.00    -0.002 C 
HETATM    2  C2  UNL     1     -34.002  17.860  -0.435  1.00 20.00     0.021 C 
HETATM    3  C4  UNL     1     -32.929  17.095  -2.563  1.00 20.00     0.047 C 
HETATM    4  C5  UNL     1     -35.208  16.987  -0.658  1.00 20.00     0.052 C 
HETATM    5  C6  UNL     1     -35.307  16.432  -2.082  1.00 20.00     0.010 C 
HETATM    6  C7  UNL     1     -33.943  15.939  -2.574  1.00 20.00    -0.010 C 
HETATM    7 CL11 UNL     1     -34.075  18.776   1.036  1.00 20.00    -0.088 Cl
ENDROOT
BRANCH   1   8
HETATM    8  C3  UNL     1     -31.811  18.794  -1.082  1.00 20.00     0.267 C 
HETATM    9  O10 UNL     1     -30.740  18.363  -0.684  1.00 20.00    -0.302 OA
ENDBRANCH   1   8
BRANCH   6  10
HETATM   10  C9  UNL     1     -34.050  15.324  -3.967  1.00 20.00     0.000 C 
HETATM   11  C8  UNL     1     -34.864  14.071  -3.955  1.00 20.00     0.005 C 
ENDBRANCH   6  10
TORSDOF 2
ENDMDL
MODEL 2
REMARK VINA RESULT:      -4.7      4.045      5.589
REMARK  2 active torsions:
REMARK  status: ('A' for Active; 'I' for Inactive)
REMARK    1  A    between atoms: C1_1  and  C3_3 
REMARK    2  A    between atoms: C7_7  and  C9_9 
ROOT
HETATM    1  C1  UNL     1     -35.482  14.846  -4.506  1.00 20.00    -0.002 C 
HETATM    2  C2  UNL     1     -35.150  15.489  -5.639  1.00 20.00     0.021 C 
HETATM    3  C4  UNL     1     -35.062  15.333  -3.143  1.00 20.00     0.047 C 
HETATM    4  C5  UNL     1     -34.356  16.769  -5.648  1.00 20.00     0.052 C 
HETATM    5  C6  UNL     1     -34.238  17.426  -4.270  1.00 20.00     0.010 C 
HETATM    6  C7  UNL     1     -33.939  16.383  -3.190  1.00 20.00    -0.010 C 
HETATM    7 CL11 UNL     1     -35.596  14.942  -7.223  1.00 20.00    -0.088 Cl
ENDROOT
BRANCH   1   8
HETATM    8  C3  UNL     1     -36.277  13.606  -4.510  1.00 20.00     0.267 C 
HETATM    9  O10 UNL     1     -35.761  12.501  -4.446  1.00 20.00    -0.302 OA
ENDBRANCH   1   8
BRANCH   6  10
HETATM   10  C9  UNL     1     -33.754  17.042  -1.824  1.00 20.00     0.000 C 
HETATM   11  C8  UNL     1     -35.007  16.986  -1.012  1.00 20.00     0.005 C 
ENDBRANCH   6  10
TORSDOF 2
ENDMDL
MODEL 3
REMARK VINA RESULT:      -4.6      3.000      4.438
REMARK  2 active torsions:
REMARK  status: ('A' for Active; 'I' for Inactive)
REMARK    1  A    between atoms: C1_1  and  C3_3 
REMARK    2  A    between atoms: C7_7  and  C9_9 
ROOT
HETATM    1  C1  UNL     1     -33.927  15.486  -3.577  1.00 20.00    -0.002 C 
HETATM    2  C2  UNL     1     -35.203  15.554  -3.156  1.00 20.00     0.021 C 
HETATM    3  C4  UNL     1     -32.836  16.355  -3.006  1.00 20.00     0.047 C 
HETATM    4  C5  UNL     1     -35.650  16.480  -2.056  1.00 20.00     0.052 C 
HETATM    5  C6  UNL     1     -34.492  17.091  -1.262  1.00 20.00     0.010 C 
HETATM    6  C7  UNL     1     -33.368  17.549  -2.196  1.00 20.00    -0.010 C 
HETATM    7 CL11 UNL     1     -36.486  14.588  -3.810  1.00 20.00    -0.088 Cl
ENDROOT
BRANCH   1   8
HETATM    8  C3  UNL     1     -33.499  14.561  -4.640  1.00 20.00     0.267 C 
HETATM    9  O10 UNL     1     -33.117  13.426  -4.402  1.00 20.00    -0.302 OA
ENDBRANCH   1   8
BRANCH   6  10
HETATM   10  C9  UNL     1     -32.241  18.219  -1.413  1.00 20.00     0.000 C 
HETATM   11  C8  UNL     1     -32.643  18.503  -0.002  1.00 20.00     0.005 C 
ENDBRANCH   6  10
TORSDOF 2
ENDMDL
MODEL 4
REMARK VINA RESULT:      -4.6      3.799      5.409
REMARK  2 active torsions:
REMARK  status: ('A' for Active; 'I' for Inactive)
REMARK    1  A    between atoms: C1_1  and  C3_3 
REMARK    2  A    between atoms: C7_7  and  C9_9 
ROOT
HETATM    1  C1  UNL     1     -35.298  14.901  -4.138  1.00 20.00    -0.002 C 
HETATM    2  C2  UNL     1     -34.218  15.382  -4.778  1.00 20.00     0.021 C 
HETATM    3  C4  UNL     1     -35.722  15.391  -2.777  1.00 20.00     0.047 C 
HETATM    4  C5  UNL     1     -33.353  16.475  -4.208  1.00 20.00     0.052 C 
HETATM    5  C6  UNL     1     -33.983  17.193  -3.011  1.00 20.00     0.010 C 
HETATM    6  C7  UNL     1     -34.629  16.192  -2.049  1.00 20.00    -0.010 C 
HETATM    7 CL11 UNL     1     -33.689  14.822  -6.331  1.00 20.00    -0.088 Cl
ENDROOT
BRANCH   1   8
HETATM    8  C3  UNL     1     -36.148  13.845  -4.715  1.00 20.00     0.267 C 
HETATM    9  O10 UNL     1     -35.911  12.658  -4.556  1.00 20.00    -0.302 OA
ENDBRANCH   1   8
BRANCH   6  10
HETATM   10  C9  UNL     1     -35.200  16.898  -0.821  1.00 20.00     0.000 C 
HETATM   11  C8  UNL     1     -34.247  17.913  -0.277  1.00 20.00     0.005 C 
ENDBRANCH   6  10
TORSDOF 2
ENDMDL
MODEL 5
REMARK VINA RESULT:      -4.4      3.728      5.176
REMARK  2 active torsions:
REMARK  status: ('A' for Active; 'I' for Inactive)
REMARK    1  A    between atoms: C1_1  and  C3_3 
REMARK    2  A    between atoms: C7_7  and  C9_9 
ROOT
HETATM    1  C1  UNL     1     -36.084  14.846  -4.046  1.00 20.00    -0.002 C 
HETATM    2  C2  UNL     1     -37.080  15.733  -3.878  1.00 20.00     0.021 C 
HETATM    3  C4  UNL     1     -34.677  15.105  -3.572  1.00 20.00     0.047 C 
HETATM    4  C5  UNL     1     -36.889  17.049  -3.173  1.00 20.00     0.052 C 
HETATM    5  C6  UNL     1     -35.569  17.146  -2.403  1.00 20.00     0.010 C 
HETATM    6  C7  UNL     1     -34.411  16.581  -3.229  1.00 20.00    -0.010 C 
HETATM    7 CL11 UNL     1     -38.703  15.476  -4.435  1.00 20.00    -0.088 Cl
ENDROOT
BRANCH   1   8
HETATM    8  C3  UNL     1     -36.288  13.552  -4.720  1.00 20.00     0.267 C 
HETATM    9  O10 UNL     1     -35.699  12.539  -4.379  1.00 20.00    -0.302 OA
ENDBRANCH   1   8
BRANCH   6  10
HETATM   10  C9  UNL     1     -33.082  16.736  -2.492  1.00 20.00     0.000 C 
HETATM   11  C8  UNL     1     -33.167  17.769  -1.416  1.00 20.00     0.005 C 
ENDBRANCH   6  10
TORSDOF 2
ENDMDL
MODEL 6
REMARK VINA RESULT:      -4.3      1.977      2.804
REMARK  2 active torsions:
REMARK  status: ('A' for Active; 'I' for Inactive)
REMARK    1  A    between atoms: C1_1  and  C3_3 
REMARK    2  A    between atoms: C7_7  and  C9_9 
ROOT
HETATM    1  C1  UNL     1     -34.831  16.974  -1.438  1.00 20.00    -0.002 C 
HETATM    2  C2  UNL     1     -33.741  17.690  -1.768  1.00 20.00     0.021 C 
HETATM    3  C4  UNL     1     -35.242  15.730  -2.184  1.00 20.00     0.047 C 
HETATM    4  C5  UNL     1     -32.816  17.297  -2.889  1.00 20.00     0.052 C 
HETATM    5  C6  UNL     1     -33.044  15.871  -3.400  1.00 20.00     0.010 C 
HETATM    6  C7  UNL     1     -34.539  15.573  -3.543  1.00 20.00    -0.010 C 
HETATM    7 CL11 UNL     1     -33.257  19.139  -0.947  1.00 20.00    -0.088 Cl
ENDROOT
BRANCH   1   8
HETATM    8  C3  UNL     1     -35.718  17.358  -0.327  1.00 20.00     0.267 C 
HETATM    9  O10 UNL     1     -35.520  16.991   0.821  1.00 20.00    -0.302 OA
ENDBRANCH   1   8
BRANCH   6  10
HETATM   10  C9  UNL     1     -34.769  14.176  -4.116  1.00 20.00     0.000 C 
HETATM   11  C8  UNL     1     -36.217  13.921  -4.381  1.00 20.00     0.005 C 
ENDBRANCH   6  10
TORSDOF 2
ENDMDL
MODEL 7
REMARK VINA RESULT:      -4.3      3.615      5.063
REMARK  2 active torsions:
REMARK  status: ('A' for Active; 'I' for Inactive)
REMARK    1  A    between atoms: C1_1  and  C3_3 
REMARK    2  A    between atoms: C7_7  and  C9_9 
ROOT
HETATM    1  C1  UNL     1     -35.112  15.048  -3.757  1.00 20.00    -0.002 C 
HETATM    2  C2  UNL     1     -33.776  15.193  -3.728  1.00 20.00     0.021 C 
HETATM    3  C4  UNL     1     -36.040  15.895  -2.924  1.00 20.00     0.047 C 
HETATM    4  C5  UNL     1     -33.087  16.235  -2.888  1.00 20.00     0.052 C 
HETATM    5  C6  UNL     1     -34.038  17.297  -2.329  1.00 20.00     0.010 C 
HETATM    6  C7  UNL     1     -35.323  16.656  -1.797  1.00 20.00    -0.010 C 
HETATM    7 CL11 UNL     1     -32.681  14.217  -4.653  1.00 20.00    -0.088 Cl
ENDROOT
BRANCH   1   8
HETATM    8  C3  UNL     1     -35.775  14.037  -4.599  1.00 20.00     0.267 C 
HETATM    9  O10 UNL     1     -35.755  12.847  -4.326  1.00 20.00    -0.302 OA
ENDBRANCH   1   8
BRANCH   6  10
HETATM   10  C9  UNL     1     -36.245  17.705  -1.177  1.00 20.00     0.000 C 
HETATM   11  C8  UNL     1     -37.460  17.935  -2.017  1.00 20.00     0.005 C 
ENDBRANCH   6  10
TORSDOF 2
ENDMDL
MODEL 8
REMARK VINA RESULT:      -4.1     11.232     12.098
REMARK  2 active torsions:
REMARK  status: ('A' for Active; 'I' for Inactive)
REMARK    1  A    between atoms: C1_1  and  C3_3 
REMARK    2  A    between atoms: C7_7  and  C9_9 
ROOT
HETATM    1  C1  UNL     1     -33.904   5.873   3.805  1.00 20.00    -0.002 C 
HETATM    2  C2  UNL     1     -33.562   6.619   4.870  1.00 20.00     0.021 C 
HETATM    3  C4  UNL     1     -33.407   6.167   2.413  1.00 20.00     0.047 C 
HETATM    4  C5  UNL     1     -32.627   7.795   4.774  1.00 20.00     0.052 C 
HETATM    5  C6  UNL     1     -31.869   7.868   3.445  1.00 20.00     0.010 C 
HETATM    6  C7  UNL     1     -32.800   7.572   2.266  1.00 20.00    -0.010 C 
HETATM    7 CL11 UNL     1     -34.137   6.323   6.479  1.00 20.00    -0.088 Cl
ENDROOT
BRANCH   1   8
HETATM    8  C3  UNL     1     -34.805   4.712   3.915  1.00 20.00     0.267 C 
HETATM    9  O10 UNL     1     -34.396   3.594   4.188  1.00 20.00    -0.302 OA
ENDBRANCH   1   8
BRANCH   6  10
HETATM   10  C9  UNL     1     -32.063   7.710   0.936  1.00 20.00     0.000 C 
HETATM   11  C8  UNL     1     -32.756   8.664   0.018  1.00 20.00     0.005 C 
ENDBRANCH   6  10
TORSDOF 2
ENDMDL
MODEL 9
REMARK VINA RESULT:      -4.1      4.041      5.533
REMARK  2 active torsions:
REMARK  status: ('A' for Active; 'I' for Inactive)
REMARK    1  A    between atoms: C1_1  and  C3_3 
REMARK    2  A    between atoms: C7_7  and  C9_9 
ROOT
HETATM    1  C1  UNL     1     -36.329  15.545  -3.833  1.00 20.00    -0.002 C 
HETATM    2  C2  UNL     1     -35.422  14.821  -4.511  1.00 20.00     0.021 C 
HETATM    3  C4  UNL     1     -35.955  16.448  -2.687  1.00 20.00     0.047 C 
HETATM    4  C5  UNL     1     -33.948  14.871  -4.208  1.00 20.00     0.052 C 
HETATM    5  C6  UNL     1     -33.550  16.033  -3.293  1.00 20.00     0.010 C 
HETATM    6  C7  UNL     1     -34.543  16.185  -2.138  1.00 20.00    -0.010 C 
HETATM    7 CL11 UNL     1     -35.822  13.752  -5.817  1.00 20.00    -0.088 Cl
ENDROOT
BRANCH   1   8
HETATM    8  C3  UNL     1     -37.767  15.502  -4.153  1.00 20.00     0.267 C 
HETATM    9  O10 UNL     1     -38.450  14.510  -3.953  1.00 20.00    -0.302 OA
ENDBRANCH   1   8
BRANCH   6  10
HETATM   10  C9  UNL     1     -34.113  17.299  -1.186  1.00 20.00     0.000 C 
HETATM   11  C8  UNL     1     -32.765  17.838  -1.542  1.00 20.00     0.005 C 
ENDBRANCH   6  10
TORSDOF 2
ENDMDL
