MODEL 1
REMARK VINA RESULT:      -4.8      0.000      0.000
REMARK  2 active torsions:
REMARK  status: ('A' for Active; 'I' for Inactive)
REMARK    1  A    between atoms: C2_2  and  C4_4 
REMARK    2  A    between atoms: C2_2  and  C8_8 
ROOT
HETATM    1  C1  UNL     1     -37.287  14.395  -4.591  1.00 20.00     0.071 C 
HETATM    2  C7  UNL     1     -35.627  14.624  -6.398  1.00 20.00     0.033 C 
HETATM    3  C8  UNL     1     -35.942  14.892  -4.931  1.00 20.00     0.158 C 
HETATM    4  N9  UNL     1     -38.347  14.008  -4.322  1.00 20.00    -0.196 NA
ENDROOT
BRANCH   3   5
HETATM    5  C2  UNL     1     -34.885  14.237  -4.059  1.00 20.00     0.148 C 
HETATM    6  O10 UNL     1     -34.647  13.035  -4.045  1.00 20.00    -0.296 OA
BRANCH   5   7
HETATM    7  C4  UNL     1     -34.118  15.151  -3.161  1.00 20.00     0.061 A 
HETATM    8  C3  UNL     1     -34.874  15.996  -2.190  1.00 20.00     0.017 A 
HETATM    9  C5  UNL     1     -34.228  16.632  -3.393  1.00 20.00    -0.007 A 
HETATM   10  C6  UNL     1     -33.023  17.491  -3.230  1.00 20.00     0.011 C 
ENDBRANCH   5   7
ENDBRANCH   3   5
TORSDOF 2
ENDMDL
MODEL 2
REMARK VINA RESULT:      -4.4      2.005      2.351
REMARK  2 active torsions:
REMARK  status: ('A' for Active; 'I' for Inactive)
REMARK    1  A    between atoms: C2_2  and  C4_4 
REMARK    2  A    between atoms: C2_2  and  C8_8 
ROOT
HETATM    1  C1  UNL     1     -35.582  13.824  -4.396  1.00 20.00     0.071 C 
HETATM    2  C7  UNL     1     -33.407  14.941  -4.091  1.00 20.00     0.033 C 
HETATM    3  C8  UNL     1     -34.902  15.128  -4.322  1.00 20.00     0.158 C 
HETATM    4  N9  UNL     1     -36.120  12.797  -4.459  1.00 20.00    -0.196 NA
ENDROOT
BRANCH   3   5
HETATM    5  C2  UNL     1     -35.483  15.980  -3.206  1.00 20.00     0.148 C 
HETATM    6  O10 UNL     1     -36.605  16.473  -3.224  1.00 20.00    -0.296 OA
BRANCH   5   7
HETATM    7  C4  UNL     1     -34.588  16.225  -2.035  1.00 20.00     0.061 A 
HETATM    8  C3  UNL     1     -35.155  16.916  -0.839  1.00 20.00     0.017 A 
HETATM    9  C5  UNL     1     -34.185  17.642  -1.734  1.00 20.00    -0.007 A 
HETATM   10  C6  UNL     1     -32.801  17.925  -1.265  1.00 20.00     0.011 C 
ENDBRANCH   5   7
ENDBRANCH   3   5
TORSDOF 2
ENDMDL
MODEL 3
REMARK VINA RESULT:      -4.3      1.891      2.249
REMARK  2 active torsions:
REMARK  status: ('A' for Active; 'I' for Inactive)
REMARK    1  A    between atoms: C2_2  and  C4_4 
REMARK    2  A    between atoms: C2_2  and  C8_8 
ROOT
HETATM    1  C1  UNL     1     -36.986  14.479  -4.256  1.00 20.00     0.071 C 
HETATM    2  C7  UNL     1     -34.569  14.342  -3.797  1.00 20.00     0.033 C 
HETATM    3  C8  UNL     1     -35.746  15.260  -4.104  1.00 20.00     0.158 C 
HETATM    4  N9  UNL     1     -37.963  13.866  -4.380  1.00 20.00    -0.196 NA
ENDROOT
BRANCH   3   5
HETATM    5  C2  UNL     1     -35.886  16.289  -2.996  1.00 20.00     0.148 C 
HETATM    6  O10 UNL     1     -36.842  17.047  -2.870  1.00 20.00    -0.296 OA
BRANCH   5   7
HETATM    7  C4  UNL     1     -34.754  16.365  -2.024  1.00 20.00     0.061 A 
HETATM    8  C3  UNL     1     -34.947  17.144  -0.765  1.00 20.00     0.017 A 
HETATM    9  C5  UNL     1     -34.055  17.685  -1.851  1.00 20.00    -0.007 A 
HETATM   10  C6  UNL     1     -32.578  17.712  -1.664  1.00 20.00     0.011 C 
ENDBRANCH   5   7
ENDBRANCH   3   5
TORSDOF 2
ENDMDL
MODEL 4
REMARK VINA RESULT:      -4.2      1.512      2.110
REMARK  2 active torsions:
REMARK  status: ('A' for Active; 'I' for Inactive)
REMARK    1  A    between atoms: C2_2  and  C4_4 
REMARK    2  A    between atoms: C2_2  and  C8_8 
ROOT
HETATM    1  C1  UNL     1     -35.946  14.385  -6.386  1.00 20.00     0.071 C 
HETATM    2  C7  UNL     1     -37.098  14.445  -4.208  1.00 20.00     0.033 C 
HETATM    3  C8  UNL     1     -35.911  13.902  -4.994  1.00 20.00     0.158 C 
HETATM    4  N9  UNL     1     -35.974  14.762  -7.483  1.00 20.00    -0.196 NA
ENDROOT
BRANCH   3   5
HETATM    5  C2  UNL     1     -34.620  14.315  -4.309  1.00 20.00     0.148 C 
HETATM    6  O10 UNL     1     -33.646  13.584  -4.167  1.00 20.00    -0.296 OA
BRANCH   5   7
HETATM    7  C4  UNL     1     -34.581  15.708  -3.769  1.00 20.00     0.061 A 
HETATM    8  C3  UNL     1     -33.290  16.224  -3.226  1.00 20.00     0.017 A 
HETATM    9  C5  UNL     1     -34.418  15.890  -2.286  1.00 20.00    -0.007 A 
HETATM   10  C6  UNL     1     -35.166  16.976  -1.596  1.00 20.00     0.011 C 
ENDBRANCH   5   7
ENDBRANCH   3   5
TORSDOF 2
ENDMDL
MODEL 5
REMARK VINA RESULT:      -4.2     11.138     11.986
REMARK  2 active torsions:
REMARK  status: ('A' for Active; 'I' for Inactive)
REMARK    1  A    between atoms: C2_2  and  C4_4 
REMARK    2  A    between atoms: C2_2  and  C8_8 
ROOT
HETATM    1  C1  UNL     1     -32.620   7.656   1.484  1.00 20.00     0.071 C 
HETATM    2  C7  UNL     1     -33.394   5.468   2.310  1.00 20.00     0.033 C 
HETATM    3  C8  UNL     1     -32.427   6.626   2.520  1.00 20.00     0.158 C 
HETATM    4  N9  UNL     1     -32.768   8.467   0.668  1.00 20.00    -0.196 NA
ENDROOT
BRANCH   3   5
HETATM    5  C2  UNL     1     -32.628   7.208   3.908  1.00 20.00     0.148 C 
HETATM    6  O10 UNL     1     -31.818   7.927   4.482  1.00 20.00    -0.296 OA
BRANCH   5   7
HETATM    7  C4  UNL     1     -33.903   6.841   4.595  1.00 20.00     0.061 A 
HETATM    8  C3  UNL     1     -34.074   7.219   6.028  1.00 20.00     0.017 A 
HETATM    9  C5  UNL     1     -33.857   5.776   5.655  1.00 20.00    -0.007 A 
HETATM   10  C6  UNL     1     -34.975   4.799   5.759  1.00 20.00     0.011 C 
ENDBRANCH   5   7
ENDBRANCH   3   5
TORSDOF 2
ENDMDL
MODEL 6
REMARK VINA RESULT:      -4.2     10.975     11.873
REMARK  2 active torsions:
REMARK  status: ('A' for Active; 'I' for Inactive)
REMARK    1  A    between atoms: C2_2  and  C4_4 
REMARK    2  A    between atoms: C2_2  and  C8_8 
ROOT
HETATM    1  C1  UNL     1     -32.692   7.857   1.415  1.00 20.00     0.071 C 
HETATM    2  C7  UNL     1     -31.577   7.491   3.582  1.00 20.00     0.033 C 
HETATM    3  C8  UNL     1     -32.858   7.316   2.776  1.00 20.00     0.158 C 
HETATM    4  N9  UNL     1     -32.565   8.285   0.344  1.00 20.00    -0.196 NA
ENDROOT
BRANCH   3   5
HETATM    5  C2  UNL     1     -33.231   5.844   2.733  1.00 20.00     0.148 C 
HETATM    6  O10 UNL     1     -33.118   5.130   1.743  1.00 20.00    -0.296 OA
BRANCH   5   7
HETATM    7  C4  UNL     1     -33.785   5.271   3.996  1.00 20.00     0.061 A 
HETATM    8  C3  UNL     1     -35.262   5.079   4.103  1.00 20.00     0.017 A 
HETATM    9  C5  UNL     1     -34.589   6.172   4.891  1.00 20.00    -0.007 A 
HETATM   10  C6  UNL     1     -34.448   6.052   6.368  1.00 20.00     0.011 C 
ENDBRANCH   5   7
ENDBRANCH   3   5
TORSDOF 2
ENDMDL
MODEL 7
REMARK VINA RESULT:      -4.2      3.893      5.574
REMARK  2 active torsions:
REMARK  status: ('A' for Active; 'I' for Inactive)
REMARK    1  A    between atoms: C2_2  and  C4_4 
REMARK    2  A    between atoms: C2_2  and  C8_8 
ROOT
HETATM    1  C1  UNL     1     -31.602  18.379  -0.839  1.00 20.00     0.071 C 
HETATM    2  C7  UNL     1     -33.983  17.873  -0.455  1.00 20.00     0.033 C 
HETATM    3  C8  UNL     1     -32.958  18.478  -1.407  1.00 20.00     0.158 C 
HETATM    4  N9  UNL     1     -30.534  18.306  -0.392  1.00 20.00    -0.196 NA
ENDROOT
BRANCH   3   5
HETATM    5  C2  UNL     1     -33.037  17.771  -2.749  1.00 20.00     0.148 C 
HETATM    6  O10 UNL     1     -32.747  18.288  -3.822  1.00 20.00    -0.296 OA
BRANCH   5   7
HETATM    7  C4  UNL     1     -33.521  16.358  -2.719  1.00 20.00     0.061 A 
HETATM    8  C3  UNL     1     -33.096  15.437  -3.814  1.00 20.00     0.017 A 
HETATM    9  C5  UNL     1     -34.519  15.928  -3.758  1.00 20.00    -0.007 A 
HETATM   10  C6  UNL     1     -35.618  15.000  -3.377  1.00 20.00     0.011 C 
ENDBRANCH   5   7
ENDBRANCH   3   5
TORSDOF 2
ENDMDL
MODEL 8
REMARK VINA RESULT:      -4.2      1.407      1.807
REMARK  2 active torsions:
REMARK  status: ('A' for Active; 'I' for Inactive)
REMARK    1  A    between atoms: C2_2  and  C4_4 
REMARK    2  A    between atoms: C2_2  and  C8_8 
ROOT
HETATM    1  C1  UNL     1     -37.741  14.764  -4.379  1.00 20.00     0.071 C 
HETATM    2  C7  UNL     1     -36.985  16.997  -5.095  1.00 20.00     0.033 C 
HETATM    3  C8  UNL     1     -36.598  15.694  -4.407  1.00 20.00     0.158 C 
HETATM    4  N9  UNL     1     -38.640  14.031  -4.353  1.00 20.00    -0.196 NA
ENDROOT
BRANCH   3   5
HETATM    5  C2  UNL     1     -35.413  15.075  -5.127  1.00 20.00     0.148 C 
HETATM    6  O10 UNL     1     -35.497  14.168  -5.948  1.00 20.00    -0.296 OA
BRANCH   5   7
HETATM    7  C4  UNL     1     -34.070  15.623  -4.770  1.00 20.00     0.061 A 
HETATM    8  C3  UNL     1     -33.036  14.686  -4.241  1.00 20.00     0.017 A 
HETATM    9  C5  UNL     1     -33.690  15.680  -3.317  1.00 20.00    -0.007 A 
HETATM   10  C6  UNL     1     -32.920  16.847  -2.807  1.00 20.00     0.011 C 
ENDBRANCH   5   7
ENDBRANCH   3   5
TORSDOF 2
ENDMDL
MODEL 9
REMARK VINA RESULT:      -4.1     14.212     15.871
REMARK  2 active torsions:
REMARK  status: ('A' for Active; 'I' for Inactive)
REMARK    1  A    between atoms: C2_2  and  C4_4 
REMARK    2  A    between atoms: C2_2  and  C8_8 
ROOT
HETATM    1  C1  UNL     1     -26.368  18.603   5.106  1.00 20.00     0.071 C 
HETATM    2  C7  UNL     1     -27.273  19.248   7.305  1.00 20.00     0.033 C 
HETATM    3  C8  UNL     1     -26.180  18.489   6.562  1.00 20.00     0.158 C 
HETATM    4  N9  UNL     1     -26.517  18.688   3.958  1.00 20.00    -0.196 NA
ENDROOT
BRANCH   3   5
HETATM    5  C2  UNL     1     -24.821  19.027   6.977  1.00 20.00     0.148 C 
HETATM    6  O10 UNL     1     -23.900  19.255   6.200  1.00 20.00    -0.296 OA
BRANCH   5   7
HETATM    7  C4  UNL     1     -24.628  19.263   8.439  1.00 20.00     0.061 A 
HETATM    8  C3  UNL     1     -23.256  19.114   9.009  1.00 20.00     0.017 A 
HETATM    9  C5  UNL     1     -24.308  18.081   9.313  1.00 20.00    -0.007 A 
HETATM   10  C6  UNL     1     -24.904  17.996  10.674  1.00 20.00     0.011 C 
ENDBRANCH   5   7
ENDBRANCH   3   5
TORSDOF 2
ENDMDL
