MODEL 1
REMARK VINA RESULT:      -3.9      0.000      0.000
REMARK  3 active torsions:
REMARK  status: ('A' for Active; 'I' for Inactive)
REMARK    1  A    between atoms: C4_4  and  N9_9 
REMARK    2  A    between atoms: C6_6  and  N9_9 
REMARK    3  A    between atoms: C7_7  and  N9_9 
ROOT
HETATM    1  C1  UNL     1     -37.176  14.161  -4.639  1.00 20.00     0.089 C 
HETATM    2  C6  UNL     1     -35.793  14.270  -5.097  1.00 20.00     0.396 C 
HETATM    3  N8  UNL     1     -38.275  14.071  -4.277  1.00 20.00    -0.195 NA
ENDROOT
BRANCH   2   4
HETATM    4  N9  UNL     1     -35.185  15.514  -4.626  1.00 20.00     0.105 N 
BRANCH   4   5
HETATM    5  C4  UNL     1     -34.402  15.274  -3.414  1.00 20.00     0.224 A 
HETATM    6  C2  UNL     1     -33.426  16.306  -2.922  1.00 20.00     0.038 A 
HETATM    7  C3  UNL     1     -34.688  16.044  -2.155  1.00 20.00     0.038 A 
ENDBRANCH   4   5
BRANCH   4   8
HETATM    8  C7  UNL     1     -34.345  16.100  -5.669  1.00 20.00     0.269 C 
HETATM    9  C5  UNL     1     -33.967  15.082  -6.691  1.00 20.00     0.037 C 
ENDBRANCH   4   8
ENDBRANCH   2   4
TORSDOF 3
ENDMDL
MODEL 2
REMARK VINA RESULT:      -3.8     16.928     18.508
REMARK  3 active torsions:
REMARK  status: ('A' for Active; 'I' for Inactive)
REMARK    1  A    between atoms: C4_4  and  N9_9 
REMARK    2  A    between atoms: C6_6  and  N9_9 
REMARK    3  A    between atoms: C7_7  and  N9_9 
ROOT
HETATM    1  C1  UNL     1     -21.628  17.335   7.785  1.00 20.00     0.089 C 
HETATM    2  C6  UNL     1     -21.964  18.028   9.026  1.00 20.00     0.396 C 
HETATM    3  N8  UNL     1     -21.357  16.786   6.799  1.00 20.00    -0.195 NA
ENDROOT
BRANCH   2   4
HETATM    4  N9  UNL     1     -23.393  17.914   9.317  1.00 20.00     0.105 N 
BRANCH   4   5
HETATM    5  C4  UNL     1     -23.603  17.574  10.724  1.00 20.00     0.224 A 
HETATM    6  C2  UNL     1     -24.976  17.659  11.331  1.00 20.00     0.038 A 
HETATM    7  C3  UNL     1     -24.338  16.319  11.106  1.00 20.00     0.038 A 
ENDBRANCH   4   5
BRANCH   4   8
HETATM    8  C7  UNL     1     -24.085  19.157   8.982  1.00 20.00     0.269 C 
HETATM    9  C5  UNL     1     -24.984  18.973   7.807  1.00 20.00     0.037 C 
ENDBRANCH   4   8
ENDBRANCH   2   4
TORSDOF 3
ENDMDL
MODEL 3
REMARK VINA RESULT:      -3.7      1.219      1.377
REMARK  3 active torsions:
REMARK  status: ('A' for Active; 'I' for Inactive)
REMARK    1  A    between atoms: C4_4  and  N9_9 
REMARK    2  A    between atoms: C6_6  and  N9_9 
REMARK    3  A    between atoms: C7_7  and  N9_9 
ROOT
HETATM    1  C1  UNL     1     -36.199  13.735  -4.480  1.00 20.00     0.089 C 
HETATM    2  C6  UNL     1     -36.586  15.144  -4.457  1.00 20.00     0.396 C 
HETATM    3  N8  UNL     1     -35.895  12.615  -4.499  1.00 20.00    -0.195 NA
ENDROOT
BRANCH   2   4
HETATM    4  N9  UNL     1     -35.412  16.004  -4.320  1.00 20.00     0.105 N 
BRANCH   4   5
HETATM    5  C4  UNL     1     -34.633  15.624  -3.142  1.00 20.00     0.224 A 
HETATM    6  C2  UNL     1     -33.335  16.316  -2.831  1.00 20.00     0.038 A 
HETATM    7  C3  UNL     1     -34.534  16.548  -1.960  1.00 20.00     0.038 A 
ENDBRANCH   4   5
BRANCH   4   8
HETATM    8  C7  UNL     1     -34.584  15.937  -5.523  1.00 20.00     0.269 C 
HETATM    9  C5  UNL     1     -34.615  17.226  -6.271  1.00 20.00     0.037 C 
ENDBRANCH   4   8
ENDBRANCH   2   4
TORSDOF 3
ENDMDL
MODEL 4
REMARK VINA RESULT:      -3.7      1.113      2.908
REMARK  3 active torsions:
REMARK  status: ('A' for Active; 'I' for Inactive)
REMARK    1  A    between atoms: C4_4  and  N9_9 
REMARK    2  A    between atoms: C6_6  and  N9_9 
REMARK    3  A    between atoms: C7_7  and  N9_9 
ROOT
HETATM    1  C1  UNL     1     -37.088  14.461  -4.187  1.00 20.00     0.089 C 
HETATM    2  C6  UNL     1     -35.778  15.055  -3.936  1.00 20.00     0.396 C 
HETATM    3  N8  UNL     1     -38.131  13.990  -4.384  1.00 20.00    -0.195 NA
ENDROOT
BRANCH   2   4
HETATM    4  N9  UNL     1     -34.809  14.625  -4.943  1.00 20.00     0.105 N 
BRANCH   4   5
HETATM    5  C4  UNL     1     -34.849  15.512  -6.105  1.00 20.00     0.224 A 
HETATM    6  C2  UNL     1     -33.941  15.272  -7.279  1.00 20.00     0.038 A 
HETATM    7  C3  UNL     1     -35.416  15.033  -7.413  1.00 20.00     0.038 A 
ENDBRANCH   4   5
BRANCH   4   8
HETATM    8  C7  UNL     1     -33.462  14.588  -4.375  1.00 20.00     0.269 C 
HETATM    9  C5  UNL     1     -33.197  15.794  -3.540  1.00 20.00     0.037 C 
ENDBRANCH   4   8
ENDBRANCH   2   4
TORSDOF 3
ENDMDL
MODEL 5
REMARK VINA RESULT:      -3.7     16.745     18.618
REMARK  3 active torsions:
REMARK  status: ('A' for Active; 'I' for Inactive)
REMARK    1  A    between atoms: C4_4  and  N9_9 
REMARK    2  A    between atoms: C6_6  and  N9_9 
REMARK    3  A    between atoms: C7_7  and  N9_9 
ROOT
HETATM    1  C1  UNL     1     -24.303  18.888   7.594  1.00 20.00     0.089 C 
HETATM    2  C6  UNL     1     -24.752  18.546   8.942  1.00 20.00     0.396 C 
HETATM    3  N8  UNL     1     -23.950  19.160   6.522  1.00 20.00    -0.195 NA
ENDROOT
BRANCH   2   4
HETATM    4  N9  UNL     1     -23.623  18.147   9.781  1.00 20.00     0.105 N 
BRANCH   4   5
HETATM    5  C4  UNL     1     -24.082  17.806  11.128  1.00 20.00     0.224 A 
HETATM    6  C2  UNL     1     -23.380  16.742  11.925  1.00 20.00     0.038 A 
HETATM    7  C3  UNL     1     -23.264  18.181  12.332  1.00 20.00     0.038 A 
ENDBRANCH   4   5
BRANCH   4   8
HETATM    8  C7  UNL     1     -22.913  17.018   9.182  1.00 20.00     0.269 C 
HETATM    9  C5  UNL     1     -21.478  17.346   8.951  1.00 20.00     0.037 C 
ENDBRANCH   4   8
ENDBRANCH   2   4
TORSDOF 3
ENDMDL
MODEL 6
REMARK VINA RESULT:      -3.6     11.432     12.185
REMARK  3 active torsions:
REMARK  status: ('A' for Active; 'I' for Inactive)
REMARK    1  A    between atoms: C4_4  and  N9_9 
REMARK    2  A    between atoms: C6_6  and  N9_9 
REMARK    3  A    between atoms: C7_7  and  N9_9 
ROOT
HETATM    1  C1  UNL     1     -32.516   7.837   1.865  1.00 20.00     0.089 C 
HETATM    2  C6  UNL     1     -32.177   7.355   3.202  1.00 20.00     0.396 C 
HETATM    3  N8  UNL     1     -32.784   8.222   0.803  1.00 20.00    -0.195 NA
ENDROOT
BRANCH   2   4
HETATM    4  N9  UNL     1     -33.005   6.207   3.569  1.00 20.00     0.105 N 
BRANCH   4   5
HETATM    5  C4  UNL     1     -34.104   6.625   4.439  1.00 20.00     0.224 A 
HETATM    6  C2  UNL     1     -34.884   5.608   5.223  1.00 20.00     0.038 A 
HETATM    7  C3  UNL     1     -33.964   6.556   5.934  1.00 20.00     0.038 A 
ENDBRANCH   4   5
BRANCH   4   8
HETATM    8  C7  UNL     1     -33.523   5.547   2.372  1.00 20.00     0.269 C 
HETATM    9  C5  UNL     1     -33.073   4.128   2.302  1.00 20.00     0.037 C 
ENDBRANCH   4   8
ENDBRANCH   2   4
TORSDOF 3
ENDMDL
MODEL 7
REMARK VINA RESULT:      -3.4      1.422      1.671
REMARK  3 active torsions:
REMARK  status: ('A' for Active; 'I' for Inactive)
REMARK    1  A    between atoms: C4_4  and  N9_9 
REMARK    2  A    between atoms: C6_6  and  N9_9 
REMARK    3  A    between atoms: C7_7  and  N9_9 
ROOT
HETATM    1  C1  UNL     1     -37.229  14.679  -4.686  1.00 20.00     0.089 C 
HETATM    2  C6  UNL     1     -36.209  15.614  -5.154  1.00 20.00     0.396 C 
HETATM    3  N8  UNL     1     -38.041  13.936  -4.317  1.00 20.00    -0.195 NA
ENDROOT
BRANCH   2   4
HETATM    4  N9  UNL     1     -35.178  15.815  -4.136  1.00 20.00     0.105 N 
BRANCH   4   5
HETATM    5  C4  UNL     1     -35.763  16.377  -2.919  1.00 20.00     0.224 A 
HETATM    6  C2  UNL     1     -34.982  16.389  -1.635  1.00 20.00     0.038 A 
HETATM    7  C3  UNL     1     -35.256  17.675  -2.357  1.00 20.00     0.038 A 
ENDBRANCH   4   5
BRANCH   4   8
HETATM    8  C7  UNL     1     -34.498  14.555  -3.842  1.00 20.00     0.269 C 
HETATM    9  C5  UNL     1     -33.114  14.549  -4.395  1.00 20.00     0.037 C 
ENDBRANCH   4   8
ENDBRANCH   2   4
TORSDOF 3
ENDMDL
MODEL 8
REMARK VINA RESULT:      -3.4      1.440      2.784
REMARK  3 active torsions:
REMARK  status: ('A' for Active; 'I' for Inactive)
REMARK    1  A    between atoms: C4_4  and  N9_9 
REMARK    2  A    between atoms: C6_6  and  N9_9 
REMARK    3  A    between atoms: C7_7  and  N9_9 
ROOT
HETATM    1  C1  UNL     1     -37.508  14.861  -4.091  1.00 20.00     0.089 C 
HETATM    2  C6  UNL     1     -36.719  16.009  -3.649  1.00 20.00     0.396 C 
HETATM    3  N8  UNL     1     -38.137  13.952  -4.444  1.00 20.00    -0.195 NA
ENDROOT
BRANCH   2   4
HETATM    4  N9  UNL     1     -35.452  15.576  -3.061  1.00 20.00     0.105 N 
BRANCH   4   5
HETATM    5  C4  UNL     1     -34.362  15.732  -4.023  1.00 20.00     0.224 A 
HETATM    6  C2  UNL     1     -32.933  15.757  -3.557  1.00 20.00     0.038 A 
HETATM    7  C3  UNL     1     -33.446  14.581  -4.335  1.00 20.00     0.038 A 
ENDBRANCH   4   5
BRANCH   4   8
HETATM    8  C7  UNL     1     -35.170  16.330  -1.841  1.00 20.00     0.269 C 
HETATM    9  C5  UNL     1     -36.052  17.526  -1.731  1.00 20.00     0.037 C 
ENDBRANCH   4   8
ENDBRANCH   2   4
TORSDOF 3
ENDMDL
MODEL 9
REMARK VINA RESULT:      -3.4     17.238     18.705
REMARK  3 active torsions:
REMARK  status: ('A' for Active; 'I' for Inactive)
REMARK    1  A    between atoms: C4_4  and  N9_9 
REMARK    2  A    between atoms: C6_6  and  N9_9 
REMARK    3  A    between atoms: C7_7  and  N9_9 
ROOT
HETATM    1  C1  UNL     1     -21.710  17.423   8.408  1.00 20.00     0.089 C 
HETATM    2  C6  UNL     1     -21.825  17.811   9.811  1.00 20.00     0.396 C 
HETATM    3  N8  UNL     1     -21.616  17.114   7.293  1.00 20.00    -0.195 NA
ENDROOT
BRANCH   2   4
HETATM    4  N9  UNL     1     -23.227  17.914  10.211  1.00 20.00     0.105 N 
BRANCH   4   5
HETATM    5  C4  UNL     1     -23.920  18.915   9.399  1.00 20.00     0.224 A 
HETATM    6  C2  UNL     1     -24.996  18.500   8.435  1.00 20.00     0.038 A 
HETATM    7  C3  UNL     1     -25.356  19.263   9.676  1.00 20.00     0.038 A 
ENDBRANCH   4   5
BRANCH   4   8
HETATM    8  C7  UNL     1     -23.889  16.616  10.096  1.00 20.00     0.269 C 
HETATM    9  C5  UNL     1     -24.363  16.133  11.424  1.00 20.00     0.037 C 
ENDBRANCH   4   8
ENDBRANCH   2   4
TORSDOF 3
ENDMDL
