MODEL 1
REMARK VINA RESULT:      -4.1      0.000      0.000
REMARK  3 active torsions:
REMARK  status: ('A' for Active; 'I' for Inactive)
REMARK    1  A    between atoms: C1_1  and  C4_4 
REMARK       I    between atoms: C1_1  and  N7_7 
REMARK    2  A    between atoms: C5_5  and  C6_6 
REMARK    3  A    between atoms: C6_6  and  N7_7 
ROOT
HETATM    1  C1  UNL     1     -33.913   6.361   4.199  1.00 20.00     0.233 C 
HETATM    2  C3  UNL     1     -33.204   5.062   2.132  1.00 20.00     0.152 C 
HETATM    3  N7  UNL     1     -33.173   6.223   3.018  1.00 20.00    -0.356 N 
HETATM    4  O8  UNL     1     -33.854   7.361   4.918  1.00 20.00    -0.272 OA
ENDROOT
BRANCH   3   5
HETATM    5  C6  UNL     1     -32.289   7.302   2.594  1.00 20.00     0.125 C 
BRANCH   5   6
HETATM    6  C5  UNL     1     -32.441   7.628   1.113  1.00 20.00     0.015 C 
HETATM    7  C2  UNL     1     -32.929   9.050   0.871  1.00 20.00     0.006 C 
ENDBRANCH   5   6
ENDBRANCH   3   5
BRANCH   1   8
HETATM    8  C4  UNL     1     -34.806   5.188   4.551  1.00 20.00     0.217 C 
HETATM    9 CL9  UNL     1     -34.912   4.983   6.312  1.00 20.00    -0.121 Cl
ENDBRANCH   1   8
TORSDOF 3
ENDMDL
MODEL 2
REMARK VINA RESULT:      -3.5     11.733     12.489
REMARK  3 active torsions:
REMARK  status: ('A' for Active; 'I' for Inactive)
REMARK    1  A    between atoms: C1_1  and  C4_4 
REMARK       I    between atoms: C1_1  and  N7_7 
REMARK    2  A    between atoms: C5_5  and  C6_6 
REMARK    3  A    between atoms: C6_6  and  N7_7 
ROOT
HETATM    1  C1  UNL     1     -33.741  14.911  -5.081  1.00 20.00     0.233 C 
HETATM    2  C3  UNL     1     -34.290  17.387  -4.911  1.00 20.00     0.152 C 
HETATM    3  N7  UNL     1     -33.899  16.096  -4.351  1.00 20.00    -0.356 N 
HETATM    4  O8  UNL     1     -33.407  13.842  -4.565  1.00 20.00    -0.272 OA
ENDROOT
BRANCH   3   5
HETATM    5  C6  UNL     1     -33.672  16.089  -2.911  1.00 20.00     0.125 C 
BRANCH   5   6
HETATM    6  C5  UNL     1     -34.968  15.955  -2.120  1.00 20.00     0.015 C 
HETATM    7  C2  UNL     1     -35.073  16.968  -0.988  1.00 20.00     0.006 C 
ENDBRANCH   5   6
ENDBRANCH   3   5
BRANCH   1   8
HETATM    8  C4  UNL     1     -34.005  15.020  -6.569  1.00 20.00     0.217 C 
HETATM    9 CL9  UNL     1     -35.708  14.672  -6.934  1.00 20.00    -0.121 Cl
ENDBRANCH   1   8
TORSDOF 3
ENDMDL
MODEL 3
REMARK VINA RESULT:      -3.5      1.246      1.660
REMARK  3 active torsions:
REMARK  status: ('A' for Active; 'I' for Inactive)
REMARK    1  A    between atoms: C1_1  and  C4_4 
REMARK       I    between atoms: C1_1  and  N7_7 
REMARK    2  A    between atoms: C5_5  and  C6_6 
REMARK    3  A    between atoms: C6_6  and  N7_7 
ROOT
HETATM    1  C1  UNL     1     -33.932   6.236   4.046  1.00 20.00     0.233 C 
HETATM    2  C3  UNL     1     -31.967   7.849   3.984  1.00 20.00     0.152 C 
HETATM    3  N7  UNL     1     -32.921   6.930   3.367  1.00 20.00    -0.356 N 
HETATM    4  O8  UNL     1     -34.716   5.470   3.482  1.00 20.00    -0.272 OA
ENDROOT
BRANCH   3   5
HETATM    5  C6  UNL     1     -32.766   6.748   1.929  1.00 20.00     0.125 C 
BRANCH   5   6
HETATM    6  C5  UNL     1     -32.134   7.961   1.256  1.00 20.00     0.015 C 
HETATM    7  C2  UNL     1     -33.101   8.695   0.339  1.00 20.00     0.006 C 
ENDBRANCH   5   6
ENDBRANCH   3   5
BRANCH   1   8
HETATM    8  C4  UNL     1     -34.008   6.487   5.538  1.00 20.00     0.217 C 
HETATM    9 CL9  UNL     1     -34.858   5.161   6.358  1.00 20.00    -0.121 Cl
ENDBRANCH   1   8
TORSDOF 3
ENDMDL
MODEL 4
REMARK VINA RESULT:      -3.4     11.862     12.453
REMARK  3 active torsions:
REMARK  status: ('A' for Active; 'I' for Inactive)
REMARK    1  A    between atoms: C1_1  and  C4_4 
REMARK       I    between atoms: C1_1  and  N7_7 
REMARK    2  A    between atoms: C5_5  and  C6_6 
REMARK    3  A    between atoms: C6_6  and  N7_7 
ROOT
HETATM    1  C1  UNL     1     -37.854  14.829  -4.165  1.00 20.00     0.233 C 
HETATM    2  C3  UNL     1     -36.965  17.084  -3.400  1.00 20.00     0.152 C 
HETATM    3  N7  UNL     1     -36.811  15.682  -3.779  1.00 20.00    -0.356 N 
HETATM    4  O8  UNL     1     -37.677  13.649  -4.478  1.00 20.00    -0.272 OA
ENDROOT
BRANCH   3   5
HETATM    5  C6  UNL     1     -35.447  15.173  -3.733  1.00 20.00     0.125 C 
BRANCH   5   6
HETATM    6  C5  UNL     1     -34.654  15.742  -2.562  1.00 20.00     0.015 C 
HETATM    7  C2  UNL     1     -33.295  16.286  -2.980  1.00 20.00     0.006 C 
ENDBRANCH   5   6
ENDBRANCH   3   5
BRANCH   1   8
HETATM    8  C4  UNL     1     -39.237  15.450  -4.175  1.00 20.00     0.217 C 
HETATM    9 CL9  UNL     1     -39.564  16.232  -5.735  1.00 20.00    -0.121 Cl
ENDBRANCH   1   8
TORSDOF 3
ENDMDL
MODEL 5
REMARK VINA RESULT:      -3.4     11.706     12.309
REMARK  3 active torsions:
REMARK  status: ('A' for Active; 'I' for Inactive)
REMARK    1  A    between atoms: C1_1  and  C4_4 
REMARK       I    between atoms: C1_1  and  N7_7 
REMARK    2  A    between atoms: C5_5  and  C6_6 
REMARK    3  A    between atoms: C6_6  and  N7_7 
ROOT
HETATM    1  C1  UNL     1     -31.734  18.533  -0.166  1.00 20.00     0.233 C 
HETATM    2  C3  UNL     1     -34.254  18.323  -0.424  1.00 20.00     0.152 C 
HETATM    3  N7  UNL     1     -32.876  18.143  -0.876  1.00 20.00    -0.356 N 
HETATM    4  O8  UNL     1     -30.588  18.360  -0.588  1.00 20.00    -0.272 OA
ENDROOT
BRANCH   3   5
HETATM    5  C6  UNL     1     -32.731  17.507  -2.179  1.00 20.00     0.125 C 
BRANCH   5   6
HETATM    6  C5  UNL     1     -33.789  16.438  -2.425  1.00 20.00     0.015 C 
HETATM    7  C2  UNL     1     -33.469  15.558  -3.624  1.00 20.00     0.006 C 
ENDBRANCH   5   6
ENDBRANCH   3   5
BRANCH   1   8
HETATM    8  C4  UNL     1     -31.990  19.191   1.175  1.00 20.00     0.217 C 
HETATM    9 CL9  UNL     1     -32.093  17.975   2.465  1.00 20.00    -0.121 Cl
ENDBRANCH   1   8
TORSDOF 3
ENDMDL
MODEL 6
REMARK VINA RESULT:      -3.4     12.071     12.926
REMARK  3 active torsions:
REMARK  status: ('A' for Active; 'I' for Inactive)
REMARK    1  A    between atoms: C1_1  and  C4_4 
REMARK       I    between atoms: C1_1  and  N7_7 
REMARK    2  A    between atoms: C5_5  and  C6_6 
REMARK    3  A    between atoms: C6_6  and  N7_7 
ROOT
HETATM    1  C1  UNL     1     -35.645  14.768  -5.986  1.00 20.00     0.233 C 
HETATM    2  C3  UNL     1     -34.850  17.005  -5.078  1.00 20.00     0.152 C 
HETATM    3  N7  UNL     1     -35.330  15.633  -4.930  1.00 20.00    -0.356 N 
HETATM    4  O8  UNL     1     -36.047  13.614  -5.813  1.00 20.00    -0.272 OA
ENDROOT
BRANCH   3   5
HETATM    5  C6  UNL     1     -35.481  15.174  -3.555  1.00 20.00     0.125 C 
BRANCH   5   6
HETATM    6  C5  UNL     1     -34.457  15.803  -2.618  1.00 20.00     0.015 C 
HETATM    7  C2  UNL     1     -35.100  16.516  -1.437  1.00 20.00     0.006 C 
ENDBRANCH   5   6
ENDBRANCH   3   5
BRANCH   1   8
HETATM    8  C4  UNL     1     -35.461  15.339  -7.377  1.00 20.00     0.217 C 
HETATM    9 CL9  UNL     1     -33.777  15.161  -7.913  1.00 20.00    -0.121 Cl
ENDBRANCH   1   8
TORSDOF 3
ENDMDL
MODEL 7
REMARK VINA RESULT:      -3.3     11.306     12.309
REMARK  3 active torsions:
REMARK  status: ('A' for Active; 'I' for Inactive)
REMARK    1  A    between atoms: C1_1  and  C4_4 
REMARK       I    between atoms: C1_1  and  N7_7 
REMARK    2  A    between atoms: C5_5  and  C6_6 
REMARK    3  A    between atoms: C6_6  and  N7_7 
ROOT
HETATM    1  C1  UNL     1     -34.865  14.653  -3.945  1.00 20.00     0.233 C 
HETATM    2  C3  UNL     1     -36.194  16.576  -4.944  1.00 20.00     0.152 C 
HETATM    3  N7  UNL     1     -35.621  15.232  -4.972  1.00 20.00    -0.356 N 
HETATM    4  O8  UNL     1     -34.401  13.512  -4.012  1.00 20.00    -0.272 OA
ENDROOT
BRANCH   3   5
HETATM    5  C6  UNL     1     -35.880  14.474  -6.190  1.00 20.00     0.125 C 
BRANCH   5   6
HETATM    6  C5  UNL     1     -35.373  15.188  -7.437  1.00 20.00     0.015 C 
HETATM    7  C2  UNL     1     -33.854  15.215  -7.522  1.00 20.00     0.006 C 
ENDBRANCH   5   6
ENDBRANCH   3   5
BRANCH   1   8
HETATM    8  C4  UNL     1     -34.646  15.523  -2.723  1.00 20.00     0.217 C 
HETATM    9 CL9  UNL     1     -33.114  16.412  -2.849  1.00 20.00    -0.121 Cl
ENDBRANCH   1   8
TORSDOF 3
ENDMDL
MODEL 8
REMARK VINA RESULT:      -3.2     11.557     12.102
REMARK  3 active torsions:
REMARK  status: ('A' for Active; 'I' for Inactive)
REMARK    1  A    between atoms: C1_1  and  C4_4 
REMARK       I    between atoms: C1_1  and  N7_7 
REMARK    2  A    between atoms: C5_5  and  C6_6 
REMARK    3  A    between atoms: C6_6  and  N7_7 
ROOT
HETATM    1  C1  UNL     1     -32.663  18.269  -1.013  1.00 20.00     0.233 C 
HETATM    2  C3  UNL     1     -34.869  17.013  -1.160  1.00 20.00     0.152 C 
HETATM    3  N7  UNL     1     -33.529  17.358  -1.632  1.00 20.00    -0.356 N 
HETATM    4  O8  UNL     1     -31.538  18.529  -1.447  1.00 20.00    -0.272 OA
ENDROOT
BRANCH   3   5
HETATM    5  C6  UNL     1     -33.107  16.678  -2.849  1.00 20.00     0.125 C 
BRANCH   5   6
HETATM    6  C5  UNL     1     -34.031  15.524  -3.220  1.00 20.00     0.015 C 
HETATM    7  C2  UNL     1     -33.456  14.639  -4.316  1.00 20.00     0.006 C 
ENDBRANCH   5   6
ENDBRANCH   3   5
BRANCH   1   8
HETATM    8  C4  UNL     1     -33.196  18.929   0.243  1.00 20.00     0.217 C 
HETATM    9 CL9  UNL     1     -32.392  18.277   1.687  1.00 20.00    -0.121 Cl
ENDBRANCH   1   8
TORSDOF 3
ENDMDL
MODEL 9
REMARK VINA RESULT:      -3.1      9.802     10.063
REMARK  3 active torsions:
REMARK  status: ('A' for Active; 'I' for Inactive)
REMARK    1  A    between atoms: C1_1  and  C4_4 
REMARK       I    between atoms: C1_1  and  N7_7 
REMARK    2  A    between atoms: C5_5  and  C6_6 
REMARK    3  A    between atoms: C6_6  and  N7_7 
ROOT
HETATM    1  C1  UNL     1     -41.840   5.175  -1.501  1.00 20.00     0.233 C 
HETATM    2  C3  UNL     1     -43.417   7.169  -1.534  1.00 20.00     0.152 C 
HETATM    3  N7  UNL     1     -42.111   6.542  -1.348  1.00 20.00    -0.356 N 
HETATM    4  O8  UNL     1     -40.719   4.689  -1.335  1.00 20.00    -0.272 OA
ENDROOT
BRANCH   3   5
HETATM    5  C6  UNL     1     -41.036   7.450  -0.970  1.00 20.00     0.125 C 
BRANCH   5   6
HETATM    6  C5  UNL     1     -41.240   8.044   0.419  1.00 20.00     0.015 C 
HETATM    7  C2  UNL     1     -41.484   9.546   0.386  1.00 20.00     0.006 C 
ENDBRANCH   5   6
ENDBRANCH   3   5
BRANCH   1   8
HETATM    8  C4  UNL     1     -43.025   4.314  -1.890  1.00 20.00     0.217 C 
HETATM    9 CL9  UNL     1     -42.535   3.053  -3.041  1.00 20.00    -0.121 Cl
ENDBRANCH   1   8
TORSDOF 3
ENDMDL
