MODEL 1
REMARK VINA RESULT:      -4.9      0.000      0.000
REMARK  0 active torsions:
REMARK  status: ('A' for Active; 'I' for Inactive)
ROOT
HETATM    1  C1  UNL     1     -32.850  15.920  -3.580  1.00 20.00     0.039 A 
HETATM    2  C2  UNL     1     -33.757  15.061  -4.204  1.00 20.00     0.022 A 
HETATM    3  C3  UNL     1     -35.494  15.668  -2.609  1.00 20.00     0.029 A 
HETATM    4  C4  UNL     1     -34.588  16.523  -2.007  1.00 20.00    -0.021 A 
HETATM    5  C5  UNL     1     -33.294  16.641  -2.490  1.00 20.00     0.075 A 
HETATM    6  C6  UNL     1     -35.071  14.937  -3.723  1.00 20.00     0.011 A 
HETATM    7  C7  UNL     1     -34.743  17.359  -0.797  1.00 20.00     0.073 C 
HETATM    8  C8  UNL     1     -33.475  18.217  -0.929  1.00 20.00     0.129 C 
HETATM    9  C9  UNL     1     -32.827  18.511   0.415  1.00 20.00     0.040 C 
HETATM   10  O10 UNL     1     -32.521  17.516  -1.769  1.00 20.00    -0.345 OA
HETATM   11 BR11 UNL     1     -36.275  13.760  -4.584  1.00 20.00    -0.051 Br
ENDROOT
TORSDOF 0
ENDMDL
MODEL 2
REMARK VINA RESULT:      -4.8      2.455      4.172
REMARK  0 active torsions:
REMARK  status: ('A' for Active; 'I' for Inactive)
ROOT
HETATM    1  C1  UNL     1     -32.697  17.671  -1.827  1.00 20.00     0.039 A 
HETATM    2  C2  UNL     1     -33.346  18.159  -0.692  1.00 20.00     0.022 A 
HETATM    3  C3  UNL     1     -35.245  16.689  -1.093  1.00 20.00     0.029 A 
HETATM    4  C4  UNL     1     -34.586  16.207  -2.209  1.00 20.00    -0.021 A 
HETATM    5  C5  UNL     1     -33.337  16.693  -2.562  1.00 20.00     0.075 A 
HETATM    6  C6  UNL     1     -34.611  17.670  -0.326  1.00 20.00     0.011 A 
HETATM    7  C7  UNL     1     -35.039  15.227  -3.221  1.00 20.00     0.073 C 
HETATM    8  C8  UNL     1     -33.705  14.988  -3.944  1.00 20.00     0.129 C 
HETATM    9  C9  UNL     1     -33.878  14.809  -5.444  1.00 20.00     0.040 C 
HETATM   10  O10 UNL     1     -32.832  16.123  -3.704  1.00 20.00    -0.345 OA
HETATM   11 BR11 UNL     1     -35.469  18.356   1.214  1.00 20.00    -0.051 Br
ENDROOT
TORSDOF 0
ENDMDL
MODEL 3
REMARK VINA RESULT:      -4.7      2.827      4.706
REMARK  0 active torsions:
REMARK  status: ('A' for Active; 'I' for Inactive)
ROOT
HETATM    1  C1  UNL     1     -35.438  16.929  -1.356  1.00 20.00     0.039 A 
HETATM    2  C2  UNL     1     -34.359  17.669  -0.869  1.00 20.00     0.022 A 
HETATM    3  C3  UNL     1     -32.905  16.770  -2.602  1.00 20.00     0.029 A 
HETATM    4  C4  UNL     1     -33.985  16.051  -3.080  1.00 20.00    -0.021 A 
HETATM    5  C5  UNL     1     -35.224  16.135  -2.465  1.00 20.00     0.075 A 
HETATM    6  C6  UNL     1     -33.101  17.592  -1.488  1.00 20.00     0.011 A 
HETATM    7  C7  UNL     1     -34.048  15.072  -4.188  1.00 20.00     0.073 C 
HETATM    8  C8  UNL     1     -35.574  14.938  -4.308  1.00 20.00     0.129 C 
HETATM    9  C9  UNL     1     -36.011  13.516  -4.627  1.00 20.00     0.040 C 
HETATM   10  O10 UNL     1     -36.179  15.346  -3.053  1.00 20.00    -0.345 OA
HETATM   11 BR11 UNL     1     -31.656  18.600  -0.800  1.00 20.00    -0.051 Br
ENDROOT
TORSDOF 0
ENDMDL
MODEL 4
REMARK VINA RESULT:      -4.6      3.666      5.266
REMARK  0 active torsions:
REMARK  status: ('A' for Active; 'I' for Inactive)
ROOT
HETATM    1  C1  UNL     1     -36.004  13.671  -4.314  1.00 20.00     0.039 A 
HETATM    2  C2  UNL     1     -34.795  14.287  -3.986  1.00 20.00     0.022 A 
HETATM    3  C3  UNL     1     -35.940  16.390  -3.541  1.00 20.00     0.029 A 
HETATM    4  C4  UNL     1     -37.131  15.763  -3.859  1.00 20.00    -0.021 A 
HETATM    5  C5  UNL     1     -37.154  14.430  -4.236  1.00 20.00     0.075 A 
HETATM    6  C6  UNL     1     -34.763  15.638  -3.600  1.00 20.00     0.011 A 
HETATM    7  C7  UNL     1     -38.498  16.324  -3.939  1.00 20.00     0.073 C 
HETATM    8  C8  UNL     1     -39.293  15.013  -4.045  1.00 20.00     0.129 C 
HETATM    9  C9  UNL     1     -40.487  15.129  -4.979  1.00 20.00     0.040 C 
HETATM   10  O10 UNL     1     -38.411  13.969  -4.535  1.00 20.00    -0.345 OA
HETATM   11 BR11 UNL     1     -33.110  16.448  -3.168  1.00 20.00    -0.051 Br
ENDROOT
TORSDOF 0
ENDMDL
MODEL 5
REMARK VINA RESULT:      -4.5      2.652      4.348
REMARK  0 active torsions:
REMARK  status: ('A' for Active; 'I' for Inactive)
ROOT
HETATM    1  C1  UNL     1     -32.890  16.880  -3.139  1.00 20.00     0.039 A 
HETATM    2  C2  UNL     1     -33.027  17.488  -1.890  1.00 20.00     0.022 A 
HETATM    3  C3  UNL     1     -35.227  16.487  -1.596  1.00 20.00     0.029 A 
HETATM    4  C4  UNL     1     -35.073  15.882  -2.831  1.00 20.00    -0.021 A 
HETATM    5  C5  UNL     1     -33.924  16.079  -3.580  1.00 20.00     0.075 A 
HETATM    6  C6  UNL     1     -34.187  17.292  -1.122  1.00 20.00     0.011 A 
HETATM    7  C7  UNL     1     -36.022  15.040  -3.592  1.00 20.00     0.073 C 
HETATM    8  C8  UNL     1     -35.068  14.516  -4.676  1.00 20.00     0.129 C 
HETATM    9  C9  UNL     1     -35.738  14.397  -6.036  1.00 20.00     0.040 C 
HETATM   10  O10 UNL     1     -33.940  15.423  -4.785  1.00 20.00    -0.345 OA
HETATM   11 BR11 UNL     1     -34.348  18.135   0.563  1.00 20.00    -0.051 Br
ENDROOT
TORSDOF 0
ENDMDL
MODEL 6
REMARK VINA RESULT:      -4.5      1.254      1.494
REMARK  0 active torsions:
REMARK  status: ('A' for Active; 'I' for Inactive)
ROOT
HETATM    1  C1  UNL     1     -32.764  17.324  -2.492  1.00 20.00     0.039 A 
HETATM    2  C2  UNL     1     -33.193  16.267  -3.298  1.00 20.00     0.022 A 
HETATM    3  C3  UNL     1     -35.203  15.998  -1.951  1.00 20.00     0.029 A 
HETATM    4  C4  UNL     1     -34.772  17.053  -1.167  1.00 20.00    -0.021 A 
HETATM    5  C5  UNL     1     -33.576  17.698  -1.439  1.00 20.00     0.075 A 
HETATM    6  C6  UNL     1     -34.405  15.609  -3.030  1.00 20.00     0.011 A 
HETATM    7  C7  UNL     1     -35.376  17.627   0.055  1.00 20.00     0.073 C 
HETATM    8  C8  UNL     1     -34.529  18.904   0.170  1.00 20.00     0.129 C 
HETATM    9  C9  UNL     1     -34.205  19.261   1.612  1.00 20.00     0.040 C 
HETATM   10  O10 UNL     1     -33.287  18.708  -0.557  1.00 20.00    -0.345 OA
HETATM   11 BR11 UNL     1     -34.955  14.176  -4.135  1.00 20.00    -0.051 Br
ENDROOT
TORSDOF 0
ENDMDL
MODEL 7
REMARK VINA RESULT:      -4.3      1.872      2.535
REMARK  0 active torsions:
REMARK  status: ('A' for Active; 'I' for Inactive)
ROOT
HETATM    1  C1  UNL     1     -32.880  17.989  -1.354  1.00 20.00     0.039 A 
HETATM    2  C2  UNL     1     -33.059  17.086  -2.404  1.00 20.00     0.022 A 
HETATM    3  C3  UNL     1     -35.155  16.311  -1.437  1.00 20.00     0.029 A 
HETATM    4  C4  UNL     1     -34.970  17.217  -0.409  1.00 20.00    -0.021 A 
HETATM    5  C5  UNL     1     -33.852  18.037  -0.376  1.00 20.00     0.075 A 
HETATM    6  C6  UNL     1     -34.190  16.254  -2.447  1.00 20.00     0.011 A 
HETATM    7  C7  UNL     1     -35.787  17.446   0.803  1.00 20.00     0.073 C 
HETATM    8  C8  UNL     1     -35.146  18.757   1.286  1.00 20.00     0.129 C 
HETATM    9  C9  UNL     1     -35.045  18.833   2.801  1.00 20.00     0.040 C 
HETATM   10  O10 UNL     1     -33.813  18.862   0.720  1.00 20.00    -0.345 OA
HETATM   11 BR11 UNL     1     -34.402  15.036  -3.878  1.00 20.00    -0.051 Br
ENDROOT
TORSDOF 0
ENDMDL
MODEL 8
REMARK VINA RESULT:      -4.2      2.864      4.722
REMARK  0 active torsions:
REMARK  status: ('A' for Active; 'I' for Inactive)
ROOT
HETATM    1  C1  UNL     1     -33.325  15.699  -3.804  1.00 20.00     0.039 A 
HETATM    2  C2  UNL     1     -33.633  16.197  -2.537  1.00 20.00     0.022 A 
HETATM    3  C3  UNL     1     -36.003  16.257  -3.090  1.00 20.00     0.029 A 
HETATM    4  C4  UNL     1     -35.684  15.753  -4.338  1.00 20.00    -0.021 A 
HETATM    5  C5  UNL     1     -34.369  15.481  -4.680  1.00 20.00     0.075 A 
HETATM    6  C6  UNL     1     -34.964  16.473  -2.181  1.00 20.00     0.011 A 
HETATM    7  C7  UNL     1     -36.562  15.489  -5.500  1.00 20.00     0.073 C 
HETATM    8  C8  UNL     1     -35.581  14.688  -6.370  1.00 20.00     0.129 C 
HETATM    9  C9  UNL     1     -35.732  14.995  -7.852  1.00 20.00     0.040 C 
HETATM   10  O10 UNL     1     -34.225  15.005  -5.959  1.00 20.00    -0.345 OA
HETATM   11 BR11 UNL     1     -35.350  17.155  -0.460  1.00 20.00    -0.051 Br
ENDROOT
TORSDOF 0
ENDMDL
MODEL 9
REMARK VINA RESULT:      -4.1      3.113      4.689
REMARK  0 active torsions:
REMARK  status: ('A' for Active; 'I' for Inactive)
ROOT
HETATM    1  C1  UNL     1     -33.656  18.382  -4.553  1.00 20.00     0.039 A 
HETATM    2  C2  UNL     1     -32.983  18.876  -3.434  1.00 20.00     0.022 A 
HETATM    3  C3  UNL     1     -33.150  16.715  -2.326  1.00 20.00     0.029 A 
HETATM    4  C4  UNL     1     -33.807  16.236  -3.445  1.00 20.00    -0.021 A 
HETATM    5  C5  UNL     1     -34.051  17.059  -4.533  1.00 20.00     0.075 A 
HETATM    6  C6  UNL     1     -32.730  18.048  -2.328  1.00 20.00     0.011 A 
HETATM    7  C7  UNL     1     -34.407  14.905  -3.688  1.00 20.00     0.073 C 
HETATM    8  C8  UNL     1     -34.668  15.027  -5.197  1.00 20.00     0.129 C 
HETATM    9  C9  UNL     1     -35.966  14.358  -5.620  1.00 20.00     0.040 C 
HETATM   10  O10 UNL     1     -34.727  16.434  -5.550  1.00 20.00    -0.345 OA
HETATM   11 BR11 UNL     1     -31.822  18.747  -0.824  1.00 20.00    -0.051 Br
ENDROOT
TORSDOF 0
ENDMDL
