MODEL 1
REMARK VINA RESULT:      -5.1      0.000      0.000
REMARK  2 active torsions:
REMARK  status: ('A' for Active; 'I' for Inactive)
REMARK    1  A    between atoms: C7_7  and  C12_12 
REMARK    2  A    between atoms: C11_11  and  C12_12 
ROOT
HETATM    1  C1  UNL     1     -34.504  15.303  -6.052  1.00 20.00     0.064 C 
HETATM    2  C2  UNL     1     -32.949  14.835  -4.178  1.00 20.00     0.019 C 
HETATM    3  C3  UNL     1     -35.426  14.365  -3.950  1.00 20.00     0.019 C 
HETATM    4  C4  UNL     1     -33.119  16.116  -3.361  1.00 20.00     0.007 C 
HETATM    5  C5  UNL     1     -35.590  15.648  -3.133  1.00 20.00     0.007 C 
HETATM    6  C6  UNL     1     -34.229  14.413  -4.908  1.00 20.00     0.093 C 
HETATM    7  C7  UNL     1     -34.301  16.019  -2.390  1.00 20.00    -0.007 C 
HETATM    8  N13 UNL     1     -34.720  16.003  -6.952  1.00 20.00    -0.197 NA
ENDROOT
BRANCH   7   9
HETATM    9  C12 UNL     1     -34.479  17.327  -1.622  1.00 20.00    -0.044 C 
HETATM   10  C9  UNL     1     -35.250  18.327  -2.508  1.00 20.00     0.015 C 
HETATM   11  C10 UNL     1     -35.305  17.053  -0.349  1.00 20.00     0.015 C 
BRANCH   9  12
HETATM   12  C11 UNL     1     -33.075  17.886  -1.258  1.00 20.00     0.004 C 
HETATM   13  C8  UNL     1     -32.920  18.458   0.145  1.00 20.00     0.006 C 
ENDBRANCH   9  12
ENDBRANCH   7   9
TORSDOF 2
ENDMDL
MODEL 2
REMARK VINA RESULT:      -5.0      1.578      2.446
REMARK  2 active torsions:
REMARK  status: ('A' for Active; 'I' for Inactive)
REMARK    1  A    between atoms: C7_7  and  C12_12 
REMARK    2  A    between atoms: C11_11  and  C12_12 
ROOT
HETATM    1  C1  UNL     1     -36.379  14.196  -4.888  1.00 20.00     0.064 C 
HETATM    2  C2  UNL     1     -35.387  16.360  -5.586  1.00 20.00     0.019 C 
HETATM    3  C3  UNL     1     -33.960  14.575  -4.497  1.00 20.00     0.019 C 
HETATM    4  C4  UNL     1     -35.443  17.121  -4.261  1.00 20.00     0.007 C 
HETATM    5  C5  UNL     1     -34.019  15.341  -3.173  1.00 20.00     0.007 C 
HETATM    6  C6  UNL     1     -35.164  14.854  -5.405  1.00 20.00     0.093 C 
HETATM    7  C7  UNL     1     -34.208  16.846  -3.395  1.00 20.00    -0.007 C 
HETATM    8  N13 UNL     1     -37.335  13.680  -4.481  1.00 20.00    -0.197 NA
ENDROOT
BRANCH   7   9
HETATM    9  C12 UNL     1     -34.312  17.579  -2.059  1.00 20.00    -0.044 C 
HETATM   10  C9  UNL     1     -32.892  17.807  -1.501  1.00 20.00     0.015 C 
HETATM   11  C10 UNL     1     -34.981  18.948  -2.288  1.00 20.00     0.015 C 
BRANCH   9  12
HETATM   12  C11 UNL     1     -35.153  16.713  -1.080  1.00 20.00     0.004 C 
HETATM   13  C8  UNL     1     -35.393  17.300   0.305  1.00 20.00     0.006 C 
ENDBRANCH   9  12
ENDBRANCH   7   9
TORSDOF 2
ENDMDL
MODEL 3
REMARK VINA RESULT:      -4.9      1.696      2.099
REMARK  2 active torsions:
REMARK  status: ('A' for Active; 'I' for Inactive)
REMARK    1  A    between atoms: C7_7  and  C12_12 
REMARK    2  A    between atoms: C11_11  and  C12_12 
ROOT
HETATM    1  C1  UNL     1     -36.960  14.292  -4.691  1.00 20.00     0.064 C 
HETATM    2  C2  UNL     1     -35.589  16.163  -5.567  1.00 20.00     0.019 C 
HETATM    3  C3  UNL     1     -34.515  14.266  -4.281  1.00 20.00     0.019 C 
HETATM    4  C4  UNL     1     -35.514  17.047  -4.322  1.00 20.00     0.007 C 
HETATM    5  C5  UNL     1     -34.442  15.155  -3.037  1.00 20.00     0.007 C 
HETATM    6  C6  UNL     1     -35.642  14.667  -5.239  1.00 20.00     0.093 C 
HETATM    7  C7  UNL     1     -34.354  16.641  -3.405  1.00 20.00    -0.007 C 
HETATM    8  N13 UNL     1     -37.996  13.997  -4.259  1.00 20.00    -0.197 NA
ENDROOT
BRANCH   7   9
HETATM    9  C12 UNL     1     -34.331  17.507  -2.147  1.00 20.00    -0.044 C 
HETATM   10  C9  UNL     1     -34.958  18.878  -2.471  1.00 20.00     0.015 C 
HETATM   11  C10 UNL     1     -35.172  16.822  -1.051  1.00 20.00     0.015 C 
BRANCH   9  12
HETATM   12  C11 UNL     1     -32.857  17.674  -1.685  1.00 20.00     0.004 C 
HETATM   13  C8  UNL     1     -32.626  18.574  -0.477  1.00 20.00     0.006 C 
ENDBRANCH   9  12
ENDBRANCH   7   9
TORSDOF 2
ENDMDL
MODEL 4
REMARK VINA RESULT:      -4.7      1.212      1.917
REMARK  2 active torsions:
REMARK  status: ('A' for Active; 'I' for Inactive)
REMARK    1  A    between atoms: C7_7  and  C12_12 
REMARK    2  A    between atoms: C11_11  and  C12_12 
ROOT
HETATM    1  C1  UNL     1     -35.586  14.692  -6.180  1.00 20.00     0.064 C 
HETATM    2  C2  UNL     1     -34.694  13.785  -4.051  1.00 20.00     0.019 C 
HETATM    3  C3  UNL     1     -37.007  14.810  -4.151  1.00 20.00     0.019 C 
HETATM    4  C4  UNL     1     -34.155  15.069  -3.417  1.00 20.00     0.007 C 
HETATM    5  C5  UNL     1     -36.462  16.092  -3.517  1.00 20.00     0.007 C 
HETATM    6  C6  UNL     1     -35.939  14.018  -4.915  1.00 20.00     0.093 C 
HETATM    7  C7  UNL     1     -35.241  15.815  -2.633  1.00 20.00    -0.007 C 
HETATM    8  N13 UNL     1     -35.309  15.221  -7.175  1.00 20.00    -0.197 NA
ENDROOT
BRANCH   7   9
HETATM    9  C12 UNL     1     -34.690  17.116  -2.052  1.00 20.00    -0.044 C 
HETATM   10  C9  UNL     1     -33.163  17.153  -2.266  1.00 20.00     0.015 C 
HETATM   11  C10 UNL     1     -35.325  18.306  -2.798  1.00 20.00     0.015 C 
BRANCH   9  12
HETATM   12  C11 UNL     1     -35.033  17.169  -0.537  1.00 20.00     0.004 C 
HETATM   13  C8  UNL     1     -36.371  17.799  -0.170  1.00 20.00     0.006 C 
ENDBRANCH   9  12
ENDBRANCH   7   9
TORSDOF 2
ENDMDL
MODEL 5
REMARK VINA RESULT:      -4.7      2.180      4.783
REMARK  2 active torsions:
REMARK  status: ('A' for Active; 'I' for Inactive)
REMARK    1  A    between atoms: C7_7  and  C12_12 
REMARK    2  A    between atoms: C11_11  and  C12_12 
ROOT
HETATM    1  C1  UNL     1     -32.534  18.414  -1.462  1.00 20.00     0.064 C 
HETATM    2  C2  UNL     1     -34.134  18.752  -3.327  1.00 20.00     0.019 C 
HETATM    3  C3  UNL     1     -34.730  17.267  -1.364  1.00 20.00     0.019 C 
HETATM    4  C4  UNL     1     -33.829  17.512  -4.169  1.00 20.00     0.007 C 
HETATM    5  C5  UNL     1     -34.425  16.030  -2.212  1.00 20.00     0.007 C 
HETATM    6  C6  UNL     1     -33.961  18.513  -1.822  1.00 20.00     0.093 C 
HETATM    7  C7  UNL     1     -34.641  16.297  -3.706  1.00 20.00    -0.007 C 
HETATM    8  N13 UNL     1     -31.411  18.337  -1.178  1.00 20.00    -0.197 NA
ENDROOT
BRANCH   7   9
HETATM    9  C12 UNL     1     -34.283  15.062  -4.531  1.00 20.00    -0.044 C 
HETATM   10  C9  UNL     1     -34.458  15.391  -6.028  1.00 20.00     0.015 C 
HETATM   11  C10 UNL     1     -32.808  14.696  -4.272  1.00 20.00     0.015 C 
BRANCH   9  12
HETATM   12  C11 UNL     1     -35.221  13.895  -4.113  1.00 20.00     0.004 C 
HETATM   13  C8  UNL     1     -36.693  14.049  -4.476  1.00 20.00     0.006 C 
ENDBRANCH   9  12
ENDBRANCH   7   9
TORSDOF 2
ENDMDL
MODEL 6
REMARK VINA RESULT:      -4.4      2.197      4.580
REMARK  2 active torsions:
REMARK  status: ('A' for Active; 'I' for Inactive)
REMARK    1  A    between atoms: C7_7  and  C12_12 
REMARK    2  A    between atoms: C11_11  and  C12_12 
ROOT
HETATM    1  C1  UNL     1     -32.953  18.068  -3.213  1.00 20.00     0.064 C 
HETATM    2  C2  UNL     1     -34.484  16.602  -1.924  1.00 20.00     0.019 C 
HETATM    3  C3  UNL     1     -32.849  15.619  -3.588  1.00 20.00     0.019 C 
HETATM    4  C4  UNL     1     -35.615  16.436  -2.941  1.00 20.00     0.007 C 
HETATM    5  C5  UNL     1     -33.984  15.455  -4.601  1.00 20.00     0.007 C 
HETATM    6  C6  UNL     1     -33.105  16.745  -2.578  1.00 20.00     0.093 C 
HETATM    7  C7  UNL     1     -35.341  15.281  -3.910  1.00 20.00    -0.007 C 
HETATM    8  N13 UNL     1     -32.834  19.109  -3.711  1.00 20.00    -0.197 NA
ENDROOT
BRANCH   7   9
HETATM    9  C12 UNL     1     -36.461  15.167  -4.944  1.00 20.00    -0.044 C 
HETATM   10  C9  UNL     1     -36.963  16.582  -5.297  1.00 20.00     0.015 C 
HETATM   11  C10 UNL     1     -35.900  14.506  -6.219  1.00 20.00     0.015 C 
BRANCH   9  12
HETATM   12  C11 UNL     1     -37.610  14.312  -4.341  1.00 20.00     0.004 C 
HETATM   13  C8  UNL     1     -38.956  15.007  -4.180  1.00 20.00     0.006 C 
ENDBRANCH   9  12
ENDBRANCH   7   9
TORSDOF 2
ENDMDL
MODEL 7
REMARK VINA RESULT:      -4.3      2.283      4.827
REMARK  2 active torsions:
REMARK  status: ('A' for Active; 'I' for Inactive)
REMARK    1  A    between atoms: C7_7  and  C12_12 
REMARK    2  A    between atoms: C11_11  and  C12_12 
ROOT
HETATM    1  C1  UNL     1     -35.072  17.669  -0.549  1.00 20.00     0.064 C 
HETATM    2  C2  UNL     1     -33.078  17.827  -2.015  1.00 20.00     0.019 C 
HETATM    3  C3  UNL     1     -35.385  18.368  -2.907  1.00 20.00     0.019 C 
HETATM    4  C4  UNL     1     -33.137  16.459  -2.697  1.00 20.00     0.007 C 
HETATM    5  C5  UNL     1     -35.439  16.998  -3.588  1.00 20.00     0.007 C 
HETATM    6  C6  UNL     1     -34.463  18.392  -1.682  1.00 20.00     0.093 C 
HETATM    7  C7  UNL     1     -34.038  16.482  -3.938  1.00 20.00    -0.007 C 
HETATM    8  N13 UNL     1     -35.551  17.100   0.342  1.00 20.00    -0.197 NA
ENDROOT
BRANCH   7   9
HETATM    9  C12 UNL     1     -34.119  15.094  -4.572  1.00 20.00    -0.044 C 
HETATM   10  C9  UNL     1     -34.452  15.246  -6.070  1.00 20.00     0.015 C 
HETATM   11  C10 UNL     1     -32.749  14.400  -4.435  1.00 20.00     0.015 C 
BRANCH   9  12
HETATM   12  C11 UNL     1     -35.223  14.278  -3.844  1.00 20.00     0.004 C 
HETATM   13  C8  UNL     1     -36.317  13.688  -4.725  1.00 20.00     0.006 C 
ENDBRANCH   9  12
ENDBRANCH   7   9
TORSDOF 2
ENDMDL
MODEL 8
REMARK VINA RESULT:      -4.3      2.350      4.884
REMARK  2 active torsions:
REMARK  status: ('A' for Active; 'I' for Inactive)
REMARK    1  A    between atoms: C7_7  and  C12_12 
REMARK    2  A    between atoms: C11_11  and  C12_12 
ROOT
HETATM    1  C1  UNL     1     -34.847  17.251  -1.032  1.00 20.00     0.064 C 
HETATM    2  C2  UNL     1     -33.320  16.256  -2.715  1.00 20.00     0.019 C 
HETATM    3  C3  UNL     1     -34.819  18.205  -3.320  1.00 20.00     0.019 C 
HETATM    4  C4  UNL     1     -34.283  15.299  -3.419  1.00 20.00     0.007 C 
HETATM    5  C5  UNL     1     -35.779  17.242  -4.024  1.00 20.00     0.007 C 
HETATM    6  C6  UNL     1     -34.003  17.532  -2.209  1.00 20.00     0.093 C 
HETATM    7  C7  UNL     1     -35.055  15.996  -4.545  1.00 20.00    -0.007 C 
HETATM    8  N13 UNL     1     -35.510  17.029  -0.106  1.00 20.00    -0.197 NA
ENDROOT
BRANCH   7   9
HETATM    9  C12 UNL     1     -36.044  15.033  -5.199  1.00 20.00    -0.044 C 
HETATM   10  C9  UNL     1     -36.009  13.689  -4.442  1.00 20.00     0.015 C 
HETATM   11  C10 UNL     1     -37.463  15.625  -5.096  1.00 20.00     0.015 C 
BRANCH   9  12
HETATM   12  C11 UNL     1     -35.637  14.835  -6.686  1.00 20.00     0.004 C 
HETATM   13  C8  UNL     1     -34.200  15.191  -7.046  1.00 20.00     0.006 C 
ENDBRANCH   9  12
ENDBRANCH   7   9
TORSDOF 2
ENDMDL
MODEL 9
REMARK VINA RESULT:      -4.2      2.287      3.356
REMARK  2 active torsions:
REMARK  status: ('A' for Active; 'I' for Inactive)
REMARK    1  A    between atoms: C7_7  and  C12_12 
REMARK    2  A    between atoms: C11_11  and  C12_12 
ROOT
HETATM    1  C1  UNL     1     -37.985  15.109  -4.553  1.00 20.00     0.064 C 
HETATM    2  C2  UNL     1     -37.699  17.355  -3.540  1.00 20.00     0.019 C 
HETATM    3  C3  UNL     1     -36.555  16.765  -5.720  1.00 20.00     0.019 C 
HETATM    4  C4  UNL     1     -36.380  17.146  -2.794  1.00 20.00     0.007 C 
HETATM    5  C5  UNL     1     -35.238  16.559  -4.968  1.00 20.00     0.007 C 
HETATM    6  C6  UNL     1     -37.790  16.544  -4.838  1.00 20.00     0.093 C 
HETATM    7  C7  UNL     1     -35.170  17.411  -3.696  1.00 20.00    -0.007 C 
HETATM    8  N13 UNL     1     -38.139  13.981  -4.330  1.00 20.00    -0.197 NA
ENDROOT
BRANCH   7   9
HETATM    9  C12 UNL     1     -33.867  17.149  -2.941  1.00 20.00    -0.044 C 
HETATM   10  C9  UNL     1     -33.269  15.812  -3.424  1.00 20.00     0.015 C 
HETATM   11  C10 UNL     1     -32.869  18.282  -3.256  1.00 20.00     0.015 C 
BRANCH   9  12
HETATM   12  C11 UNL     1     -34.175  17.095  -1.419  1.00 20.00     0.004 C 
HETATM   13  C8  UNL     1     -33.537  18.181  -0.562  1.00 20.00     0.006 C 
ENDBRANCH   9  12
ENDBRANCH   7   9
TORSDOF 2
ENDMDL
