MODEL 1
REMARK VINA RESULT:      -4.2      0.000      0.000
REMARK  6 active torsions:
REMARK  status: ('A' for Active; 'I' for Inactive)
REMARK    1  A    between atoms: C1_1  and  C5_5 
REMARK    2  A    between atoms: C1_1  and  O10_10 
REMARK    3  A    between atoms: C5_5  and  C6_6 
REMARK    4  A    between atoms: C6_6  and  C7_7 
REMARK    5  A    between atoms: C7_7  and  O11_11 
REMARK    6  A    between atoms: C8_8  and  O11_11 
ROOT
HETATM    1  C6  UNL     1     -34.553  15.033  -5.915  1.00 20.00     0.036 C 
ENDROOT
BRANCH   1   2
HETATM    2  C5  UNL     1     -35.971  14.473  -5.963  1.00 20.00     0.113 C 
BRANCH   2   3
HETATM    3  C1  UNL     1     -36.248  13.533  -4.812  1.00 20.00     0.258 C 
HETATM    4  O9  UNL     1     -35.430  12.778  -4.305  1.00 20.00    -0.265 OA
BRANCH   3   5
HETATM    5  O10 UNL     1     -37.555  13.668  -4.435  1.00 20.00    -0.326 OA
HETATM    6  C4  UNL     1     -38.023  15.015  -4.308  1.00 20.00     0.213 C 
ENDBRANCH   3   5
ENDBRANCH   2   3
ENDBRANCH   1   2
BRANCH   1   7
HETATM    7  C7  UNL     1     -34.400  16.085  -4.826  1.00 20.00     0.168 C 
BRANCH   7   8
HETATM    8  O11 UNL     1     -33.307  15.730  -3.993  1.00 20.00    -0.387 OA
BRANCH   8   9
HETATM    9  C8  UNL     1     -33.511  16.157  -2.652  1.00 20.00     0.113 C 
HETATM   10  C2  UNL     1     -33.072  17.607  -2.516  1.00 20.00     0.039 C 
HETATM   11  C3  UNL     1     -34.974  15.970  -2.284  1.00 20.00     0.039 C 
ENDBRANCH   8   9
ENDBRANCH   7   8
ENDBRANCH   1   7
TORSDOF 6
ENDMDL
MODEL 2
REMARK VINA RESULT:      -4.2      1.253      1.882
REMARK  6 active torsions:
REMARK  status: ('A' for Active; 'I' for Inactive)
REMARK    1  A    between atoms: C1_1  and  C5_5 
REMARK    2  A    between atoms: C1_1  and  O10_10 
REMARK    3  A    between atoms: C5_5  and  C6_6 
REMARK    4  A    between atoms: C6_6  and  C7_7 
REMARK    5  A    between atoms: C7_7  and  O11_11 
REMARK    6  A    between atoms: C8_8  and  O11_11 
ROOT
HETATM    1  C6  UNL     1     -34.319  14.979  -3.813  1.00 20.00     0.036 C 
ENDROOT
BRANCH   1   2
HETATM    2  C5  UNL     1     -35.686  14.982  -4.491  1.00 20.00     0.113 C 
BRANCH   2   3
HETATM    3  C1  UNL     1     -36.330  13.615  -4.474  1.00 20.00     0.258 C 
HETATM    4  O9  UNL     1     -35.727  12.551  -4.444  1.00 20.00    -0.265 OA
BRANCH   3   5
HETATM    5  O10 UNL     1     -37.687  13.765  -4.496  1.00 20.00    -0.326 OA
HETATM    6  C4  UNL     1     -38.164  15.096  -4.271  1.00 20.00     0.213 C 
ENDBRANCH   3   5
ENDBRANCH   2   3
ENDBRANCH   1   2
BRANCH   1   7
HETATM    7  C7  UNL     1     -34.309  15.849  -2.565  1.00 20.00     0.168 C 
BRANCH   7   8
HETATM    8  O11 UNL     1     -33.110  16.609  -2.543  1.00 20.00    -0.387 OA
BRANCH   8   9
HETATM    9  C8  UNL     1     -33.271  17.819  -1.814  1.00 20.00     0.113 C 
HETATM   10  C2  UNL     1     -34.386  17.645  -0.794  1.00 20.00     0.039 C 
HETATM   11  C3  UNL     1     -31.951  18.186  -1.153  1.00 20.00     0.039 C 
ENDBRANCH   8   9
ENDBRANCH   7   8
ENDBRANCH   1   7
TORSDOF 6
ENDMDL
MODEL 3
REMARK VINA RESULT:      -4.0     11.124     12.204
REMARK  6 active torsions:
REMARK  status: ('A' for Active; 'I' for Inactive)
REMARK    1  A    between atoms: C1_1  and  C5_5 
REMARK    2  A    between atoms: C1_1  and  O10_10 
REMARK    3  A    between atoms: C5_5  and  C6_6 
REMARK    4  A    between atoms: C6_6  and  C7_7 
REMARK    5  A    between atoms: C7_7  and  O11_11 
REMARK    6  A    between atoms: C8_8  and  O11_11 
ROOT
HETATM    1  C6  UNL     1     -33.223   4.911   2.635  1.00 20.00     0.036 C 
ENDROOT
BRANCH   1   2
HETATM    2  C5  UNL     1     -33.516   6.274   2.014  1.00 20.00     0.113 C 
BRANCH   2   3
HETATM    3  C1  UNL     1     -32.369   7.240   2.201  1.00 20.00     0.258 C 
HETATM    4  O9  UNL     1     -31.773   7.433   3.251  1.00 20.00    -0.265 OA
BRANCH   3   5
HETATM    5  O10 UNL     1     -32.110   7.854   1.008  1.00 20.00    -0.326 OA
HETATM    6  C4  UNL     1     -32.942   8.978   0.700  1.00 20.00     0.213 C 
ENDBRANCH   3   5
ENDBRANCH   2   3
ENDBRANCH   1   2
BRANCH   1   7
HETATM    7  C7  UNL     1     -34.206   4.578   3.748  1.00 20.00     0.168 C 
BRANCH   7   8
HETATM    8  O11 UNL     1     -34.901   5.759   4.117  1.00 20.00    -0.387 OA
BRANCH   8   9
HETATM    9  C8  UNL     1     -34.855   5.975   5.522  1.00 20.00     0.113 C 
HETATM   10  C2  UNL     1     -34.619   4.647   6.225  1.00 20.00     0.039 C 
HETATM   11  C3  UNL     1     -33.765   6.987   5.839  1.00 20.00     0.039 C 
ENDBRANCH   8   9
ENDBRANCH   7   8
ENDBRANCH   1   7
TORSDOF 6
ENDMDL
MODEL 4
REMARK VINA RESULT:      -3.9      1.466      2.323
REMARK  6 active torsions:
REMARK  status: ('A' for Active; 'I' for Inactive)
REMARK    1  A    between atoms: C1_1  and  C5_5 
REMARK    2  A    between atoms: C1_1  and  O10_10 
REMARK    3  A    between atoms: C5_5  and  C6_6 
REMARK    4  A    between atoms: C6_6  and  C7_7 
REMARK    5  A    between atoms: C7_7  and  O11_11 
REMARK    6  A    between atoms: C8_8  and  O11_11 
ROOT
HETATM    1  C6  UNL     1     -34.411  15.103  -3.294  1.00 20.00     0.036 C 
ENDROOT
BRANCH   1   2
HETATM    2  C5  UNL     1     -35.884  14.898  -3.638  1.00 20.00     0.113 C 
BRANCH   2   3
HETATM    3  C1  UNL     1     -36.081  13.786  -4.642  1.00 20.00     0.258 C 
HETATM    4  O9  UNL     1     -35.821  12.607  -4.449  1.00 20.00    -0.265 OA
BRANCH   3   5
HETATM    5  O10 UNL     1     -36.597  14.315  -5.792  1.00 20.00    -0.326 OA
HETATM    6  C4  UNL     1     -35.634  14.771  -6.747  1.00 20.00     0.213 C 
ENDBRANCH   3   5
ENDBRANCH   2   3
ENDBRANCH   1   2
BRANCH   1   7
HETATM    7  C7  UNL     1     -34.013  16.569  -3.379  1.00 20.00     0.168 C 
BRANCH   7   8
HETATM    8  O11 UNL     1     -32.890  16.790  -2.538  1.00 20.00    -0.387 OA
BRANCH   8   9
HETATM    9  C8  UNL     1     -33.055  17.955  -1.740  1.00 20.00     0.113 C 
HETATM   10  C2  UNL     1     -34.220  17.747  -0.785  1.00 20.00     0.039 C 
HETATM   11  C3  UNL     1     -31.759  18.243  -0.999  1.00 20.00     0.039 C 
ENDBRANCH   8   9
ENDBRANCH   7   8
ENDBRANCH   1   7
TORSDOF 6
ENDMDL
MODEL 5
REMARK VINA RESULT:      -3.9      1.485      2.245
REMARK  6 active torsions:
REMARK  status: ('A' for Active; 'I' for Inactive)
REMARK    1  A    between atoms: C1_1  and  C5_5 
REMARK    2  A    between atoms: C1_1  and  O10_10 
REMARK    3  A    between atoms: C5_5  and  C6_6 
REMARK    4  A    between atoms: C6_6  and  C7_7 
REMARK    5  A    between atoms: C7_7  and  O11_11 
REMARK    6  A    between atoms: C8_8  and  O11_11 
ROOT
HETATM    1  C6  UNL     1     -33.758  14.591  -4.344  1.00 20.00     0.036 C 
ENDROOT
BRANCH   1   2
HETATM    2  C5  UNL     1     -34.983  13.853  -3.814  1.00 20.00     0.113 C 
BRANCH   2   3
HETATM    3  C1  UNL     1     -36.108  13.824  -4.823  1.00 20.00     0.258 C 
HETATM    4  O9  UNL     1     -37.288  13.643  -4.560  1.00 20.00    -0.265 OA
BRANCH   3   5
HETATM    5  O10 UNL     1     -35.589  14.035  -6.070  1.00 20.00    -0.326 OA
HETATM    6  C4  UNL     1     -36.121  15.161  -6.776  1.00 20.00     0.213 C 
ENDBRANCH   3   5
ENDBRANCH   2   3
ENDBRANCH   1   2
BRANCH   1   7
HETATM    7  C7  UNL     1     -33.362  15.747  -3.438  1.00 20.00     0.168 C 
BRANCH   7   8
HETATM    8  O11 UNL     1     -34.235  15.774  -2.319  1.00 20.00    -0.387 OA
BRANCH   8   9
HETATM    9  C8  UNL     1     -34.419  17.096  -1.830  1.00 20.00     0.113 C 
HETATM   10  C2  UNL     1     -35.288  17.053  -0.582  1.00 20.00     0.039 C 
HETATM   11  C3  UNL     1     -33.061  17.722  -1.554  1.00 20.00     0.039 C 
ENDBRANCH   8   9
ENDBRANCH   7   8
ENDBRANCH   1   7
TORSDOF 6
ENDMDL
MODEL 6
REMARK VINA RESULT:      -3.8     10.669     11.571
REMARK  6 active torsions:
REMARK  status: ('A' for Active; 'I' for Inactive)
REMARK    1  A    between atoms: C1_1  and  C5_5 
REMARK    2  A    between atoms: C1_1  and  O10_10 
REMARK    3  A    between atoms: C5_5  and  C6_6 
REMARK    4  A    between atoms: C6_6  and  C7_7 
REMARK    5  A    between atoms: C7_7  and  O11_11 
REMARK    6  A    between atoms: C8_8  and  O11_11 
ROOT
HETATM    1  C6  UNL     1     -33.131   5.952   2.692  1.00 20.00     0.036 C 
ENDROOT
BRANCH   1   2
HETATM    2  C5  UNL     1     -34.299   6.103   3.662  1.00 20.00     0.113 C 
BRANCH   2   3
HETATM    3  C1  UNL     1     -34.503   4.862   4.500  1.00 20.00     0.258 C 
HETATM    4  O9  UNL     1     -34.438   3.713   4.087  1.00 20.00    -0.265 OA
BRANCH   3   5
HETATM    5  O10 UNL     1     -34.767   5.237   5.787  1.00 20.00    -0.326 OA
HETATM    6  C4  UNL     1     -34.256   6.517   6.174  1.00 20.00     0.213 C 
ENDBRANCH   3   5
ENDBRANCH   2   3
ENDBRANCH   1   2
BRANCH   1   7
HETATM    7  C7  UNL     1     -32.222   7.173   2.713  1.00 20.00     0.168 C 
BRANCH   7   8
HETATM    8  O11 UNL     1     -32.034   7.629   1.382  1.00 20.00    -0.387 OA
BRANCH   8   9
HETATM    9  C8  UNL     1     -33.137   8.406   0.934  1.00 20.00     0.113 C 
HETATM   10  C2  UNL     1     -32.947   9.848   1.380  1.00 20.00     0.039 C 
HETATM   11  C3  UNL     1     -33.251   8.290  -0.578  1.00 20.00     0.039 C 
ENDBRANCH   8   9
ENDBRANCH   7   8
ENDBRANCH   1   7
TORSDOF 6
ENDMDL
MODEL 7
REMARK VINA RESULT:      -3.7      2.055      3.190
REMARK  6 active torsions:
REMARK  status: ('A' for Active; 'I' for Inactive)
REMARK    1  A    between atoms: C1_1  and  C5_5 
REMARK    2  A    between atoms: C1_1  and  O10_10 
REMARK    3  A    between atoms: C5_5  and  C6_6 
REMARK    4  A    between atoms: C6_6  and  C7_7 
REMARK    5  A    between atoms: C7_7  and  O11_11 
REMARK    6  A    between atoms: C8_8  and  O11_11 
ROOT
HETATM    1  C6  UNL     1     -33.222  16.187  -3.007  1.00 20.00     0.036 C 
ENDROOT
BRANCH   1   2
HETATM    2  C5  UNL     1     -34.465  15.321  -3.188  1.00 20.00     0.113 C 
BRANCH   2   3
HETATM    3  C1  UNL     1     -34.233  14.196  -4.169  1.00 20.00     0.258 C 
HETATM    4  O9  UNL     1     -33.238  14.062  -4.867  1.00 20.00    -0.265 OA
BRANCH   3   5
HETATM    5  O10 UNL     1     -35.313  13.359  -4.146  1.00 20.00    -0.326 OA
HETATM    6  C4  UNL     1     -36.538  13.919  -4.630  1.00 20.00     0.213 C 
ENDBRANCH   3   5
ENDBRANCH   2   3
ENDBRANCH   1   2
BRANCH   1   7
HETATM    7  C7  UNL     1     -33.462  17.315  -2.013  1.00 20.00     0.168 C 
BRANCH   7   8
HETATM    8  O11 UNL     1     -32.289  18.110  -1.927  1.00 20.00    -0.387 OA
BRANCH   8   9
HETATM    9  C8  UNL     1     -32.178  18.743  -0.659  1.00 20.00     0.113 C 
HETATM   10  C2  UNL     1     -33.385  18.378   0.191  1.00 20.00     0.039 C 
HETATM   11  C3  UNL     1     -30.873  18.322  -0.001  1.00 20.00     0.039 C 
ENDBRANCH   8   9
ENDBRANCH   7   8
ENDBRANCH   1   7
TORSDOF 6
ENDMDL
MODEL 8
REMARK VINA RESULT:      -3.4      3.072      6.106
REMARK  6 active torsions:
REMARK  status: ('A' for Active; 'I' for Inactive)
REMARK    1  A    between atoms: C1_1  and  C5_5 
REMARK    2  A    between atoms: C1_1  and  O10_10 
REMARK    3  A    between atoms: C5_5  and  C6_6 
REMARK    4  A    between atoms: C6_6  and  C7_7 
REMARK    5  A    between atoms: C7_7  and  O11_11 
REMARK    6  A    between atoms: C8_8  and  O11_11 
ROOT
HETATM    1  C6  UNL     1     -33.568  17.425  -1.480  1.00 20.00     0.036 C 
ENDROOT
BRANCH   1   2
HETATM    2  C5  UNL     1     -32.417  18.413  -1.649  1.00 20.00     0.113 C 
BRANCH   2   3
HETATM    3  C1  UNL     1     -31.537  18.473  -0.421  1.00 20.00     0.258 C 
HETATM    4  O9  UNL     1     -30.328  18.290  -0.410  1.00 20.00    -0.265 OA
BRANCH   3   5
HETATM    5  O10 UNL     1     -32.313  18.764   0.665  1.00 20.00    -0.326 OA
HETATM    6  C4  UNL     1     -31.848  18.238   1.913  1.00 20.00     0.213 C 
ENDBRANCH   3   5
ENDBRANCH   2   3
ENDBRANCH   1   2
BRANCH   1   7
HETATM    7  C7  UNL     1     -34.113  16.963  -2.823  1.00 20.00     0.168 C 
BRANCH   7   8
HETATM    8  O11 UNL     1     -34.366  15.567  -2.762  1.00 20.00    -0.387 OA
BRANCH   8   9
HETATM    9  C8  UNL     1     -34.397  14.984  -4.058  1.00 20.00     0.113 C 
HETATM   10  C2  UNL     1     -33.003  14.494  -4.421  1.00 20.00     0.039 C 
HETATM   11  C3  UNL     1     -35.417  13.856  -4.077  1.00 20.00     0.039 C 
ENDBRANCH   8   9
ENDBRANCH   7   8
ENDBRANCH   1   7
TORSDOF 6
ENDMDL
MODEL 9
REMARK VINA RESULT:      -3.3      1.826      4.581
REMARK  6 active torsions:
REMARK  status: ('A' for Active; 'I' for Inactive)
REMARK    1  A    between atoms: C1_1  and  C5_5 
REMARK    2  A    between atoms: C1_1  and  O10_10 
REMARK    3  A    between atoms: C5_5  and  C6_6 
REMARK    4  A    between atoms: C6_6  and  C7_7 
REMARK    5  A    between atoms: C7_7  and  O11_11 
REMARK    6  A    between atoms: C8_8  and  O11_11 
ROOT
HETATM    1  C6  UNL     1     -33.358  15.469  -3.685  1.00 20.00     0.036 C 
ENDROOT
BRANCH   1   2
HETATM    2  C5  UNL     1     -34.152  16.064  -2.525  1.00 20.00     0.113 C 
BRANCH   2   3
HETATM    3  C1  UNL     1     -33.467  17.272  -1.930  1.00 20.00     0.258 C 
HETATM    4  O9  UNL     1     -32.546  17.888  -2.449  1.00 20.00    -0.265 OA
BRANCH   3   5
HETATM    5  O10 UNL     1     -34.045  17.560  -0.727  1.00 20.00    -0.326 OA
HETATM    6  C4  UNL     1     -35.397  17.116  -0.570  1.00 20.00     0.213 C 
ENDBRANCH   3   5
ENDBRANCH   2   3
ENDBRANCH   1   2
BRANCH   1   7
HETATM    7  C7  UNL     1     -34.071  15.666  -5.014  1.00 20.00     0.168 C 
BRANCH   7   8
HETATM    8  O11 UNL     1     -34.455  14.397  -5.523  1.00 20.00    -0.387 OA
BRANCH   8   9
HETATM    9  C8  UNL     1     -35.852  14.340  -5.784  1.00 20.00     0.113 C 
HETATM   10  C2  UNL     1     -36.576  13.864  -4.534  1.00 20.00     0.039 C 
HETATM   11  C3  UNL     1     -36.335  15.710  -6.232  1.00 20.00     0.039 C 
ENDBRANCH   8   9
ENDBRANCH   7   8
ENDBRANCH   1   7
TORSDOF 6
ENDMDL
