MODEL 1
REMARK VINA RESULT:      -4.8      0.000      0.000
REMARK  0 active torsions:
REMARK  status: ('A' for Active; 'I' for Inactive)
ROOT
HETATM    1  C1  UNL     1     -36.740  14.061  -4.502  1.00 20.00     0.064 C 
HETATM    2  C2  UNL     1     -34.919  14.898  -5.970  1.00 20.00     0.023 C 
HETATM    3  C3  UNL     1     -34.587  14.767  -3.453  1.00 20.00     0.028 C 
HETATM    4  C4  UNL     1     -34.313  16.978  -4.673  1.00 20.00     0.013 C 
HETATM    5  C5  UNL     1     -35.280  14.155  -4.679  1.00 20.00     0.094 C 
HETATM    6  C6  UNL     1     -35.103  16.418  -5.866  1.00 20.00    -0.017 C 
HETATM    7  C7  UNL     1     -34.672  16.310  -3.328  1.00 20.00    -0.046 C 
HETATM    8  C8  UNL     1     -34.660  17.098  -7.163  1.00 20.00     0.010 C 
HETATM    9  C9  UNL     1     -33.656  16.771  -2.260  1.00 20.00     0.015 C 
HETATM   10  C10 UNL     1     -36.066  16.764  -2.852  1.00 20.00     0.015 C 
HETATM   11  N11 UNL     1     -37.888  13.988  -4.363  1.00 20.00    -0.197 NA
ENDROOT
TORSDOF 0
ENDMDL
MODEL 2
REMARK VINA RESULT:      -4.8      1.345      3.164
REMARK  0 active torsions:
REMARK  status: ('A' for Active; 'I' for Inactive)
ROOT
HETATM    1  C1  UNL     1     -37.548  15.011  -4.411  1.00 20.00     0.064 C 
HETATM    2  C2  UNL     1     -36.361  16.841  -3.223  1.00 20.00     0.023 C 
HETATM    3  C3  UNL     1     -35.233  15.603  -5.137  1.00 20.00     0.028 C 
HETATM    4  C4  UNL     1     -34.155  15.674  -2.838  1.00 20.00     0.013 C 
HETATM    5  C5  UNL     1     -36.563  16.099  -4.549  1.00 20.00     0.094 C 
HETATM    6  C6  UNL     1     -35.504  16.060  -2.216  1.00 20.00    -0.017 C 
HETATM    7  C7  UNL     1     -34.288  14.870  -4.151  1.00 20.00    -0.046 C 
HETATM    8  C8  UNL     1     -35.288  16.889  -0.948  1.00 20.00     0.010 C 
HETATM    9  C9  UNL     1     -32.894  14.755  -4.804  1.00 20.00     0.015 C 
HETATM   10  C10 UNL     1     -34.774  13.436  -3.861  1.00 20.00     0.015 C 
HETATM   11  N11 UNL     1     -38.323  14.155  -4.303  1.00 20.00    -0.197 NA
ENDROOT
TORSDOF 0
ENDMDL
MODEL 3
REMARK VINA RESULT:      -4.7      1.085      3.172
REMARK  0 active torsions:
REMARK  status: ('A' for Active; 'I' for Inactive)
ROOT
HETATM    1  C1  UNL     1     -36.089  13.779  -4.317  1.00 20.00     0.064 C 
HETATM    2  C2  UNL     1     -35.521  15.815  -3.013  1.00 20.00     0.023 C 
HETATM    3  C3  UNL     1     -36.338  16.009  -5.413  1.00 20.00     0.028 C 
HETATM    4  C4  UNL     1     -34.092  16.983  -4.737  1.00 20.00     0.013 C 
HETATM    5  C5  UNL     1     -36.403  15.203  -4.107  1.00 20.00     0.094 C 
HETATM    6  C6  UNL     1     -34.087  16.100  -3.481  1.00 20.00    -0.017 C 
HETATM    7  C7  UNL     1     -34.918  16.393  -5.901  1.00 20.00    -0.046 C 
HETATM    8  C8  UNL     1     -33.286  16.771  -2.362  1.00 20.00     0.010 C 
HETATM    9  C9  UNL     1     -35.054  17.466  -7.004  1.00 20.00     0.015 C 
HETATM   10  C10 UNL     1     -34.189  15.188  -6.528  1.00 20.00     0.015 C 
HETATM   11  N11 UNL     1     -35.841  12.659  -4.483  1.00 20.00    -0.197 NA
ENDROOT
TORSDOF 0
ENDMDL
MODEL 4
REMARK VINA RESULT:      -4.5      2.454      3.416
REMARK  0 active torsions:
REMARK  status: ('A' for Active; 'I' for Inactive)
ROOT
HETATM    1  C1  UNL     1     -36.393  17.548  -2.473  1.00 20.00     0.064 C 
HETATM    2  C2  UNL     1     -34.982  15.506  -2.573  1.00 20.00     0.023 C 
HETATM    3  C3  UNL     1     -34.308  17.465  -1.100  1.00 20.00     0.028 C 
HETATM    4  C4  UNL     1     -32.736  16.612  -2.904  1.00 20.00     0.013 C 
HETATM    5  C5  UNL     1     -35.474  16.678  -1.717  1.00 20.00     0.094 C 
HETATM    6  C6  UNL     1     -33.913  15.911  -3.598  1.00 20.00    -0.017 C 
HETATM    7  C7  UNL     1     -33.158  17.842  -2.068  1.00 20.00    -0.046 C 
HETATM    8  C8  UNL     1     -33.421  14.682  -4.366  1.00 20.00     0.010 C 
HETATM    9  C9  UNL     1     -31.948  18.309  -1.231  1.00 20.00     0.015 C 
HETATM   10  C10 UNL     1     -33.553  19.013  -2.989  1.00 20.00     0.015 C 
HETATM   11  N11 UNL     1     -37.115  18.232  -3.067  1.00 20.00    -0.197 NA
ENDROOT
TORSDOF 0
ENDMDL
MODEL 5
REMARK VINA RESULT:      -4.4      3.651      5.250
REMARK  0 active torsions:
REMARK  status: ('A' for Active; 'I' for Inactive)
ROOT
HETATM    1  C1  UNL     1     -31.583  18.484  -1.183  1.00 20.00     0.064 C 
HETATM    2  C2  UNL     1     -32.933  17.517  -3.030  1.00 20.00     0.023 C 
HETATM    3  C3  UNL     1     -33.937  19.263  -1.478  1.00 20.00     0.028 C 
HETATM    4  C4  UNL     1     -35.030  16.984  -1.728  1.00 20.00     0.013 C 
HETATM    5  C5  UNL     1     -32.659  18.745  -2.155  1.00 20.00     0.094 C 
HETATM    6  C6  UNL     1     -33.723  16.419  -2.304  1.00 20.00    -0.017 C 
HETATM    7  C7  UNL     1     -34.819  18.191  -0.788  1.00 20.00    -0.046 C 
HETATM    8  C8  UNL     1     -34.018  15.258  -3.256  1.00 20.00     0.010 C 
HETATM    9  C9  UNL     1     -36.194  18.818  -0.472  1.00 20.00     0.015 C 
HETATM   10  C10 UNL     1     -34.210  17.734   0.553  1.00 20.00     0.015 C 
HETATM   11  N11 UNL     1     -30.736  18.278  -0.418  1.00 20.00    -0.197 NA
ENDROOT
TORSDOF 0
ENDMDL
MODEL 6
REMARK VINA RESULT:      -4.2      2.078      2.573
REMARK  0 active torsions:
REMARK  status: ('A' for Active; 'I' for Inactive)
ROOT
HETATM    1  C1  UNL     1     -36.626  16.278  -4.137  1.00 20.00     0.064 C 
HETATM    2  C2  UNL     1     -34.850  14.633  -3.581  1.00 20.00     0.023 C 
HETATM    3  C3  UNL     1     -35.357  16.562  -2.005  1.00 20.00     0.028 C 
HETATM    4  C4  UNL     1     -33.019  16.252  -2.947  1.00 20.00     0.013 C 
HETATM    5  C5  UNL     1     -35.926  15.583  -3.043  1.00 20.00     0.094 C 
HETATM    6  C6  UNL     1     -33.585  15.359  -4.061  1.00 20.00    -0.017 C 
HETATM    7  C7  UNL     1     -34.038  17.275  -2.398  1.00 20.00    -0.046 C 
HETATM    8  C8  UNL     1     -32.533  14.347  -4.519  1.00 20.00     0.010 C 
HETATM    9  C9  UNL     1     -33.444  17.936  -1.136  1.00 20.00     0.015 C 
HETATM   10  C10 UNL     1     -34.285  18.398  -3.425  1.00 20.00     0.015 C 
HETATM   11  N11 UNL     1     -37.176  16.825  -4.998  1.00 20.00    -0.197 NA
ENDROOT
TORSDOF 0
ENDMDL
MODEL 7
REMARK VINA RESULT:      -4.2      1.931      3.228
REMARK  0 active torsions:
REMARK  status: ('A' for Active; 'I' for Inactive)
ROOT
HETATM    1  C1  UNL     1     -34.377  15.873  -7.011  1.00 20.00     0.064 C 
HETATM    2  C2  UNL     1     -36.441  16.129  -5.653  1.00 20.00     0.023 C 
HETATM    3  C3  UNL     1     -34.222  17.039  -4.808  1.00 20.00     0.028 C 
HETATM    4  C4  UNL     1     -35.530  15.354  -3.429  1.00 20.00     0.013 C 
HETATM    5  C5  UNL     1     -35.084  16.728  -6.041  1.00 20.00     0.094 C 
HETATM    6  C6  UNL     1     -36.326  14.949  -4.678  1.00 20.00    -0.017 C 
HETATM    7  C7  UNL     1     -34.125  15.913  -3.748  1.00 20.00    -0.046 C 
HETATM    8  C8  UNL     1     -37.717  14.449  -4.283  1.00 20.00     0.010 C 
HETATM    9  C9  UNL     1     -33.525  16.508  -2.456  1.00 20.00     0.015 C 
HETATM   10  C10 UNL     1     -33.184  14.782  -4.206  1.00 20.00     0.015 C 
HETATM   11  N11 UNL     1     -33.821  15.201  -7.774  1.00 20.00    -0.197 NA
ENDROOT
TORSDOF 0
ENDMDL
MODEL 8
REMARK VINA RESULT:      -4.2      0.957      3.287
REMARK  0 active torsions:
REMARK  status: ('A' for Active; 'I' for Inactive)
ROOT
HETATM    1  C1  UNL     1     -37.811  15.072  -4.365  1.00 20.00     0.064 C 
HETATM    2  C2  UNL     1     -36.273  16.653  -3.225  1.00 20.00     0.023 C 
HETATM    3  C3  UNL     1     -36.650  16.807  -5.734  1.00 20.00     0.028 C 
HETATM    4  C4  UNL     1     -34.310  16.478  -4.804  1.00 20.00     0.013 C 
HETATM    5  C5  UNL     1     -37.263  16.439  -4.375  1.00 20.00     0.094 C 
HETATM    6  C6  UNL     1     -34.906  15.999  -3.472  1.00 20.00    -0.017 C 
HETATM    7  C7  UNL     1     -35.236  16.238  -6.016  1.00 20.00    -0.046 C 
HETATM    8  C8  UNL     1     -33.951  16.311  -2.319  1.00 20.00     0.010 C 
HETATM    9  C9  UNL     1     -34.649  16.971  -7.241  1.00 20.00     0.015 C 
HETATM   10  C10 UNL     1     -35.290  14.738  -6.369  1.00 20.00     0.015 C 
HETATM   11  N11 UNL     1     -38.242  13.995  -4.358  1.00 20.00    -0.197 NA
ENDROOT
TORSDOF 0
ENDMDL
MODEL 9
REMARK VINA RESULT:      -4.1      1.552      3.434
REMARK  0 active torsions:
REMARK  status: ('A' for Active; 'I' for Inactive)
ROOT
HETATM    1  C1  UNL     1     -37.285  16.743  -4.686  1.00 20.00     0.064 C 
HETATM    2  C2  UNL     1     -35.732  17.757  -3.035  1.00 20.00     0.023 C 
HETATM    3  C3  UNL     1     -34.832  16.380  -4.972  1.00 20.00     0.028 C 
HETATM    4  C4  UNL     1     -34.293  15.734  -2.576  1.00 20.00     0.013 C 
HETATM    5  C5  UNL     1     -35.945  17.321  -4.489  1.00 20.00     0.094 C 
HETATM    6  C6  UNL     1     -35.473  16.583  -2.081  1.00 20.00    -0.017 C 
HETATM    7  C7  UNL     1     -34.470  15.212  -4.019  1.00 20.00    -0.046 C 
HETATM    8  C8  UNL     1     -35.203  17.097  -0.666  1.00 20.00     0.010 C 
HETATM    9  C9  UNL     1     -33.137  14.593  -4.488  1.00 20.00     0.015 C 
HETATM   10  C10 UNL     1     -35.531  14.094  -4.064  1.00 20.00     0.015 C 
HETATM   11  N11 UNL     1     -38.340  16.288  -4.841  1.00 20.00    -0.197 NA
ENDROOT
TORSDOF 0
ENDMDL
