MODEL 1
REMARK VINA RESULT:      -4.0      0.000      0.000
REMARK  4 active torsions:
REMARK  status: ('A' for Active; 'I' for Inactive)
REMARK    1  A    between atoms: C1_1  and  C8_8 
REMARK    2  A    between atoms: C7_7  and  N10_10 
REMARK    3  A    between atoms: C8_8  and  N10_10 
REMARK    4  A    between atoms: C9_9  and  N10_10 
ROOT
HETATM    1  N10 UNL     1     -35.674  15.928  -3.764  1.00 20.00     0.103 N 
ENDROOT
BRANCH   1   2
HETATM    2  C7  UNL     1     -36.344  17.222  -3.556  1.00 20.00     0.269 C 
HETATM    3  C3  UNL     1     -35.950  18.206  -4.604  1.00 20.00     0.037 C 
ENDBRANCH   1   2
BRANCH   1   4
HETATM    4  C8  UNL     1     -36.627  14.855  -3.855  1.00 20.00     0.287 C 
HETATM    5  C4  UNL     1     -38.001  15.351  -4.266  1.00 20.00     0.051 C 
BRANCH   4   6
HETATM    6  C1  UNL     1     -36.090  13.858  -4.869  1.00 20.00     0.155 C 
HETATM    7  C2  UNL     1     -35.727  14.404  -6.225  1.00 20.00     0.093 C 
HETATM    8  O11 UNL     1     -35.913  12.670  -4.597  1.00 20.00    -0.296 OA
ENDBRANCH   4   6
ENDBRANCH   1   4
BRANCH   1   9
HETATM    9  C9  UNL     1     -34.709  15.696  -2.678  1.00 20.00     0.216 C 
HETATM   10  C5  UNL     1     -35.121  16.512  -1.462  1.00 20.00     0.042 C 
HETATM   11  C6  UNL     1     -33.318  16.074  -3.165  1.00 20.00     0.042 C 
ENDBRANCH   1   9
TORSDOF 4
ENDMDL
MODEL 2
REMARK VINA RESULT:      -3.9      1.257      2.775
REMARK  4 active torsions:
REMARK  status: ('A' for Active; 'I' for Inactive)
REMARK    1  A    between atoms: C1_1  and  C8_8 
REMARK    2  A    between atoms: C7_7  and  N10_10 
REMARK    3  A    between atoms: C8_8  and  N10_10 
REMARK    4  A    between atoms: C9_9  and  N10_10 
ROOT
HETATM    1  N10 UNL     1     -35.115  16.020  -3.981  1.00 20.00     0.103 N 
ENDROOT
BRANCH   1   2
HETATM    2  C7  UNL     1     -34.257  16.134  -2.790  1.00 20.00     0.269 C 
HETATM    3  C3  UNL     1     -35.066  16.418  -1.570  1.00 20.00     0.037 C 
ENDBRANCH   1   2
BRANCH   1   4
HETATM    4  C8  UNL     1     -34.816  14.828  -4.728  1.00 20.00     0.287 C 
HETATM    5  C4  UNL     1     -33.492  14.216  -4.311  1.00 20.00     0.051 C 
BRANCH   4   6
HETATM    6  C1  UNL     1     -35.957  13.851  -4.497  1.00 20.00     0.155 C 
HETATM    7  C2  UNL     1     -37.329  14.447  -4.311  1.00 20.00     0.093 C 
HETATM    8  O11 UNL     1     -35.793  12.630  -4.503  1.00 20.00    -0.296 OA
ENDBRANCH   4   6
ENDBRANCH   1   4
BRANCH   1   9
HETATM    9  C9  UNL     1     -34.964  17.225  -4.812  1.00 20.00     0.216 C 
HETATM   10  C5  UNL     1     -36.191  18.107  -4.638  1.00 20.00     0.042 C 
HETATM   11  C6  UNL     1     -34.773  16.804  -6.261  1.00 20.00     0.042 C 
ENDBRANCH   1   9
TORSDOF 4
ENDMDL
MODEL 3
REMARK VINA RESULT:      -3.8      1.361      1.973
REMARK  4 active torsions:
REMARK  status: ('A' for Active; 'I' for Inactive)
REMARK    1  A    between atoms: C1_1  and  C8_8 
REMARK    2  A    between atoms: C7_7  and  N10_10 
REMARK    3  A    between atoms: C8_8  and  N10_10 
REMARK    4  A    between atoms: C9_9  and  N10_10 
ROOT
HETATM    1  N10 UNL     1     -35.384  16.051  -4.315  1.00 20.00     0.103 N 
ENDROOT
BRANCH   1   2
HETATM    2  C7  UNL     1     -35.422  17.013  -5.427  1.00 20.00     0.269 C 
HETATM    3  C3  UNL     1     -34.803  16.439  -6.656  1.00 20.00     0.037 C 
ENDBRANCH   1   2
BRANCH   1   4
HETATM    4  C8  UNL     1     -36.706  15.762  -3.828  1.00 20.00     0.287 C 
HETATM    5  C4  UNL     1     -37.728  16.759  -4.341  1.00 20.00     0.051 C 
BRANCH   4   6
HETATM    6  C1  UNL     1     -37.057  14.353  -4.277  1.00 20.00     0.155 C 
HETATM    7  C2  UNL     1     -35.901  13.421  -4.537  1.00 20.00     0.093 C 
HETATM    8  O11 UNL     1     -38.220  13.964  -4.384  1.00 20.00    -0.296 OA
ENDBRANCH   4   6
ENDBRANCH   1   4
BRANCH   1   9
HETATM    9  C9  UNL     1     -34.521  16.573  -3.243  1.00 20.00     0.216 C 
HETATM   10  C5  UNL     1     -33.120  16.004  -3.410  1.00 20.00     0.042 C 
HETATM   11  C6  UNL     1     -35.124  16.198  -1.897  1.00 20.00     0.042 C 
ENDBRANCH   1   9
TORSDOF 4
ENDMDL
MODEL 4
REMARK VINA RESULT:      -3.8      1.180      2.164
REMARK  4 active torsions:
REMARK  status: ('A' for Active; 'I' for Inactive)
REMARK    1  A    between atoms: C1_1  and  C8_8 
REMARK    2  A    between atoms: C7_7  and  N10_10 
REMARK    3  A    between atoms: C8_8  and  N10_10 
REMARK    4  A    between atoms: C9_9  and  N10_10 
ROOT
HETATM    1  N10 UNL     1     -35.239  15.272  -4.214  1.00 20.00     0.103 N 
ENDROOT
BRANCH   1   2
HETATM    2  C7  UNL     1     -34.596  15.948  -5.353  1.00 20.00     0.269 C 
HETATM    3  C3  UNL     1     -34.374  15.003  -6.484  1.00 20.00     0.037 C 
ENDBRANCH   1   2
BRANCH   1   4
HETATM    4  C8  UNL     1     -36.563  15.783  -3.982  1.00 20.00     0.287 C 
HETATM    5  C4  UNL     1     -36.868  16.983  -4.859  1.00 20.00     0.051 C 
BRANCH   4   6
HETATM    6  C1  UNL     1     -37.541  14.653  -4.258  1.00 20.00     0.155 C 
HETATM    7  C2  UNL     1     -39.006  15.003  -4.214  1.00 20.00     0.093 C 
HETATM    8  O11 UNL     1     -37.170  13.515  -4.548  1.00 20.00    -0.296 OA
ENDBRANCH   4   6
ENDBRANCH   1   4
BRANCH   1   9
HETATM    9  C9  UNL     1     -34.393  15.412  -3.019  1.00 20.00     0.216 C 
HETATM   10  C5  UNL     1     -35.177  16.141  -1.937  1.00 20.00     0.042 C 
HETATM   11  C6  UNL     1     -33.124  16.161  -3.398  1.00 20.00     0.042 C 
ENDBRANCH   1   9
TORSDOF 4
ENDMDL
MODEL 5
REMARK VINA RESULT:      -3.8      1.216      1.410
REMARK  4 active torsions:
REMARK  status: ('A' for Active; 'I' for Inactive)
REMARK    1  A    between atoms: C1_1  and  C8_8 
REMARK    2  A    between atoms: C7_7  and  N10_10 
REMARK    3  A    between atoms: C8_8  and  N10_10 
REMARK    4  A    between atoms: C9_9  and  N10_10 
ROOT
HETATM    1  N10 UNL     1     -35.148  15.837  -4.191  1.00 20.00     0.103 N 
ENDROOT
BRANCH   1   2
HETATM    2  C7  UNL     1     -36.315  16.684  -3.894  1.00 20.00     0.269 C 
HETATM    3  C3  UNL     1     -36.339  17.892  -4.767  1.00 20.00     0.037 C 
ENDBRANCH   1   2
BRANCH   1   4
HETATM    4  C8  UNL     1     -35.548  14.573  -4.748  1.00 20.00     0.287 C 
HETATM    5  C4  UNL     1     -36.988  14.234  -4.408  1.00 20.00     0.051 C 
BRANCH   4   6
HETATM    6  C1  UNL     1     -35.357  14.660  -6.253  1.00 20.00     0.155 C 
HETATM    7  C2  UNL     1     -33.994  15.083  -6.736  1.00 20.00     0.093 C 
HETATM    8  O11 UNL     1     -36.246  14.359  -7.050  1.00 20.00    -0.296 OA
ENDBRANCH   4   6
ENDBRANCH   1   4
BRANCH   1   9
HETATM    9  C9  UNL     1     -34.350  15.655  -2.968  1.00 20.00     0.216 C 
HETATM   10  C5  UNL     1     -35.121  16.218  -1.783  1.00 20.00     0.042 C 
HETATM   11  C6  UNL     1     -33.008  16.348  -3.148  1.00 20.00     0.042 C 
ENDBRANCH   1   9
TORSDOF 4
ENDMDL
MODEL 6
REMARK VINA RESULT:      -3.8      1.355      3.043
REMARK  4 active torsions:
REMARK  status: ('A' for Active; 'I' for Inactive)
REMARK    1  A    between atoms: C1_1  and  C8_8 
REMARK    2  A    between atoms: C7_7  and  N10_10 
REMARK    3  A    between atoms: C8_8  and  N10_10 
REMARK    4  A    between atoms: C9_9  and  N10_10 
ROOT
HETATM    1  N10 UNL     1     -35.449  15.975  -5.338  1.00 20.00     0.103 N 
ENDROOT
BRANCH   1   2
HETATM    2  C7  UNL     1     -35.091  17.239  -4.675  1.00 20.00     0.269 C 
HETATM    3  C3  UNL     1     -36.224  18.207  -4.713  1.00 20.00     0.037 C 
ENDBRANCH   1   2
BRANCH   1   4
HETATM    4  C8  UNL     1     -34.920  14.843  -4.627  1.00 20.00     0.287 C 
HETATM    5  C4  UNL     1     -34.355  15.238  -3.275  1.00 20.00     0.051 C 
BRANCH   4   6
HETATM    6  C1  UNL     1     -36.051  13.840  -4.465  1.00 20.00     0.155 C 
HETATM    7  C2  UNL     1     -37.438  14.408  -4.306  1.00 20.00     0.093 C 
HETATM    8  O11 UNL     1     -35.866  12.624  -4.504  1.00 20.00    -0.296 OA
ENDBRANCH   4   6
ENDBRANCH   1   4
BRANCH   1   9
HETATM    9  C9  UNL     1     -34.976  16.001  -6.731  1.00 20.00     0.216 C 
HETATM   10  C5  UNL     1     -36.130  15.640  -7.656  1.00 20.00     0.042 C 
HETATM   11  C6  UNL     1     -33.814  15.030  -6.876  1.00 20.00     0.042 C 
ENDBRANCH   1   9
TORSDOF 4
ENDMDL
MODEL 7
REMARK VINA RESULT:      -3.7      1.349      2.589
REMARK  4 active torsions:
REMARK  status: ('A' for Active; 'I' for Inactive)
REMARK    1  A    between atoms: C1_1  and  C8_8 
REMARK    2  A    between atoms: C7_7  and  N10_10 
REMARK    3  A    between atoms: C8_8  and  N10_10 
REMARK    4  A    between atoms: C9_9  and  N10_10 
ROOT
HETATM    1  N10 UNL     1     -35.565  15.465  -4.744  1.00 20.00     0.103 N 
ENDROOT
BRANCH   1   2
HETATM    2  C7  UNL     1     -35.419  16.062  -6.081  1.00 20.00     0.269 C 
HETATM    3  C3  UNL     1     -35.462  15.017  -7.143  1.00 20.00     0.037 C 
ENDBRANCH   1   2
BRANCH   1   4
HETATM    4  C8  UNL     1     -36.795  15.875  -4.120  1.00 20.00     0.287 C 
HETATM    5  C4  UNL     1     -37.344  17.149  -4.736  1.00 20.00     0.051 C 
BRANCH   4   6
HETATM    6  C1  UNL     1     -37.785  14.733  -4.275  1.00 20.00     0.155 C 
HETATM    7  C2  UNL     1     -39.246  15.097  -4.239  1.00 20.00     0.093 C 
HETATM    8  O11 UNL     1     -37.427  13.570  -4.466  1.00 20.00    -0.296 OA
ENDBRANCH   4   6
ENDBRANCH   1   4
BRANCH   1   9
HETATM    9  C9  UNL     1     -34.401  15.822  -3.917  1.00 20.00     0.216 C 
HETATM   10  C5  UNL     1     -33.270  14.844  -4.202  1.00 20.00     0.042 C 
HETATM   11  C6  UNL     1     -34.810  15.799  -2.452  1.00 20.00     0.042 C 
ENDBRANCH   1   9
TORSDOF 4
ENDMDL
MODEL 8
REMARK VINA RESULT:      -3.6      2.208      4.043
REMARK  4 active torsions:
REMARK  status: ('A' for Active; 'I' for Inactive)
REMARK    1  A    between atoms: C1_1  and  C8_8 
REMARK    2  A    between atoms: C7_7  and  N10_10 
REMARK    3  A    between atoms: C8_8  and  N10_10 
REMARK    4  A    between atoms: C9_9  and  N10_10 
ROOT
HETATM    1  N10 UNL     1     -34.744  15.361  -5.300  1.00 20.00     0.103 N 
ENDROOT
BRANCH   1   2
HETATM    2  C7  UNL     1     -33.958  15.065  -6.509  1.00 20.00     0.269 C 
HETATM    3  C3  UNL     1     -34.221  16.069  -7.579  1.00 20.00     0.037 C 
ENDBRANCH   1   2
BRANCH   1   4
HETATM    4  C8  UNL     1     -34.093  14.862  -4.118  1.00 20.00     0.287 C 
HETATM    5  C4  UNL     1     -32.735  14.261  -4.432  1.00 20.00     0.051 C 
BRANCH   4   6
HETATM    6  C1  UNL     1     -33.955  16.025  -3.150  1.00 20.00     0.155 C 
HETATM    7  C2  UNL     1     -34.963  16.095  -2.032  1.00 20.00     0.093 C 
HETATM    8  O11 UNL     1     -33.046  16.851  -3.235  1.00 20.00    -0.296 OA
ENDBRANCH   4   6
ENDBRANCH   1   4
BRANCH   1   9
HETATM    9  C9  UNL     1     -36.096  14.800  -5.444  1.00 20.00     0.216 C 
HETATM   10  C5  UNL     1     -37.119  15.873  -5.104  1.00 20.00     0.042 C 
HETATM   11  C6  UNL     1     -36.227  13.588  -4.532  1.00 20.00     0.042 C 
ENDBRANCH   1   9
TORSDOF 4
ENDMDL
MODEL 9
REMARK VINA RESULT:      -3.6      1.338      2.750
REMARK  4 active torsions:
REMARK  status: ('A' for Active; 'I' for Inactive)
REMARK    1  A    between atoms: C1_1  and  C8_8 
REMARK    2  A    between atoms: C7_7  and  N10_10 
REMARK    3  A    between atoms: C8_8  and  N10_10 
REMARK    4  A    between atoms: C9_9  and  N10_10 
ROOT
HETATM    1  N10 UNL     1     -35.276  16.129  -3.866  1.00 20.00     0.103 N 
ENDROOT
BRANCH   1   2
HETATM    2  C7  UNL     1     -34.511  15.834  -2.645  1.00 20.00     0.269 C 
HETATM    3  C3  UNL     1     -35.100  16.522  -1.461  1.00 20.00     0.037 C 
ENDBRANCH   1   2
BRANCH   1   4
HETATM    4  C8  UNL     1     -35.702  14.922  -4.522  1.00 20.00     0.287 C 
HETATM    5  C4  UNL     1     -34.990  13.699  -3.973  1.00 20.00     0.051 C 
BRANCH   4   6
HETATM    6  C1  UNL     1     -37.204  14.804  -4.323  1.00 20.00     0.155 C 
HETATM    7  C2  UNL     1     -37.957  16.089  -4.096  1.00 20.00     0.093 C 
HETATM    8  O11 UNL     1     -37.796  13.726  -4.387  1.00 20.00    -0.296 OA
ENDBRANCH   4   6
ENDBRANCH   1   4
BRANCH   1   9
HETATM    9  C9  UNL     1     -34.465  16.968  -4.763  1.00 20.00     0.216 C 
HETATM   10  C5  UNL     1     -34.943  18.409  -4.665  1.00 20.00     0.042 C 
HETATM   11  C6  UNL     1     -34.582  16.430  -6.181  1.00 20.00     0.042 C 
ENDBRANCH   1   9
TORSDOF 4
ENDMDL
