MODEL 1
REMARK VINA RESULT:      -3.9      0.000      0.000
REMARK  3 active torsions:
REMARK  status: ('A' for Active; 'I' for Inactive)
REMARK    1  A    between atoms: C5_5  and  C6_6 
REMARK    2  A    between atoms: C6_6  and  C7_7 
REMARK    3  A    between atoms: C7_7  and  N9_9 
ROOT
HETATM    1  C1  UNL     1     -36.271  14.144  -4.402  1.00 20.00     0.095 C 
HETATM    2  C7  UNL     1     -34.927  14.741  -4.341  1.00 20.00     0.327 C 
HETATM    3  N8  UNL     1     -37.330  13.670  -4.452  1.00 20.00    -0.195 NA
ENDROOT
BRANCH   2   4
HETATM    4  C6  UNL     1     -34.651  15.378  -2.968  1.00 20.00     0.050 C 
BRANCH   4   5
HETATM    5  C5  UNL     1     -33.366  16.215  -2.891  1.00 20.00    -0.001 C 
HETATM    6  C2  UNL     1     -33.498  17.333  -1.866  1.00 20.00     0.005 C 
ENDBRANCH   4   5
ENDBRANCH   2   4
BRANCH   2   7
HETATM    7  N9  UNL     1     -34.753  15.715  -5.417  1.00 20.00     0.098 N 
HETATM    8  C3  UNL     1     -35.880  16.648  -5.451  1.00 20.00     0.311 C 
HETATM    9  C4  UNL     1     -34.616  15.034  -6.705  1.00 20.00     0.311 C 
ENDBRANCH   2   7
TORSDOF 3
ENDMDL
MODEL 2
REMARK VINA RESULT:      -3.8      0.842      1.448
REMARK  3 active torsions:
REMARK  status: ('A' for Active; 'I' for Inactive)
REMARK    1  A    between atoms: C5_5  and  C6_6 
REMARK    2  A    between atoms: C6_6  and  C7_7 
REMARK    3  A    between atoms: C7_7  and  N9_9 
ROOT
HETATM    1  C1  UNL     1     -37.102  14.386  -4.396  1.00 20.00     0.095 C 
HETATM    2  C7  UNL     1     -35.738  14.938  -4.436  1.00 20.00     0.327 C 
HETATM    3  N8  UNL     1     -38.176  13.946  -4.364  1.00 20.00    -0.195 NA
ENDROOT
BRANCH   2   4
HETATM    4  C6  UNL     1     -35.559  16.084  -3.424  1.00 20.00     0.050 C 
BRANCH   4   5
HETATM    5  C5  UNL     1     -34.422  15.880  -2.412  1.00 20.00    -0.001 C 
HETATM    6  C2  UNL     1     -33.156  16.600  -2.856  1.00 20.00     0.005 C 
ENDBRANCH   4   5
ENDBRANCH   2   4
BRANCH   2   7
HETATM    7  N9  UNL     1     -35.406  15.377  -5.791  1.00 20.00     0.098 N 
HETATM    8  C3  UNL     1     -34.027  15.019  -6.123  1.00 20.00     0.311 C 
HETATM    9  C4  UNL     1     -35.604  16.821  -5.923  1.00 20.00     0.311 C 
ENDBRANCH   2   7
TORSDOF 3
ENDMDL
MODEL 3
REMARK VINA RESULT:      -3.8      1.343      1.599
REMARK  3 active torsions:
REMARK  status: ('A' for Active; 'I' for Inactive)
REMARK    1  A    between atoms: C5_5  and  C6_6 
REMARK    2  A    between atoms: C6_6  and  C7_7 
REMARK    3  A    between atoms: C7_7  and  N9_9 
ROOT
HETATM    1  C1  UNL     1     -35.668  13.878  -4.340  1.00 20.00     0.095 C 
HETATM    2  C7  UNL     1     -35.438  15.315  -4.118  1.00 20.00     0.327 C 
HETATM    3  N8  UNL     1     -35.847  12.745  -4.520  1.00 20.00    -0.195 NA
ENDROOT
BRANCH   2   4
HETATM    4  C6  UNL     1     -35.340  15.648  -2.618  1.00 20.00     0.050 C 
BRANCH   4   5
HETATM    5  C5  UNL     1     -34.111  16.479  -2.220  1.00 20.00    -0.001 C 
HETATM    6  C2  UNL     1     -32.992  16.329  -3.240  1.00 20.00     0.005 C 
ENDBRANCH   4   5
ENDBRANCH   2   4
BRANCH   2   7
HETATM    7  N9  UNL     1     -36.484  16.104  -4.765  1.00 20.00     0.098 N 
HETATM    8  C3  UNL     1     -37.796  15.767  -4.212  1.00 20.00     0.311 C 
HETATM    9  C4  UNL     1     -36.469  15.886  -6.211  1.00 20.00     0.311 C 
ENDBRANCH   2   7
TORSDOF 3
ENDMDL
MODEL 4
REMARK VINA RESULT:      -3.6      1.442      3.372
REMARK  3 active torsions:
REMARK  status: ('A' for Active; 'I' for Inactive)
REMARK    1  A    between atoms: C5_5  and  C6_6 
REMARK    2  A    between atoms: C6_6  and  C7_7 
REMARK    3  A    between atoms: C7_7  and  N9_9 
ROOT
HETATM    1  C1  UNL     1     -35.508  13.918  -4.305  1.00 20.00     0.095 C 
HETATM    2  C7  UNL     1     -35.175  15.336  -4.091  1.00 20.00     0.327 C 
HETATM    3  N8  UNL     1     -35.774  12.801  -4.472  1.00 20.00    -0.195 NA
ENDROOT
BRANCH   2   4
HETATM    4  C6  UNL     1     -34.459  15.942  -5.312  1.00 20.00     0.050 C 
BRANCH   4   5
HETATM    5  C5  UNL     1     -35.035  15.522  -6.672  1.00 20.00    -0.001 C 
HETATM    6  C2  UNL     1     -33.928  15.274  -7.686  1.00 20.00     0.005 C 
ENDBRANCH   4   5
ENDBRANCH   2   4
BRANCH   2   7
HETATM    7  N9  UNL     1     -34.372  15.493  -2.880  1.00 20.00     0.098 N 
HETATM    8  C3  UNL     1     -35.129  16.209  -1.852  1.00 20.00     0.311 C 
HETATM    9  C4  UNL     1     -33.127  16.200  -3.180  1.00 20.00     0.311 C 
ENDBRANCH   2   7
TORSDOF 3
ENDMDL
MODEL 5
REMARK VINA RESULT:      -3.6     17.967     19.007
REMARK  3 active torsions:
REMARK  status: ('A' for Active; 'I' for Inactive)
REMARK    1  A    between atoms: C5_5  and  C6_6 
REMARK    2  A    between atoms: C6_6  and  C7_7 
REMARK    3  A    between atoms: C7_7  and  N9_9 
ROOT
HETATM    1  C1  UNL     1     -25.810  18.725  11.349  1.00 20.00     0.095 C 
HETATM    2  C7  UNL     1     -24.417  18.346  11.063  1.00 20.00     0.327 C 
HETATM    3  N8  UNL     1     -26.907  19.028  11.578  1.00 20.00    -0.195 NA
ENDROOT
BRANCH   2   4
HETATM    4  C6  UNL     1     -24.276  17.718   9.664  1.00 20.00     0.050 C 
BRANCH   4   5
HETATM    5  C5  UNL     1     -23.252  18.405   8.749  1.00 20.00    -0.001 C 
HETATM    6  C2  UNL     1     -22.211  17.414   8.248  1.00 20.00     0.005 C 
ENDBRANCH   4   5
ENDBRANCH   2   4
BRANCH   2   7
HETATM    7  N9  UNL     1     -23.911  17.444  12.097  1.00 20.00     0.098 N 
HETATM    8  C3  UNL     1     -22.474  17.640  12.290  1.00 20.00     0.311 C 
HETATM    9  C4  UNL     1     -24.193  16.053  11.744  1.00 20.00     0.311 C 
ENDBRANCH   2   7
TORSDOF 3
ENDMDL
MODEL 6
REMARK VINA RESULT:      -3.5      1.353      2.524
REMARK  3 active torsions:
REMARK  status: ('A' for Active; 'I' for Inactive)
REMARK    1  A    between atoms: C5_5  and  C6_6 
REMARK    2  A    between atoms: C6_6  and  C7_7 
REMARK    3  A    between atoms: C7_7  and  N9_9 
ROOT
HETATM    1  C1  UNL     1     -34.241  15.246  -6.510  1.00 20.00     0.095 C 
HETATM    2  C7  UNL     1     -34.966  15.450  -5.245  1.00 20.00     0.327 C 
HETATM    3  N8  UNL     1     -33.672  15.088  -7.510  1.00 20.00    -0.195 NA
ENDROOT
BRANCH   2   4
HETATM    4  C6  UNL     1     -34.191  14.872  -4.048  1.00 20.00     0.050 C 
BRANCH   4   5
HETATM    5  C5  UNL     1     -33.814  15.896  -2.967  1.00 20.00    -0.001 C 
HETATM    6  C2  UNL     1     -34.955  16.100  -1.981  1.00 20.00     0.005 C 
ENDBRANCH   4   5
ENDBRANCH   2   4
BRANCH   2   7
HETATM    7  N9  UNL     1     -36.308  14.878  -5.329  1.00 20.00     0.098 N 
HETATM    8  C3  UNL     1     -37.305  15.840  -4.857  1.00 20.00     0.311 C 
HETATM    9  C4  UNL     1     -36.386  13.641  -4.551  1.00 20.00     0.311 C 
ENDBRANCH   2   7
TORSDOF 3
ENDMDL
MODEL 7
REMARK VINA RESULT:      -3.5      1.232      2.289
REMARK  3 active torsions:
REMARK  status: ('A' for Active; 'I' for Inactive)
REMARK    1  A    between atoms: C5_5  and  C6_6 
REMARK    2  A    between atoms: C6_6  and  C7_7 
REMARK    3  A    between atoms: C7_7  and  N9_9 
ROOT
HETATM    1  C1  UNL     1     -34.382  15.174  -5.520  1.00 20.00     0.095 C 
HETATM    2  C7  UNL     1     -35.136  15.793  -4.418  1.00 20.00     0.327 C 
HETATM    3  N8  UNL     1     -33.787  14.689  -6.392  1.00 20.00    -0.195 NA
ENDROOT
BRANCH   2   4
HETATM    4  C6  UNL     1     -34.601  15.350  -3.045  1.00 20.00     0.050 C 
BRANCH   4   5
HETATM    5  C5  UNL     1     -34.386  16.488  -2.037  1.00 20.00    -0.001 C 
HETATM    6  C2  UNL     1     -33.047  17.176  -2.260  1.00 20.00     0.005 C 
ENDBRANCH   4   5
ENDBRANCH   2   4
BRANCH   2   7
HETATM    7  N9  UNL     1     -36.561  15.498  -4.547  1.00 20.00     0.098 N 
HETATM    8  C3  UNL     1     -36.793  14.054  -4.498  1.00 20.00     0.311 C 
HETATM    9  C4  UNL     1     -37.088  16.056  -5.793  1.00 20.00     0.311 C 
ENDBRANCH   2   7
TORSDOF 3
ENDMDL
MODEL 8
REMARK VINA RESULT:      -3.4      1.569      3.043
REMARK  3 active torsions:
REMARK  status: ('A' for Active; 'I' for Inactive)
REMARK    1  A    between atoms: C5_5  and  C6_6 
REMARK    2  A    between atoms: C6_6  and  C7_7 
REMARK    3  A    between atoms: C7_7  and  N9_9 
ROOT
HETATM    1  C1  UNL     1     -35.753  13.889  -4.249  1.00 20.00     0.095 C 
HETATM    2  C7  UNL     1     -35.625  15.295  -3.833  1.00 20.00     0.327 C 
HETATM    3  N8  UNL     1     -35.857  12.780  -4.575  1.00 20.00    -0.195 NA
ENDROOT
BRANCH   2   4
HETATM    4  C6  UNL     1     -35.329  16.217  -5.030  1.00 20.00     0.050 C 
BRANCH   4   5
HETATM    5  C5  UNL     1     -36.333  17.362  -5.227  1.00 20.00    -0.001 C 
HETATM    6  C2  UNL     1     -37.587  17.145  -4.392  1.00 20.00     0.005 C 
ENDBRANCH   4   5
ENDBRANCH   2   4
BRANCH   2   7
HETATM    7  N9  UNL     1     -34.600  15.429  -2.799  1.00 20.00     0.098 N 
HETATM    8  C3  UNL     1     -35.044  16.351  -1.754  1.00 20.00     0.311 C 
HETATM    9  C4  UNL     1     -33.341  15.889  -3.385  1.00 20.00     0.311 C 
ENDBRANCH   2   7
TORSDOF 3
ENDMDL
MODEL 9
REMARK VINA RESULT:      -3.4     17.355     18.521
REMARK  3 active torsions:
REMARK  status: ('A' for Active; 'I' for Inactive)
REMARK    1  A    between atoms: C5_5  and  C6_6 
REMARK    2  A    between atoms: C6_6  and  C7_7 
REMARK    3  A    between atoms: C7_7  and  N9_9 
ROOT
HETATM    1  C1  UNL     1     -24.507  16.658  11.528  1.00 20.00     0.095 C 
HETATM    2  C7  UNL     1     -24.463  18.067  11.106  1.00 20.00     0.327 C 
HETATM    3  N8  UNL     1     -24.538  15.546  11.862  1.00 20.00    -0.195 NA
ENDROOT
BRANCH   2   4
HETATM    4  C6  UNL     1     -25.771  18.803  11.448  1.00 20.00     0.050 C 
BRANCH   4   5
HETATM    5  C5  UNL     1     -26.747  18.009  12.328  1.00 20.00    -0.001 C 
HETATM    6  C2  UNL     1     -28.192  18.324  11.969  1.00 20.00     0.005 C 
ENDBRANCH   4   5
ENDBRANCH   2   4
BRANCH   2   7
HETATM    7  N9  UNL     1     -24.164  18.162   9.678  1.00 20.00     0.098 N 
HETATM    8  C3  UNL     1     -22.779  18.584   9.471  1.00 20.00     0.311 C 
HETATM    9  C4  UNL     1     -25.084  19.093   9.024  1.00 20.00     0.311 C 
ENDBRANCH   2   7
TORSDOF 3
ENDMDL
