MODEL 1
REMARK VINA RESULT:      -4.1      0.000      0.000
REMARK  3 active torsions:
REMARK  status: ('A' for Active; 'I' for Inactive)
REMARK    1  A    between atoms: C5_5  and  C6_6 
REMARK    2  A    between atoms: C6_6  and  C7_7 
REMARK    3  A    between atoms: C7_7  and  N9_9 
ROOT
HETATM    1  C1  UNL     1     -37.073  14.433  -4.520  1.00 20.00     0.095 C 
HETATM    2  C7  UNL     1     -35.760  15.046  -4.783  1.00 20.00     0.327 C 
HETATM    3  N8  UNL     1     -38.109  13.954  -4.310  1.00 20.00    -0.195 NA
ENDROOT
BRANCH   2   4
HETATM    4  C6  UNL     1     -34.730  14.660  -3.705  1.00 20.00     0.050 C 
BRANCH   4   5
HETATM    5  C5  UNL     1     -34.508  15.718  -2.616  1.00 20.00    -0.001 C 
HETATM    6  C2  UNL     1     -33.215  16.485  -2.848  1.00 20.00     0.005 C 
ENDBRANCH   4   5
ENDBRANCH   2   4
BRANCH   2   7
HETATM    7  N9  UNL     1     -35.289  14.688  -6.120  1.00 20.00     0.098 N 
HETATM    8  C3  UNL     1     -33.860  14.969  -6.250  1.00 20.00     0.311 C 
HETATM    9  C4  UNL     1     -36.047  15.411  -7.140  1.00 20.00     0.311 C 
ENDBRANCH   2   7
TORSDOF 3
ENDMDL
MODEL 2
REMARK VINA RESULT:      -4.0      1.267      1.805
REMARK  3 active torsions:
REMARK  status: ('A' for Active; 'I' for Inactive)
REMARK    1  A    between atoms: C5_5  and  C6_6 
REMARK    2  A    between atoms: C6_6  and  C7_7 
REMARK    3  A    between atoms: C7_7  and  N9_9 
ROOT
HETATM    1  C1  UNL     1     -35.563  13.863  -4.446  1.00 20.00     0.095 C 
HETATM    2  C7  UNL     1     -35.096  15.259  -4.392  1.00 20.00     0.327 C 
HETATM    3  N8  UNL     1     -35.933  12.764  -4.486  1.00 20.00    -0.195 NA
ENDROOT
BRANCH   2   4
HETATM    4  C6  UNL     1     -33.744  15.373  -3.663  1.00 20.00     0.050 C 
BRANCH   4   5
HETATM    5  C5  UNL     1     -33.725  16.361  -2.488  1.00 20.00    -0.001 C 
HETATM    6  C2  UNL     1     -35.055  16.364  -1.750  1.00 20.00     0.005 C 
ENDBRANCH   4   5
ENDBRANCH   2   4
BRANCH   2   7
HETATM    7  N9  UNL     1     -35.024  15.826  -5.737  1.00 20.00     0.098 N 
HETATM    8  C3  UNL     1     -36.353  15.864  -6.347  1.00 20.00     0.311 C 
HETATM    9  C4  UNL     1     -34.102  15.053  -6.569  1.00 20.00     0.311 C 
ENDBRANCH   2   7
TORSDOF 3
ENDMDL
MODEL 3
REMARK VINA RESULT:      -3.9      1.450      1.648
REMARK  3 active torsions:
REMARK  status: ('A' for Active; 'I' for Inactive)
REMARK    1  A    between atoms: C5_5  and  C6_6 
REMARK    2  A    between atoms: C6_6  and  C7_7 
REMARK    3  A    between atoms: C7_7  and  N9_9 
ROOT
HETATM    1  C1  UNL     1     -35.563  13.888  -4.498  1.00 20.00     0.095 C 
HETATM    2  C7  UNL     1     -35.083  15.279  -4.501  1.00 20.00     0.327 C 
HETATM    3  N8  UNL     1     -35.944  12.791  -4.492  1.00 20.00    -0.195 NA
ENDROOT
BRANCH   2   4
HETATM    4  C6  UNL     1     -33.710  15.404  -3.813  1.00 20.00     0.050 C 
BRANCH   4   5
HETATM    5  C5  UNL     1     -33.694  16.289  -2.559  1.00 20.00    -0.001 C 
HETATM    6  C2  UNL     1     -35.040  16.266  -1.851  1.00 20.00     0.005 C 
ENDBRANCH   4   5
ENDBRANCH   2   4
BRANCH   2   7
HETATM    7  N9  UNL     1     -35.043  15.802  -5.865  1.00 20.00     0.098 N 
HETATM    8  C3  UNL     1     -34.047  15.083  -6.659  1.00 20.00     0.311 C 
HETATM    9  C4  UNL     1     -34.750  17.235  -5.855  1.00 20.00     0.311 C 
ENDBRANCH   2   7
TORSDOF 3
ENDMDL
MODEL 4
REMARK VINA RESULT:      -3.8     17.211     18.879
REMARK  3 active torsions:
REMARK  status: ('A' for Active; 'I' for Inactive)
REMARK    1  A    between atoms: C5_5  and  C6_6 
REMARK    2  A    between atoms: C6_6  and  C7_7 
REMARK    3  A    between atoms: C7_7  and  N9_9 
ROOT
HETATM    1  C1  UNL     1     -22.795  17.337   8.592  1.00 20.00     0.095 C 
HETATM    2  C7  UNL     1     -23.814  17.751   9.570  1.00 20.00     0.327 C 
HETATM    3  N8  UNL     1     -21.992  17.006   7.822  1.00 20.00    -0.195 NA
ENDROOT
BRANCH   2   4
HETATM    4  C6  UNL     1     -23.215  17.900  10.981  1.00 20.00     0.050 C 
BRANCH   4   5
HETATM    5  C5  UNL     1     -23.386  16.675  11.889  1.00 20.00    -0.001 C 
HETATM    6  C2  UNL     1     -24.686  15.944  11.589  1.00 20.00     0.005 C 
ENDBRANCH   4   5
ENDBRANCH   2   4
BRANCH   2   7
HETATM    7  N9  UNL     1     -24.465  18.986   9.137  1.00 20.00     0.098 N 
HETATM    8  C3  UNL     1     -25.640  19.262   9.964  1.00 20.00     0.311 C 
HETATM    9  C4  UNL     1     -24.843  18.897   7.727  1.00 20.00     0.311 C 
ENDBRANCH   2   7
TORSDOF 3
ENDMDL
MODEL 5
REMARK VINA RESULT:      -3.5      1.510      3.323
REMARK  3 active torsions:
REMARK  status: ('A' for Active; 'I' for Inactive)
REMARK    1  A    between atoms: C5_5  and  C6_6 
REMARK    2  A    between atoms: C6_6  and  C7_7 
REMARK    3  A    between atoms: C7_7  and  N9_9 
ROOT
HETATM    1  C1  UNL     1     -36.159  14.002  -4.255  1.00 20.00     0.095 C 
HETATM    2  C7  UNL     1     -34.788  14.401  -3.895  1.00 20.00     0.327 C 
HETATM    3  N8  UNL     1     -37.238  13.684  -4.539  1.00 20.00    -0.195 NA
ENDROOT
BRANCH   2   4
HETATM    4  C6  UNL     1     -33.991  14.860  -5.130  1.00 20.00     0.050 C 
BRANCH   4   5
HETATM    5  C5  UNL     1     -34.814  14.990  -6.419  1.00 20.00    -0.001 C 
HETATM    6  C2  UNL     1     -33.923  15.295  -7.613  1.00 20.00     0.005 C 
ENDBRANCH   4   5
ENDBRANCH   2   4
BRANCH   2   7
HETATM    7  N9  UNL     1     -34.812  15.436  -2.863  1.00 20.00     0.098 N 
HETATM    8  C3  UNL     1     -35.915  16.368  -3.100  1.00 20.00     0.311 C 
HETATM    9  C4  UNL     1     -33.538  16.152  -2.827  1.00 20.00     0.311 C 
ENDBRANCH   2   7
TORSDOF 3
ENDMDL
MODEL 6
REMARK VINA RESULT:      -3.4     17.965     19.393
REMARK  3 active torsions:
REMARK  status: ('A' for Active; 'I' for Inactive)
REMARK    1  A    between atoms: C5_5  and  C6_6 
REMARK    2  A    between atoms: C6_6  and  C7_7 
REMARK    3  A    between atoms: C7_7  and  N9_9 
ROOT
HETATM    1  C1  UNL     1     -24.624  18.541   9.278  1.00 20.00     0.095 C 
HETATM    2  C7  UNL     1     -23.687  17.622   9.944  1.00 20.00     0.327 C 
HETATM    3  N8  UNL     1     -25.363  19.263   8.749  1.00 20.00    -0.195 NA
ENDROOT
BRANCH   2   4
HETATM    4  C6  UNL     1     -22.238  18.137   9.863  1.00 20.00     0.050 C 
BRANCH   4   5
HETATM    5  C5  UNL     1     -21.296  17.286   9.000  1.00 20.00    -0.001 C 
HETATM    6  C2  UNL     1     -21.699  17.336   7.533  1.00 20.00     0.005 C 
ENDBRANCH   4   5
ENDBRANCH   2   4
BRANCH   2   7
HETATM    7  N9  UNL     1     -24.093  17.394  11.329  1.00 20.00     0.098 N 
HETATM    8  C3  UNL     1     -23.009  17.749  12.245  1.00 20.00     0.311 C 
HETATM    9  C4  UNL     1     -24.490  16.000  11.524  1.00 20.00     0.311 C 
ENDBRANCH   2   7
TORSDOF 3
ENDMDL
MODEL 7
REMARK VINA RESULT:      -3.4     11.044     12.209
REMARK  3 active torsions:
REMARK  status: ('A' for Active; 'I' for Inactive)
REMARK    1  A    between atoms: C5_5  and  C6_6 
REMARK    2  A    between atoms: C6_6  and  C7_7 
REMARK    3  A    between atoms: C7_7  and  N9_9 
ROOT
HETATM    1  C1  UNL     1     -33.177   5.227   2.648  1.00 20.00     0.095 C 
HETATM    2  C7  UNL     1     -33.017   6.322   3.619  1.00 20.00     0.327 C 
HETATM    3  N8  UNL     1     -33.299   4.363   1.883  1.00 20.00    -0.195 NA
ENDROOT
BRANCH   2   4
HETATM    4  C6  UNL     1     -32.620   7.639   2.925  1.00 20.00     0.050 C 
BRANCH   4   5
HETATM    5  C5  UNL     1     -32.493   7.551   1.398  1.00 20.00    -0.001 C 
HETATM    6  C2  UNL     1     -32.887   8.863   0.736  1.00 20.00     0.005 C 
ENDBRANCH   4   5
ENDBRANCH   2   4
BRANCH   2   7
HETATM    7  N9  UNL     1     -34.235   6.485   4.410  1.00 20.00     0.098 N 
HETATM    8  C3  UNL     1     -33.905   6.840   5.790  1.00 20.00     0.311 C 
HETATM    9  C4  UNL     1     -35.035   5.261   4.374  1.00 20.00     0.311 C 
ENDBRANCH   2   7
TORSDOF 3
ENDMDL
MODEL 8
REMARK VINA RESULT:      -3.4     11.546     12.445
REMARK  3 active torsions:
REMARK  status: ('A' for Active; 'I' for Inactive)
REMARK    1  A    between atoms: C5_5  and  C6_6 
REMARK    2  A    between atoms: C6_6  and  C7_7 
REMARK    3  A    between atoms: C7_7  and  N9_9 
ROOT
HETATM    1  C1  UNL     1     -33.223   4.893   2.485  1.00 20.00     0.095 C 
HETATM    2  C7  UNL     1     -33.471   6.322   2.733  1.00 20.00     0.327 C 
HETATM    3  N8  UNL     1     -33.031   3.765   2.287  1.00 20.00    -0.195 NA
ENDROOT
BRANCH   2   4
HETATM    4  C6  UNL     1     -33.958   6.569   4.174  1.00 20.00     0.050 C 
BRANCH   4   5
HETATM    5  C5  UNL     1     -35.014   5.576   4.678  1.00 20.00    -0.001 C 
HETATM    6  C2  UNL     1     -34.728   5.147   6.110  1.00 20.00     0.005 C 
ENDBRANCH   4   5
ENDBRANCH   2   4
BRANCH   2   7
HETATM    7  N9  UNL     1     -32.275   7.108   2.435  1.00 20.00     0.098 N 
HETATM    8  C3  UNL     1     -31.773   7.754   3.647  1.00 20.00     0.311 C 
HETATM    9  C4  UNL     1     -32.562   8.106   1.405  1.00 20.00     0.311 C 
ENDBRANCH   2   7
TORSDOF 3
ENDMDL
MODEL 9
REMARK VINA RESULT:      -3.4      1.631      2.011
REMARK  3 active torsions:
REMARK  status: ('A' for Active; 'I' for Inactive)
REMARK    1  A    between atoms: C5_5  and  C6_6 
REMARK    2  A    between atoms: C6_6  and  C7_7 
REMARK    3  A    between atoms: C7_7  and  N9_9 
ROOT
HETATM    1  C1  UNL     1     -37.072  14.739  -4.095  1.00 20.00     0.095 C 
HETATM    2  C7  UNL     1     -36.191  15.844  -3.682  1.00 20.00     0.327 C 
HETATM    3  N8  UNL     1     -37.768  13.868  -4.416  1.00 20.00    -0.195 NA
ENDROOT
BRANCH   2   4
HETATM    4  C6  UNL     1     -34.948  15.328  -2.933  1.00 20.00     0.050 C 
BRANCH   4   5
HETATM    5  C5  UNL     1     -33.604  15.721  -3.562  1.00 20.00    -0.001 C 
HETATM    6  C2  UNL     1     -33.004  14.566  -4.349  1.00 20.00     0.005 C 
ENDBRANCH   4   5
ENDBRANCH   2   4
BRANCH   2   7
HETATM    7  N9  UNL     1     -35.815  16.655  -4.839  1.00 20.00     0.098 N 
HETATM    8  C3  UNL     1     -36.403  17.991  -4.739  1.00 20.00     0.311 C 
HETATM    9  C4  UNL     1     -36.234  16.003  -6.079  1.00 20.00     0.311 C 
ENDBRANCH   2   7
TORSDOF 3
ENDMDL
