MODEL 1
REMARK VINA RESULT:      -4.8      0.000      0.000
REMARK  4 active torsions:
REMARK  status: ('A' for Active; 'I' for Inactive)
REMARK    1  A    between atoms: C1_1  and  C8_8 
REMARK    2  A    between atoms: C4_4  and  C7_7 
REMARK    3  A    between atoms: C7_7  and  O10_10 
REMARK    4  A    between atoms: C8_8  and  O10_10 
ROOT
HETATM    1  C6  UNL     1     -33.187   4.719   2.481  1.00 20.00     0.048 C 
HETATM    2  C8  UNL     1     -33.856   5.905   3.153  1.00 20.00     0.186 C 
ENDROOT
BRANCH   2   3
HETATM    3  C1  UNL     1     -34.452   5.520   4.499  1.00 20.00     0.151 C 
HETATM    4  C5  UNL     1     -34.175   6.441   5.661  1.00 20.00     0.093 C 
HETATM    5  O9  UNL     1     -35.129   4.502   4.649  1.00 20.00    -0.296 OA
ENDBRANCH   2   3
BRANCH   2   6
HETATM    6  O10 UNL     1     -32.876   6.912   3.349  1.00 20.00    -0.378 OA
BRANCH   6   7
HETATM    7  C7  UNL     1     -32.271   7.302   2.123  1.00 20.00     0.173 C 
BRANCH   7   8
HETATM    8  C4  UNL     1     -33.250   8.150   1.337  1.00 20.00     0.009 A 
HETATM    9  C2  UNL     1     -32.844   9.507   0.835  1.00 20.00     0.007 A 
HETATM   10  C3  UNL     1     -33.044   8.377  -0.134  1.00 20.00     0.007 A 
ENDBRANCH   7   8
ENDBRANCH   6   7
ENDBRANCH   2   6
TORSDOF 4
ENDMDL
MODEL 2
REMARK VINA RESULT:      -4.5     10.625     11.344
REMARK  4 active torsions:
REMARK  status: ('A' for Active; 'I' for Inactive)
REMARK    1  A    between atoms: C1_1  and  C8_8 
REMARK    2  A    between atoms: C4_4  and  C7_7 
REMARK    3  A    between atoms: C7_7  and  O10_10 
REMARK    4  A    between atoms: C8_8  and  O10_10 
ROOT
HETATM    1  C6  UNL     1     -35.554  15.007  -6.909  1.00 20.00     0.048 C 
HETATM    2  C8  UNL     1     -35.191  14.779  -5.453  1.00 20.00     0.186 C 
ENDROOT
BRANCH   2   3
HETATM    3  C1  UNL     1     -36.173  13.835  -4.774  1.00 20.00     0.151 C 
HETATM    4  C5  UNL     1     -37.477  14.424  -4.301  1.00 20.00     0.093 C 
HETATM    5  O9  UNL     1     -35.924  12.641  -4.607  1.00 20.00    -0.296 OA
ENDBRANCH   2   3
BRANCH   2   6
HETATM    6  O10 UNL     1     -33.891  14.212  -5.404  1.00 20.00    -0.378 OA
BRANCH   6   7
HETATM    7  C7  UNL     1     -33.161  14.671  -4.273  1.00 20.00     0.173 C 
BRANCH   7   8
HETATM    8  C4  UNL     1     -33.774  15.966  -3.782  1.00 20.00     0.009 A 
HETATM    9  C2  UNL     1     -34.292  16.073  -2.376  1.00 20.00     0.007 A 
HETATM   10  C3  UNL     1     -33.047  16.814  -2.776  1.00 20.00     0.007 A 
ENDBRANCH   7   8
ENDBRANCH   6   7
ENDBRANCH   2   6
TORSDOF 4
ENDMDL
MODEL 3
REMARK VINA RESULT:      -4.3     10.716     11.496
REMARK  4 active torsions:
REMARK  status: ('A' for Active; 'I' for Inactive)
REMARK    1  A    between atoms: C1_1  and  C8_8 
REMARK    2  A    between atoms: C4_4  and  C7_7 
REMARK    3  A    between atoms: C7_7  and  O10_10 
REMARK    4  A    between atoms: C8_8  and  O10_10 
ROOT
HETATM    1  C6  UNL     1     -38.326  14.914  -4.254  1.00 20.00     0.048 C 
HETATM    2  C8  UNL     1     -36.849  14.792  -3.927  1.00 20.00     0.186 C 
ENDROOT
BRANCH   2   3
HETATM    3  C1  UNL     1     -36.142  13.843  -4.884  1.00 20.00     0.151 C 
HETATM    4  C5  UNL     1     -35.698  14.409  -6.209  1.00 20.00     0.093 C 
HETATM    5  O9  UNL     1     -35.938  12.661  -4.604  1.00 20.00    -0.296 OA
ENDBRANCH   2   3
BRANCH   2   6
HETATM    6  O10 UNL     1     -36.264  16.081  -4.034  1.00 20.00    -0.378 OA
BRANCH   6   7
HETATM    7  C7  UNL     1     -35.901  16.599  -2.761  1.00 20.00     0.173 C 
BRANCH   7   8
HETATM    8  C4  UNL     1     -34.557  16.029  -2.361  1.00 20.00     0.009 A 
HETATM    9  C2  UNL     1     -33.443  15.937  -3.366  1.00 20.00     0.007 A 
HETATM   10  C3  UNL     1     -33.358  16.929  -2.240  1.00 20.00     0.007 A 
ENDBRANCH   7   8
ENDBRANCH   6   7
ENDBRANCH   2   6
TORSDOF 4
ENDMDL
MODEL 4
REMARK VINA RESULT:      -4.2     10.766     11.556
REMARK  4 active torsions:
REMARK  status: ('A' for Active; 'I' for Inactive)
REMARK    1  A    between atoms: C1_1  and  C8_8 
REMARK    2  A    between atoms: C4_4  and  C7_7 
REMARK    3  A    between atoms: C7_7  and  O10_10 
REMARK    4  A    between atoms: C8_8  and  O10_10 
ROOT
HETATM    1  C6  UNL     1     -35.642  14.757  -7.106  1.00 20.00     0.048 C 
HETATM    2  C8  UNL     1     -35.655  15.056  -5.618  1.00 20.00     0.186 C 
ENDROOT
BRANCH   2   3
HETATM    3  C1  UNL     1     -36.430  14.000  -4.843  1.00 20.00     0.151 C 
HETATM    4  C5  UNL     1     -37.748  14.418  -4.243  1.00 20.00     0.093 C 
HETATM    5  O9  UNL     1     -36.009  12.851  -4.701  1.00 20.00    -0.296 OA
ENDBRANCH   2   3
BRANCH   2   6
HETATM    6  O10 UNL     1     -34.312  15.076  -5.159  1.00 20.00    -0.378 OA
BRANCH   6   7
HETATM    7  C7  UNL     1     -34.029  16.256  -4.418  1.00 20.00     0.173 C 
BRANCH   7   8
HETATM    8  C4  UNL     1     -33.866  15.894  -2.957  1.00 20.00     0.009 A 
HETATM    9  C2  UNL     1     -33.758  16.973  -1.916  1.00 20.00     0.007 A 
HETATM   10  C3  UNL     1     -34.994  16.122  -1.989  1.00 20.00     0.007 A 
ENDBRANCH   7   8
ENDBRANCH   6   7
ENDBRANCH   2   6
TORSDOF 4
ENDMDL
MODEL 5
REMARK VINA RESULT:      -4.0     10.642     11.365
REMARK  4 active torsions:
REMARK  status: ('A' for Active; 'I' for Inactive)
REMARK    1  A    between atoms: C1_1  and  C8_8 
REMARK    2  A    between atoms: C4_4  and  C7_7 
REMARK    3  A    between atoms: C7_7  and  O10_10 
REMARK    4  A    between atoms: C8_8  and  O10_10 
ROOT
HETATM    1  C6  UNL     1     -34.439  14.895  -6.049  1.00 20.00     0.048 C 
HETATM    2  C8  UNL     1     -35.125  14.990  -4.698  1.00 20.00     0.186 C 
ENDROOT
BRANCH   2   3
HETATM    3  C1  UNL     1     -36.202  13.926  -4.542  1.00 20.00     0.151 C 
HETATM    4  C5  UNL     1     -37.615  14.406  -4.327  1.00 20.00     0.093 C 
HETATM    5  O9  UNL     1     -35.945  12.723  -4.584  1.00 20.00    -0.296 OA
ENDBRANCH   2   3
BRANCH   2   6
HETATM    6  O10 UNL     1     -34.142  14.807  -3.689  1.00 20.00    -0.378 OA
BRANCH   6   7
HETATM    7  C7  UNL     1     -34.251  15.791  -2.668  1.00 20.00     0.173 C 
BRANCH   7   8
HETATM    8  C4  UNL     1     -33.010  16.659  -2.686  1.00 20.00     0.009 A 
HETATM    9  C2  UNL     1     -33.050  18.027  -3.307  1.00 20.00     0.007 A 
HETATM   10  C3  UNL     1     -32.929  17.883  -1.816  1.00 20.00     0.007 A 
ENDBRANCH   7   8
ENDBRANCH   6   7
ENDBRANCH   2   6
TORSDOF 4
ENDMDL
MODEL 6
REMARK VINA RESULT:      -4.0     10.517     11.739
REMARK  4 active torsions:
REMARK  status: ('A' for Active; 'I' for Inactive)
REMARK    1  A    between atoms: C1_1  and  C8_8 
REMARK    2  A    between atoms: C4_4  and  C7_7 
REMARK    3  A    between atoms: C7_7  and  O10_10 
REMARK    4  A    between atoms: C8_8  and  O10_10 
ROOT
HETATM    1  C6  UNL     1     -34.719  15.427  -3.129  1.00 20.00     0.048 C 
HETATM    2  C8  UNL     1     -35.419  14.233  -3.753  1.00 20.00     0.186 C 
ENDROOT
BRANCH   2   3
HETATM    3  C1  UNL     1     -36.847  14.570  -4.154  1.00 20.00     0.151 C 
HETATM    4  C5  UNL     1     -37.225  16.029  -4.187  1.00 20.00     0.093 C 
HETATM    5  O9  UNL     1     -37.671  13.700  -4.438  1.00 20.00    -0.296 OA
ENDBRANCH   2   3
BRANCH   2   6
HETATM    6  O10 UNL     1     -34.690  13.847  -4.908  1.00 20.00    -0.378 OA
BRANCH   6   7
HETATM    7  C7  UNL     1     -33.804  14.874  -5.335  1.00 20.00     0.173 C 
BRANCH   7   8
HETATM    8  C4  UNL     1     -33.967  15.078  -6.827  1.00 20.00     0.009 A 
HETATM    9  C2  UNL     1     -35.339  15.202  -7.430  1.00 20.00     0.007 A 
HETATM   10  C3  UNL     1     -34.436  16.401  -7.364  1.00 20.00     0.007 A 
ENDBRANCH   7   8
ENDBRANCH   6   7
ENDBRANCH   2   6
TORSDOF 4
ENDMDL
MODEL 7
REMARK VINA RESULT:      -3.9      1.394      4.682
REMARK  4 active torsions:
REMARK  status: ('A' for Active; 'I' for Inactive)
REMARK    1  A    between atoms: C1_1  and  C8_8 
REMARK    2  A    between atoms: C4_4  and  C7_7 
REMARK    3  A    between atoms: C7_7  and  O10_10 
REMARK    4  A    between atoms: C8_8  and  O10_10 
ROOT
HETATM    1  C6  UNL     1     -31.601   7.419   3.311  1.00 20.00     0.048 C 
HETATM    2  C8  UNL     1     -32.822   7.499   2.412  1.00 20.00     0.186 C 
ENDROOT
BRANCH   2   3
HETATM    3  C1  UNL     1     -32.487   8.134   1.071  1.00 20.00     0.151 C 
HETATM    4  C5  UNL     1     -33.203   9.413   0.719  1.00 20.00     0.093 C 
HETATM    5  O9  UNL     1     -31.672   7.633   0.294  1.00 20.00    -0.296 OA
ENDBRANCH   2   3
BRANCH   2   6
HETATM    6  O10 UNL     1     -33.299   6.179   2.196  1.00 20.00    -0.378 OA
BRANCH   6   7
HETATM    7  C7  UNL     1     -33.321   5.426   3.402  1.00 20.00     0.173 C 
BRANCH   7   8
HETATM    8  C4  UNL     1     -34.482   5.893   4.255  1.00 20.00     0.009 A 
HETATM    9  C2  UNL     1     -34.917   5.090   5.448  1.00 20.00     0.007 A 
HETATM   10  C3  UNL     1     -34.240   6.417   5.643  1.00 20.00     0.007 A 
ENDBRANCH   7   8
ENDBRANCH   6   7
ENDBRANCH   2   6
TORSDOF 4
ENDMDL
MODEL 8
REMARK VINA RESULT:      -3.8      0.990      1.878
REMARK  4 active torsions:
REMARK  status: ('A' for Active; 'I' for Inactive)
REMARK    1  A    between atoms: C1_1  and  C8_8 
REMARK    2  A    between atoms: C4_4  and  C7_7 
REMARK    3  A    between atoms: C7_7  and  O10_10 
REMARK    4  A    between atoms: C8_8  and  O10_10 
ROOT
HETATM    1  C6  UNL     1     -33.951   6.870   5.959  1.00 20.00     0.048 C 
HETATM    2  C8  UNL     1     -33.578   6.299   4.602  1.00 20.00     0.186 C 
ENDROOT
BRANCH   2   3
HETATM    3  C1  UNL     1     -34.583   5.255   4.140  1.00 20.00     0.151 C 
HETATM    4  C5  UNL     1     -34.029   3.976   3.566  1.00 20.00     0.093 C 
HETATM    5  O9  UNL     1     -35.799   5.434   4.222  1.00 20.00    -0.296 OA
ENDBRANCH   2   3
BRANCH   2   6
HETATM    6  O10 UNL     1     -33.552   7.366   3.666  1.00 20.00    -0.378 OA
BRANCH   6   7
HETATM    7  C7  UNL     1     -32.454   7.249   2.769  1.00 20.00     0.173 C 
BRANCH   7   8
HETATM    8  C4  UNL     1     -32.921   7.595   1.371  1.00 20.00     0.009 A 
HETATM    9  C2  UNL     1     -32.935   9.025   0.909  1.00 20.00     0.007 A 
HETATM   10  C3  UNL     1     -31.934   8.062   0.337  1.00 20.00     0.007 A 
ENDBRANCH   7   8
ENDBRANCH   6   7
ENDBRANCH   2   6
TORSDOF 4
ENDMDL
MODEL 9
REMARK VINA RESULT:      -3.8     10.568     12.027
REMARK  4 active torsions:
REMARK  status: ('A' for Active; 'I' for Inactive)
REMARK    1  A    between atoms: C1_1  and  C8_8 
REMARK    2  A    between atoms: C4_4  and  C7_7 
REMARK    3  A    between atoms: C7_7  and  O10_10 
REMARK    4  A    between atoms: C8_8  and  O10_10 
ROOT
HETATM    1  C6  UNL     1     -37.019  14.434  -4.393  1.00 20.00     0.048 C 
HETATM    2  C8  UNL     1     -35.918  13.955  -5.322  1.00 20.00     0.186 C 
ENDROOT
BRANCH   2   3
HETATM    3  C1  UNL     1     -35.770  14.869  -6.530  1.00 20.00     0.151 C 
HETATM    4  C5  UNL     1     -34.370  15.138  -7.020  1.00 20.00     0.093 C 
HETATM    5  O9  UNL     1     -36.742  15.378  -7.090  1.00 20.00    -0.296 OA
ENDBRANCH   2   3
BRANCH   2   6
HETATM    6  O10 UNL     1     -34.699  13.945  -4.595  1.00 20.00    -0.378 OA
BRANCH   6   7
HETATM    7  C7  UNL     1     -34.778  14.754  -3.428  1.00 20.00     0.173 C 
BRANCH   7   8
HETATM    8  C4  UNL     1     -33.567  15.662  -3.375  1.00 20.00     0.009 A 
HETATM    9  C2  UNL     1     -33.667  17.087  -3.843  1.00 20.00     0.007 A 
HETATM   10  C3  UNL     1     -33.508  16.787  -2.379  1.00 20.00     0.007 A 
ENDBRANCH   7   8
ENDBRANCH   6   7
ENDBRANCH   2   6
TORSDOF 4
ENDMDL
