MODEL 1
REMARK VINA RESULT:      -3.9      0.000      0.000
REMARK  3 active torsions:
REMARK  status: ('A' for Active; 'I' for Inactive)
REMARK    1  A    between atoms: C6_6  and  C8_8 
REMARK    2  A    between atoms: C7_7  and  C8_8 
REMARK    3  A    between atoms: C8_8  and  N10_10 
ROOT
HETATM    1  C1  UNL     1     -35.513  13.957  -4.325  1.00 20.00     0.102 C 
HETATM    2  C8  UNL     1     -35.060  15.352  -4.127  1.00 20.00     0.244 C 
HETATM    3  N9  UNL     1     -35.869  12.864  -4.479  1.00 20.00    -0.194 NA
ENDROOT
BRANCH   2   4
HETATM    4  C6  UNL     1     -33.563  15.364  -3.719  1.00 20.00     0.053 C 
HETATM    5  C2  UNL     1     -32.685  14.361  -4.466  1.00 20.00     0.009 C 
ENDBRANCH   2   4
BRANCH   2   6
HETATM    6  C7  UNL     1     -35.878  16.020  -2.992  1.00 20.00     0.053 C 
HETATM    7  C3  UNL     1     -35.091  16.322  -1.719  1.00 20.00     0.009 C 
ENDBRANCH   2   6
BRANCH   2   8
HETATM    8  N10 UNL     1     -35.238  16.096  -5.360  1.00 20.00     0.103 N 
HETATM    9  C4  UNL     1     -34.642  17.433  -5.253  1.00 20.00     0.311 C 
HETATM   10  C5  UNL     1     -36.659  16.207  -5.703  1.00 20.00     0.311 C 
ENDBRANCH   2   8
TORSDOF 3
ENDMDL
MODEL 2
REMARK VINA RESULT:      -3.8      1.394      1.463
REMARK  3 active torsions:
REMARK  status: ('A' for Active; 'I' for Inactive)
REMARK    1  A    between atoms: C6_6  and  C8_8 
REMARK    2  A    between atoms: C7_7  and  C8_8 
REMARK    3  A    between atoms: C8_8  and  N10_10 
ROOT
HETATM    1  C1  UNL     1     -35.696  13.838  -4.419  1.00 20.00     0.102 C 
HETATM    2  C8  UNL     1     -35.506  15.303  -4.334  1.00 20.00     0.244 C 
HETATM    3  N9  UNL     1     -35.843  12.690  -4.485  1.00 20.00    -0.194 NA
ENDROOT
BRANCH   2   4
HETATM    4  C6  UNL     1     -34.223  15.712  -5.105  1.00 20.00     0.053 C 
HETATM    5  C2  UNL     1     -34.066  15.063  -6.480  1.00 20.00     0.009 C 
ENDBRANCH   2   4
BRANCH   2   6
HETATM    6  C7  UNL     1     -35.339  15.732  -2.853  1.00 20.00     0.053 C 
HETATM    7  C3  UNL     1     -33.934  16.191  -2.467  1.00 20.00     0.009 C 
ENDBRANCH   2   6
BRANCH   2   8
HETATM    8  N10 UNL     1     -36.657  15.973  -4.909  1.00 20.00     0.103 N 
HETATM    9  C4  UNL     1     -36.471  17.428  -4.905  1.00 20.00     0.311 C 
HETATM   10  C5  UNL     1     -37.882  15.623  -4.183  1.00 20.00     0.311 C 
ENDBRANCH   2   8
TORSDOF 3
ENDMDL
MODEL 3
REMARK VINA RESULT:      -3.8      1.131      2.028
REMARK  3 active torsions:
REMARK  status: ('A' for Active; 'I' for Inactive)
REMARK    1  A    between atoms: C6_6  and  C8_8 
REMARK    2  A    between atoms: C7_7  and  C8_8 
REMARK    3  A    between atoms: C8_8  and  N10_10 
ROOT
HETATM    1  C1  UNL     1     -35.688  13.809  -4.448  1.00 20.00     0.102 C 
HETATM    2  C8  UNL     1     -35.416  15.262  -4.377  1.00 20.00     0.244 C 
HETATM    3  N9  UNL     1     -35.902  12.670  -4.502  1.00 20.00    -0.194 NA
ENDROOT
BRANCH   2   4
HETATM    4  C6  UNL     1     -34.180  15.521  -3.476  1.00 20.00     0.053 C 
HETATM    5  C2  UNL     1     -34.489  16.188  -2.136  1.00 20.00     0.009 C 
ENDBRANCH   2   4
BRANCH   2   6
HETATM    6  C7  UNL     1     -36.631  16.000  -3.758  1.00 20.00     0.053 C 
HETATM    7  C3  UNL     1     -37.989  15.608  -4.337  1.00 20.00     0.009 C 
ENDBRANCH   2   6
BRANCH   2   8
HETATM    8  N10 UNL     1     -35.164  15.771  -5.712  1.00 20.00     0.103 N 
HETATM    9  C4  UNL     1     -34.030  15.076  -6.330  1.00 20.00     0.311 C 
HETATM   10  C5  UNL     1     -34.910  17.215  -5.682  1.00 20.00     0.311 C 
ENDBRANCH   2   8
TORSDOF 3
ENDMDL
MODEL 4
REMARK VINA RESULT:      -3.6      1.397      3.290
REMARK  3 active torsions:
REMARK  status: ('A' for Active; 'I' for Inactive)
REMARK    1  A    between atoms: C6_6  and  C8_8 
REMARK    2  A    between atoms: C7_7  and  C8_8 
REMARK    3  A    between atoms: C8_8  and  N10_10 
ROOT
HETATM    1  C1  UNL     1     -35.586  13.898  -4.322  1.00 20.00     0.102 C 
HETATM    2  C8  UNL     1     -35.286  15.328  -4.087  1.00 20.00     0.244 C 
HETATM    3  N9  UNL     1     -35.822  12.778  -4.507  1.00 20.00    -0.194 NA
ENDROOT
BRANCH   2   4
HETATM    4  C6  UNL     1     -36.606  16.107  -3.840  1.00 20.00     0.053 C 
HETATM    5  C2  UNL     1     -37.718  15.822  -4.848  1.00 20.00     0.009 C 
ENDBRANCH   2   4
BRANCH   2   6
HETATM    6  C7  UNL     1     -34.590  15.936  -5.331  1.00 20.00     0.053 C 
HETATM    7  C3  UNL     1     -34.501  15.008  -6.541  1.00 20.00     0.009 C 
ENDBRANCH   2   6
BRANCH   2   8
HETATM    8  N10 UNL     1     -34.419  15.455  -2.931  1.00 20.00     0.103 N 
HETATM    9  C4  UNL     1     -35.084  16.204  -1.859  1.00 20.00     0.311 C 
HETATM   10  C5  UNL     1     -33.159  16.112  -3.293  1.00 20.00     0.311 C 
ENDBRANCH   2   8
TORSDOF 3
ENDMDL
MODEL 5
REMARK VINA RESULT:      -3.6     17.519     18.909
REMARK  3 active torsions:
REMARK  status: ('A' for Active; 'I' for Inactive)
REMARK    1  A    between atoms: C6_6  and  C8_8 
REMARK    2  A    between atoms: C7_7  and  C8_8 
REMARK    3  A    between atoms: C8_8  and  N10_10 
ROOT
HETATM    1  C1  UNL     1     -22.684  17.666  11.411  1.00 20.00     0.102 C 
HETATM    2  C8  UNL     1     -23.554  17.441  10.235  1.00 20.00     0.244 C 
HETATM    3  N9  UNL     1     -22.001  17.841  12.332  1.00 20.00    -0.194 NA
ENDROOT
BRANCH   2   4
HETATM    4  C6  UNL     1     -24.534  16.273  10.525  1.00 20.00     0.053 C 
HETATM    5  C2  UNL     1     -24.446  15.695  11.936  1.00 20.00     0.009 C 
ENDBRANCH   2   4
BRANCH   2   6
HETATM    6  C7  UNL     1     -22.694  17.059   9.004  1.00 20.00     0.053 C 
HETATM    7  C3  UNL     1     -21.293  17.666   8.980  1.00 20.00     0.009 C 
ENDBRANCH   2   6
BRANCH   2   8
HETATM    8  N10 UNL     1     -24.303  18.650   9.952  1.00 20.00     0.103 N 
HETATM    9  C4  UNL     1     -25.457  18.773  10.849  1.00 20.00     0.311 C 
HETATM   10  C5  UNL     1     -24.750  18.673   8.555  1.00 20.00     0.311 C 
ENDBRANCH   2   8
TORSDOF 3
ENDMDL
MODEL 6
REMARK VINA RESULT:      -3.6      1.134      2.699
REMARK  3 active torsions:
REMARK  status: ('A' for Active; 'I' for Inactive)
REMARK    1  A    between atoms: C6_6  and  C8_8 
REMARK    2  A    between atoms: C7_7  and  C8_8 
REMARK    3  A    between atoms: C8_8  and  N10_10 
ROOT
HETATM    1  C1  UNL     1     -35.576  13.900  -4.308  1.00 20.00     0.102 C 
HETATM    2  C8  UNL     1     -35.169  15.309  -4.106  1.00 20.00     0.244 C 
HETATM    3  N9  UNL     1     -35.893  12.796  -4.466  1.00 20.00    -0.194 NA
ENDROOT
BRANCH   2   4
HETATM    4  C6  UNL     1     -35.352  16.101  -5.428  1.00 20.00     0.053 C 
HETATM    5  C2  UNL     1     -35.601  15.240  -6.665  1.00 20.00     0.009 C 
ENDBRANCH   2   4
BRANCH   2   6
HETATM    6  C7  UNL     1     -33.674  15.377  -3.702  1.00 20.00     0.053 C 
HETATM    7  C3  UNL     1     -32.757  14.414  -4.451  1.00 20.00     0.009 C 
ENDBRANCH   2   6
BRANCH   2   8
HETATM    8  N10 UNL     1     -35.985  15.901  -3.063  1.00 20.00     0.103 N 
HETATM    9  C4  UNL     1     -36.685  17.092  -3.560  1.00 20.00     0.311 C 
HETATM   10  C5  UNL     1     -35.168  16.251  -1.897  1.00 20.00     0.311 C 
ENDBRANCH   2   8
TORSDOF 3
ENDMDL
MODEL 7
REMARK VINA RESULT:      -3.6      1.434      2.296
REMARK  3 active torsions:
REMARK  status: ('A' for Active; 'I' for Inactive)
REMARK    1  A    between atoms: C6_6  and  C8_8 
REMARK    2  A    between atoms: C7_7  and  C8_8 
REMARK    3  A    between atoms: C8_8  and  N10_10 
ROOT
HETATM    1  C1  UNL     1     -36.904  14.645  -4.305  1.00 20.00     0.102 C 
HETATM    2  C8  UNL     1     -35.899  15.719  -4.145  1.00 20.00     0.244 C 
HETATM    3  N9  UNL     1     -37.693  13.803  -4.430  1.00 20.00    -0.194 NA
ENDROOT
BRANCH   2   4
HETATM    4  C6  UNL     1     -34.903  15.341  -3.017  1.00 20.00     0.053 C 
HETATM    5  C2  UNL     1     -34.934  16.260  -1.797  1.00 20.00     0.009 C 
ENDBRANCH   2   4
BRANCH   2   6
HETATM    6  C7  UNL     1     -36.597  17.045  -3.751  1.00 20.00     0.053 C 
HETATM    7  C3  UNL     1     -38.124  16.991  -3.730  1.00 20.00     0.009 C 
ENDBRANCH   2   6
BRANCH   2   8
HETATM    8  N10 UNL     1     -35.181  15.897  -5.393  1.00 20.00     0.103 N 
HETATM    9  C4  UNL     1     -34.030  14.989  -5.468  1.00 20.00     0.311 C 
HETATM   10  C5  UNL     1     -34.734  17.285  -5.545  1.00 20.00     0.311 C 
ENDBRANCH   2   8
TORSDOF 3
ENDMDL
MODEL 8
REMARK VINA RESULT:      -3.3      1.575      2.589
REMARK  3 active torsions:
REMARK  status: ('A' for Active; 'I' for Inactive)
REMARK    1  A    between atoms: C6_6  and  C8_8 
REMARK    2  A    between atoms: C7_7  and  C8_8 
REMARK    3  A    between atoms: C8_8  and  N10_10 
ROOT
HETATM    1  C1  UNL     1     -34.251  15.251  -5.516  1.00 20.00     0.102 C 
HETATM    2  C8  UNL     1     -34.976  15.871  -4.385  1.00 20.00     0.244 C 
HETATM    3  N9  UNL     1     -33.684  14.763  -6.403  1.00 20.00    -0.194 NA
ENDROOT
BRANCH   2   4
HETATM    4  C6  UNL     1     -34.104  15.802  -3.103  1.00 20.00     0.053 C 
HETATM    5  C2  UNL     1     -34.803  16.263  -1.825  1.00 20.00     0.009 C 
ENDBRANCH   2   4
BRANCH   2   6
HETATM    6  C7  UNL     1     -36.296  15.105  -4.116  1.00 20.00     0.053 C 
HETATM    7  C3  UNL     1     -36.291  13.638  -4.543  1.00 20.00     0.009 C 
ENDBRANCH   2   6
BRANCH   2   8
HETATM    8  N10 UNL     1     -35.271  17.255  -4.702  1.00 20.00     0.103 N 
HETATM    9  C4  UNL     1     -36.204  17.345  -5.831  1.00 20.00     0.311 C 
HETATM   10  C5  UNL     1     -34.042  17.995  -5.008  1.00 20.00     0.311 C 
ENDBRANCH   2   8
TORSDOF 3
ENDMDL
MODEL 9
REMARK VINA RESULT:      -3.3      1.454      2.585
REMARK  3 active torsions:
REMARK  status: ('A' for Active; 'I' for Inactive)
REMARK    1  A    between atoms: C6_6  and  C8_8 
REMARK    2  A    between atoms: C7_7  and  C8_8 
REMARK    3  A    between atoms: C8_8  and  N10_10 
ROOT
HETATM    1  C1  UNL     1     -33.825  14.733  -4.496  1.00 20.00     0.102 C 
HETATM    2  C8  UNL     1     -35.002  15.631  -4.491  1.00 20.00     0.244 C 
HETATM    3  N9  UNL     1     -32.902  14.031  -4.498  1.00 20.00    -0.194 NA
ENDROOT
BRANCH   2   4
HETATM    4  C6  UNL     1     -34.621  16.998  -5.119  1.00 20.00     0.053 C 
HETATM    5  C2  UNL     1     -35.708  18.069  -5.034  1.00 20.00     0.009 C 
ENDBRANCH   2   4
BRANCH   2   6
HETATM    6  C7  UNL     1     -35.474  15.880  -3.035  1.00 20.00     0.053 C 
HETATM    7  C3  UNL     1     -34.378  16.320  -2.066  1.00 20.00     0.009 C 
ENDBRANCH   2   6
BRANCH   2   8
HETATM    8  N10 UNL     1     -36.075  15.023  -5.255  1.00 20.00     0.103 N 
HETATM    9  C4  UNL     1     -36.547  13.794  -4.606  1.00 20.00     0.311 C 
HETATM   10  C5  UNL     1     -35.640  14.731  -6.624  1.00 20.00     0.311 C 
ENDBRANCH   2   8
TORSDOF 3
ENDMDL
