MODEL 1
REMARK VINA RESULT:      -4.7      0.000      0.000
REMARK  4 active torsions:
REMARK  status: ('A' for Active; 'I' for Inactive)
REMARK    1  A    between atoms: C3_3  and  C7_7 
REMARK    2  A    between atoms: C5_5  and  C6_6 
REMARK    3  A    between atoms: C6_6  and  C7_7 
REMARK    4  A    between atoms: C7_7  and  O8_8 
ROOT
HETATM    1  C7  UNL     1     -33.531   5.395   3.463  1.00 20.00     0.122 C 
ENDROOT
BRANCH   1   2
HETATM    2  C3  UNL     1     -33.299   6.850   3.077  1.00 20.00     0.014 A 
HETATM    3  C1  UNL     1     -31.967   7.499   3.339  1.00 20.00     0.007 A 
HETATM    4  C2  UNL     1     -32.389   7.191   1.929  1.00 20.00     0.007 A 
ENDBRANCH   1   2
BRANCH   1   5
HETATM    5  C6  UNL     1     -34.899   5.200   4.125  1.00 20.00     0.032 C 
BRANCH   5   6
HETATM    6  C5  UNL     1     -34.800   5.170   5.653  1.00 20.00    -0.002 C 
HETATM    7  C4  UNL     1     -34.248   6.476   6.200  1.00 20.00     0.005 C 
ENDBRANCH   5   6
ENDBRANCH   1   5
BRANCH   1   8
HETATM    8  O8  UNL     1     -33.437   4.590   2.290  1.00 20.00    -0.395 OA
HETATM    9  H22 UNL     1     -32.955   5.115   1.632  1.00 20.00     0.210 HD
ENDBRANCH   1   8
TORSDOF 4
ENDMDL
MODEL 2
REMARK VINA RESULT:      -4.4      1.073      3.460
REMARK  4 active torsions:
REMARK  status: ('A' for Active; 'I' for Inactive)
REMARK    1  A    between atoms: C3_3  and  C7_7 
REMARK    2  A    between atoms: C5_5  and  C6_6 
REMARK    3  A    between atoms: C6_6  and  C7_7 
REMARK    4  A    between atoms: C7_7  and  O8_8 
ROOT
HETATM    1  C7  UNL     1     -34.208   5.275   3.668  1.00 20.00     0.122 C 
ENDROOT
BRANCH   1   2
HETATM    2  C3  UNL     1     -33.730   5.737   5.038  1.00 20.00     0.014 A 
HETATM    3  C1  UNL     1     -34.353   6.940   5.692  1.00 20.00     0.007 A 
HETATM    4  C2  UNL     1     -34.612   5.566   6.244  1.00 20.00     0.007 A 
ENDBRANCH   1   2
BRANCH   1   5
HETATM    5  C6  UNL     1     -33.174   5.578   2.579  1.00 20.00     0.032 C 
BRANCH   5   6
HETATM    6  C5  UNL     1     -32.496   6.935   2.790  1.00 20.00    -0.002 C 
HETATM    7  C4  UNL     1     -32.527   7.775   1.523  1.00 20.00     0.005 C 
ENDBRANCH   5   6
ENDBRANCH   1   5
BRANCH   1   8
HETATM    8  O8  UNL     1     -34.464   3.874   3.722  1.00 20.00    -0.395 OA
HETATM    9  H22 UNL     1     -34.966   3.653   2.923  1.00 20.00     0.210 HD
ENDBRANCH   1   8
TORSDOF 4
ENDMDL
MODEL 3
REMARK VINA RESULT:      -4.4      1.717      4.057
REMARK  4 active torsions:
REMARK  status: ('A' for Active; 'I' for Inactive)
REMARK    1  A    between atoms: C3_3  and  C7_7 
REMARK    2  A    between atoms: C5_5  and  C6_6 
REMARK    3  A    between atoms: C6_6  and  C7_7 
REMARK    4  A    between atoms: C7_7  and  O8_8 
ROOT
HETATM    1  C7  UNL     1     -32.927   6.529   3.715  1.00 20.00     0.122 C 
ENDROOT
BRANCH   1   2
HETATM    2  C3  UNL     1     -34.256   6.526   4.459  1.00 20.00     0.014 A 
HETATM    3  C1  UNL     1     -34.832   5.235   4.975  1.00 20.00     0.007 A 
HETATM    4  C2  UNL     1     -34.293   6.256   5.938  1.00 20.00     0.007 A 
ENDBRANCH   1   2
BRANCH   1   5
HETATM    5  C6  UNL     1     -33.124   6.746   2.212  1.00 20.00     0.032 C 
BRANCH   5   6
HETATM    6  C5  UNL     1     -32.206   7.842   1.663  1.00 20.00    -0.002 C 
HETATM    7  C4  UNL     1     -32.953   8.772   0.719  1.00 20.00     0.005 C 
ENDBRANCH   5   6
ENDBRANCH   1   5
BRANCH   1   8
HETATM    8  O8  UNL     1     -32.104   7.562   4.254  1.00 20.00    -0.395 OA
HETATM    9  H22 UNL     1     -32.677   8.107   4.816  1.00 20.00     0.210 HD
ENDBRANCH   1   8
TORSDOF 4
ENDMDL
MODEL 4
REMARK VINA RESULT:      -4.0      1.243      1.540
REMARK  4 active torsions:
REMARK  status: ('A' for Active; 'I' for Inactive)
REMARK    1  A    between atoms: C3_3  and  C7_7 
REMARK    2  A    between atoms: C5_5  and  C6_6 
REMARK    3  A    between atoms: C6_6  and  C7_7 
REMARK    4  A    between atoms: C7_7  and  O8_8 
ROOT
HETATM    1  C7  UNL     1     -34.053   4.727   4.200  1.00 20.00     0.122 C 
ENDROOT
BRANCH   1   2
HETATM    2  C3  UNL     1     -33.974   5.454   2.865  1.00 20.00     0.014 A 
HETATM    3  C1  UNL     1     -32.787   6.322   2.543  1.00 20.00     0.007 A 
HETATM    4  C2  UNL     1     -32.981   5.017   1.823  1.00 20.00     0.007 A 
ENDBRANCH   1   2
BRANCH   1   5
HETATM    5  C6  UNL     1     -35.227   5.230   5.046  1.00 20.00     0.032 C 
BRANCH   5   6
HETATM    6  C5  UNL     1     -34.758   5.930   6.325  1.00 20.00    -0.002 C 
HETATM    7  C4  UNL     1     -33.729   7.008   6.022  1.00 20.00     0.005 C 
ENDBRANCH   5   6
ENDBRANCH   1   5
BRANCH   1   8
HETATM    8  O8  UNL     1     -34.191   3.330   3.952  1.00 20.00    -0.395 OA
HETATM    9  H22 UNL     1     -34.460   3.239   3.025  1.00 20.00     0.210 HD
ENDBRANCH   1   8
TORSDOF 4
ENDMDL
MODEL 5
REMARK VINA RESULT:      -3.9     11.569     12.738
REMARK  4 active torsions:
REMARK  status: ('A' for Active; 'I' for Inactive)
REMARK    1  A    between atoms: C3_3  and  C7_7 
REMARK    2  A    between atoms: C5_5  and  C6_6 
REMARK    3  A    between atoms: C6_6  and  C7_7 
REMARK    4  A    between atoms: C7_7  and  O8_8 
ROOT
HETATM    1  C7  UNL     1     -33.731  14.900  -4.697  1.00 20.00     0.122 C 
ENDROOT
BRANCH   1   2
HETATM    2  C3  UNL     1     -34.514  15.025  -5.997  1.00 20.00     0.014 A 
HETATM    3  C1  UNL     1     -34.529  16.327  -6.750  1.00 20.00     0.007 A 
HETATM    4  C2  UNL     1     -33.787  15.145  -7.308  1.00 20.00     0.007 A 
ENDBRANCH   1   2
BRANCH   1   5
HETATM    5  C6  UNL     1     -34.664  14.816  -3.484  1.00 20.00     0.032 C 
BRANCH   5   6
HETATM    6  C5  UNL     1     -34.405  15.942  -2.480  1.00 20.00    -0.002 C 
HETATM    7  C4  UNL     1     -33.138  16.710  -2.820  1.00 20.00     0.005 C 
ENDBRANCH   5   6
ENDBRANCH   1   5
BRANCH   1   8
HETATM    8  O8  UNL     1     -32.913  13.734  -4.766  1.00 20.00    -0.395 OA
HETATM    9  H22 UNL     1     -33.515  12.974  -4.783  1.00 20.00     0.210 HD
ENDBRANCH   1   8
TORSDOF 4
ENDMDL
MODEL 6
REMARK VINA RESULT:      -3.9      1.883      2.723
REMARK  4 active torsions:
REMARK  status: ('A' for Active; 'I' for Inactive)
REMARK    1  A    between atoms: C3_3  and  C7_7 
REMARK    2  A    between atoms: C5_5  and  C6_6 
REMARK    3  A    between atoms: C6_6  and  C7_7 
REMARK    4  A    between atoms: C7_7  and  O8_8 
ROOT
HETATM    1  C7  UNL     1     -32.720   7.228   2.517  1.00 20.00     0.122 C 
ENDROOT
BRANCH   1   2
HETATM    2  C3  UNL     1     -32.332   7.832   1.175  1.00 20.00     0.014 A 
HETATM    3  C1  UNL     1     -33.386   8.121   0.141  1.00 20.00     0.007 A 
HETATM    4  C2  UNL     1     -32.701   9.254   0.852  1.00 20.00     0.007 A 
ENDBRANCH   1   2
BRANCH   1   5
HETATM    5  C6  UNL     1     -32.846   5.703   2.433  1.00 20.00     0.032 C 
BRANCH   5   6
HETATM    6  C5  UNL     1     -34.090   5.187   3.162  1.00 20.00    -0.002 C 
HETATM    7  C4  UNL     1     -34.373   5.995   4.418  1.00 20.00     0.005 C 
ENDBRANCH   5   6
ENDBRANCH   1   5
BRANCH   1   8
HETATM    8  O8  UNL     1     -31.732   7.583   3.481  1.00 20.00    -0.395 OA
HETATM    9  H22 UNL     1     -32.208   7.936   4.249  1.00 20.00     0.210 HD
ENDBRANCH   1   8
TORSDOF 4
ENDMDL
MODEL 7
REMARK VINA RESULT:      -3.8     11.551     12.164
REMARK  4 active torsions:
REMARK  status: ('A' for Active; 'I' for Inactive)
REMARK    1  A    between atoms: C3_3  and  C7_7 
REMARK    2  A    between atoms: C5_5  and  C6_6 
REMARK    3  A    between atoms: C6_6  and  C7_7 
REMARK    4  A    between atoms: C7_7  and  O8_8 
ROOT
HETATM    1  C7  UNL     1     -33.909  15.066  -4.433  1.00 20.00     0.122 C 
ENDROOT
BRANCH   1   2
HETATM    2  C3  UNL     1     -35.138  14.465  -3.765  1.00 20.00     0.014 A 
HETATM    3  C1  UNL     1     -36.517  14.848  -4.230  1.00 20.00     0.007 A 
HETATM    4  C2  UNL     1     -35.988  13.468  -4.503  1.00 20.00     0.007 A 
ENDBRANCH   1   2
BRANCH   1   5
HETATM    5  C6  UNL     1     -33.089  15.909  -3.451  1.00 20.00     0.032 C 
BRANCH   5   6
HETATM    6  C5  UNL     1     -33.944  16.444  -2.299  1.00 20.00    -0.002 C 
HETATM    7  C4  UNL     1     -33.270  17.618  -1.605  1.00 20.00     0.005 C 
ENDBRANCH   5   6
ENDBRANCH   1   5
BRANCH   1   8
HETATM    8  O8  UNL     1     -33.109  14.008  -4.955  1.00 20.00    -0.395 OA
HETATM    9  H22 UNL     1     -32.377  13.881  -4.332  1.00 20.00     0.210 HD
ENDBRANCH   1   8
TORSDOF 4
ENDMDL
MODEL 8
REMARK VINA RESULT:      -3.8     11.795     12.461
REMARK  4 active torsions:
REMARK  status: ('A' for Active; 'I' for Inactive)
REMARK    1  A    between atoms: C3_3  and  C7_7 
REMARK    2  A    between atoms: C5_5  and  C6_6 
REMARK    3  A    between atoms: C6_6  and  C7_7 
REMARK    4  A    between atoms: C7_7  and  O8_8 
ROOT
HETATM    1  C7  UNL     1     -33.632  14.851  -4.417  1.00 20.00     0.122 C 
ENDROOT
BRANCH   1   2
HETATM    2  C3  UNL     1     -33.915  16.176  -3.722  1.00 20.00     0.014 A 
HETATM    3  C1  UNL     1     -34.428  16.196  -2.308  1.00 20.00     0.007 A 
HETATM    4  C2  UNL     1     -33.025  16.648  -2.605  1.00 20.00     0.007 A 
ENDBRANCH   1   2
BRANCH   1   5
HETATM    5  C6  UNL     1     -34.291  14.789  -5.800  1.00 20.00     0.032 C 
BRANCH   5   6
HETATM    6  C5  UNL     1     -35.811  14.633  -5.707  1.00 20.00    -0.002 C 
HETATM    7  C4  UNL     1     -36.202  13.613  -4.650  1.00 20.00     0.005 C 
ENDBRANCH   5   6
ENDBRANCH   1   5
BRANCH   1   8
HETATM    8  O8  UNL     1     -32.221  14.691  -4.541  1.00 20.00    -0.395 OA
HETATM    9  H22 UNL     1     -31.915  14.289  -3.713  1.00 20.00     0.210 HD
ENDBRANCH   1   8
TORSDOF 4
ENDMDL
MODEL 9
REMARK VINA RESULT:      -3.7     11.634     12.683
REMARK  4 active torsions:
REMARK  status: ('A' for Active; 'I' for Inactive)
REMARK    1  A    between atoms: C3_3  and  C7_7 
REMARK    2  A    between atoms: C5_5  and  C6_6 
REMARK    3  A    between atoms: C6_6  and  C7_7 
REMARK    4  A    between atoms: C7_7  and  O8_8 
ROOT
HETATM    1  C7  UNL     1     -36.153  15.060  -4.105  1.00 20.00     0.122 C 
ENDROOT
BRANCH   1   2
HETATM    2  C3  UNL     1     -35.019  15.052  -3.089  1.00 20.00     0.014 A 
HETATM    3  C1  UNL     1     -33.982  16.142  -3.102  1.00 20.00     0.007 A 
HETATM    4  C2  UNL     1     -34.986  16.073  -1.985  1.00 20.00     0.007 A 
ENDBRANCH   1   2
BRANCH   1   5
HETATM    5  C6  UNL     1     -35.915  14.040  -5.223  1.00 20.00     0.032 C 
BRANCH   5   6
HETATM    6  C5  UNL     1     -35.629  14.715  -6.567  1.00 20.00    -0.002 C 
HETATM    7  C4  UNL     1     -34.155  15.057  -6.715  1.00 20.00     0.005 C 
ENDBRANCH   5   6
ENDBRANCH   1   5
BRANCH   1   8
HETATM    8  O8  UNL     1     -37.374  14.768  -3.429  1.00 20.00    -0.395 OA
HETATM    9  H22 UNL     1     -38.074  15.238  -3.907  1.00 20.00     0.210 HD
ENDBRANCH   1   8
TORSDOF 4
ENDMDL
