MODEL 1
REMARK VINA RESULT:      -5.1      0.000      0.000
REMARK  3 active torsions:
REMARK  status: ('A' for Active; 'I' for Inactive)
REMARK    1  A    between atoms: C1_1  and  C4_4 
REMARK    2  A    between atoms: C1_1  and  C7_7 
REMARK    3  A    between atoms: C7_7  and  C8_8 
ROOT
HETATM    1  C1  UNL     1     -33.967   5.076   3.674  1.00 20.00     0.131 C 
HETATM    2  O9  UNL     1     -34.207   3.874   3.769  1.00 20.00    -0.298 OA
ENDROOT
BRANCH   1   3
HETATM    3  C4  UNL     1     -34.581   6.067   4.628  1.00 20.00     0.055 A 
HETATM    4  C2  UNL     1     -35.091   5.561   5.929  1.00 20.00     0.013 A 
HETATM    5  C3  UNL     1     -33.839   6.385   5.875  1.00 20.00     0.013 A 
ENDBRANCH   1   3
BRANCH   1   6
HETATM    6  C7  UNL     1     -33.083   5.659   2.580  1.00 20.00     0.082 C 
BRANCH   6   7
HETATM    7  C8  UNL     1     -32.862   7.173   2.705  1.00 20.00    -0.016 C 
HETATM    8  C5  UNL     1     -32.784   7.842   1.330  1.00 20.00     0.010 C 
HETATM    9  C6  UNL     1     -31.576   7.452   3.486  1.00 20.00     0.010 C 
ENDBRANCH   6   7
ENDBRANCH   1   6
TORSDOF 3
ENDMDL
MODEL 2
REMARK VINA RESULT:      -4.8      1.756      4.302
REMARK  3 active torsions:
REMARK  status: ('A' for Active; 'I' for Inactive)
REMARK    1  A    between atoms: C1_1  and  C4_4 
REMARK    2  A    between atoms: C1_1  and  C7_7 
REMARK    3  A    between atoms: C7_7  and  C8_8 
ROOT
HETATM    1  C1  UNL     1     -32.543   7.123   2.687  1.00 20.00     0.131 C 
HETATM    2  O9  UNL     1     -31.585   7.650   3.250  1.00 20.00    -0.298 OA
ENDROOT
BRANCH   1   3
HETATM    3  C4  UNL     1     -33.098   7.692   1.408  1.00 20.00     0.055 A 
HETATM    4  C2  UNL     1     -32.914   9.143   1.150  1.00 20.00     0.013 A 
HETATM    5  C3  UNL     1     -32.136   8.131   0.364  1.00 20.00     0.013 A 
ENDBRANCH   1   3
BRANCH   1   6
HETATM    6  C7  UNL     1     -33.262   5.903   3.245  1.00 20.00     0.082 C 
BRANCH   6   7
HETATM    7  C8  UNL     1     -34.341   6.241   4.284  1.00 20.00    -0.016 C 
HETATM    8  C5  UNL     1     -33.726   6.820   5.561  1.00 20.00     0.010 C 
HETATM    9  C6  UNL     1     -35.151   4.989   4.624  1.00 20.00     0.010 C 
ENDBRANCH   6   7
ENDBRANCH   1   6
TORSDOF 3
ENDMDL
MODEL 3
REMARK VINA RESULT:      -4.5      1.123      1.755
REMARK  3 active torsions:
REMARK  status: ('A' for Active; 'I' for Inactive)
REMARK    1  A    between atoms: C1_1  and  C4_4 
REMARK    2  A    between atoms: C1_1  and  C7_7 
REMARK    3  A    between atoms: C7_7  and  C8_8 
ROOT
HETATM    1  C1  UNL     1     -33.253   6.243   3.066  1.00 20.00     0.131 C 
HETATM    2  O9  UNL     1     -33.159   5.100   2.625  1.00 20.00    -0.298 OA
ENDROOT
BRANCH   1   3
HETATM    3  C4  UNL     1     -34.272   6.585   4.122  1.00 20.00     0.055 A 
HETATM    4  C2  UNL     1     -34.657   5.526   5.091  1.00 20.00     0.013 A 
HETATM    5  C3  UNL     1     -33.810   6.682   5.531  1.00 20.00     0.013 A 
ENDBRANCH   1   3
BRANCH   1   6
HETATM    6  C7  UNL     1     -32.398   7.397   2.564  1.00 20.00     0.082 C 
BRANCH   6   7
HETATM    7  C8  UNL     1     -32.849   7.958   1.207  1.00 20.00    -0.016 C 
HETATM    8  C5  UNL     1     -31.812   7.681   0.115  1.00 20.00     0.010 C 
HETATM    9  C6  UNL     1     -33.090   9.465   1.318  1.00 20.00     0.010 C 
ENDBRANCH   6   7
ENDBRANCH   1   6
TORSDOF 3
ENDMDL
MODEL 4
REMARK VINA RESULT:      -4.4      1.274      4.051
REMARK  3 active torsions:
REMARK  status: ('A' for Active; 'I' for Inactive)
REMARK    1  A    between atoms: C1_1  and  C4_4 
REMARK    2  A    between atoms: C1_1  and  C7_7 
REMARK    3  A    between atoms: C7_7  and  C8_8 
ROOT
HETATM    1  C1  UNL     1     -32.890   6.591   2.737  1.00 20.00     0.131 C 
HETATM    2  O9  UNL     1     -32.810   5.430   2.340  1.00 20.00    -0.298 OA
ENDROOT
BRANCH   1   3
HETATM    3  C4  UNL     1     -32.192   7.709   2.008  1.00 20.00     0.055 A 
HETATM    4  C2  UNL     1     -32.117   7.638   0.525  1.00 20.00     0.013 A 
HETATM    5  C3  UNL     1     -33.021   8.633   1.190  1.00 20.00     0.013 A 
ENDBRANCH   1   3
BRANCH   1   6
HETATM    6  C7  UNL     1     -33.647   6.984   3.997  1.00 20.00     0.082 C 
BRANCH   6   7
HETATM    7  C8  UNL     1     -34.178   5.787   4.799  1.00 20.00    -0.016 C 
HETATM    8  C5  UNL     1     -35.508   5.281   4.235  1.00 20.00     0.010 C 
HETATM    9  C6  UNL     1     -34.358   6.179   6.268  1.00 20.00     0.010 C 
ENDBRANCH   6   7
ENDBRANCH   1   6
TORSDOF 3
ENDMDL
MODEL 5
REMARK VINA RESULT:      -4.3     11.464     12.709
REMARK  3 active torsions:
REMARK  status: ('A' for Active; 'I' for Inactive)
REMARK    1  A    between atoms: C1_1  and  C4_4 
REMARK    2  A    between atoms: C1_1  and  C7_7 
REMARK    3  A    between atoms: C7_7  and  C8_8 
ROOT
HETATM    1  C1  UNL     1     -35.915  14.029  -4.887  1.00 20.00     0.131 C 
HETATM    2  O9  UNL     1     -35.892  12.863  -4.499  1.00 20.00    -0.298 OA
ENDROOT
BRANCH   1   3
HETATM    3  C4  UNL     1     -35.871  14.358  -6.357  1.00 20.00     0.055 A 
HETATM    4  C2  UNL     1     -36.021  15.780  -6.760  1.00 20.00     0.013 A 
HETATM    5  C3  UNL     1     -34.690  15.099  -6.870  1.00 20.00     0.013 A 
ENDBRANCH   1   3
BRANCH   1   6
HETATM    6  C7  UNL     1     -35.943  15.217  -3.936  1.00 20.00     0.082 C 
BRANCH   6   7
HETATM    7  C8  UNL     1     -34.786  15.230  -2.926  1.00 20.00    -0.016 C 
HETATM    8  C5  UNL     1     -35.042  16.232  -1.797  1.00 20.00     0.010 C 
HETATM    9  C6  UNL     1     -33.475  15.577  -3.636  1.00 20.00     0.010 C 
ENDBRANCH   6   7
ENDBRANCH   1   6
TORSDOF 3
ENDMDL
MODEL 6
REMARK VINA RESULT:      -4.2      1.740      2.229
REMARK  3 active torsions:
REMARK  status: ('A' for Active; 'I' for Inactive)
REMARK    1  A    between atoms: C1_1  and  C4_4 
REMARK    2  A    between atoms: C1_1  and  C7_7 
REMARK    3  A    between atoms: C7_7  and  C8_8 
ROOT
HETATM    1  C1  UNL     1     -33.764   6.874   5.175  1.00 20.00     0.131 C 
HETATM    2  O9  UNL     1     -32.916   7.429   5.871  1.00 20.00    -0.298 OA
ENDROOT
BRANCH   1   3
HETATM    3  C4  UNL     1     -34.704   5.855   5.765  1.00 20.00     0.055 A 
HETATM    4  C2  UNL     1     -35.454   4.974   4.833  1.00 20.00     0.013 A 
HETATM    5  C3  UNL     1     -34.332   4.421   5.659  1.00 20.00     0.013 A 
ENDBRANCH   1   3
BRANCH   1   6
HETATM    6  C7  UNL     1     -33.906   7.131   3.682  1.00 20.00     0.082 C 
BRANCH   6   7
HETATM    7  C8  UNL     1     -32.725   6.614   2.849  1.00 20.00    -0.016 C 
HETATM    8  C5  UNL     1     -32.404   7.557   1.687  1.00 20.00     0.010 C 
HETATM    9  C6  UNL     1     -33.037   5.217   2.307  1.00 20.00     0.010 C 
ENDBRANCH   6   7
ENDBRANCH   1   6
TORSDOF 3
ENDMDL
MODEL 7
REMARK VINA RESULT:      -4.1     11.301     12.074
REMARK  3 active torsions:
REMARK  status: ('A' for Active; 'I' for Inactive)
REMARK    1  A    between atoms: C1_1  and  C4_4 
REMARK    2  A    between atoms: C1_1  and  C7_7 
REMARK    3  A    between atoms: C7_7  and  C8_8 
ROOT
HETATM    1  C1  UNL     1     -36.035  13.959  -4.258  1.00 20.00     0.131 C 
HETATM    2  O9  UNL     1     -35.906  12.777  -4.571  1.00 20.00    -0.298 OA
ENDROOT
BRANCH   1   3
HETATM    3  C4  UNL     1     -37.106  14.814  -4.882  1.00 20.00     0.055 A 
HETATM    4  C2  UNL     1     -38.462  14.791  -4.274  1.00 20.00     0.013 A 
HETATM    5  C3  UNL     1     -37.584  15.998  -4.122  1.00 20.00     0.013 A 
ENDBRANCH   1   3
BRANCH   1   6
HETATM    6  C7  UNL     1     -35.114  14.657  -3.268  1.00 20.00     0.082 C 
BRANCH   6   7
HETATM    7  C8  UNL     1     -33.955  15.416  -3.928  1.00 20.00    -0.016 C 
HETATM    8  C5  UNL     1     -32.880  14.457  -4.446  1.00 20.00     0.010 C 
HETATM    9  C6  UNL     1     -33.334  16.396  -2.930  1.00 20.00     0.010 C 
ENDBRANCH   6   7
ENDBRANCH   1   6
TORSDOF 3
ENDMDL
MODEL 8
REMARK VINA RESULT:      -4.1     11.680     12.798
REMARK  3 active torsions:
REMARK  status: ('A' for Active; 'I' for Inactive)
REMARK    1  A    between atoms: C1_1  and  C4_4 
REMARK    2  A    between atoms: C1_1  and  C7_7 
REMARK    3  A    between atoms: C7_7  and  C8_8 
ROOT
HETATM    1  C1  UNL     1     -34.104  14.753  -4.427  1.00 20.00     0.131 C 
HETATM    2  O9  UNL     1     -34.331  13.564  -4.212  1.00 20.00    -0.298 OA
ENDROOT
BRANCH   1   3
HETATM    3  C4  UNL     1     -34.727  15.461  -5.602  1.00 20.00     0.055 A 
HETATM    4  C2  UNL     1     -34.200  15.161  -6.958  1.00 20.00     0.013 A 
HETATM    5  C3  UNL     1     -35.550  14.658  -6.543  1.00 20.00     0.013 A 
ENDBRANCH   1   3
BRANCH   1   6
HETATM    6  C7  UNL     1     -33.160  15.583  -3.569  1.00 20.00     0.082 C 
BRANCH   6   7
HETATM    7  C8  UNL     1     -33.853  16.722  -2.809  1.00 20.00    -0.016 C 
HETATM    8  C5  UNL     1     -32.858  17.509  -1.951  1.00 20.00     0.010 C 
HETATM    9  C6  UNL     1     -34.966  16.159  -1.921  1.00 20.00     0.010 C 
ENDBRANCH   6   7
ENDBRANCH   1   6
TORSDOF 3
ENDMDL
MODEL 9
REMARK VINA RESULT:      -4.0     11.258     12.793
REMARK  3 active torsions:
REMARK  status: ('A' for Active; 'I' for Inactive)
REMARK    1  A    between atoms: C1_1  and  C4_4 
REMARK    2  A    between atoms: C1_1  and  C7_7 
REMARK    3  A    between atoms: C7_7  and  C8_8 
ROOT
HETATM    1  C1  UNL     1     -35.522  14.048  -4.562  1.00 20.00     0.131 C 
HETATM    2  O9  UNL     1     -35.921  12.887  -4.630  1.00 20.00    -0.298 OA
ENDROOT
BRANCH   1   3
HETATM    3  C4  UNL     1     -34.576  14.479  -3.472  1.00 20.00     0.055 A 
HETATM    4  C2  UNL     1     -33.842  15.759  -3.648  1.00 20.00     0.013 A 
HETATM    5  C3  UNL     1     -34.953  15.656  -2.646  1.00 20.00     0.013 A 
ENDBRANCH   1   3
BRANCH   1   6
HETATM    6  C7  UNL     1     -35.973  15.136  -5.525  1.00 20.00     0.082 C 
BRANCH   6   7
HETATM    7  C8  UNL     1     -35.555  14.888  -6.981  1.00 20.00    -0.016 C 
HETATM    8  C5  UNL     1     -34.057  15.133  -7.182  1.00 20.00     0.010 C 
HETATM    9  C6  UNL     1     -36.356  15.795  -7.918  1.00 20.00     0.010 C 
ENDBRANCH   6   7
ENDBRANCH   1   6
TORSDOF 3
ENDMDL
