MODEL 1
REMARK VINA RESULT:      -4.8      0.000      0.000
REMARK  5 active torsions:
REMARK  status: ('A' for Active; 'I' for Inactive)
REMARK    1  A    between atoms: C4_4  and  C6_6 
REMARK    2  A    between atoms: C4_4  and  C7_7 
REMARK    3  A    between atoms: C5_5  and  C8_8 
REMARK    4  A    between atoms: C5_5  and  N9_9 
REMARK    5  A    between atoms: C7_7  and  N9_9 
ROOT
HETATM    1  C3  UNL     1     -32.986   5.170   2.297  1.00 20.00     0.042 C 
HETATM    2  C7  UNL     1     -33.023   6.318   3.302  1.00 20.00     0.217 C 
ENDROOT
BRANCH   2   3
HETATM    3  C4  UNL     1     -34.457   6.560   3.798  1.00 20.00     0.039 C 
BRANCH   3   4
HETATM    4  C6  UNL     1     -34.679   6.307   5.304  1.00 20.00    -0.021 C 
HETATM    5  C1  UNL     1     -33.572   6.994   6.111  1.00 20.00     0.009 C 
HETATM    6  C2  UNL     1     -34.716   4.818   5.648  1.00 20.00     0.009 C 
ENDBRANCH   3   4
ENDBRANCH   2   3
BRANCH   2   7
HETATM    7  N9  UNL     1     -32.509   7.513   2.666  1.00 20.00     0.092 N 
HETATM    8  H28 UNL     1     -33.111   8.309   2.891  1.00 20.00     0.316 HD
BRANCH   7   9
HETATM    9  C5  UNL     1     -32.453   7.359   1.216  1.00 20.00     0.340 C 
BRANCH   9  10
HETATM   10  C8  UNL     1     -32.831   8.654   0.528  1.00 20.00     0.381 C 
HETATM   11  F10 UNL     1     -33.644   9.384   1.332  1.00 20.00    -0.213 F 
HETATM   12  F11 UNL     1     -33.549   8.371  -0.589  1.00 20.00    -0.213 F 
ENDBRANCH   9  10
ENDBRANCH   7   9
ENDBRANCH   2   7
TORSDOF 5
ENDMDL
MODEL 2
REMARK VINA RESULT:      -4.7      3.038      5.141
REMARK  5 active torsions:
REMARK  status: ('A' for Active; 'I' for Inactive)
REMARK    1  A    between atoms: C4_4  and  C6_6 
REMARK    2  A    between atoms: C4_4  and  C7_7 
REMARK    3  A    between atoms: C5_5  and  C8_8 
REMARK    4  A    between atoms: C5_5  and  N9_9 
REMARK    5  A    between atoms: C7_7  and  N9_9 
ROOT
HETATM    1  C3  UNL     1     -32.946   4.863   2.569  1.00 20.00     0.042 C 
HETATM    2  C7  UNL     1     -33.503   6.282   2.647  1.00 20.00     0.217 C 
ENDROOT
BRANCH   2   3
HETATM    3  C4  UNL     1     -32.450   7.305   2.194  1.00 20.00     0.039 C 
BRANCH   3   4
HETATM    4  C6  UNL     1     -32.771   8.029   0.869  1.00 20.00    -0.021 C 
HETATM    5  C1  UNL     1     -31.600   7.865  -0.105  1.00 20.00     0.009 C 
HETATM    6  C2  UNL     1     -33.066   9.516   1.072  1.00 20.00     0.009 C 
ENDBRANCH   3   4
ENDBRANCH   2   3
BRANCH   2   7
HETATM    7  N9  UNL     1     -33.903   6.553   4.012  1.00 20.00     0.092 N 
HETATM    8  H28 UNL     1     -33.078   6.562   4.617  1.00 20.00     0.316 HD
BRANCH   7   9
HETATM    9  C5  UNL     1     -34.835   5.542   4.502  1.00 20.00     0.340 C 
BRANCH   9  10
HETATM   10  C8  UNL     1     -34.892   5.558   6.015  1.00 20.00     0.381 C 
HETATM   11  F10 UNL     1     -34.403   6.734   6.483  1.00 20.00    -0.213 F 
HETATM   12  F11 UNL     1     -34.080   4.584   6.500  1.00 20.00    -0.213 F 
ENDBRANCH   9  10
ENDBRANCH   7   9
ENDBRANCH   2   7
TORSDOF 5
ENDMDL
MODEL 3
REMARK VINA RESULT:      -4.2      0.936      1.218
REMARK  5 active torsions:
REMARK  status: ('A' for Active; 'I' for Inactive)
REMARK    1  A    between atoms: C4_4  and  C6_6 
REMARK    2  A    between atoms: C4_4  and  C7_7 
REMARK    3  A    between atoms: C5_5  and  C8_8 
REMARK    4  A    between atoms: C5_5  and  N9_9 
REMARK    5  A    between atoms: C7_7  and  N9_9 
ROOT
HETATM    1  C3  UNL     1     -31.534   7.566   3.524  1.00 20.00     0.042 C 
HETATM    2  C7  UNL     1     -32.895   7.175   2.956  1.00 20.00     0.217 C 
ENDROOT
BRANCH   2   3
HETATM    3  C4  UNL     1     -33.408   5.884   3.612  1.00 20.00     0.039 C 
BRANCH   3   4
HETATM    4  C6  UNL     1     -34.528   6.082   4.654  1.00 20.00    -0.021 C 
HETATM    5  C1  UNL     1     -33.935   6.651   5.948  1.00 20.00     0.009 C 
HETATM    6  C2  UNL     1     -35.279   4.785   4.960  1.00 20.00     0.009 C 
ENDBRANCH   3   4
ENDBRANCH   2   3
BRANCH   2   7
HETATM    7  N9  UNL     1     -32.769   6.989   1.526  1.00 20.00     0.092 N 
HETATM    8  H28 UNL     1     -32.297   6.102   1.334  1.00 20.00     0.316 HD
BRANCH   7   9
HETATM    9  C5  UNL     1     -32.003   8.072   0.915  1.00 20.00     0.340 C 
BRANCH   9  10
HETATM   10  C8  UNL     1     -32.922   9.026   0.183  1.00 20.00     0.381 C 
HETATM   11  F10 UNL     1     -33.687   9.706   1.073  1.00 20.00    -0.213 F 
HETATM   12  F11 UNL     1     -33.778   8.312  -0.593  1.00 20.00    -0.213 F 
ENDBRANCH   9  10
ENDBRANCH   7   9
ENDBRANCH   2   7
TORSDOF 5
ENDMDL
MODEL 4
REMARK VINA RESULT:      -4.2     15.629     16.817
REMARK  5 active torsions:
REMARK  status: ('A' for Active; 'I' for Inactive)
REMARK    1  A    between atoms: C4_4  and  C6_6 
REMARK    2  A    between atoms: C4_4  and  C7_7 
REMARK    3  A    between atoms: C5_5  and  C8_8 
REMARK    4  A    between atoms: C5_5  and  N9_9 
REMARK    5  A    between atoms: C7_7  and  N9_9 
ROOT
HETATM    1  C3  UNL     1     -24.862  15.876  11.589  1.00 20.00     0.042 C 
HETATM    2  C7  UNL     1     -23.936  16.882  12.267  1.00 20.00     0.217 C 
ENDROOT
BRANCH   2   3
HETATM    3  C4  UNL     1     -24.405  18.320  11.999  1.00 20.00     0.039 C 
BRANCH   3   4
HETATM    4  C6  UNL     1     -25.641  18.444  11.085  1.00 20.00    -0.021 C 
HETATM    5  C1  UNL     1     -25.235  19.083   9.752  1.00 20.00     0.009 C 
HETATM    6  C2  UNL     1     -26.763  19.263  11.726  1.00 20.00     0.009 C 
ENDBRANCH   3   4
ENDBRANCH   2   3
BRANCH   2   7
HETATM    7  N9  UNL     1     -22.592  16.695  11.760  1.00 20.00     0.092 N 
HETATM    8  H28 UNL     1     -21.988  16.346  12.508  1.00 20.00     0.316 HD
BRANCH   7   9
HETATM    9  C5  UNL     1     -22.038  17.946  11.253  1.00 20.00     0.340 C 
BRANCH   9  10
HETATM   10  C8  UNL     1     -21.659  17.808   9.793  1.00 20.00     0.381 C 
HETATM   11  F10 UNL     1     -21.932  18.961   9.133  1.00 20.00    -0.213 F 
HETATM   12  F11 UNL     1     -22.429  16.846   9.223  1.00 20.00    -0.213 F 
ENDBRANCH   9  10
ENDBRANCH   7   9
ENDBRANCH   2   7
TORSDOF 5
ENDMDL
MODEL 5
REMARK VINA RESULT:      -4.0     10.963     11.864
REMARK  5 active torsions:
REMARK  status: ('A' for Active; 'I' for Inactive)
REMARK    1  A    between atoms: C4_4  and  C6_6 
REMARK    2  A    between atoms: C4_4  and  C7_7 
REMARK    3  A    between atoms: C5_5  and  C8_8 
REMARK    4  A    between atoms: C5_5  and  N9_9 
REMARK    5  A    between atoms: C7_7  and  N9_9 
ROOT
HETATM    1  C3  UNL     1     -37.835  14.743  -4.283  1.00 20.00     0.042 C 
HETATM    2  C7  UNL     1     -36.518  14.394  -4.970  1.00 20.00     0.217 C 
ENDROOT
BRANCH   2   3
HETATM    3  C4  UNL     1     -35.383  14.271  -3.942  1.00 20.00     0.039 C 
BRANCH   3   4
HETATM    4  C6  UNL     1     -34.709  15.602  -3.548  1.00 20.00    -0.021 C 
HETATM    5  C1  UNL     1     -33.193  15.490  -3.743  1.00 20.00     0.009 C 
HETATM    6  C2  UNL     1     -35.014  16.008  -2.106  1.00 20.00     0.009 C 
ENDBRANCH   3   4
ENDBRANCH   2   3
BRANCH   2   7
HETATM    7  N9  UNL     1     -36.205  15.429  -5.933  1.00 20.00     0.092 N 
HETATM    8  H28 UNL     1     -37.056  15.941  -6.177  1.00 20.00     0.316 HD
BRANCH   7   9
HETATM    9  C5  UNL     1     -35.630  14.864  -7.150  1.00 20.00     0.340 C 
BRANCH   9  10
HETATM   10  C8  UNL     1     -34.290  15.501  -7.451  1.00 20.00     0.381 C 
HETATM   11  F10 UNL     1     -33.287  14.677  -7.054  1.00 20.00    -0.213 F 
HETATM   12  F11 UNL     1     -34.164  16.639  -6.722  1.00 20.00    -0.213 F 
ENDBRANCH   9  10
ENDBRANCH   7   9
ENDBRANCH   2   7
TORSDOF 5
ENDMDL
MODEL 6
REMARK VINA RESULT:      -4.0     15.151     15.992
REMARK  5 active torsions:
REMARK  status: ('A' for Active; 'I' for Inactive)
REMARK    1  A    between atoms: C4_4  and  C6_6 
REMARK    2  A    between atoms: C4_4  and  C7_7 
REMARK    3  A    between atoms: C5_5  and  C8_8 
REMARK    4  A    between atoms: C5_5  and  N9_9 
REMARK    5  A    between atoms: C7_7  and  N9_9 
ROOT
HETATM    1  C3  UNL     1     -22.044  17.177   8.389  1.00 20.00     0.042 C 
HETATM    2  C7  UNL     1     -22.258  18.309   9.389  1.00 20.00     0.217 C 
ENDROOT
BRANCH   2   3
HETATM    3  C4  UNL     1     -22.686  17.752  10.756  1.00 20.00     0.039 C 
BRANCH   3   4
HETATM    4  C6  UNL     1     -24.185  17.410  10.882  1.00 20.00    -0.021 C 
HETATM    5  C1  UNL     1     -24.841  18.334  11.914  1.00 20.00     0.009 C 
HETATM    6  C2  UNL     1     -24.421  15.951  11.276  1.00 20.00     0.009 C 
ENDBRANCH   3   4
ENDBRANCH   2   3
BRANCH   2   7
HETATM    7  N9  UNL     1     -23.276  19.201   8.875  1.00 20.00     0.092 N 
HETATM    8  H28 UNL     1     -23.985  19.364   9.594  1.00 20.00     0.316 HD
BRANCH   7   9
HETATM    9  C5  UNL     1     -23.923  18.642   7.693  1.00 20.00     0.340 C 
BRANCH   9  10
HETATM   10  C8  UNL     1     -25.292  19.258   7.493  1.00 20.00     0.381 C 
HETATM   11  F10 UNL     1     -26.032  19.116   8.621  1.00 20.00    -0.213 F 
HETATM   12  F11 UNL     1     -25.946  18.580   6.516  1.00 20.00    -0.213 F 
ENDBRANCH   9  10
ENDBRANCH   7   9
ENDBRANCH   2   7
TORSDOF 5
ENDMDL
MODEL 7
REMARK VINA RESULT:      -3.9     10.609     11.104
REMARK  5 active torsions:
REMARK  status: ('A' for Active; 'I' for Inactive)
REMARK    1  A    between atoms: C4_4  and  C6_6 
REMARK    2  A    between atoms: C4_4  and  C7_7 
REMARK    3  A    between atoms: C5_5  and  C8_8 
REMARK    4  A    between atoms: C5_5  and  N9_9 
REMARK    5  A    between atoms: C7_7  and  N9_9 
ROOT
HETATM    1  C3  UNL     1     -32.988  14.800  -4.246  1.00 20.00     0.042 C 
HETATM    2  C7  UNL     1     -33.958  15.939  -3.944  1.00 20.00     0.217 C 
ENDROOT
BRANCH   2   3
HETATM    3  C4  UNL     1     -34.429  15.880  -2.483  1.00 20.00     0.039 C 
BRANCH   3   4
HETATM    4  C6  UNL     1     -34.427  17.232  -1.741  1.00 20.00    -0.021 C 
HETATM    5  C1  UNL     1     -32.984  17.706  -1.537  1.00 20.00     0.009 C 
HETATM    6  C2  UNL     1     -35.139  17.159  -0.389  1.00 20.00     0.009 C 
ENDBRANCH   3   4
ENDBRANCH   2   3
BRANCH   2   7
HETATM    7  N9  UNL     1     -35.093  15.835  -4.837  1.00 20.00     0.092 N 
HETATM    8  H28 UNL     1     -35.388  16.770  -5.129  1.00 20.00     0.316 HD
BRANCH   7   9
HETATM    9  C5  UNL     1     -36.218  15.167  -4.189  1.00 20.00     0.340 C 
BRANCH   9  10
HETATM   10  C8  UNL     1     -36.454  13.804  -4.805  1.00 20.00     0.381 C 
HETATM   11  F10 UNL     1     -35.729  12.867  -4.145  1.00 20.00    -0.213 F 
HETATM   12  F11 UNL     1     -36.000  13.810  -6.085  1.00 20.00    -0.213 F 
ENDBRANCH   9  10
ENDBRANCH   7   9
ENDBRANCH   2   7
TORSDOF 5
ENDMDL
MODEL 8
REMARK VINA RESULT:      -3.9     10.690     11.551
REMARK  5 active torsions:
REMARK  status: ('A' for Active; 'I' for Inactive)
REMARK    1  A    between atoms: C4_4  and  C6_6 
REMARK    2  A    between atoms: C4_4  and  C7_7 
REMARK    3  A    between atoms: C5_5  and  C8_8 
REMARK    4  A    between atoms: C5_5  and  N9_9 
REMARK    5  A    between atoms: C7_7  and  N9_9 
ROOT
HETATM    1  C3  UNL     1     -36.124  17.385  -4.082  1.00 20.00     0.042 C 
HETATM    2  C7  UNL     1     -36.313  16.443  -2.897  1.00 20.00     0.217 C 
ENDROOT
BRANCH   2   3
HETATM    3  C4  UNL     1     -34.955  16.028  -2.309  1.00 20.00     0.039 C 
BRANCH   3   4
HETATM    4  C6  UNL     1     -33.724  16.599  -3.043  1.00 20.00    -0.021 C 
HETATM    5  C1  UNL     1     -32.953  15.461  -3.719  1.00 20.00     0.009 C 
HETATM    6  C2  UNL     1     -32.790  17.367  -2.107  1.00 20.00     0.009 C 
ENDBRANCH   3   4
ENDBRANCH   2   3
BRANCH   2   7
HETATM    7  N9  UNL     1     -37.040  15.272  -3.342  1.00 20.00     0.092 N 
HETATM    8  H28 UNL     1     -36.628  14.433  -2.927  1.00 20.00     0.316 HD
BRANCH   7   9
HETATM    9  C5  UNL     1     -37.004  15.147  -4.796  1.00 20.00     0.340 C 
BRANCH   9  10
HETATM   10  C8  UNL     1     -36.194  13.934  -5.205  1.00 20.00     0.381 C 
HETATM   11  F10 UNL     1     -35.698  13.316  -4.104  1.00 20.00    -0.213 F 
HETATM   12  F11 UNL     1     -35.123  14.342  -5.933  1.00 20.00    -0.213 F 
ENDBRANCH   9  10
ENDBRANCH   7   9
ENDBRANCH   2   7
TORSDOF 5
ENDMDL
MODEL 9
REMARK VINA RESULT:      -3.9      3.051      5.151
REMARK  5 active torsions:
REMARK  status: ('A' for Active; 'I' for Inactive)
REMARK    1  A    between atoms: C4_4  and  C6_6 
REMARK    2  A    between atoms: C4_4  and  C7_7 
REMARK    3  A    between atoms: C5_5  and  C8_8 
REMARK    4  A    between atoms: C5_5  and  N9_9 
REMARK    5  A    between atoms: C7_7  and  N9_9 
ROOT
HETATM    1  C3  UNL     1     -31.759   7.572   3.695  1.00 20.00     0.042 C 
HETATM    2  C7  UNL     1     -32.844   6.652   3.144  1.00 20.00     0.217 C 
ENDROOT
BRANCH   2   3
HETATM    3  C4  UNL     1     -33.162   7.001   1.681  1.00 20.00     0.039 C 
BRANCH   3   4
HETATM    4  C6  UNL     1     -32.351   8.177   1.099  1.00 20.00    -0.021 C 
HETATM    5  C1  UNL     1     -33.285   9.360   0.822  1.00 20.00     0.009 C 
HETATM    6  C2  UNL     1     -31.608   7.798  -0.183  1.00 20.00     0.009 C 
ENDBRANCH   3   4
ENDBRANCH   2   3
BRANCH   2   7
HETATM    7  N9  UNL     1     -34.034   6.792   3.957  1.00 20.00     0.092 N 
HETATM    8  H28 UNL     1     -33.818   7.347   4.789  1.00 20.00     0.316 HD
BRANCH   7   9
HETATM    9  C5  UNL     1     -34.544   5.491   4.378  1.00 20.00     0.340 C 
BRANCH   9  10
HETATM   10  C8  UNL     1     -34.856   5.495   5.860  1.00 20.00     0.381 C 
HETATM   11  F10 UNL     1     -34.515   6.691   6.400  1.00 20.00    -0.213 F 
HETATM   12  F11 UNL     1     -34.089   4.561   6.478  1.00 20.00    -0.213 F 
ENDBRANCH   9  10
ENDBRANCH   7   9
ENDBRANCH   2   7
TORSDOF 5
ENDMDL
