MODEL 1
REMARK VINA RESULT:      -4.2      0.000      0.000
REMARK  1 active torsions:
REMARK  status: ('A' for Active; 'I' for Inactive)
REMARK    1  A    between atoms: C2_2  and  C3_3 
ROOT
HETATM    1  C1  UNL     1     -34.115   5.341   3.458  1.00 20.00     0.064 C 
HETATM    2  C2  UNL     1     -35.200   5.211   4.438  1.00 20.00     0.194 C 
HETATM    3  N4  UNL     1     -33.258   5.444   2.681  1.00 20.00    -0.197 NA
ENDROOT
BRANCH   2   4
HETATM    4  C3  UNL     1     -34.765   5.679   5.814  1.00 20.00     0.366 C 
HETATM    5  F5  UNL     1     -33.898   6.716   5.707  1.00 20.00    -0.213 F 
HETATM    6  F6  UNL     1     -34.117   4.682   6.467  1.00 20.00    -0.213 F 
ENDBRANCH   2   4
TORSDOF 1
ENDMDL
MODEL 2
REMARK VINA RESULT:      -4.1      0.639      1.371
REMARK  1 active torsions:
REMARK  status: ('A' for Active; 'I' for Inactive)
REMARK    1  A    between atoms: C2_2  and  C3_3 
ROOT
HETATM    1  C1  UNL     1     -34.059   5.129   3.344  1.00 20.00     0.064 C 
HETATM    2  C2  UNL     1     -35.088   5.417   4.353  1.00 20.00     0.194 C 
HETATM    3  N4  UNL     1     -33.248   4.901   2.546  1.00 20.00    -0.197 NA
ENDROOT
BRANCH   2   4
HETATM    4  C3  UNL     1     -34.483   5.564   5.736  1.00 20.00     0.366 C 
HETATM    5  F5  UNL     1     -35.319   5.053   6.673  1.00 20.00    -0.213 F 
HETATM    6  F6  UNL     1     -34.302   6.875   6.034  1.00 20.00    -0.213 F 
ENDBRANCH   2   4
TORSDOF 1
ENDMDL
MODEL 3
REMARK VINA RESULT:      -4.1      1.439      1.717
REMARK  1 active torsions:
REMARK  status: ('A' for Active; 'I' for Inactive)
REMARK    1  A    between atoms: C2_2  and  C3_3 
ROOT
HETATM    1  C1  UNL     1     -33.325   6.542   3.551  1.00 20.00     0.064 C 
HETATM    2  C2  UNL     1     -34.065   6.533   4.820  1.00 20.00     0.194 C 
HETATM    3  N4  UNL     1     -32.739   6.551   2.549  1.00 20.00    -0.197 NA
ENDROOT
BRANCH   2   4
HETATM    4  C3  UNL     1     -34.995   5.338   4.911  1.00 20.00     0.366 C 
HETATM    5  F5  UNL     1     -35.191   4.991   6.207  1.00 20.00    -0.213 F 
HETATM    6  F6  UNL     1     -34.447   4.265   4.288  1.00 20.00    -0.213 F 
ENDBRANCH   2   4
TORSDOF 1
ENDMDL
MODEL 4
REMARK VINA RESULT:      -3.9      2.295      2.918
REMARK  1 active torsions:
REMARK  status: ('A' for Active; 'I' for Inactive)
REMARK    1  A    between atoms: C2_2  and  C3_3 
ROOT
HETATM    1  C1  UNL     1     -34.178   6.342   5.891  1.00 20.00     0.064 C 
HETATM    2  C2  UNL     1     -34.895   5.110   5.540  1.00 20.00     0.194 C 
HETATM    3  N4  UNL     1     -33.612   7.316   6.171  1.00 20.00    -0.197 NA
ENDROOT
BRANCH   2   4
HETATM    4  C3  UNL     1     -34.730   4.772   4.070  1.00 20.00     0.366 C 
HETATM    5  F5  UNL     1     -34.088   3.586   3.928  1.00 20.00    -0.213 F 
HETATM    6  F6  UNL     1     -33.974   5.713   3.452  1.00 20.00    -0.213 F 
ENDBRANCH   2   4
TORSDOF 1
ENDMDL
MODEL 5
REMARK VINA RESULT:      -3.9      2.626      3.239
REMARK  1 active torsions:
REMARK  status: ('A' for Active; 'I' for Inactive)
REMARK    1  A    between atoms: C2_2  and  C3_3 
ROOT
HETATM    1  C1  UNL     1     -34.531   5.490   4.328  1.00 20.00     0.064 C 
HETATM    2  C2  UNL     1     -33.750   6.724   4.172  1.00 20.00     0.194 C 
HETATM    3  N4  UNL     1     -35.150   4.516   4.453  1.00 20.00    -0.197 NA
ENDROOT
BRANCH   2   4
HETATM    4  C3  UNL     1     -32.921   6.699   2.902  1.00 20.00     0.366 C 
HETATM    5  F5  UNL     1     -32.695   5.420   2.512  1.00 20.00    -0.213 F 
HETATM    6  F6  UNL     1     -31.710   7.270   3.118  1.00 20.00    -0.213 F 
ENDBRANCH   2   4
TORSDOF 1
ENDMDL
MODEL 6
REMARK VINA RESULT:      -3.9      2.592      3.160
REMARK  1 active torsions:
REMARK  status: ('A' for Active; 'I' for Inactive)
REMARK    1  A    between atoms: C2_2  and  C3_3 
ROOT
HETATM    1  C1  UNL     1     -34.465   5.715   5.203  1.00 20.00     0.064 C 
HETATM    2  C2  UNL     1     -34.555   4.826   4.038  1.00 20.00     0.194 C 
HETATM    3  N4  UNL     1     -34.394   6.416   6.125  1.00 20.00    -0.197 NA
ENDROOT
BRANCH   2   4
HETATM    4  C3  UNL     1     -33.749   5.359   2.869  1.00 20.00     0.366 C 
HETATM    5  F5  UNL     1     -32.966   4.380   2.351  1.00 20.00    -0.213 F 
HETATM    6  F6  UNL     1     -32.924   6.354   3.280  1.00 20.00    -0.213 F 
ENDBRANCH   2   4
TORSDOF 1
ENDMDL
MODEL 7
REMARK VINA RESULT:      -3.8      2.564      3.313
REMARK  1 active torsions:
REMARK  status: ('A' for Active; 'I' for Inactive)
REMARK    1  A    between atoms: C2_2  and  C3_3 
ROOT
HETATM    1  C1  UNL     1     -34.183   4.983   3.616  1.00 20.00     0.064 C 
HETATM    2  C2  UNL     1     -33.189   5.390   2.615  1.00 20.00     0.194 C 
HETATM    3  N4  UNL     1     -34.968   4.660   4.408  1.00 20.00    -0.197 NA
ENDROOT
BRANCH   2   4
HETATM    4  C3  UNL     1     -32.913   6.880   2.679  1.00 20.00     0.366 C 
HETATM    5  F5  UNL     1     -32.168   7.269   1.615  1.00 20.00    -0.213 F 
HETATM    6  F6  UNL     1     -32.203   7.180   3.795  1.00 20.00    -0.213 F 
ENDBRANCH   2   4
TORSDOF 1
ENDMDL
MODEL 8
REMARK VINA RESULT:      -3.6      2.970      3.461
REMARK  1 active torsions:
REMARK  status: ('A' for Active; 'I' for Inactive)
REMARK    1  A    between atoms: C2_2  and  C3_3 
ROOT
HETATM    1  C1  UNL     1     -32.634   7.676   1.691  1.00 20.00     0.064 C 
HETATM    2  C2  UNL     1     -32.609   6.792   2.864  1.00 20.00     0.194 C 
HETATM    3  N4  UNL     1     -32.652   8.375   0.765  1.00 20.00    -0.197 NA
ENDROOT
BRANCH   2   4
HETATM    4  C3  UNL     1     -33.460   5.556   2.646  1.00 20.00     0.366 C 
HETATM    5  F5  UNL     1     -34.142   5.248   3.776  1.00 20.00    -0.213 F 
HETATM    6  F6  UNL     1     -32.676   4.490   2.348  1.00 20.00    -0.213 F 
ENDBRANCH   2   4
TORSDOF 1
ENDMDL
MODEL 9
REMARK VINA RESULT:      -3.6     12.345     12.568
REMARK  1 active torsions:
REMARK  status: ('A' for Active; 'I' for Inactive)
REMARK    1  A    between atoms: C2_2  and  C3_3 
ROOT
HETATM    1  C1  UNL     1     -36.162  13.917  -4.278  1.00 20.00     0.064 C 
HETATM    2  C2  UNL     1     -34.745  14.146  -3.970  1.00 20.00     0.194 C 
HETATM    3  N4  UNL     1     -37.282  13.733  -4.522  1.00 20.00    -0.197 NA
ENDROOT
BRANCH   2   4
HETATM    4  C3  UNL     1     -34.542  15.458  -3.236  1.00 20.00     0.366 C 
HETATM    5  F5  UNL     1     -33.224  15.662  -2.990  1.00 20.00    -0.213 F 
HETATM    6  F6  UNL     1     -35.172  15.429  -2.035  1.00 20.00    -0.213 F 
ENDBRANCH   2   4
TORSDOF 1
ENDMDL
