MODEL 1
REMARK VINA RESULT:      -3.9      0.000      0.000
REMARK  1 active torsions:
REMARK  status: ('A' for Active; 'I' for Inactive)
REMARK    1  A    between atoms: C3_3  and  C6_6 
ROOT
HETATM    1  C1  UNL     1     -35.469  15.696  -2.332  1.00 20.00     0.019 A 
HETATM    2  C2  UNL     1     -34.758  16.768  -1.720  1.00 20.00     0.028 A 
HETATM    3  C3  UNL     1     -34.742  15.103  -3.342  1.00 20.00     0.015 A 
HETATM    4  C4  UNL     1     -33.515  16.955  -2.284  1.00 20.00     0.051 A 
HETATM    5  S8  UNL     1     -33.209  15.840  -3.547  1.00 20.00    -0.085 SA
HETATM    6 BR9  UNL     1     -32.274  18.283  -1.734  1.00 20.00    -0.043 Br
ENDROOT
BRANCH   3   7
HETATM    7  C6  UNL     1     -35.238  13.924  -4.183  1.00 20.00     0.185 A 
HETATM    8  C5  UNL     1     -36.059  14.213  -5.422  1.00 20.00     0.206 A 
HETATM    9  O7  UNL     1     -36.634  13.572  -4.282  1.00 20.00    -0.376 OA
ENDBRANCH   3   7
TORSDOF 1
ENDMDL
MODEL 2
REMARK VINA RESULT:      -3.9      1.163      1.529
REMARK  1 active torsions:
REMARK  status: ('A' for Active; 'I' for Inactive)
REMARK    1  A    between atoms: C3_3  and  C6_6 
ROOT
HETATM    1  C1  UNL     1     -33.370  15.278  -3.907  1.00 20.00     0.019 A 
HETATM    2  C2  UNL     1     -32.879  16.373  -3.138  1.00 20.00     0.028 A 
HETATM    3  C3  UNL     1     -34.654  14.929  -3.547  1.00 20.00     0.015 A 
HETATM    4  C4  UNL     1     -33.806  16.819  -2.221  1.00 20.00     0.051 A 
HETATM    5  S8  UNL     1     -35.261  15.919  -2.289  1.00 20.00    -0.085 SA
HETATM    6 BR9  UNL     1     -33.521  18.263  -1.021  1.00 20.00    -0.043 Br
ENDROOT
BRANCH   3   7
HETATM    7  C6  UNL     1     -35.450  13.792  -4.195  1.00 20.00     0.185 A 
HETATM    8  C5  UNL     1     -36.273  14.097  -5.430  1.00 20.00     0.206 A 
HETATM    9  O7  UNL     1     -36.893  13.753  -4.189  1.00 20.00    -0.376 OA
ENDBRANCH   3   7
TORSDOF 1
ENDMDL
MODEL 3
REMARK VINA RESULT:      -3.8     17.269     18.013
REMARK  1 active torsions:
REMARK  status: ('A' for Active; 'I' for Inactive)
REMARK    1  A    between atoms: C3_3  and  C6_6 
ROOT
HETATM    1  C1  UNL     1     -22.863  17.488  11.601  1.00 20.00     0.019 A 
HETATM    2  C2  UNL     1     -24.108  17.663  12.272  1.00 20.00     0.028 A 
HETATM    3  C3  UNL     1     -22.919  17.906  10.289  1.00 20.00     0.015 A 
HETATM    4  C4  UNL     1     -25.068  18.209  11.447  1.00 20.00     0.051 A 
HETATM    5  S8  UNL     1     -24.467  18.507   9.872  1.00 20.00    -0.085 SA
HETATM    6 BR9  UNL     1     -26.849  18.595  11.981  1.00 20.00    -0.043 Br
ENDROOT
BRANCH   3   7
HETATM    7  C6  UNL     1     -21.739  17.846   9.315  1.00 20.00     0.185 A 
HETATM    8  C5  UNL     1     -22.015  17.513   7.863  1.00 20.00     0.206 A 
HETATM    9  O7  UNL     1     -21.293  16.615   8.708  1.00 20.00    -0.376 OA
ENDBRANCH   3   7
TORSDOF 1
ENDMDL
MODEL 4
REMARK VINA RESULT:      -3.8     14.908     16.128
REMARK  1 active torsions:
REMARK  status: ('A' for Active; 'I' for Inactive)
REMARK    1  A    between atoms: C3_3  and  C6_6 
ROOT
HETATM    1  C1  UNL     1     -23.166  18.114   7.981  1.00 20.00     0.019 A 
HETATM    2  C2  UNL     1     -22.596  17.728   9.230  1.00 20.00     0.028 A 
HETATM    3  C3  UNL     1     -24.386  18.734   8.139  1.00 20.00     0.015 A 
HETATM    4  C4  UNL     1     -23.403  18.069  10.294  1.00 20.00     0.051 A 
HETATM    5  S8  UNL     1     -24.839  18.850   9.787  1.00 20.00    -0.085 SA
HETATM    6 BR9  UNL     1     -22.982  17.724  12.114  1.00 20.00    -0.043 Br
ENDROOT
BRANCH   3   7
HETATM    7  C6  UNL     1     -25.239  19.263   6.983  1.00 20.00     0.185 A 
HETATM    8  C5  UNL     1     -26.528  18.541   6.645  1.00 20.00     0.206 A 
HETATM    9  O7  UNL     1     -25.414  18.535   5.749  1.00 20.00    -0.376 OA
ENDBRANCH   3   7
TORSDOF 1
ENDMDL
MODEL 5
REMARK VINA RESULT:      -3.7      2.025      2.275
REMARK  1 active torsions:
REMARK  status: ('A' for Active; 'I' for Inactive)
REMARK    1  A    between atoms: C3_3  and  C6_6 
ROOT
HETATM    1  C1  UNL     1     -32.966  16.356  -3.393  1.00 20.00     0.019 A 
HETATM    2  C2  UNL     1     -33.361  16.989  -2.179  1.00 20.00     0.028 A 
HETATM    3  C3  UNL     1     -33.961  15.552  -3.904  1.00 20.00     0.015 A 
HETATM    4  C4  UNL     1     -34.644  16.646  -1.809  1.00 20.00     0.051 A 
HETATM    5  S8  UNL     1     -35.365  15.565  -2.923  1.00 20.00    -0.085 SA
HETATM    6 BR9  UNL     1     -35.523  17.292  -0.254  1.00 20.00    -0.043 Br
ENDROOT
BRANCH   3   7
HETATM    7  C6  UNL     1     -33.836  14.743  -5.198  1.00 20.00     0.185 A 
HETATM    8  C5  UNL     1     -34.322  15.366  -6.491  1.00 20.00     0.206 A 
HETATM    9  O7  UNL     1     -34.983  14.238  -5.914  1.00 20.00    -0.376 OA
ENDBRANCH   3   7
TORSDOF 1
ENDMDL
MODEL 6
REMARK VINA RESULT:      -3.7      1.874      2.062
REMARK  1 active torsions:
REMARK  status: ('A' for Active; 'I' for Inactive)
REMARK    1  A    between atoms: C3_3  and  C6_6 
ROOT
HETATM    1  C1  UNL     1     -34.904  15.027  -3.476  1.00 20.00     0.019 A 
HETATM    2  C2  UNL     1     -34.120  15.812  -2.581  1.00 20.00     0.028 A 
HETATM    3  C3  UNL     1     -36.122  15.612  -3.745  1.00 20.00     0.015 A 
HETATM    4  C4  UNL     1     -34.770  16.966  -2.200  1.00 20.00     0.051 A 
HETATM    5  S8  UNL     1     -36.317  17.100  -2.920  1.00 20.00    -0.085 SA
HETATM    6 BR9  UNL     1     -34.045  18.267  -1.020  1.00 20.00    -0.043 Br
ENDROOT
BRANCH   3   7
HETATM    7  C6  UNL     1     -37.181  15.010  -4.673  1.00 20.00     0.185 A 
HETATM    8  C5  UNL     1     -38.591  14.834  -4.146  1.00 20.00     0.206 A 
HETATM    9  O7  UNL     1     -37.763  13.708  -4.447  1.00 20.00    -0.376 OA
ENDBRANCH   3   7
TORSDOF 1
ENDMDL
MODEL 7
REMARK VINA RESULT:      -3.6      3.604      4.955
REMARK  1 active torsions:
REMARK  status: ('A' for Active; 'I' for Inactive)
REMARK    1  A    between atoms: C3_3  and  C6_6 
ROOT
HETATM    1  C1  UNL     1     -34.434  17.254  -1.198  1.00 20.00     0.019 A 
HETATM    2  C2  UNL     1     -35.130  16.173  -1.813  1.00 20.00     0.028 A 
HETATM    3  C3  UNL     1     -33.249  17.539  -1.841  1.00 20.00     0.015 A 
HETATM    4  C4  UNL     1     -34.450  15.672  -2.903  1.00 20.00     0.051 A 
HETATM    5  S8  UNL     1     -32.980  16.505  -3.180  1.00 20.00    -0.085 SA
HETATM    6 BR9  UNL     1     -35.060  14.233  -3.982  1.00 20.00    -0.043 Br
ENDROOT
BRANCH   3   7
HETATM    7  C6  UNL     1     -32.284  18.649  -1.417  1.00 20.00     0.185 A 
HETATM    8  C5  UNL     1     -31.181  18.313  -0.433  1.00 20.00     0.206 A 
HETATM    9  O7  UNL     1     -32.256  19.185  -0.077  1.00 20.00    -0.376 OA
ENDBRANCH   3   7
TORSDOF 1
ENDMDL
MODEL 8
REMARK VINA RESULT:      -3.5     10.871     11.362
REMARK  1 active torsions:
REMARK  status: ('A' for Active; 'I' for Inactive)
REMARK    1  A    between atoms: C3_3  and  C6_6 
ROOT
HETATM    1  C1  UNL     1     -33.186   5.598   2.122  1.00 20.00     0.019 A 
HETATM    2  C2  UNL     1     -33.849   4.903   3.174  1.00 20.00     0.028 A 
HETATM    3  C3  UNL     1     -32.871   6.892   2.474  1.00 20.00     0.015 A 
HETATM    4  C4  UNL     1     -34.015   5.693   4.292  1.00 20.00     0.051 A 
HETATM    5  S8  UNL     1     -33.373   7.264   4.069  1.00 20.00    -0.085 SA
HETATM    6 BR9  UNL     1     -34.850   5.118   5.898  1.00 20.00    -0.043 Br
ENDROOT
BRANCH   3   7
HETATM    7  C6  UNL     1     -32.153   7.885   1.556  1.00 20.00     0.185 A 
HETATM    8  C5  UNL     1     -32.941   9.051   0.993  1.00 20.00     0.206 A 
HETATM    9  O7  UNL     1     -32.458   8.003   0.149  1.00 20.00    -0.376 OA
ENDBRANCH   3   7
TORSDOF 1
ENDMDL
MODEL 9
REMARK VINA RESULT:      -3.3      2.256      2.373
REMARK  1 active torsions:
REMARK  status: ('A' for Active; 'I' for Inactive)
REMARK    1  A    between atoms: C3_3  and  C6_6 
ROOT
HETATM    1  C1  UNL     1     -34.619  15.858  -2.254  1.00 20.00     0.019 A 
HETATM    2  C2  UNL     1     -35.042  16.922  -1.406  1.00 20.00     0.028 A 
HETATM    3  C3  UNL     1     -35.426  15.729  -3.364  1.00 20.00     0.015 A 
HETATM    4  C4  UNL     1     -36.155  17.567  -1.900  1.00 20.00     0.051 A 
HETATM    5  S8  UNL     1     -36.686  16.889  -3.380  1.00 20.00    -0.085 SA
HETATM    6 BR9  UNL     1     -37.008  19.038  -1.054  1.00 20.00    -0.043 Br
ENDROOT
BRANCH   3   7
HETATM    7  C6  UNL     1     -35.224  14.678  -4.459  1.00 20.00     0.185 A 
HETATM    8  C5  UNL     1     -36.262  13.585  -4.614  1.00 20.00     0.206 A 
HETATM    9  O7  UNL     1     -34.937  13.294  -4.165  1.00 20.00    -0.376 OA
ENDBRANCH   3   7
TORSDOF 1
ENDMDL
