MODEL 1
REMARK VINA RESULT:      -5.0      0.000      0.000
REMARK  2 active torsions:
REMARK  status: ('A' for Active; 'I' for Inactive)
REMARK    1  A    between atoms: C7_7  and  C10_10 
REMARK    2  A    between atoms: C8_8  and  C9_9 
ROOT
HETATM    1  C1  UNL     1     -32.969  16.779  -2.533  1.00 20.00    -0.019 A 
HETATM    2  C3  UNL     1     -33.112  17.690  -1.562  1.00 20.00    -0.087 A 
HETATM    3  C5  UNL     1     -34.450  17.621  -0.887  1.00 20.00     0.039 A 
HETATM    4  C8  UNL     1     -34.183  15.928  -2.690  1.00 20.00     0.021 A 
HETATM    5  C10 UNL     1     -35.178  16.490  -1.621  1.00 20.00     0.005 A 
HETATM    6  C11 UNL     1     -32.102  18.696  -1.141  1.00 20.00     0.043 C 
ENDROOT
BRANCH   4   7
HETATM    7  C9  UNL     1     -34.992  16.049  -4.009  1.00 20.00     0.022 C 
HETATM    8  C4  UNL     1     -36.074  14.989  -4.065  1.00 20.00    -0.082 C 
HETATM    9  C2  UNL     1     -35.463  13.801  -4.195  1.00 20.00    -0.019 C 
HETATM   10  C12 UNL     1     -37.518  15.292  -3.948  1.00 20.00     0.043 C 
HETATM   11  C7  UNL     1     -33.975  14.063  -4.232  1.00 20.00     0.014 C 
HETATM   12  C6  UNL     1     -34.006  15.399  -4.993  1.00 20.00     0.018 C 
ENDBRANCH   4   7
TORSDOF 2
ENDMDL
MODEL 2
REMARK VINA RESULT:      -5.0     13.340     16.646
REMARK  2 active torsions:
REMARK  status: ('A' for Active; 'I' for Inactive)
REMARK    1  A    between atoms: C7_7  and  C10_10 
REMARK    2  A    between atoms: C8_8  and  C9_9 
ROOT
HETATM    1  C1  UNL     1     -23.994  18.717   7.390  1.00 20.00    -0.019 A 
HETATM    2  C3  UNL     1     -25.246  19.069   7.071  1.00 20.00    -0.087 A 
HETATM    3  C5  UNL     1     -26.123  19.263   8.272  1.00 20.00     0.039 A 
HETATM    4  C8  UNL     1     -23.797  18.611   8.864  1.00 20.00     0.021 A 
HETATM    5  C10 UNL     1     -25.205  18.949   9.457  1.00 20.00     0.005 A 
HETATM    6  C11 UNL     1     -25.785  19.263   5.699  1.00 20.00     0.043 C 
ENDROOT
BRANCH   4   7
HETATM    7  C9  UNL     1     -23.500  17.209   9.461  1.00 20.00     0.022 C 
HETATM    8  C4  UNL     1     -23.186  17.319  10.940  1.00 20.00    -0.082 C 
HETATM    9  C2  UNL     1     -22.007  17.949  11.052  1.00 20.00    -0.019 C 
HETATM   10  C12 UNL     1     -24.093  16.831  12.003  1.00 20.00     0.043 C 
HETATM   11  C7  UNL     1     -21.527  18.257   9.653  1.00 20.00     0.014 C 
HETATM   12  C6  UNL     1     -22.065  16.997   8.953  1.00 20.00     0.018 C 
ENDBRANCH   4   7
TORSDOF 2
ENDMDL
MODEL 3
REMARK VINA RESULT:      -4.9      1.159      4.741
REMARK  2 active torsions:
REMARK  status: ('A' for Active; 'I' for Inactive)
REMARK    1  A    between atoms: C7_7  and  C10_10 
REMARK    2  A    between atoms: C8_8  and  C9_9 
ROOT
HETATM    1  C1  UNL     1     -35.424  15.324  -2.791  1.00 20.00    -0.019 A 
HETATM    2  C3  UNL     1     -35.096  14.604  -3.872  1.00 20.00    -0.087 A 
HETATM    3  C5  UNL     1     -33.678  14.825  -4.313  1.00 20.00     0.039 A 
HETATM    4  C8  UNL     1     -34.289  16.160  -2.305  1.00 20.00     0.021 A 
HETATM    5  C10 UNL     1     -33.135  15.854  -3.317  1.00 20.00     0.005 A 
HETATM    6  C11 UNL     1     -35.983  13.670  -4.611  1.00 20.00     0.043 C 
ENDROOT
BRANCH   4   7
HETATM    7  C9  UNL     1     -34.427  17.703  -2.397  1.00 20.00     0.022 C 
HETATM    8  C4  UNL     1     -33.433  18.380  -1.475  1.00 20.00    -0.082 C 
HETATM    9  C2  UNL     1     -33.815  18.119  -0.215  1.00 20.00    -0.019 C 
HETATM   10  C12 UNL     1     -32.257  19.137  -1.960  1.00 20.00     0.043 C 
HETATM   11  C7  UNL     1     -35.066  17.274  -0.291  1.00 20.00     0.014 C 
HETATM   12  C6  UNL     1     -35.688  17.914  -1.544  1.00 20.00     0.018 C 
ENDBRANCH   4   7
TORSDOF 2
ENDMDL
MODEL 4
REMARK VINA RESULT:      -4.8      1.261      2.374
REMARK  2 active torsions:
REMARK  status: ('A' for Active; 'I' for Inactive)
REMARK    1  A    between atoms: C7_7  and  C10_10 
REMARK    2  A    between atoms: C8_8  and  C9_9 
ROOT
HETATM    1  C1  UNL     1     -33.986  16.337  -2.375  1.00 20.00    -0.019 A 
HETATM    2  C3  UNL     1     -33.284  17.472  -2.265  1.00 20.00    -0.087 A 
HETATM    3  C5  UNL     1     -33.200  18.236  -3.555  1.00 20.00     0.039 A 
HETATM    4  C8  UNL     1     -34.506  16.128  -3.758  1.00 20.00     0.021 A 
HETATM    5  C10 UNL     1     -33.974  17.367  -4.551  1.00 20.00     0.005 A 
HETATM    6  C11 UNL     1     -32.626  17.986  -1.036  1.00 20.00     0.043 C 
ENDROOT
BRANCH   4   7
HETATM    7  C9  UNL     1     -33.948  14.931  -4.573  1.00 20.00     0.022 C 
HETATM    8  C4  UNL     1     -34.612  14.862  -5.933  1.00 20.00    -0.082 C 
HETATM    9  C2  UNL     1     -35.894  14.518  -5.735  1.00 20.00    -0.019 C 
HETATM   10  C12 UNL     1     -33.911  15.175  -7.199  1.00 20.00     0.043 C 
HETATM   11  C7  UNL     1     -36.089  14.351  -4.246  1.00 20.00     0.014 C 
HETATM   12  C6  UNL     1     -34.705  13.772  -3.906  1.00 20.00     0.018 C 
ENDBRANCH   4   7
TORSDOF 2
ENDMDL
MODEL 5
REMARK VINA RESULT:      -4.6      0.936      2.564
REMARK  2 active torsions:
REMARK  status: ('A' for Active; 'I' for Inactive)
REMARK    1  A    between atoms: C7_7  and  C10_10 
REMARK    2  A    between atoms: C8_8  and  C9_9 
ROOT
HETATM    1  C1  UNL     1     -35.191  17.079  -1.410  1.00 20.00    -0.019 A 
HETATM    2  C3  UNL     1     -34.267  17.648  -0.624  1.00 20.00    -0.087 A 
HETATM    3  C5  UNL     1     -32.920  17.741  -1.278  1.00 20.00     0.039 A 
HETATM    4  C8  UNL     1     -34.636  16.687  -2.737  1.00 20.00     0.021 A 
HETATM    5  C10 UNL     1     -33.130  17.099  -2.654  1.00 20.00     0.005 A 
HETATM    6  C11 UNL     1     -34.475  18.154   0.757  1.00 20.00     0.043 C 
ENDROOT
BRANCH   4   7
HETATM    7  C9  UNL     1     -34.560  15.174  -3.077  1.00 20.00     0.022 C 
HETATM    8  C4  UNL     1     -33.826  14.962  -4.386  1.00 20.00    -0.082 C 
HETATM    9  C2  UNL     1     -34.604  15.450  -5.364  1.00 20.00    -0.019 C 
HETATM   10  C12 UNL     1     -32.479  14.356  -4.475  1.00 20.00     0.043 C 
HETATM   11  C7  UNL     1     -35.860  15.984  -4.715  1.00 20.00     0.014 C 
HETATM   12  C6  UNL     1     -35.989  14.939  -3.593  1.00 20.00     0.018 C 
ENDBRANCH   4   7
TORSDOF 2
ENDMDL
MODEL 6
REMARK VINA RESULT:      -4.3      1.319      4.412
REMARK  2 active torsions:
REMARK  status: ('A' for Active; 'I' for Inactive)
REMARK    1  A    between atoms: C7_7  and  C10_10 
REMARK    2  A    between atoms: C8_8  and  C9_9 
ROOT
HETATM    1  C1  UNL     1     -37.368  14.901  -4.526  1.00 20.00    -0.019 A 
HETATM    2  C3  UNL     1     -38.518  15.530  -4.247  1.00 20.00    -0.087 A 
HETATM    3  C5  UNL     1     -38.311  16.886  -3.639  1.00 20.00     0.039 A 
HETATM    4  C8  UNL     1     -36.176  15.719  -4.159  1.00 20.00     0.021 A 
HETATM    5  C10 UNL     1     -36.788  17.025  -3.551  1.00 20.00     0.005 A 
HETATM    6  C11 UNL     1     -39.888  15.006  -4.482  1.00 20.00     0.043 C 
ENDROOT
BRANCH   4   7
HETATM    7  C9  UNL     1     -35.263  15.203  -3.015  1.00 20.00     0.022 C 
HETATM    8  C4  UNL     1     -34.108  16.158  -2.788  1.00 20.00    -0.082 C 
HETATM    9  C2  UNL     1     -33.311  16.086  -3.865  1.00 20.00    -0.019 C 
HETATM   10  C12 UNL     1     -33.982  17.012  -1.585  1.00 20.00     0.043 C 
HETATM   11  C7  UNL     1     -33.925  15.080  -4.811  1.00 20.00     0.014 C 
HETATM   12  C6  UNL     1     -34.487  14.105  -3.762  1.00 20.00     0.018 C 
ENDBRANCH   4   7
TORSDOF 2
ENDMDL
MODEL 7
REMARK VINA RESULT:      -4.3      2.024      3.861
REMARK  2 active torsions:
REMARK  status: ('A' for Active; 'I' for Inactive)
REMARK    1  A    between atoms: C7_7  and  C10_10 
REMARK    2  A    between atoms: C8_8  and  C9_9 
ROOT
HETATM    1  C1  UNL     1     -33.282  18.610   0.716  1.00 20.00    -0.019 A 
HETATM    2  C3  UNL     1     -32.003  18.616   1.113  1.00 20.00    -0.087 A 
HETATM    3  C5  UNL     1     -31.042  18.346  -0.008  1.00 20.00     0.039 A 
HETATM    4  C8  UNL     1     -33.418  18.336  -0.743  1.00 20.00     0.021 A 
HETATM    5  C10 UNL     1     -31.944  18.138  -1.228  1.00 20.00     0.005 A 
HETATM    6  C11 UNL     1     -31.509  18.855   2.494  1.00 20.00     0.043 C 
ENDROOT
BRANCH   4   7
HETATM    7  C9  UNL     1     -34.103  17.012  -1.175  1.00 20.00     0.022 C 
HETATM    8  C4  UNL     1     -34.117  16.891  -2.686  1.00 20.00    -0.082 C 
HETATM    9  C2  UNL     1     -34.955  17.829  -3.154  1.00 20.00    -0.019 C 
HETATM   10  C12 UNL     1     -33.292  15.915  -3.432  1.00 20.00     0.043 C 
HETATM   11  C7  UNL     1     -35.507  18.574  -1.961  1.00 20.00     0.014 C 
HETATM   12  C6  UNL     1     -35.579  17.393  -0.978  1.00 20.00     0.018 C 
ENDBRANCH   4   7
TORSDOF 2
ENDMDL
MODEL 8
REMARK VINA RESULT:      -4.2      1.802      4.350
REMARK  2 active torsions:
REMARK  status: ('A' for Active; 'I' for Inactive)
REMARK    1  A    between atoms: C7_7  and  C10_10 
REMARK    2  A    between atoms: C8_8  and  C9_9 
ROOT
HETATM    1  C1  UNL     1     -36.744  15.914  -5.645  1.00 20.00    -0.019 A 
HETATM    2  C3  UNL     1     -37.743  16.793  -5.800  1.00 20.00    -0.087 A 
HETATM    3  C5  UNL     1     -37.627  17.977  -4.886  1.00 20.00     0.039 A 
HETATM    4  C8  UNL     1     -35.771  16.346  -4.601  1.00 20.00     0.021 A 
HETATM    5  C10 UNL     1     -36.357  17.698  -4.076  1.00 20.00     0.005 A 
HETATM    6  C11 UNL     1     -38.880  16.677  -6.750  1.00 20.00     0.043 C 
ENDROOT
BRANCH   4   7
HETATM    7  C9  UNL     1     -35.664  15.493  -3.308  1.00 20.00     0.022 C 
HETATM    8  C4  UNL     1     -34.704  16.136  -2.328  1.00 20.00    -0.082 C 
HETATM    9  C2  UNL     1     -33.473  16.041  -2.853  1.00 20.00    -0.019 C 
HETATM   10  C12 UNL     1     -35.135  16.770  -1.062  1.00 20.00     0.043 C 
HETATM   11  C7  UNL     1     -33.605  15.330  -4.180  1.00 20.00     0.014 C 
HETATM   12  C6  UNL     1     -34.742  14.366  -3.802  1.00 20.00     0.018 C 
ENDBRANCH   4   7
TORSDOF 2
ENDMDL
MODEL 9
REMARK VINA RESULT:      -4.2      1.258      4.370
REMARK  2 active torsions:
REMARK  status: ('A' for Active; 'I' for Inactive)
REMARK    1  A    between atoms: C7_7  and  C10_10 
REMARK    2  A    between atoms: C8_8  and  C9_9 
ROOT
HETATM    1  C1  UNL     1     -33.242  16.202  -3.254  1.00 20.00    -0.019 A 
HETATM    2  C3  UNL     1     -33.801  15.090  -3.747  1.00 20.00    -0.087 A 
HETATM    3  C5  UNL     1     -35.244  14.941  -3.363  1.00 20.00     0.039 A 
HETATM    4  C8  UNL     1     -34.205  17.007  -2.448  1.00 20.00     0.021 A 
HETATM    5  C10 UNL     1     -35.526  16.172  -2.496  1.00 20.00     0.005 A 
HETATM    6  C11 UNL     1     -33.131  14.064  -4.589  1.00 20.00     0.043 C 
ENDROOT
BRANCH   4   7
HETATM    7  C9  UNL     1     -33.941  17.149  -0.926  1.00 20.00     0.022 C 
HETATM    8  C4  UNL     1     -35.010  18.009  -0.281  1.00 20.00    -0.082 C 
HETATM    9  C2  UNL     1     -34.840  19.262  -0.733  1.00 20.00    -0.019 C 
HETATM   10  C12 UNL     1     -36.042  17.476   0.636  1.00 20.00     0.043 C 
HETATM   11  C7  UNL     1     -33.657  19.243  -1.673  1.00 20.00     0.014 C 
HETATM   12  C6  UNL     1     -32.810  18.189  -0.941  1.00 20.00     0.018 C 
ENDBRANCH   4   7
TORSDOF 2
ENDMDL
