MODEL 1
REMARK VINA RESULT:      -4.5      0.000      0.000
REMARK  1 active torsions:
REMARK  status: ('A' for Active; 'I' for Inactive)
REMARK    1  A    between atoms: C2_2  and  C7_7 
ROOT
HETATM    1  C1  UNL     1     -24.694  18.456  10.497  1.00 20.00     0.141 C 
HETATM    2  C3  UNL     1     -25.532  18.624  11.748  1.00 20.00     0.079 C 
HETATM    3  C4  UNL     1     -26.132  17.297  12.185  1.00 20.00     0.007 C 
HETATM    4  C5  UNL     1     -25.064  16.218  12.332  1.00 20.00     0.002 C 
HETATM    5  C6  UNL     1     -24.297  16.031  11.024  1.00 20.00     0.024 C 
HETATM    6  C7  UNL     1     -23.659  17.326  10.491  1.00 20.00     0.070 C 
HETATM    7  C8  UNL     1     -22.455  17.761  11.335  1.00 20.00     0.031 C 
HETATM    8  O9  UNL     1     -24.789  19.258   9.568  1.00 20.00    -0.297 OA
ENDROOT
BRANCH   6   9
HETATM    9  C2  UNL     1     -23.165  17.025   9.098  1.00 20.00     0.248 C 
HETATM   10  O10 UNL     1     -22.027  16.641   8.853  1.00 20.00    -0.306 OA
ENDBRANCH   6   9
TORSDOF 1
ENDMDL
MODEL 2
REMARK VINA RESULT:      -4.5     17.926     18.711
REMARK  1 active torsions:
REMARK  status: ('A' for Active; 'I' for Inactive)
REMARK    1  A    between atoms: C2_2  and  C7_7 
ROOT
HETATM    1  C1  UNL     1     -35.898  16.081  -3.763  1.00 20.00     0.141 C 
HETATM    2  C3  UNL     1     -34.940  17.172  -3.331  1.00 20.00     0.079 C 
HETATM    3  C4  UNL     1     -33.685  16.581  -2.710  1.00 20.00     0.007 C 
HETATM    4  C5  UNL     1     -33.033  15.554  -3.628  1.00 20.00     0.002 C 
HETATM    5  C6  UNL     1     -34.013  14.433  -3.974  1.00 20.00     0.024 C 
HETATM    6  C7  UNL     1     -35.326  14.934  -4.601  1.00 20.00     0.070 C 
HETATM    7  C8  UNL     1     -35.122  15.431  -6.037  1.00 20.00     0.031 C 
HETATM    8  O9  UNL     1     -37.102  16.173  -3.519  1.00 20.00    -0.297 OA
ENDROOT
BRANCH   6   9
HETATM    9  C2  UNL     1     -36.261  13.751  -4.648  1.00 20.00     0.248 C 
HETATM   10  O10 UNL     1     -35.887  12.589  -4.536  1.00 20.00    -0.306 OA
ENDBRANCH   6   9
TORSDOF 1
ENDMDL
MODEL 3
REMARK VINA RESULT:      -4.4     17.774     18.537
REMARK  1 active torsions:
REMARK  status: ('A' for Active; 'I' for Inactive)
REMARK    1  A    between atoms: C2_2  and  C7_7 
ROOT
HETATM    1  C1  UNL     1     -34.986  16.153  -5.026  1.00 20.00     0.141 C 
HETATM    2  C3  UNL     1     -34.176  17.383  -4.669  1.00 20.00     0.079 C 
HETATM    3  C4  UNL     1     -34.391  17.775  -3.216  1.00 20.00     0.007 C 
HETATM    4  C5  UNL     1     -34.130  16.604  -2.274  1.00 20.00     0.002 C 
HETATM    5  C6  UNL     1     -35.024  15.415  -2.624  1.00 20.00     0.024 C 
HETATM    6  C7  UNL     1     -34.887  14.949  -4.085  1.00 20.00     0.070 C 
HETATM    7  C8  UNL     1     -33.552  14.239  -4.337  1.00 20.00     0.031 C 
HETATM    8  O9  UNL     1     -35.622  16.107  -6.080  1.00 20.00    -0.297 OA
ENDROOT
BRANCH   6   9
HETATM    9  C2  UNL     1     -35.995  13.954  -4.327  1.00 20.00     0.248 C 
HETATM   10  O10 UNL     1     -35.800  12.757  -4.508  1.00 20.00    -0.306 OA
ENDBRANCH   6   9
TORSDOF 1
ENDMDL
MODEL 4
REMARK VINA RESULT:      -4.4     18.377     19.273
REMARK  1 active torsions:
REMARK  status: ('A' for Active; 'I' for Inactive)
REMARK    1  A    between atoms: C2_2  and  C7_7 
ROOT
HETATM    1  C1  UNL     1     -34.101  14.852  -5.365  1.00 20.00     0.141 C 
HETATM    2  C3  UNL     1     -33.065  14.744  -4.264  1.00 20.00     0.079 C 
HETATM    3  C4  UNL     1     -33.241  15.853  -3.240  1.00 20.00     0.007 C 
HETATM    4  C5  UNL     1     -34.668  15.902  -2.704  1.00 20.00     0.002 C 
HETATM    5  C6  UNL     1     -35.670  16.090  -3.842  1.00 20.00     0.024 C 
HETATM    6  C7  UNL     1     -35.563  15.017  -4.941  1.00 20.00     0.070 C 
HETATM    7  C8  UNL     1     -36.093  13.658  -4.469  1.00 20.00     0.031 C 
HETATM    8  O9  UNL     1     -33.775  14.720  -6.546  1.00 20.00    -0.297 OA
ENDROOT
BRANCH   6   9
HETATM    9  C2  UNL     1     -36.430  15.482  -6.084  1.00 20.00     0.248 C 
HETATM   10  O10 UNL     1     -37.652  15.565  -6.016  1.00 20.00    -0.306 OA
ENDBRANCH   6   9
TORSDOF 1
ENDMDL
MODEL 5
REMARK VINA RESULT:      -4.2     18.599     19.372
REMARK  1 active torsions:
REMARK  status: ('A' for Active; 'I' for Inactive)
REMARK    1  A    between atoms: C2_2  and  C7_7 
ROOT
HETATM    1  C1  UNL     1     -34.459  15.321  -5.494  1.00 20.00     0.141 C 
HETATM    2  C3  UNL     1     -34.752  16.730  -5.967  1.00 20.00     0.079 C 
HETATM    3  C4  UNL     1     -36.241  17.029  -5.898  1.00 20.00     0.007 C 
HETATM    4  C5  UNL     1     -36.808  16.743  -4.512  1.00 20.00     0.002 C 
HETATM    5  C6  UNL     1     -36.556  15.291  -4.110  1.00 20.00     0.024 C 
HETATM    6  C7  UNL     1     -35.073  14.886  -4.160  1.00 20.00     0.070 C 
HETATM    7  C8  UNL     1     -34.267  15.520  -3.020  1.00 20.00     0.031 C 
HETATM    8  O9  UNL     1     -33.684  14.598  -6.122  1.00 20.00    -0.297 OA
ENDROOT
BRANCH   6   9
HETATM    9  C2  UNL     1     -35.027  13.388  -3.983  1.00 20.00     0.248 C 
HETATM   10  O10 UNL     1     -35.842  12.623  -4.487  1.00 20.00    -0.306 OA
ENDBRANCH   6   9
TORSDOF 1
ENDMDL
MODEL 6
REMARK VINA RESULT:      -4.1     18.093     19.010
REMARK  1 active torsions:
REMARK  status: ('A' for Active; 'I' for Inactive)
REMARK    1  A    between atoms: C2_2  and  C7_7 
ROOT
HETATM    1  C1  UNL     1     -34.950  15.623  -3.181  1.00 20.00     0.141 C 
HETATM    2  C3  UNL     1     -33.465  15.791  -3.430  1.00 20.00     0.079 C 
HETATM    3  C4  UNL     1     -32.956  14.748  -4.413  1.00 20.00     0.007 C 
HETATM    4  C5  UNL     1     -33.774  14.743  -5.700  1.00 20.00     0.002 C 
HETATM    5  C6  UNL     1     -35.252  14.494  -5.405  1.00 20.00     0.024 C 
HETATM    6  C7  UNL     1     -35.859  15.496  -4.407  1.00 20.00     0.070 C 
HETATM    7  C8  UNL     1     -36.041  16.886  -5.028  1.00 20.00     0.031 C 
HETATM    8  O9  UNL     1     -35.402  15.681  -2.036  1.00 20.00    -0.297 OA
ENDROOT
BRANCH   6   9
HETATM    9  C2  UNL     1     -37.224  14.969  -4.041  1.00 20.00     0.248 C 
HETATM   10  O10 UNL     1     -37.634  13.863  -4.378  1.00 20.00    -0.306 OA
ENDBRANCH   6   9
TORSDOF 1
ENDMDL
MODEL 7
REMARK VINA RESULT:      -4.0     17.003     17.703
REMARK  1 active torsions:
REMARK  status: ('A' for Active; 'I' for Inactive)
REMARK    1  A    between atoms: C2_2  and  C7_7 
ROOT
HETATM    1  C1  UNL     1     -35.520  15.729  -3.389  1.00 20.00     0.141 C 
HETATM    2  C3  UNL     1     -35.854  16.697  -2.272  1.00 20.00     0.079 C 
HETATM    3  C4  UNL     1     -34.672  16.872  -1.331  1.00 20.00     0.007 C 
HETATM    4  C5  UNL     1     -33.405  17.258  -2.086  1.00 20.00     0.002 C 
HETATM    5  C6  UNL     1     -33.066  16.214  -3.149  1.00 20.00     0.024 C 
HETATM    6  C7  UNL     1     -34.209  15.956  -4.147  1.00 20.00     0.070 C 
HETATM    7  C8  UNL     1     -34.400  17.130  -5.116  1.00 20.00     0.031 C 
HETATM    8  O9  UNL     1     -36.323  14.856  -3.721  1.00 20.00    -0.297 OA
ENDROOT
BRANCH   6   9
HETATM    9  C2  UNL     1     -33.812  14.747  -4.957  1.00 20.00     0.248 C 
HETATM   10  O10 UNL     1     -33.222  13.781  -4.485  1.00 20.00    -0.306 OA
ENDBRANCH   6   9
TORSDOF 1
ENDMDL
MODEL 8
REMARK VINA RESULT:      -4.0     22.828     23.581
REMARK  1 active torsions:
REMARK  status: ('A' for Active; 'I' for Inactive)
REMARK    1  A    between atoms: C2_2  and  C7_7 
ROOT
HETATM    1  C1  UNL     1     -42.619   7.575  -1.361  1.00 20.00     0.141 C 
HETATM    2  C3  UNL     1     -43.244   6.209  -1.559  1.00 20.00     0.079 C 
HETATM    3  C4  UNL     1     -42.391   5.122  -0.925  1.00 20.00     0.007 C 
HETATM    4  C5  UNL     1     -42.091   5.426   0.539  1.00 20.00     0.002 C 
HETATM    5  C6  UNL     1     -41.392   6.777   0.682  1.00 20.00     0.024 C 
HETATM    6  C7  UNL     1     -42.175   7.945   0.057  1.00 20.00     0.070 C 
HETATM    7  C8  UNL     1     -43.417   8.308   0.880  1.00 20.00     0.031 C 
HETATM    8  O9  UNL     1     -42.560   8.377  -2.294  1.00 20.00    -0.297 OA
ENDROOT
BRANCH   6   9
HETATM    9  C2  UNL     1     -41.251   9.138   0.063  1.00 20.00     0.248 C 
HETATM   10  O10 UNL     1     -41.617  10.275   0.340  1.00 20.00    -0.306 OA
ENDBRANCH   6   9
TORSDOF 1
ENDMDL
MODEL 9
REMARK VINA RESULT:      -3.9     17.958     18.828
REMARK  1 active torsions:
REMARK  status: ('A' for Active; 'I' for Inactive)
REMARK    1  A    between atoms: C2_2  and  C7_7 
ROOT
HETATM    1  C1  UNL     1     -33.769  15.081  -4.212  1.00 20.00     0.141 C 
HETATM    2  C3  UNL     1     -33.204  15.984  -3.135  1.00 20.00     0.079 C 
HETATM    3  C4  UNL     1     -33.267  17.443  -3.558  1.00 20.00     0.007 C 
HETATM    4  C5  UNL     1     -34.674  17.844  -3.985  1.00 20.00     0.002 C 
HETATM    5  C6  UNL     1     -35.171  16.956  -5.125  1.00 20.00     0.024 C 
HETATM    6  C7  UNL     1     -35.135  15.453  -4.796  1.00 20.00     0.070 C 
HETATM    7  C8  UNL     1     -36.222  15.060  -3.788  1.00 20.00     0.031 C 
HETATM    8  O9  UNL     1     -33.183  14.045  -4.531  1.00 20.00    -0.297 OA
ENDROOT
BRANCH   6   9
HETATM    9  C2  UNL     1     -35.412  14.722  -6.086  1.00 20.00     0.248 C 
HETATM   10  O10 UNL     1     -36.071  13.689  -6.149  1.00 20.00    -0.306 OA
ENDBRANCH   6   9
TORSDOF 1
ENDMDL
