MODEL 1
REMARK VINA RESULT:      -4.7      0.000      0.000
REMARK  0 active torsions:
REMARK  status: ('A' for Active; 'I' for Inactive)
ROOT
HETATM    1  C1  UNL     1     -33.706  15.222  -7.918  1.00 20.00     0.015 C 
HETATM    2  C2  UNL     1     -34.521  15.132  -7.042  1.00 20.00    -0.082 C 
HETATM    3  C3  UNL     1     -34.134  16.261  -2.266  1.00 20.00     0.000 C 
HETATM    4  C4  UNL     1     -33.194  15.892  -3.415  1.00 20.00     0.003 C 
HETATM    5  C5  UNL     1     -35.585  16.382  -2.739  1.00 20.00     0.003 C 
HETATM    6  C6  UNL     1     -33.655  14.620  -4.127  1.00 20.00     0.042 C 
HETATM    7  C7  UNL     1     -36.048  15.112  -3.452  1.00 20.00     0.042 C 
HETATM    8  C8  UNL     1     -35.492  15.023  -5.999  1.00 20.00     0.235 A 
HETATM    9  C9  UNL     1     -35.089  14.767  -4.557  1.00 20.00     0.099 A 
HETATM   10  O10 UNL     1     -35.546  13.713  -5.414  1.00 20.00    -0.356 OA
ENDROOT
TORSDOF 0
ENDMDL
MODEL 2
REMARK VINA RESULT:      -4.3     11.616     12.801
REMARK  0 active torsions:
REMARK  status: ('A' for Active; 'I' for Inactive)
ROOT
HETATM    1  C1  UNL     1     -42.427   3.683  -2.662  1.00 20.00     0.015 C 
HETATM    2  C2  UNL     1     -42.879   4.277  -1.723  1.00 20.00    -0.082 C 
HETATM    3  C3  UNL     1     -41.803   8.776  -0.038  1.00 20.00     0.000 C 
HETATM    4  C4  UNL     1     -41.120   7.695  -0.878  1.00 20.00     0.003 C 
HETATM    5  C5  UNL     1     -43.240   8.389   0.321  1.00 20.00     0.003 C 
HETATM    6  C6  UNL     1     -41.172   6.333  -0.184  1.00 20.00     0.042 C 
HETATM    7  C7  UNL     1     -43.296   7.027   1.012  1.00 20.00     0.042 C 
HETATM    8  C8  UNL     1     -43.417   4.983  -0.603  1.00 20.00     0.235 A 
HETATM    9  C9  UNL     1     -42.594   5.997   0.172  1.00 20.00     0.099 A 
HETATM   10  O10 UNL     1     -42.771   4.652   0.636  1.00 20.00    -0.356 OA
ENDROOT
TORSDOF 0
ENDMDL
MODEL 3
REMARK VINA RESULT:      -4.2      1.251      4.069
REMARK  0 active torsions:
REMARK  status: ('A' for Active; 'I' for Inactive)
ROOT
HETATM    1  C1  UNL     1     -34.818  16.039  -1.971  1.00 20.00     0.015 C 
HETATM    2  C2  UNL     1     -34.263  15.749  -2.994  1.00 20.00    -0.082 C 
HETATM    3  C3  UNL     1     -35.919  15.923  -7.627  1.00 20.00     0.000 C 
HETATM    4  C4  UNL     1     -36.514  15.821  -6.221  1.00 20.00     0.003 C 
HETATM    5  C5  UNL     1     -34.397  16.085  -7.585  1.00 20.00     0.003 C 
HETATM    6  C6  UNL     1     -35.857  14.700  -5.416  1.00 20.00     0.042 C 
HETATM    7  C7  UNL     1     -33.737  14.967  -6.780  1.00 20.00     0.042 C 
HETATM    8  C8  UNL     1     -33.600  15.404  -4.212  1.00 20.00     0.235 A 
HETATM    9  C9  UNL     1     -34.363  14.881  -5.416  1.00 20.00     0.099 A 
HETATM   10  O10 UNL     1     -33.675  14.002  -4.516  1.00 20.00    -0.356 OA
ENDROOT
TORSDOF 0
ENDMDL
MODEL 4
REMARK VINA RESULT:      -4.2     16.472     18.469
REMARK  0 active torsions:
REMARK  status: ('A' for Active; 'I' for Inactive)
ROOT
HETATM    1  C1  UNL     1     -24.855  19.263   7.210  1.00 20.00     0.015 C 
HETATM    2  C2  UNL     1     -24.262  18.596   8.012  1.00 20.00    -0.082 C 
HETATM    3  C3  UNL     1     -25.780  16.787  12.331  1.00 20.00     0.000 C 
HETATM    4  C4  UNL     1     -26.155  17.941  11.399  1.00 20.00     0.003 C 
HETATM    5  C5  UNL     1     -24.679  15.910  11.730  1.00 20.00     0.003 C 
HETATM    6  C6  UNL     1     -24.930  18.771  11.017  1.00 20.00     0.042 C 
HETATM    7  C7  UNL     1     -23.453  16.737  11.344  1.00 20.00     0.042 C 
HETATM    8  C8  UNL     1     -23.554  17.801   8.965  1.00 20.00     0.235 A 
HETATM    9  C9  UNL     1     -23.863  17.874  10.451  1.00 20.00     0.099 A 
HETATM   10  O10 UNL     1     -22.760  18.582   9.871  1.00 20.00    -0.356 OA
ENDROOT
TORSDOF 0
ENDMDL
MODEL 5
REMARK VINA RESULT:      -4.1      3.695      5.550
REMARK  0 active torsions:
REMARK  status: ('A' for Active; 'I' for Inactive)
ROOT
HETATM    1  C1  UNL     1     -34.967  15.700  -2.508  1.00 20.00     0.015 C 
HETATM    2  C2  UNL     1     -33.987  16.376  -2.362  1.00 20.00    -0.082 C 
HETATM    3  C3  UNL     1     -32.304  18.635   1.675  1.00 20.00     0.000 C 
HETATM    4  C4  UNL     1     -33.645  18.121   1.149  1.00 20.00     0.003 C 
HETATM    5  C5  UNL     1     -31.155  18.295   0.722  1.00 20.00     0.003 C 
HETATM    6  C6  UNL     1     -33.925  18.635  -0.263  1.00 20.00     0.042 C 
HETATM    7  C7  UNL     1     -31.432  18.805  -0.692  1.00 20.00     0.042 C 
HETATM    8  C8  UNL     1     -32.820  17.181  -2.189  1.00 20.00     0.235 A 
HETATM    9  C9  UNL     1     -32.768  18.302  -1.165  1.00 20.00     0.099 A 
HETATM   10  O10 UNL     1     -33.024  18.556  -2.552  1.00 20.00    -0.356 OA
ENDROOT
TORSDOF 0
ENDMDL
MODEL 6
REMARK VINA RESULT:      -4.1      1.906      3.322
REMARK  0 active torsions:
REMARK  status: ('A' for Active; 'I' for Inactive)
ROOT
HETATM    1  C1  UNL     1     -39.025  16.548  -5.682  1.00 20.00     0.015 C 
HETATM    2  C2  UNL     1     -38.313  15.868  -4.996  1.00 20.00    -0.082 C 
HETATM    3  C3  UNL     1     -33.518  14.861  -5.475  1.00 20.00     0.000 C 
HETATM    4  C4  UNL     1     -34.672  15.300  -6.379  1.00 20.00     0.003 C 
HETATM    5  C5  UNL     1     -33.948  14.779  -4.009  1.00 20.00     0.003 C 
HETATM    6  C6  UNL     1     -35.891  14.393  -6.207  1.00 20.00     0.042 C 
HETATM    7  C7  UNL     1     -35.168  13.874  -3.834  1.00 20.00     0.042 C 
HETATM    8  C8  UNL     1     -37.466  15.058  -4.178  1.00 20.00     0.235 A 
HETATM    9  C9  UNL     1     -36.271  14.319  -4.753  1.00 20.00     0.099 A 
HETATM   10  O10 UNL     1     -37.523  13.663  -4.516  1.00 20.00    -0.356 OA
ENDROOT
TORSDOF 0
ENDMDL
MODEL 7
REMARK VINA RESULT:      -4.1      1.604      2.990
REMARK  0 active torsions:
REMARK  status: ('A' for Active; 'I' for Inactive)
ROOT
HETATM    1  C1  UNL     1     -38.669  14.760  -4.308  1.00 20.00     0.015 C 
HETATM    2  C2  UNL     1     -37.511  14.443  -4.299  1.00 20.00    -0.082 C 
HETATM    3  C3  UNL     1     -33.493  17.244  -3.803  1.00 20.00     0.000 C 
HETATM    4  C4  UNL     1     -34.943  17.425  -4.256  1.00 20.00     0.003 C 
HETATM    5  C5  UNL     1     -33.232  15.822  -3.299  1.00 20.00     0.003 C 
HETATM    6  C6  UNL     1     -35.335  16.383  -5.304  1.00 20.00     0.042 C 
HETATM    7  C7  UNL     1     -33.625  14.778  -4.343  1.00 20.00     0.042 C 
HETATM    8  C8  UNL     1     -36.133  14.065  -4.289  1.00 20.00     0.235 A 
HETATM    9  C9  UNL     1     -35.045  15.002  -4.783  1.00 20.00     0.099 A 
HETATM   10  O10 UNL     1     -35.570  13.952  -5.605  1.00 20.00    -0.356 OA
ENDROOT
TORSDOF 0
ENDMDL
MODEL 8
REMARK VINA RESULT:      -4.1      3.357      5.502
REMARK  0 active torsions:
REMARK  status: ('A' for Active; 'I' for Inactive)
ROOT
HETATM    1  C1  UNL     1     -30.727  18.490   0.281  1.00 20.00     0.015 C 
HETATM    2  C2  UNL     1     -31.907  18.374   0.095  1.00 20.00    -0.082 C 
HETATM    3  C3  UNL     1     -34.306  15.640  -3.223  1.00 20.00     0.000 C 
HETATM    4  C4  UNL     1     -32.917  16.262  -3.069  1.00 20.00     0.003 C 
HETATM    5  C5  UNL     1     -35.167  15.865  -1.977  1.00 20.00     0.003 C 
HETATM    6  C6  UNL     1     -33.007  17.747  -2.717  1.00 20.00     0.042 C 
HETATM    7  C7  UNL     1     -35.257  17.349  -1.621  1.00 20.00     0.042 C 
HETATM    8  C8  UNL     1     -33.312  18.236  -0.127  1.00 20.00     0.235 A 
HETATM    9  C9  UNL     1     -33.876  17.932  -1.504  1.00 20.00     0.099 A 
HETATM   10  O10 UNL     1     -33.852  19.263  -0.973  1.00 20.00    -0.356 OA
ENDROOT
TORSDOF 0
ENDMDL
MODEL 9
REMARK VINA RESULT:      -4.0      3.308      5.678
REMARK  0 active torsions:
REMARK  status: ('A' for Active; 'I' for Inactive)
ROOT
HETATM    1  C1  UNL     1     -34.139  18.307   2.166  1.00 20.00     0.015 C 
HETATM    2  C2  UNL     1     -34.737  17.781   1.268  1.00 20.00    -0.082 C 
HETATM    3  C3  UNL     1     -33.166  16.468  -3.209  1.00 20.00     0.000 C 
HETATM    4  C4  UNL     1     -32.765  17.470  -2.124  1.00 20.00     0.003 C 
HETATM    5  C5  UNL     1     -34.328  15.581  -2.757  1.00 20.00     0.003 C 
HETATM    6  C6  UNL     1     -33.961  18.308  -1.669  1.00 20.00     0.042 C 
HETATM    7  C7  UNL     1     -35.524  16.415  -2.300  1.00 20.00     0.042 C 
HETATM    8  C8  UNL     1     -35.451  17.156   0.200  1.00 20.00     0.235 A 
HETATM    9  C9  UNL     1     -35.089  17.404  -1.254  1.00 20.00     0.099 A 
HETATM   10  O10 UNL     1     -36.174  18.089  -0.617  1.00 20.00    -0.356 OA
ENDROOT
TORSDOF 0
ENDMDL
