MODEL 1
REMARK VINA RESULT:      -3.9      0.000      0.000
REMARK  0 active torsions:
REMARK  status: ('A' for Active; 'I' for Inactive)
ROOT
HETATM    1  C1  UNL     1     -33.945   6.755   4.291  1.00 20.00     0.092 C 
HETATM    2  C2  UNL     1     -33.434   4.808   2.382  1.00 20.00     0.023 C 
HETATM    3  C3  UNL     1     -33.930   4.298   3.724  1.00 20.00     0.016 C 
HETATM    4  C4  UNL     1     -32.459   5.950   2.614  1.00 20.00     0.148 C 
HETATM    5  C5  UNL     1     -34.633   5.417   4.502  1.00 20.00    -0.014 C 
HETATM    6  C6  UNL     1     -34.623   5.097   6.002  1.00 20.00     0.020 C 
HETATM    7  C7  UNL     1     -36.087   5.580   4.032  1.00 20.00     0.020 C 
HETATM    8  N8  UNL     1     -33.005   7.015   3.451  1.00 20.00    -0.305 NA
ENDROOT
TORSDOF 0
ENDMDL
MODEL 2
REMARK VINA RESULT:      -3.9     16.494     17.498
REMARK  0 active torsions:
REMARK  status: ('A' for Active; 'I' for Inactive)
ROOT
HETATM    1  C1  UNL     1     -22.798  17.403  11.955  1.00 20.00     0.092 C 
HETATM    2  C2  UNL     1     -23.319  18.515   9.466  1.00 20.00     0.023 C 
HETATM    3  C3  UNL     1     -24.281  17.429   9.916  1.00 20.00     0.016 C 
HETATM    4  C4  UNL     1     -21.907  18.124   9.868  1.00 20.00     0.148 C 
HETATM    5  C5  UNL     1     -24.217  17.244  11.438  1.00 20.00    -0.014 C 
HETATM    6  C6  UNL     1     -24.718  15.844  11.816  1.00 20.00     0.020 C 
HETATM    7  C7  UNL     1     -25.078  18.297  12.153  1.00 20.00     0.020 C 
HETATM    8  N8  UNL     1     -21.775  17.811  11.288  1.00 20.00    -0.305 NA
ENDROOT
TORSDOF 0
ENDMDL
MODEL 3
REMARK VINA RESULT:      -3.8      8.642      9.377
REMARK  0 active torsions:
REMARK  status: ('A' for Active; 'I' for Inactive)
ROOT
HETATM    1  C1  UNL     1     -41.260   7.703  -1.284  1.00 20.00     0.092 C 
HETATM    2  C2  UNL     1     -42.543   5.890   0.379  1.00 20.00     0.023 C 
HETATM    3  C3  UNL     1     -42.325   7.276   0.961  1.00 20.00     0.016 C 
HETATM    4  C4  UNL     1     -41.313   5.486  -0.417  1.00 20.00     0.148 C 
HETATM    5  C5  UNL     1     -42.081   8.300  -0.154  1.00 20.00    -0.014 C 
HETATM    6  C6  UNL     1     -41.327   9.513   0.405  1.00 20.00     0.020 C 
HETATM    7  C7  UNL     1     -43.410   8.771  -0.765  1.00 20.00     0.020 C 
HETATM    8  N8  UNL     1     -40.932   6.467  -1.430  1.00 20.00    -0.305 NA
ENDROOT
TORSDOF 0
ENDMDL
MODEL 4
REMARK VINA RESULT:      -3.8      8.757      9.677
REMARK  0 active torsions:
REMARK  status: ('A' for Active; 'I' for Inactive)
ROOT
HETATM    1  C1  UNL     1     -43.043   6.407  -1.156  1.00 20.00     0.092 C 
HETATM    2  C2  UNL     1     -41.506   8.521  -0.225  1.00 20.00     0.023 C 
HETATM    3  C3  UNL     1     -41.582   7.310   0.690  1.00 20.00     0.016 C 
HETATM    4  C4  UNL     1     -42.871   8.761  -0.845  1.00 20.00     0.148 C 
HETATM    5  C5  UNL     1     -42.012   6.064  -0.095  1.00 20.00    -0.014 C 
HETATM    6  C6  UNL     1     -42.621   5.029   0.859  1.00 20.00     0.020 C 
HETATM    7  C7  UNL     1     -40.812   5.434  -0.821  1.00 20.00     0.020 C 
HETATM    8  N8  UNL     1     -43.417   7.585  -1.516  1.00 20.00    -0.305 NA
ENDROOT
TORSDOF 0
ENDMDL
MODEL 5
REMARK VINA RESULT:      -3.8     16.283     17.324
REMARK  0 active torsions:
REMARK  status: ('A' for Active; 'I' for Inactive)
ROOT
HETATM    1  C1  UNL     1     -24.961  18.544  10.497  1.00 20.00     0.092 C 
HETATM    2  C2  UNL     1     -23.094  17.989   8.520  1.00 20.00     0.023 C 
HETATM    3  C3  UNL     1     -22.601  17.843   9.950  1.00 20.00     0.016 C 
HETATM    4  C4  UNL     1     -23.992  19.211   8.427  1.00 20.00     0.148 C 
HETATM    5  C5  UNL     1     -23.782  17.683  10.917  1.00 20.00    -0.014 C 
HETATM    6  C6  UNL     1     -23.359  18.095  12.332  1.00 20.00     0.020 C 
HETATM    7  C7  UNL     1     -24.274  16.227  10.942  1.00 20.00     0.020 C 
HETATM    8  N8  UNL     1     -25.082  19.203   9.398  1.00 20.00    -0.305 NA
ENDROOT
TORSDOF 0
ENDMDL
MODEL 6
REMARK VINA RESULT:      -3.8     11.881     12.786
REMARK  0 active torsions:
REMARK  status: ('A' for Active; 'I' for Inactive)
ROOT
HETATM    1  C1  UNL     1     -35.024  16.345  -4.700  1.00 20.00     0.092 C 
HETATM    2  C2  UNL     1     -35.945  13.738  -4.470  1.00 20.00     0.023 C 
HETATM    3  C3  UNL     1     -34.615  14.028  -3.796  1.00 20.00     0.016 C 
HETATM    4  C4  UNL     1     -35.997  14.471  -5.800  1.00 20.00     0.148 C 
HETATM    5  C5  UNL     1     -34.446  15.533  -3.554  1.00 20.00    -0.014 C 
HETATM    6  C6  UNL     1     -32.958  15.878  -3.417  1.00 20.00     0.020 C 
HETATM    7  C7  UNL     1     -35.183  15.968  -2.278  1.00 20.00     0.020 C 
HETATM    8  N8  UNL     1     -35.727  15.901  -5.683  1.00 20.00    -0.305 NA
ENDROOT
TORSDOF 0
ENDMDL
MODEL 7
REMARK VINA RESULT:      -3.8     16.246     17.462
REMARK  0 active torsions:
REMARK  status: ('A' for Active; 'I' for Inactive)
ROOT
HETATM    1  C1  UNL     1     -23.901  16.299  11.378  1.00 20.00     0.092 C 
HETATM    2  C2  UNL     1     -25.897  18.123  11.999  1.00 20.00     0.023 C 
HETATM    3  C3  UNL     1     -24.481  18.560  12.332  1.00 20.00     0.016 C 
HETATM    4  C4  UNL     1     -26.054  16.649  12.332  1.00 20.00     0.148 C 
HETATM    5  C5  UNL     1     -23.459  17.744  11.528  1.00 20.00    -0.014 C 
HETATM    6  C6  UNL     1     -22.099  17.765  12.237  1.00 20.00     0.020 C 
HETATM    7  C7  UNL     1     -23.297  18.316  10.111  1.00 20.00     0.020 C 
HETATM    8  N8  UNL     1     -25.044  15.803  11.703  1.00 20.00    -0.305 NA
ENDROOT
TORSDOF 0
ENDMDL
MODEL 8
REMARK VINA RESULT:      -3.8     16.394     17.455
REMARK  0 active torsions:
REMARK  status: ('A' for Active; 'I' for Inactive)
ROOT
HETATM    1  C1  UNL     1     -24.387  17.586  10.044  1.00 20.00     0.092 C 
HETATM    2  C2  UNL     1     -22.170  17.557  11.712  1.00 20.00     0.023 C 
HETATM    3  C3  UNL     1     -23.452  18.084  12.332  1.00 20.00     0.016 C 
HETATM    4  C4  UNL     1     -22.066  18.061  10.282  1.00 20.00     0.148 C 
HETATM    5  C5  UNL     1     -24.674  17.610  11.535  1.00 20.00    -0.014 C 
HETATM    6  C6  UNL     1     -25.860  18.550  11.786  1.00 20.00     0.020 C 
HETATM    7  C7  UNL     1     -25.071  16.181  11.940  1.00 20.00     0.020 C 
HETATM    8  N8  UNL     1     -23.245  17.758   9.475  1.00 20.00    -0.305 NA
ENDROOT
TORSDOF 0
ENDMDL
MODEL 9
REMARK VINA RESULT:      -3.7     16.408     17.601
REMARK  0 active torsions:
REMARK  status: ('A' for Active; 'I' for Inactive)
ROOT
HETATM    1  C1  UNL     1     -23.952  16.817   9.651  1.00 20.00     0.092 C 
HETATM    2  C2  UNL     1     -22.781  17.879  11.932  1.00 20.00     0.023 C 
HETATM    3  C3  UNL     1     -21.931  17.924  10.674  1.00 20.00     0.016 C 
HETATM    4  C4  UNL     1     -23.528  16.556  11.979  1.00 20.00     0.148 C 
HETATM    5  C5  UNL     1     -22.806  17.788   9.422  1.00 20.00    -0.014 C 
HETATM    6  C6  UNL     1     -21.964  17.276   8.247  1.00 20.00     0.020 C 
HETATM    7  C7  UNL     1     -23.431  19.140   9.042  1.00 20.00     0.020 C 
HETATM    8  N8  UNL     1     -24.299  16.283  10.770  1.00 20.00    -0.305 NA
ENDROOT
TORSDOF 0
ENDMDL
