MODEL 1
REMARK VINA RESULT:      -4.5      0.000      0.000
REMARK  3 active torsions:
REMARK  status: ('A' for Active; 'I' for Inactive)
REMARK    1  A    between atoms: C2_2  and  C8_8 
REMARK    2  A    between atoms: C6_6  and  C7_7 
REMARK    3  A    between atoms: C6_6  and  C8_8 
ROOT
HETATM    1  C1  UNL     1     -35.187  16.996  -0.920  1.00 20.00     0.063 C 
HETATM    2  C4  UNL     1     -33.205  17.214  -2.351  1.00 20.00     0.025 C 
HETATM    3  C7  UNL     1     -34.348  16.296  -1.911  1.00 20.00     0.089 C 
HETATM    4  N9  UNL     1     -35.848  17.545  -0.139  1.00 20.00    -0.197 NA
ENDROOT
BRANCH   3   5
HETATM    5  C6  UNL     1     -35.175  15.859  -3.137  1.00 20.00     0.030 C 
BRANCH   5   6
HETATM    6  C8  UNL     1     -34.708  14.536  -3.773  1.00 20.00     0.052 C 
HETATM    7  C5  UNL     1     -33.778  14.803  -4.955  1.00 20.00     0.018 C 
BRANCH   6   8
HETATM    8  C2  UNL     1     -35.885  13.700  -4.266  1.00 20.00     0.127 C 
HETATM    9  C3  UNL     1     -37.196  14.420  -4.452  1.00 20.00     0.091 C 
HETATM   10  O10 UNL     1     -35.792  12.490  -4.474  1.00 20.00    -0.298 OA
ENDBRANCH   6   8
ENDBRANCH   5   6
ENDBRANCH   3   5
TORSDOF 3
ENDMDL
MODEL 2
REMARK VINA RESULT:      -4.4      1.511      1.744
REMARK  3 active torsions:
REMARK  status: ('A' for Active; 'I' for Inactive)
REMARK    1  A    between atoms: C2_2  and  C8_8 
REMARK    2  A    between atoms: C6_6  and  C7_7 
REMARK    3  A    between atoms: C6_6  and  C8_8 
ROOT
HETATM    1  C1  UNL     1     -33.032  17.447  -2.319  1.00 20.00     0.063 C 
HETATM    2  C4  UNL     1     -35.018  17.937  -3.675  1.00 20.00     0.025 C 
HETATM    3  C7  UNL     1     -33.956  16.892  -3.326  1.00 20.00     0.089 C 
HETATM    4  N9  UNL     1     -32.303  17.883  -1.527  1.00 20.00    -0.197 NA
ENDROOT
BRANCH   3   5
HETATM    5  C6  UNL     1     -34.631  15.603  -2.817  1.00 20.00     0.030 C 
BRANCH   5   6
HETATM    6  C8  UNL     1     -34.404  14.374  -3.718  1.00 20.00     0.052 C 
HETATM    7  C5  UNL     1     -33.568  14.749  -4.941  1.00 20.00     0.018 C 
BRANCH   6   8
HETATM    8  C2  UNL     1     -35.722  13.777  -4.201  1.00 20.00     0.127 C 
HETATM    9  C3  UNL     1     -36.923  14.688  -4.188  1.00 20.00     0.091 C 
HETATM   10  O10 UNL     1     -35.822  12.602  -4.554  1.00 20.00    -0.298 OA
ENDBRANCH   6   8
ENDBRANCH   5   6
ENDBRANCH   3   5
TORSDOF 3
ENDMDL
MODEL 3
REMARK VINA RESULT:      -4.3      3.080      4.738
REMARK  3 active torsions:
REMARK  status: ('A' for Active; 'I' for Inactive)
REMARK    1  A    between atoms: C2_2  and  C8_8 
REMARK    2  A    between atoms: C6_6  and  C7_7 
REMARK    3  A    between atoms: C6_6  and  C8_8 
ROOT
HETATM    1  C1  UNL     1     -35.684  13.904  -4.366  1.00 20.00     0.063 C 
HETATM    2  C4  UNL     1     -35.624  16.143  -5.369  1.00 20.00     0.025 C 
HETATM    3  C7  UNL     1     -35.338  15.316  -4.114  1.00 20.00     0.089 C 
HETATM    4  N9  UNL     1     -35.957  12.793  -4.562  1.00 20.00    -0.197 NA
ENDROOT
BRANCH   3   5
HETATM    5  C6  UNL     1     -33.858  15.466  -3.707  1.00 20.00     0.030 C 
BRANCH   5   6
HETATM    6  C8  UNL     1     -33.639  16.283  -2.419  1.00 20.00     0.052 C 
HETATM    7  C5  UNL     1     -34.968  16.552  -1.717  1.00 20.00     0.018 C 
BRANCH   6   8
HETATM    8  C2  UNL     1     -32.967  17.621  -2.707  1.00 20.00     0.127 C 
HETATM    9  C3  UNL     1     -32.221  18.264  -1.565  1.00 20.00     0.091 C 
HETATM   10  O10 UNL     1     -33.050  18.178  -3.801  1.00 20.00    -0.298 OA
ENDBRANCH   6   8
ENDBRANCH   5   6
ENDBRANCH   3   5
TORSDOF 3
ENDMDL
MODEL 4
REMARK VINA RESULT:      -4.3      2.390      3.694
REMARK  3 active torsions:
REMARK  status: ('A' for Active; 'I' for Inactive)
REMARK    1  A    between atoms: C2_2  and  C8_8 
REMARK    2  A    between atoms: C6_6  and  C7_7 
REMARK    3  A    between atoms: C6_6  and  C8_8 
ROOT
HETATM    1  C1  UNL     1     -37.989  15.080  -4.246  1.00 20.00     0.063 C 
HETATM    2  C4  UNL     1     -37.973  17.405  -5.033  1.00 20.00     0.025 C 
HETATM    3  C7  UNL     1     -37.384  16.409  -4.032  1.00 20.00     0.089 C 
HETATM    4  N9  UNL     1     -38.466  14.035  -4.413  1.00 20.00    -0.197 NA
ENDROOT
BRANCH   3   5
HETATM    5  C6  UNL     1     -35.850  16.356  -4.178  1.00 20.00     0.030 C 
BRANCH   5   6
HETATM    6  C8  UNL     1     -35.155  15.403  -3.186  1.00 20.00     0.052 C 
HETATM    7  C5  UNL     1     -34.124  16.157  -2.347  1.00 20.00     0.018 C 
BRANCH   6   8
HETATM    8  C2  UNL     1     -34.446  14.259  -3.904  1.00 20.00     0.127 C 
HETATM    9  C3  UNL     1     -33.060  14.542  -4.425  1.00 20.00     0.091 C 
HETATM   10  O10 UNL     1     -34.981  13.166  -4.087  1.00 20.00    -0.298 OA
ENDBRANCH   6   8
ENDBRANCH   5   6
ENDBRANCH   3   5
TORSDOF 3
ENDMDL
MODEL 5
REMARK VINA RESULT:      -4.3      2.670      4.459
REMARK  3 active torsions:
REMARK  status: ('A' for Active; 'I' for Inactive)
REMARK    1  A    between atoms: C2_2  and  C8_8 
REMARK    2  A    between atoms: C6_6  and  C7_7 
REMARK    3  A    between atoms: C6_6  and  C8_8 
ROOT
HETATM    1  C1  UNL     1     -37.089  14.457  -4.319  1.00 20.00     0.063 C 
HETATM    2  C4  UNL     1     -34.725  14.028  -3.815  1.00 20.00     0.025 C 
HETATM    3  C7  UNL     1     -35.746  15.066  -4.288  1.00 20.00     0.089 C 
HETATM    4  N9  UNL     1     -38.146  13.978  -4.345  1.00 20.00    -0.197 NA
ENDROOT
BRANCH   3   5
HETATM    5  C6  UNL     1     -35.711  16.300  -3.364  1.00 20.00     0.030 C 
BRANCH   5   6
HETATM    6  C8  UNL     1     -34.655  16.221  -2.246  1.00 20.00     0.052 C 
HETATM    7  C5  UNL     1     -35.228  16.731  -0.925  1.00 20.00     0.018 C 
BRANCH   6   8
HETATM    8  C2  UNL     1     -33.415  17.044  -2.581  1.00 20.00     0.127 C 
HETATM    9  C3  UNL     1     -32.793  17.823  -1.451  1.00 20.00     0.091 C 
HETATM   10  O10 UNL     1     -32.955  17.106  -3.721  1.00 20.00    -0.298 OA
ENDBRANCH   6   8
ENDBRANCH   5   6
ENDBRANCH   3   5
TORSDOF 3
ENDMDL
MODEL 6
REMARK VINA RESULT:      -4.2      1.728      2.272
REMARK  3 active torsions:
REMARK  status: ('A' for Active; 'I' for Inactive)
REMARK    1  A    between atoms: C2_2  and  C8_8 
REMARK    2  A    between atoms: C6_6  and  C7_7 
REMARK    3  A    between atoms: C6_6  and  C8_8 
ROOT
HETATM    1  C1  UNL     1     -33.338  16.475  -2.801  1.00 20.00     0.063 C 
HETATM    2  C4  UNL     1     -32.659  14.627  -4.266  1.00 20.00     0.025 C 
HETATM    3  C7  UNL     1     -33.841  15.375  -3.646  1.00 20.00     0.089 C 
HETATM    4  N9  UNL     1     -32.944  17.340  -2.134  1.00 20.00    -0.197 NA
ENDROOT
BRANCH   3   5
HETATM    5  C6  UNL     1     -34.773  15.902  -4.755  1.00 20.00     0.030 C 
BRANCH   5   6
HETATM    6  C8  UNL     1     -35.380  14.800  -5.645  1.00 20.00     0.052 C 
HETATM    7  C5  UNL     1     -36.204  15.413  -6.776  1.00 20.00     0.018 C 
BRANCH   6   8
HETATM    8  C2  UNL     1     -36.281  13.863  -4.847  1.00 20.00     0.127 C 
HETATM    9  C3  UNL     1     -37.562  14.449  -4.310  1.00 20.00     0.091 C 
HETATM   10  O10 UNL     1     -35.974  12.694  -4.615  1.00 20.00    -0.298 OA
ENDBRANCH   6   8
ENDBRANCH   5   6
ENDBRANCH   3   5
TORSDOF 3
ENDMDL
MODEL 7
REMARK VINA RESULT:      -4.2      1.751      2.077
REMARK  3 active torsions:
REMARK  status: ('A' for Active; 'I' for Inactive)
REMARK    1  A    between atoms: C2_2  and  C8_8 
REMARK    2  A    between atoms: C6_6  and  C7_7 
REMARK    3  A    between atoms: C6_6  and  C8_8 
ROOT
HETATM    1  C1  UNL     1     -32.774  17.717  -2.111  1.00 20.00     0.063 C 
HETATM    2  C4  UNL     1     -34.849  16.530  -1.552  1.00 20.00     0.025 C 
HETATM    3  C7  UNL     1     -33.871  16.903  -2.669  1.00 20.00     0.089 C 
HETATM    4  N9  UNL     1     -31.911  18.358  -1.673  1.00 20.00    -0.197 NA
ENDROOT
BRANCH   3   5
HETATM    5  C6  UNL     1     -33.332  15.627  -3.347  1.00 20.00     0.030 C 
BRANCH   5   6
HETATM    6  C8  UNL     1     -34.151  15.170  -4.570  1.00 20.00     0.052 C 
HETATM    7  C5  UNL     1     -35.031  16.307  -5.086  1.00 20.00     0.018 C 
BRANCH   6   8
HETATM    8  C2  UNL     1     -35.046  13.981  -4.237  1.00 20.00     0.127 C 
HETATM    9  C3  UNL     1     -36.534  14.222  -4.274  1.00 20.00     0.091 C 
HETATM   10  O10 UNL     1     -34.591  12.883  -3.919  1.00 20.00    -0.298 OA
ENDBRANCH   6   8
ENDBRANCH   5   6
ENDBRANCH   3   5
TORSDOF 3
ENDMDL
MODEL 8
REMARK VINA RESULT:      -4.2      2.961      4.454
REMARK  3 active torsions:
REMARK  status: ('A' for Active; 'I' for Inactive)
REMARK    1  A    between atoms: C2_2  and  C8_8 
REMARK    2  A    between atoms: C6_6  and  C7_7 
REMARK    3  A    between atoms: C6_6  and  C8_8 
ROOT
HETATM    1  C1  UNL     1     -35.378  13.858  -4.290  1.00 20.00     0.063 C 
HETATM    2  C4  UNL     1     -33.108  14.793  -4.291  1.00 20.00     0.025 C 
HETATM    3  C7  UNL     1     -34.583  15.063  -3.986  1.00 20.00     0.089 C 
HETATM    4  N9  UNL     1     -36.004  12.910  -4.529  1.00 20.00    -0.197 NA
ENDROOT
BRANCH   3   5
HETATM    5  C6  UNL     1     -34.750  15.487  -2.513  1.00 20.00     0.030 C 
BRANCH   5   6
HETATM    6  C8  UNL     1     -34.721  17.011  -2.289  1.00 20.00     0.052 C 
HETATM    7  C5  UNL     1     -33.346  17.460  -1.797  1.00 20.00     0.018 C 
BRANCH   6   8
HETATM    8  C2  UNL     1     -35.765  17.451  -1.267  1.00 20.00     0.127 C 
HETATM    9  C3  UNL     1     -35.435  17.209   0.184  1.00 20.00     0.091 C 
HETATM   10  O10 UNL     1     -36.841  17.948  -1.597  1.00 20.00    -0.298 OA
ENDBRANCH   6   8
ENDBRANCH   5   6
ENDBRANCH   3   5
TORSDOF 3
ENDMDL
MODEL 9
REMARK VINA RESULT:      -4.2      2.810      4.551
REMARK  3 active torsions:
REMARK  status: ('A' for Active; 'I' for Inactive)
REMARK    1  A    between atoms: C2_2  and  C8_8 
REMARK    2  A    between atoms: C6_6  and  C7_7 
REMARK    3  A    between atoms: C6_6  and  C8_8 
ROOT
HETATM    1  C1  UNL     1     -36.195  14.333  -5.435  1.00 20.00     0.063 C 
HETATM    2  C4  UNL     1     -38.260  14.795  -4.190  1.00 20.00     0.025 C 
HETATM    3  C7  UNL     1     -36.739  14.646  -4.100  1.00 20.00     0.089 C 
HETATM    4  N9  UNL     1     -35.766  14.086  -6.485  1.00 20.00    -0.197 NA
ENDROOT
BRANCH   3   5
HETATM    5  C6  UNL     1     -36.115  15.935  -3.528  1.00 20.00     0.030 C 
BRANCH   5   6
HETATM    6  C8  UNL     1     -34.999  15.691  -2.495  1.00 20.00     0.052 C 
HETATM    7  C5  UNL     1     -35.175  16.604  -1.283  1.00 20.00     0.018 C 
BRANCH   6   8
HETATM    8  C2  UNL     1     -33.616  15.940  -3.088  1.00 20.00     0.127 C 
HETATM    9  C3  UNL     1     -32.917  17.207  -2.667  1.00 20.00     0.091 C 
HETATM   10  O10 UNL     1     -33.099  15.171  -3.898  1.00 20.00    -0.298 OA
ENDBRANCH   6   8
ENDBRANCH   5   6
ENDBRANCH   3   5
TORSDOF 3
ENDMDL
