MODEL 1
REMARK VINA RESULT:      -3.3      0.000      0.000
REMARK  2 active torsions:
REMARK  status: ('A' for Active; 'I' for Inactive)
REMARK    1  A    between atoms: C1_1  and  C4_4 
REMARK    2  A    between atoms: C4_4  and  N5_5 
ROOT
HETATM    1  C4  UNL     1     -22.953  17.222   9.950  1.00 20.00     0.367 C 
ENDROOT
BRANCH   1   2
HETATM    2  C1  UNL     1     -22.878  18.584   9.293  1.00 20.00     0.247 C 
HETATM    3  O6  UNL     1     -21.826  19.126   8.970  1.00 20.00    -0.278 OA
HETATM    4 CL7  UNL     1     -24.470  19.260   9.062  1.00 20.00    -0.042 Cl
ENDBRANCH   1   2
BRANCH   1   5
HETATM    5  N5  UNL     1     -23.643  17.344  11.234  1.00 20.00     0.088 N 
HETATM    6  C2  UNL     1     -22.692  17.666  12.297  1.00 20.00     0.310 C 
HETATM    7  C3  UNL     1     -24.362  16.110  11.549  1.00 20.00     0.310 C 
ENDBRANCH   1   5
TORSDOF 2
ENDMDL
MODEL 2
REMARK VINA RESULT:      -3.3     18.746     19.180
REMARK  2 active torsions:
REMARK  status: ('A' for Active; 'I' for Inactive)
REMARK    1  A    between atoms: C1_1  and  C4_4 
REMARK    2  A    between atoms: C4_4  and  N5_5 
ROOT
HETATM    1  C4  UNL     1     -35.283  15.035  -4.568  1.00 20.00     0.367 C 
ENDROOT
BRANCH   1   2
HETATM    2  C1  UNL     1     -36.240  13.865  -4.471  1.00 20.00     0.247 C 
HETATM    3  O6  UNL     1     -35.885  12.691  -4.517  1.00 20.00    -0.278 OA
HETATM    4 CL7  UNL     1     -37.886  14.411  -4.286  1.00 20.00    -0.042 Cl
ENDBRANCH   1   2
BRANCH   1   5
HETATM    5  N5  UNL     1     -34.435  15.063  -3.376  1.00 20.00     0.088 N 
HETATM    6  C2  UNL     1     -35.060  15.864  -2.323  1.00 20.00     0.310 C 
HETATM    7  C3  UNL     1     -33.112  15.591  -3.702  1.00 20.00     0.310 C 
ENDBRANCH   1   5
TORSDOF 2
ENDMDL
MODEL 3
REMARK VINA RESULT:      -3.3     16.639     17.072
REMARK  2 active torsions:
REMARK  status: ('A' for Active; 'I' for Inactive)
REMARK    1  A    between atoms: C1_1  and  C4_4 
REMARK    2  A    between atoms: C4_4  and  N5_5 
ROOT
HETATM    1  C4  UNL     1     -34.182   6.660   3.836  1.00 20.00     0.367 C 
ENDROOT
BRANCH   1   2
HETATM    2  C1  UNL     1     -34.038   6.419   5.325  1.00 20.00     0.247 C 
HETATM    3  O6  UNL     1     -33.379   7.139   6.069  1.00 20.00    -0.278 OA
HETATM    4 CL7  UNL     1     -34.926   5.003   5.823  1.00 20.00    -0.042 Cl
ENDBRANCH   1   2
BRANCH   1   5
HETATM    5  N5  UNL     1     -32.965   6.216   3.157  1.00 20.00     0.088 N 
HETATM    6  C2  UNL     1     -32.513   7.229   2.204  1.00 20.00     0.310 C 
HETATM    7  C3  UNL     1     -33.193   4.942   2.478  1.00 20.00     0.310 C 
ENDBRANCH   1   5
TORSDOF 2
ENDMDL
MODEL 4
REMARK VINA RESULT:      -3.2     18.800     19.215
REMARK  2 active torsions:
REMARK  status: ('A' for Active; 'I' for Inactive)
REMARK    1  A    between atoms: C1_1  and  C4_4 
REMARK    2  A    between atoms: C4_4  and  N5_5 
ROOT
HETATM    1  C4  UNL     1     -36.015  15.065  -3.883  1.00 20.00     0.367 C 
ENDROOT
BRANCH   1   2
HETATM    2  C1  UNL     1     -35.906  13.892  -4.835  1.00 20.00     0.247 C 
HETATM    3  O6  UNL     1     -35.908  12.720  -4.472  1.00 20.00    -0.278 OA
HETATM    4 CL7  UNL     1     -35.782  14.433  -6.489  1.00 20.00    -0.042 Cl
ENDBRANCH   1   2
BRANCH   1   5
HETATM    5  N5  UNL     1     -34.831  15.099  -3.024  1.00 20.00     0.088 N 
HETATM    6  C2  UNL     1     -34.987  16.109  -1.978  1.00 20.00     0.310 C 
HETATM    7  C3  UNL     1     -33.631  15.365  -3.816  1.00 20.00     0.310 C 
ENDBRANCH   1   5
TORSDOF 2
ENDMDL
MODEL 5
REMARK VINA RESULT:      -3.2     16.947     17.554
REMARK  2 active torsions:
REMARK  status: ('A' for Active; 'I' for Inactive)
REMARK    1  A    between atoms: C1_1  and  C4_4 
REMARK    2  A    between atoms: C4_4  and  N5_5 
ROOT
HETATM    1  C4  UNL     1     -34.336   6.473   3.599  1.00 20.00     0.367 C 
ENDROOT
BRANCH   1   2
HETATM    2  C1  UNL     1     -34.631   5.647   4.834  1.00 20.00     0.247 C 
HETATM    3  O6  UNL     1     -35.134   4.529   4.798  1.00 20.00    -0.278 OA
HETATM    4 CL7  UNL     1     -34.162   6.494   6.285  1.00 20.00    -0.042 Cl
ENDBRANCH   1   2
BRANCH   1   5
HETATM    5  N5  UNL     1     -33.016   6.113   3.083  1.00 20.00     0.088 N 
HETATM    6  C2  UNL     1     -32.470   7.200   2.271  1.00 20.00     0.310 C 
HETATM    7  C3  UNL     1     -33.092   4.880   2.300  1.00 20.00     0.310 C 
ENDBRANCH   1   5
TORSDOF 2
ENDMDL
MODEL 6
REMARK VINA RESULT:      -3.2     17.193     17.734
REMARK  2 active torsions:
REMARK  status: ('A' for Active; 'I' for Inactive)
REMARK    1  A    between atoms: C1_1  and  C4_4 
REMARK    2  A    between atoms: C4_4  and  N5_5 
ROOT
HETATM    1  C4  UNL     1     -33.715   6.547   4.186  1.00 20.00     0.367 C 
ENDROOT
BRANCH   1   2
HETATM    2  C1  UNL     1     -34.860   5.677   4.662  1.00 20.00     0.247 C 
HETATM    3  O6  UNL     1     -35.871   5.464   4.001  1.00 20.00    -0.278 OA
HETATM    4 CL7  UNL     1     -34.542   5.032   6.251  1.00 20.00    -0.042 Cl
ENDBRANCH   1   2
BRANCH   1   5
HETATM    5  N5  UNL     1     -33.460   6.276   2.771  1.00 20.00     0.088 N 
HETATM    6  C2  UNL     1     -33.033   4.890   2.585  1.00 20.00     0.310 C 
HETATM    7  C3  UNL     1     -32.452   7.197   2.247  1.00 20.00     0.310 C 
ENDBRANCH   1   5
TORSDOF 2
ENDMDL
MODEL 7
REMARK VINA RESULT:      -3.1     23.326     23.785
REMARK  2 active torsions:
REMARK  status: ('A' for Active; 'I' for Inactive)
REMARK    1  A    between atoms: C1_1  and  C4_4 
REMARK    2  A    between atoms: C4_4  and  N5_5 
ROOT
HETATM    1  C4  UNL     1     -41.343   7.569   0.661  1.00 20.00     0.367 C 
ENDROOT
BRANCH   1   2
HETATM    2  C1  UNL     1     -41.918   8.887   0.183  1.00 20.00     0.247 C 
HETATM    3  O6  UNL     1     -41.399   9.975   0.408  1.00 20.00    -0.278 OA
HETATM    4 CL7  UNL     1     -43.391   8.641  -0.718  1.00 20.00    -0.042 Cl
ENDBRANCH   1   2
BRANCH   1   5
HETATM    5  N5  UNL     1     -42.004   6.471  -0.045  1.00 20.00     0.088 N 
HETATM    6  C2  UNL     1     -42.578   5.523   0.909  1.00 20.00     0.310 C 
HETATM    7  C3  UNL     1     -41.062   5.794  -0.935  1.00 20.00     0.310 C 
ENDBRANCH   1   5
TORSDOF 2
ENDMDL
MODEL 8
REMARK VINA RESULT:      -3.0     16.437     17.147
REMARK  2 active torsions:
REMARK  status: ('A' for Active; 'I' for Inactive)
REMARK    1  A    between atoms: C1_1  and  C4_4 
REMARK    2  A    between atoms: C4_4  and  N5_5 
ROOT
HETATM    1  C4  UNL     1     -34.374   6.176   3.827  1.00 20.00     0.367 C 
ENDROOT
BRANCH   1   2
HETATM    2  C1  UNL     1     -33.271   5.827   2.849  1.00 20.00     0.247 C 
HETATM    3  O6  UNL     1     -33.040   4.686   2.464  1.00 20.00    -0.278 OA
HETATM    4 CL7  UNL     1     -32.393   7.252   2.356  1.00 20.00    -0.042 Cl
ENDBRANCH   1   2
BRANCH   1   5
HETATM    5  N5  UNL     1     -33.934   5.851   5.184  1.00 20.00     0.088 N 
HETATM    6  C2  UNL     1     -34.901   4.970   5.838  1.00 20.00     0.310 C 
HETATM    7  C3  UNL     1     -33.745   7.072   5.967  1.00 20.00     0.310 C 
ENDBRANCH   1   5
TORSDOF 2
ENDMDL
MODEL 9
REMARK VINA RESULT:      -3.0     19.775     20.257
REMARK  2 active torsions:
REMARK  status: ('A' for Active; 'I' for Inactive)
REMARK    1  A    between atoms: C1_1  and  C4_4 
REMARK    2  A    between atoms: C4_4  and  N5_5 
ROOT
HETATM    1  C4  UNL     1     -35.922  14.638  -5.775  1.00 20.00     0.367 C 
ENDROOT
BRANCH   1   2
HETATM    2  C1  UNL     1     -35.603  13.825  -4.537  1.00 20.00     0.247 C 
HETATM    3  O6  UNL     1     -35.851  12.629  -4.428  1.00 20.00    -0.278 OA
HETATM    4 CL7  UNL     1     -34.845  14.811  -3.315  1.00 20.00    -0.042 Cl
ENDBRANCH   1   2
BRANCH   1   5
HETATM    5  N5  UNL     1     -34.846  15.601  -6.010  1.00 20.00     0.088 N 
HETATM    6  C2  UNL     1     -35.398  16.921  -6.309  1.00 20.00     0.310 C 
HETATM    7  C3  UNL     1     -33.984  15.148  -7.100  1.00 20.00     0.310 C 
ENDBRANCH   1   5
TORSDOF 2
ENDMDL
