MODEL 1
REMARK VINA RESULT:      -5.1      0.000      0.000
REMARK  1 active torsions:
REMARK  status: ('A' for Active; 'I' for Inactive)
REMARK    1  A    between atoms: C2_2  and  C3_3 
ROOT
HETATM    1  C1  UNL     1     -33.321   6.006   3.319  1.00 20.00    -0.077 C 
HETATM    2  C2  UNL     1     -33.149   6.444   2.064  1.00 20.00     0.044 C 
HETATM    3  C4  UNL     1     -33.991   4.695   3.635  1.00 20.00     0.034 C 
HETATM    4  C5  UNL     1     -32.876   6.801   4.519  1.00 20.00     0.034 C 
HETATM    5  C6  UNL     1     -35.144   4.899   4.620  1.00 20.00     0.004 C 
HETATM    6  C7  UNL     1     -34.034   6.995   5.500  1.00 20.00     0.004 C 
HETATM    7  C8  UNL     1     -34.698   5.666   5.867  1.00 20.00     0.001 C 
ENDROOT
BRANCH   2   8
HETATM    8  C3  UNL     1     -32.479   7.742   1.880  1.00 20.00     0.259 C 
HETATM    9  O9  UNL     1     -32.813   8.528   1.001  1.00 20.00    -0.302 OA
ENDBRANCH   2   8
TORSDOF 1
ENDMDL
MODEL 2
REMARK VINA RESULT:      -5.0      0.866      1.938
REMARK  1 active torsions:
REMARK  status: ('A' for Active; 'I' for Inactive)
REMARK    1  A    between atoms: C2_2  and  C3_3 
ROOT
HETATM    1  C1  UNL     1     -33.546   6.826   4.142  1.00 20.00    -0.077 C 
HETATM    2  C2  UNL     1     -32.494   7.380   3.522  1.00 20.00     0.044 C 
HETATM    3  C4  UNL     1     -33.846   7.067   5.598  1.00 20.00     0.034 C 
HETATM    4  C5  UNL     1     -34.500   5.897   3.437  1.00 20.00     0.034 C 
HETATM    5  C6  UNL     1     -33.984   5.741   6.350  1.00 20.00     0.004 C 
HETATM    6  C7  UNL     1     -34.634   4.578   4.199  1.00 20.00     0.004 C 
HETATM    7  C8  UNL     1     -34.985   4.804   5.671  1.00 20.00     0.001 C 
ENDROOT
BRANCH   2   8
HETATM    8  C3  UNL     1     -32.302   7.071   2.095  1.00 20.00     0.259 C 
HETATM    9  O9  UNL     1     -32.541   7.889   1.214  1.00 20.00    -0.302 OA
ENDBRANCH   2   8
TORSDOF 1
ENDMDL
MODEL 3
REMARK VINA RESULT:      -4.6     11.303     11.938
REMARK  1 active torsions:
REMARK  status: ('A' for Active; 'I' for Inactive)
REMARK    1  A    between atoms: C2_2  and  C3_3 
ROOT
HETATM    1  C1  UNL     1     -35.138  15.366  -2.974  1.00 20.00    -0.077 C 
HETATM    2  C2  UNL     1     -36.226  14.873  -3.583  1.00 20.00     0.044 C 
HETATM    3  C4  UNL     1     -35.222  16.245  -1.754  1.00 20.00     0.034 C 
HETATM    4  C5  UNL     1     -33.742  15.099  -3.474  1.00 20.00     0.034 C 
HETATM    5  C6  UNL     1     -34.455  17.550  -1.972  1.00 20.00     0.004 C 
HETATM    6  C7  UNL     1     -32.982  16.410  -3.684  1.00 20.00     0.004 C 
HETATM    7  C8  UNL     1     -33.020  17.296  -2.438  1.00 20.00     0.001 C 
ENDROOT
BRANCH   2   8
HETATM    8  C3  UNL     1     -36.018  14.024  -4.768  1.00 20.00     0.259 C 
HETATM    9  O9  UNL     1     -36.022  12.800  -4.701  1.00 20.00    -0.302 OA
ENDBRANCH   2   8
TORSDOF 1
ENDMDL
MODEL 4
REMARK VINA RESULT:      -4.6     11.006     11.858
REMARK  1 active torsions:
REMARK  status: ('A' for Active; 'I' for Inactive)
REMARK    1  A    between atoms: C2_2  and  C3_3 
ROOT
HETATM    1  C1  UNL     1     -34.469  15.720  -3.581  1.00 20.00    -0.077 C 
HETATM    2  C2  UNL     1     -34.489  14.538  -4.212  1.00 20.00     0.044 C 
HETATM    3  C4  UNL     1     -33.274  16.637  -3.619  1.00 20.00     0.034 C 
HETATM    4  C5  UNL     1     -35.631  16.219  -2.761  1.00 20.00     0.034 C 
HETATM    5  C6  UNL     1     -32.832  17.011  -2.203  1.00 20.00     0.004 C 
HETATM    6  C7  UNL     1     -35.177  16.594  -1.350  1.00 20.00     0.004 C 
HETATM    7  C8  UNL     1     -33.992  17.561  -1.371  1.00 20.00     0.001 C 
ENDROOT
BRANCH   2   8
HETATM    8  C3  UNL     1     -35.715  13.728  -4.103  1.00 20.00     0.259 C 
HETATM    9  O9  UNL     1     -35.763  12.565  -4.487  1.00 20.00    -0.302 OA
ENDBRANCH   2   8
TORSDOF 1
ENDMDL
MODEL 5
REMARK VINA RESULT:      -4.5     15.598     16.337
REMARK  1 active torsions:
REMARK  status: ('A' for Active; 'I' for Inactive)
REMARK    1  A    between atoms: C2_2  and  C3_3 
ROOT
HETATM    1  C1  UNL     1     -24.170  18.051   9.893  1.00 20.00    -0.077 C 
HETATM    2  C2  UNL     1     -23.275  18.714   9.146  1.00 20.00     0.044 C 
HETATM    3  C4  UNL     1     -25.339  18.736  10.552  1.00 20.00     0.034 C 
HETATM    4  C5  UNL     1     -24.068  16.571  10.152  1.00 20.00     0.034 C 
HETATM    5  C6  UNL     1     -25.368  18.434  12.052  1.00 20.00     0.004 C 
HETATM    6  C7  UNL     1     -24.103  16.280  11.654  1.00 20.00     0.004 C 
HETATM    7  C8  UNL     1     -25.310  16.931  12.332  1.00 20.00     0.001 C 
ENDROOT
BRANCH   2   8
HETATM    8  C3  UNL     1     -22.175  17.936   8.552  1.00 20.00     0.259 C 
HETATM    9  O9  UNL     1     -22.113  17.710   7.349  1.00 20.00    -0.302 OA
ENDBRANCH   2   8
TORSDOF 1
ENDMDL
MODEL 6
REMARK VINA RESULT:      -4.4     11.336     12.088
REMARK  1 active torsions:
REMARK  status: ('A' for Active; 'I' for Inactive)
REMARK    1  A    between atoms: C2_2  and  C3_3 
ROOT
HETATM    1  C1  UNL     1     -35.571  15.276  -3.339  1.00 20.00    -0.077 C 
HETATM    2  C2  UNL     1     -36.852  15.591  -3.579  1.00 20.00     0.044 C 
HETATM    3  C4  UNL     1     -34.744  15.988  -2.301  1.00 20.00     0.034 C 
HETATM    4  C5  UNL     1     -34.848  14.198  -4.103  1.00 20.00     0.034 C 
HETATM    5  C6  UNL     1     -33.447  16.520  -2.914  1.00 20.00     0.004 C 
HETATM    6  C7  UNL     1     -33.551  14.739  -4.707  1.00 20.00     0.004 C 
HETATM    7  C8  UNL     1     -32.677  15.426  -3.656  1.00 20.00     0.001 C 
ENDROOT
BRANCH   2   8
HETATM    8  C3  UNL     1     -37.559  14.824  -4.619  1.00 20.00     0.259 C 
HETATM    9  O9  UNL     1     -38.277  13.869  -4.347  1.00 20.00    -0.302 OA
ENDBRANCH   2   8
TORSDOF 1
ENDMDL
MODEL 7
REMARK VINA RESULT:      -4.3     11.418     12.513
REMARK  1 active torsions:
REMARK  status: ('A' for Active; 'I' for Inactive)
REMARK    1  A    between atoms: C2_2  and  C3_3 
ROOT
HETATM    1  C1  UNL     1     -33.499  17.801  -1.564  1.00 20.00    -0.077 C 
HETATM    2  C2  UNL     1     -32.801  18.328  -0.548  1.00 20.00     0.044 C 
HETATM    3  C4  UNL     1     -34.931  17.356  -1.417  1.00 20.00     0.034 C 
HETATM    4  C5  UNL     1     -32.902  17.591  -2.931  1.00 20.00     0.034 C 
HETATM    5  C6  UNL     1     -35.097  15.906  -1.875  1.00 20.00     0.004 C 
HETATM    6  C7  UNL     1     -33.077  16.139  -3.381  1.00 20.00     0.004 C 
HETATM    7  C8  UNL     1     -34.535  15.685  -3.281  1.00 20.00     0.001 C 
ENDROOT
BRANCH   2   8
HETATM    8  C3  UNL     1     -31.408  18.727  -0.812  1.00 20.00     0.259 C 
HETATM    9  O9  UNL     1     -30.456  18.130  -0.323  1.00 20.00    -0.302 OA
ENDBRANCH   2   8
TORSDOF 1
ENDMDL
MODEL 8
REMARK VINA RESULT:      -4.2     11.716     12.215
REMARK  1 active torsions:
REMARK  status: ('A' for Active; 'I' for Inactive)
REMARK    1  A    between atoms: C2_2  and  C3_3 
ROOT
HETATM    1  C1  UNL     1     -35.431  15.065  -4.656  1.00 20.00    -0.077 C 
HETATM    2  C2  UNL     1     -36.467  14.261  -4.934  1.00 20.00     0.044 C 
HETATM    3  C4  UNL     1     -34.083  14.902  -5.310  1.00 20.00     0.034 C 
HETATM    4  C5  UNL     1     -35.522  16.183  -3.651  1.00 20.00     0.034 C 
HETATM    5  C6  UNL     1     -32.980  14.790  -4.256  1.00 20.00     0.004 C 
HETATM    6  C7  UNL     1     -34.412  16.064  -2.605  1.00 20.00     0.004 C 
HETATM    7  C8  UNL     1     -33.031  15.944  -3.253  1.00 20.00     0.001 C 
ENDROOT
BRANCH   2   8
HETATM    8  C3  UNL     1     -37.736  14.517  -4.231  1.00 20.00     0.259 C 
HETATM    9  O9  UNL     1     -38.753  13.877  -4.470  1.00 20.00    -0.302 OA
ENDBRANCH   2   8
TORSDOF 1
ENDMDL
MODEL 9
REMARK VINA RESULT:      -4.1      8.918      9.433
REMARK  1 active torsions:
REMARK  status: ('A' for Active; 'I' for Inactive)
REMARK    1  A    between atoms: C2_2  and  C3_3 
ROOT
HETATM    1  C1  UNL     1     -41.479   6.988  -0.231  1.00 20.00    -0.077 C 
HETATM    2  C2  UNL     1     -41.198   8.265  -0.527  1.00 20.00     0.044 C 
HETATM    3  C4  UNL     1     -41.132   5.848  -1.153  1.00 20.00     0.034 C 
HETATM    4  C5  UNL     1     -42.186   6.590   1.038  1.00 20.00     0.034 C 
HETATM    5  C6  UNL     1     -42.368   4.997  -1.452  1.00 20.00     0.004 C 
HETATM    6  C7  UNL     1     -43.416   5.736   0.729  1.00 20.00     0.004 C 
HETATM    7  C8  UNL     1     -43.072   4.547  -0.171  1.00 20.00     0.001 C 
ENDROOT
BRANCH   2   8
HETATM    8  C3  UNL     1     -41.585   9.293   0.454  1.00 20.00     0.259 C 
HETATM    9  O9  UNL     1     -41.242  10.464   0.339  1.00 20.00    -0.302 OA
ENDBRANCH   2   8
TORSDOF 1
ENDMDL
