MODEL 1
REMARK VINA RESULT:      -5.5      0.000      0.000
REMARK  2 active torsions:
REMARK  status: ('A' for Active; 'I' for Inactive)
REMARK    1  A    between atoms: C2_2  and  C3_3 
REMARK    2  A    between atoms: C3_3  and  O11_11 
ROOT
HETATM    1  C1  UNL     1     -33.885   5.981   3.573  1.00 20.00    -0.074 C 
HETATM    2  C2  UNL     1     -33.005   6.016   2.562  1.00 20.00     0.085 C 
HETATM    3  C4  UNL     1     -34.706   4.757   3.886  1.00 20.00     0.034 C 
HETATM    4  C5  UNL     1     -34.108   7.153   4.493  1.00 20.00     0.034 C 
HETATM    5  C6  UNL     1     -34.536   4.351   5.351  1.00 20.00     0.004 C 
HETATM    6  C7  UNL     1     -33.942   6.734   5.954  1.00 20.00     0.004 C 
HETATM    7  C8  UNL     1     -34.804   5.520   6.301  1.00 20.00     0.001 C 
ENDROOT
BRANCH   2   8
HETATM    8  C3  UNL     1     -32.231   7.245   2.306  1.00 20.00     0.282 C 
HETATM    9  O10 UNL     1     -31.463   7.778   3.092  1.00 20.00    -0.260 OA
BRANCH   8  10
HETATM   10  O11 UNL     1     -32.529   7.661   1.045  1.00 20.00    -0.323 OA
HETATM   11  C9  UNL     1     -32.910   9.035   0.925  1.00 20.00     0.213 C 
ENDBRANCH   8  10
ENDBRANCH   2   8
TORSDOF 2
ENDMDL
MODEL 2
REMARK VINA RESULT:      -5.0     10.953     12.039
REMARK  2 active torsions:
REMARK  status: ('A' for Active; 'I' for Inactive)
REMARK    1  A    between atoms: C2_2  and  C3_3 
REMARK    2  A    between atoms: C3_3  and  O11_11 
ROOT
HETATM    1  C1  UNL     1     -34.294  15.228  -3.659  1.00 20.00    -0.074 C 
HETATM    2  C2  UNL     1     -34.717  14.583  -4.756  1.00 20.00     0.085 C 
HETATM    3  C4  UNL     1     -32.982  15.967  -3.612  1.00 20.00     0.034 C 
HETATM    4  C5  UNL     1     -35.106  15.286  -2.391  1.00 20.00     0.034 C 
HETATM    5  C6  UNL     1     -33.190  17.411  -3.155  1.00 20.00     0.004 C 
HETATM    6  C7  UNL     1     -35.303  16.734  -1.940  1.00 20.00     0.004 C 
HETATM    7  C8  UNL     1     -33.975  17.486  -1.843  1.00 20.00     0.001 C 
ENDROOT
BRANCH   2   8
HETATM    8  C3  UNL     1     -36.012  13.877  -4.738  1.00 20.00     0.282 C 
HETATM    9  O10 UNL     1     -36.184  12.717  -4.396  1.00 20.00    -0.260 OA
BRANCH   8  10
HETATM   10  O11 UNL     1     -36.960  14.753  -5.166  1.00 20.00    -0.323 OA
HETATM   11  C9  UNL     1     -38.142  14.821  -4.362  1.00 20.00     0.213 C 
ENDBRANCH   8  10
ENDBRANCH   2   8
TORSDOF 2
ENDMDL
MODEL 3
REMARK VINA RESULT:      -5.0     11.264     12.605
REMARK  2 active torsions:
REMARK  status: ('A' for Active; 'I' for Inactive)
REMARK    1  A    between atoms: C2_2  and  C3_3 
REMARK    2  A    between atoms: C3_3  and  O11_11 
ROOT
HETATM    1  C1  UNL     1     -35.177  15.565  -3.541  1.00 20.00    -0.074 C 
HETATM    2  C2  UNL     1     -35.581  14.296  -3.698  1.00 20.00     0.085 C 
HETATM    3  C4  UNL     1     -34.346  16.009  -2.366  1.00 20.00     0.034 C 
HETATM    4  C5  UNL     1     -35.501  16.647  -4.539  1.00 20.00     0.034 C 
HETATM    5  C6  UNL     1     -33.079  16.724  -2.837  1.00 20.00     0.004 C 
HETATM    6  C7  UNL     1     -34.229  17.359  -4.998  1.00 20.00     0.004 C 
HETATM    7  C8  UNL     1     -33.395  17.856  -3.816  1.00 20.00     0.001 C 
ENDROOT
BRANCH   2   8
HETATM    8  C3  UNL     1     -36.394  13.925  -4.872  1.00 20.00     0.282 C 
HETATM    9  O10 UNL     1     -35.996  13.880  -6.026  1.00 20.00    -0.260 OA
BRANCH   8  10
HETATM   10  O11 UNL     1     -37.648  13.643  -4.427  1.00 20.00    -0.323 OA
HETATM   11  C9  UNL     1     -38.522  14.770  -4.298  1.00 20.00     0.213 C 
ENDBRANCH   8  10
ENDBRANCH   2   8
TORSDOF 2
ENDMDL
MODEL 4
REMARK VINA RESULT:      -4.8     11.455     12.157
REMARK  2 active torsions:
REMARK  status: ('A' for Active; 'I' for Inactive)
REMARK    1  A    between atoms: C2_2  and  C3_3 
REMARK    2  A    between atoms: C3_3  and  O11_11 
ROOT
HETATM    1  C1  UNL     1     -35.650  15.816  -3.484  1.00 20.00    -0.074 C 
HETATM    2  C2  UNL     1     -36.558  14.864  -3.743  1.00 20.00     0.085 C 
HETATM    3  C4  UNL     1     -35.862  16.867  -2.425  1.00 20.00     0.034 C 
HETATM    4  C5  UNL     1     -34.334  15.899  -4.212  1.00 20.00     0.034 C 
HETATM    5  C6  UNL     1     -34.688  16.892  -1.445  1.00 20.00     0.004 C 
HETATM    6  C7  UNL     1     -33.168  15.931  -3.223  1.00 20.00     0.004 C 
HETATM    7  C8  UNL     1     -33.345  17.023  -2.167  1.00 20.00     0.001 C 
ENDROOT
BRANCH   2   8
HETATM    8  C3  UNL     1     -36.291  13.863  -4.793  1.00 20.00     0.282 C 
HETATM    9  O10 UNL     1     -35.781  12.767  -4.617  1.00 20.00    -0.260 OA
BRANCH   8  10
HETATM   10  O11 UNL     1     -36.720  14.386  -5.974  1.00 20.00    -0.323 OA
HETATM   11  C9  UNL     1     -35.711  14.548  -6.977  1.00 20.00     0.213 C 
ENDBRANCH   8  10
ENDBRANCH   2   8
TORSDOF 2
ENDMDL
MODEL 5
REMARK VINA RESULT:      -4.8     15.198     16.254
REMARK  2 active torsions:
REMARK  status: ('A' for Active; 'I' for Inactive)
REMARK    1  A    between atoms: C2_2  and  C3_3 
REMARK    2  A    between atoms: C3_3  and  O11_11 
ROOT
HETATM    1  C1  UNL     1     -23.024  18.019   9.858  1.00 20.00    -0.074 C 
HETATM    2  C2  UNL     1     -23.196  19.055   9.023  1.00 20.00     0.085 C 
HETATM    3  C4  UNL     1     -22.190  18.120  11.108  1.00 20.00     0.034 C 
HETATM    4  C5  UNL     1     -23.671  16.679   9.627  1.00 20.00     0.034 C 
HETATM    5  C6  UNL     1     -22.992  17.675  12.332  1.00 20.00     0.004 C 
HETATM    6  C7  UNL     1     -24.465  16.241  10.859  1.00 20.00     0.004 C 
HETATM    7  C8  UNL     1     -23.618  16.293  12.131  1.00 20.00     0.001 C 
ENDROOT
BRANCH   2   8
HETATM    8  C3  UNL     1     -24.025  18.893   7.814  1.00 20.00     0.282 C 
HETATM    9  O10 UNL     1     -23.617  18.560   6.712  1.00 20.00    -0.260 OA
BRANCH   8  10
HETATM   10  O11 UNL     1     -25.310  19.177   8.159  1.00 20.00    -0.323 OA
HETATM   11  C9  UNL     1     -26.261  19.119   7.090  1.00 20.00     0.213 C 
ENDBRANCH   8  10
ENDBRANCH   2   8
TORSDOF 2
ENDMDL
MODEL 6
REMARK VINA RESULT:      -4.7     11.038     12.147
REMARK  2 active torsions:
REMARK  status: ('A' for Active; 'I' for Inactive)
REMARK    1  A    between atoms: C2_2  and  C3_3 
REMARK    2  A    between atoms: C3_3  and  O11_11 
ROOT
HETATM    1  C1  UNL     1     -33.765  15.961  -2.959  1.00 20.00    -0.074 C 
HETATM    2  C2  UNL     1     -33.365  15.170  -3.965  1.00 20.00     0.085 C 
HETATM    3  C4  UNL     1     -32.913  17.083  -2.425  1.00 20.00     0.034 C 
HETATM    4  C5  UNL     1     -35.109  15.809  -2.296  1.00 20.00     0.034 C 
HETATM    5  C6  UNL     1     -33.686  18.402  -2.433  1.00 20.00     0.004 C 
HETATM    6  C7  UNL     1     -35.871  17.135  -2.304  1.00 20.00     0.004 C 
HETATM    7  C8  UNL     1     -35.035  18.275  -1.722  1.00 20.00     0.001 C 
ENDROOT
BRANCH   2   8
HETATM    8  C3  UNL     1     -34.246  14.088  -4.443  1.00 20.00     0.282 C 
HETATM    9  O10 UNL     1     -34.380  12.996  -3.914  1.00 20.00    -0.260 OA
BRANCH   8  10
HETATM   10  O11 UNL     1     -34.871  14.536  -5.565  1.00 20.00    -0.323 OA
HETATM   11  C9  UNL     1     -34.007  15.020  -6.599  1.00 20.00     0.213 C 
ENDBRANCH   8  10
ENDBRANCH   2   8
TORSDOF 2
ENDMDL
MODEL 7
REMARK VINA RESULT:      -4.7     14.991     15.782
REMARK  2 active torsions:
REMARK  status: ('A' for Active; 'I' for Inactive)
REMARK    1  A    between atoms: C2_2  and  C3_3 
REMARK    2  A    between atoms: C3_3  and  O11_11 
ROOT
HETATM    1  C1  UNL     1     -24.898  18.465  10.548  1.00 20.00    -0.074 C 
HETATM    2  C2  UNL     1     -25.151  19.228   9.475  1.00 20.00     0.085 C 
HETATM    3  C4  UNL     1     -25.642  18.627  11.848  1.00 20.00     0.034 C 
HETATM    4  C5  UNL     1     -23.867  17.367  10.535  1.00 20.00     0.034 C 
HETATM    5  C6  UNL     1     -26.246  17.295  12.295  1.00 20.00     0.004 C 
HETATM    6  C7  UNL     1     -24.479  16.042  10.990  1.00 20.00     0.004 C 
HETATM    7  C8  UNL     1     -25.200  16.179  12.332  1.00 20.00     0.001 C 
ENDROOT
BRANCH   2   8
HETATM    8  C3  UNL     1     -24.387  19.021   8.230  1.00 20.00     0.282 C 
HETATM    9  O10 UNL     1     -23.199  19.263   8.077  1.00 20.00    -0.260 OA
BRANCH   8  10
HETATM   10  O11 UNL     1     -25.244  18.513   7.304  1.00 20.00    -0.323 OA
HETATM   11  C9  UNL     1     -25.352  19.262   6.090  1.00 20.00     0.213 C 
ENDBRANCH   8  10
ENDBRANCH   2   8
TORSDOF 2
ENDMDL
MODEL 8
REMARK VINA RESULT:      -4.7     11.235     12.637
REMARK  2 active torsions:
REMARK  status: ('A' for Active; 'I' for Inactive)
REMARK    1  A    between atoms: C2_2  and  C3_3 
REMARK    2  A    between atoms: C3_3  and  O11_11 
ROOT
HETATM    1  C1  UNL     1     -35.121  15.605  -3.383  1.00 20.00    -0.074 C 
HETATM    2  C2  UNL     1     -35.323  14.310  -3.665  1.00 20.00     0.085 C 
HETATM    3  C4  UNL     1     -34.137  16.060  -2.337  1.00 20.00     0.034 C 
HETATM    4  C5  UNL     1     -35.842  16.713  -4.106  1.00 20.00     0.034 C 
HETATM    5  C6  UNL     1     -33.152  17.072  -2.923  1.00 20.00     0.004 C 
HETATM    6  C7  UNL     1     -34.849  17.722  -4.683  1.00 20.00     0.004 C 
HETATM    7  C8  UNL     1     -33.870  18.228  -3.622  1.00 20.00     0.001 C 
ENDROOT
BRANCH   2   8
HETATM    8  C3  UNL     1     -36.301  13.929  -4.701  1.00 20.00     0.282 C 
HETATM    9  O10 UNL     1     -37.503  13.792  -4.528  1.00 20.00    -0.260 OA
BRANCH   8  10
HETATM   10  O11 UNL     1     -35.619  13.766  -5.867  1.00 20.00    -0.323 OA
HETATM   11  C9  UNL     1     -35.935  14.706  -6.900  1.00 20.00     0.213 C 
ENDBRANCH   8  10
ENDBRANCH   2   8
TORSDOF 2
ENDMDL
MODEL 9
REMARK VINA RESULT:      -4.7     11.121     11.984
REMARK  2 active torsions:
REMARK  status: ('A' for Active; 'I' for Inactive)
REMARK    1  A    between atoms: C2_2  and  C3_3 
REMARK    2  A    between atoms: C3_3  and  O11_11 
ROOT
HETATM    1  C1  UNL     1     -34.695  16.050  -2.961  1.00 20.00    -0.074 C 
HETATM    2  C2  UNL     1     -34.897  14.816  -3.447  1.00 20.00     0.085 C 
HETATM    3  C4  UNL     1     -35.555  16.641  -1.875  1.00 20.00     0.034 C 
HETATM    4  C5  UNL     1     -33.576  16.935  -3.443  1.00 20.00     0.034 C 
HETATM    5  C6  UNL     1     -34.695  17.130  -0.709  1.00 20.00     0.004 C 
HETATM    6  C7  UNL     1     -32.726  17.424  -2.269  1.00 20.00     0.004 C 
HETATM    7  C8  UNL     1     -33.581  18.069  -1.177  1.00 20.00     0.001 C 
ENDROOT
BRANCH   2   8
HETATM    8  C3  UNL     1     -34.020  14.294  -4.512  1.00 20.00     0.282 C 
HETATM    9  O10 UNL     1     -32.893  13.853  -4.350  1.00 20.00    -0.260 OA
BRANCH   8  10
HETATM   10  O11 UNL     1     -34.699  14.395  -5.686  1.00 20.00    -0.323 OA
HETATM   11  C9  UNL     1     -34.013  15.087  -6.735  1.00 20.00     0.213 C 
ENDBRANCH   8  10
ENDBRANCH   2   8
TORSDOF 2
ENDMDL
