MODEL 1
REMARK VINA RESULT:      -5.2      0.000      0.000
REMARK  3 active torsions:
REMARK  status: ('A' for Active; 'I' for Inactive)
REMARK    1  A    between atoms: C1_1  and  C4_4 
REMARK    2  A    between atoms: C2_2  and  C9_9 
REMARK    3  A    between atoms: C9_9  and  O10_10 
ROOT
HETATM    1  C3  UNL     1     -33.716   6.834   5.301  1.00 20.00    -0.011 C 
HETATM    2  C4  UNL     1     -33.722   6.329   4.063  1.00 20.00    -0.008 C 
HETATM    3  C5  UNL     1     -34.470   5.968   6.254  1.00 20.00     0.028 C 
HETATM    4  C6  UNL     1     -34.482   5.044   3.992  1.00 20.00     0.048 C 
HETATM    5  C7  UNL     1     -35.232   5.024   5.323  1.00 20.00     0.009 C 
ENDROOT
BRANCH   2   6
HETATM    6  C1  UNL     1     -33.073   6.932   2.961  1.00 20.00    -0.069 C 
HETATM    7  C2  UNL     1     -32.521   7.446   2.026  1.00 20.00    -0.075 C 
BRANCH   7   8
HETATM    8  C9  UNL     1     -31.852   8.071   0.886  1.00 20.00     0.261 C 
BRANCH   8   9
HETATM    9  O10 UNL     1     -32.571   9.229   0.486  1.00 20.00    -0.384 OA
HETATM   10  C8  UNL     1     -33.625   8.906  -0.412  1.00 20.00     0.202 C 
ENDBRANCH   8   9
ENDBRANCH   7   8
ENDBRANCH   2   6
TORSDOF 3
ENDMDL
MODEL 2
REMARK VINA RESULT:      -4.7     10.924     11.474
REMARK  3 active torsions:
REMARK  status: ('A' for Active; 'I' for Inactive)
REMARK    1  A    between atoms: C1_1  and  C4_4 
REMARK    2  A    between atoms: C2_2  and  C9_9 
REMARK    3  A    between atoms: C9_9  and  O10_10 
ROOT
HETATM    1  C3  UNL     1     -33.111  16.815  -2.597  1.00 20.00    -0.011 C 
HETATM    2  C4  UNL     1     -34.336  16.345  -2.339  1.00 20.00    -0.008 C 
HETATM    3  C5  UNL     1     -32.637  17.738  -1.525  1.00 20.00     0.028 C 
HETATM    4  C6  UNL     1     -34.876  16.880  -1.052  1.00 20.00     0.048 C 
HETATM    5  C7  UNL     1     -33.915  18.026  -0.737  1.00 20.00     0.009 C 
ENDROOT
BRANCH   2   6
HETATM    6  C1  UNL     1     -35.027  15.438  -3.177  1.00 20.00    -0.069 C 
HETATM    7  C2  UNL     1     -35.612  14.667  -3.889  1.00 20.00    -0.075 C 
BRANCH   7   8
HETATM    8  C9  UNL     1     -36.324  13.731  -4.757  1.00 20.00     0.261 C 
BRANCH   8   9
HETATM    9  O10 UNL     1     -37.680  13.633  -4.345  1.00 20.00    -0.384 OA
HETATM   10  C8  UNL     1     -38.325  14.900  -4.364  1.00 20.00     0.202 C 
ENDBRANCH   8   9
ENDBRANCH   7   8
ENDBRANCH   2   6
TORSDOF 3
ENDMDL
MODEL 3
REMARK VINA RESULT:      -4.6     10.849     11.795
REMARK  3 active torsions:
REMARK  status: ('A' for Active; 'I' for Inactive)
REMARK    1  A    between atoms: C1_1  and  C4_4 
REMARK    2  A    between atoms: C2_2  and  C9_9 
REMARK    3  A    between atoms: C9_9  and  O10_10 
ROOT
HETATM    1  C3  UNL     1     -34.976  15.783  -2.654  1.00 20.00    -0.011 C 
HETATM    2  C4  UNL     1     -33.699  16.107  -2.884  1.00 20.00    -0.008 C 
HETATM    3  C5  UNL     1     -35.428  14.662  -3.529  1.00 20.00     0.028 C 
HETATM    4  C6  UNL     1     -33.094  15.251  -3.950  1.00 20.00     0.048 C 
HETATM    5  C7  UNL     1     -34.317  14.581  -4.576  1.00 20.00     0.009 C 
ENDROOT
BRANCH   2   6
HETATM    6  C1  UNL     1     -33.005  17.123  -2.188  1.00 20.00    -0.069 C 
HETATM    7  C2  UNL     1     -32.415  17.987  -1.598  1.00 20.00    -0.075 C 
BRANCH   7   8
HETATM    8  C9  UNL     1     -31.694  19.038  -0.880  1.00 20.00     0.261 C 
BRANCH   8   9
HETATM    9  O10 UNL     1     -30.508  18.501  -0.313  1.00 20.00    -0.384 OA
HETATM   10  C8  UNL     1     -30.599  18.413   1.104  1.00 20.00     0.202 C 
ENDBRANCH   8   9
ENDBRANCH   7   8
ENDBRANCH   2   6
TORSDOF 3
ENDMDL
MODEL 4
REMARK VINA RESULT:      -4.6     10.677     11.826
REMARK  3 active torsions:
REMARK  status: ('A' for Active; 'I' for Inactive)
REMARK    1  A    between atoms: C1_1  and  C4_4 
REMARK    2  A    between atoms: C2_2  and  C9_9 
REMARK    3  A    between atoms: C9_9  and  O10_10 
ROOT
HETATM    1  C3  UNL     1     -33.059  15.493  -3.837  1.00 20.00    -0.011 C 
HETATM    2  C4  UNL     1     -33.614  16.200  -2.847  1.00 20.00    -0.008 C 
HETATM    3  C5  UNL     1     -34.031  14.539  -4.446  1.00 20.00     0.028 C 
HETATM    4  C6  UNL     1     -35.047  15.831  -2.638  1.00 20.00     0.048 C 
HETATM    5  C7  UNL     1     -35.179  14.534  -3.436  1.00 20.00     0.009 C 
ENDROOT
BRANCH   2   6
HETATM    6  C1  UNL     1     -32.929  17.188  -2.103  1.00 20.00    -0.069 C 
HETATM    7  C2  UNL     1     -32.349  18.028  -1.470  1.00 20.00    -0.075 C 
BRANCH   7   8
HETATM    8  C9  UNL     1     -31.641  19.052  -0.702  1.00 20.00     0.261 C 
BRANCH   8   9
HETATM    9  O10 UNL     1     -30.452  18.502  -0.153  1.00 20.00    -0.384 OA
HETATM   10  C8  UNL     1     -30.378  18.713   1.251  1.00 20.00     0.202 C 
ENDBRANCH   8   9
ENDBRANCH   7   8
ENDBRANCH   2   6
TORSDOF 3
ENDMDL
MODEL 5
REMARK VINA RESULT:      -4.5     10.936     11.532
REMARK  3 active torsions:
REMARK  status: ('A' for Active; 'I' for Inactive)
REMARK    1  A    between atoms: C1_1  and  C4_4 
REMARK    2  A    between atoms: C2_2  and  C9_9 
REMARK    3  A    between atoms: C9_9  and  O10_10 
ROOT
HETATM    1  C3  UNL     1     -34.814  16.991  -1.213  1.00 20.00    -0.011 C 
HETATM    2  C4  UNL     1     -34.343  16.498  -2.364  1.00 20.00    -0.008 C 
HETATM    3  C5  UNL     1     -33.884  17.998  -0.623  1.00 20.00     0.028 C 
HETATM    4  C6  UNL     1     -33.023  17.099  -2.726  1.00 20.00     0.048 C 
HETATM    5  C7  UNL     1     -32.602  17.788  -1.428  1.00 20.00     0.009 C 
ENDROOT
BRANCH   2   6
HETATM    6  C1  UNL     1     -35.023  15.538  -3.149  1.00 20.00    -0.069 C 
HETATM    7  C2  UNL     1     -35.602  14.723  -3.814  1.00 20.00    -0.075 C 
BRANCH   7   8
HETATM    8  C9  UNL     1     -36.304  13.729  -4.624  1.00 20.00     0.261 C 
BRANCH   8   9
HETATM    9  O10 UNL     1     -37.679  13.704  -4.265  1.00 20.00    -0.384 OA
HETATM   10  C8  UNL     1     -38.291  14.974  -4.449  1.00 20.00     0.202 C 
ENDBRANCH   8   9
ENDBRANCH   7   8
ENDBRANCH   2   6
TORSDOF 3
ENDMDL
MODEL 6
REMARK VINA RESULT:      -4.4     10.920     11.529
REMARK  3 active torsions:
REMARK  status: ('A' for Active; 'I' for Inactive)
REMARK    1  A    between atoms: C1_1  and  C4_4 
REMARK    2  A    between atoms: C2_2  and  C9_9 
REMARK    3  A    between atoms: C9_9  and  O10_10 
ROOT
HETATM    1  C3  UNL     1     -33.119  16.787  -2.609  1.00 20.00    -0.011 C 
HETATM    2  C4  UNL     1     -34.351  16.340  -2.343  1.00 20.00    -0.008 C 
HETATM    3  C5  UNL     1     -32.640  17.737  -1.563  1.00 20.00     0.028 C 
HETATM    4  C6  UNL     1     -34.890  16.920  -1.076  1.00 20.00     0.048 C 
HETATM    5  C7  UNL     1     -33.918  18.064  -0.791  1.00 20.00     0.009 C 
ENDROOT
BRANCH   2   6
HETATM    6  C1  UNL     1     -35.048  15.416  -3.157  1.00 20.00    -0.069 C 
HETATM    7  C2  UNL     1     -35.639  14.631  -3.848  1.00 20.00    -0.075 C 
BRANCH   7   8
HETATM    8  C9  UNL     1     -36.358  13.677  -4.691  1.00 20.00     0.261 C 
BRANCH   8   9
HETATM    9  O10 UNL     1     -35.856  13.739  -6.018  1.00 20.00    -0.384 OA
HETATM   10  C8  UNL     1     -35.984  15.045  -6.565  1.00 20.00     0.202 C 
ENDBRANCH   8   9
ENDBRANCH   7   8
ENDBRANCH   2   6
TORSDOF 3
ENDMDL
MODEL 7
REMARK VINA RESULT:      -4.3     10.864     11.529
REMARK  3 active torsions:
REMARK  status: ('A' for Active; 'I' for Inactive)
REMARK    1  A    between atoms: C1_1  and  C4_4 
REMARK    2  A    between atoms: C2_2  and  C9_9 
REMARK    3  A    between atoms: C9_9  and  O10_10 
ROOT
HETATM    1  C3  UNL     1     -34.759  17.026  -1.158  1.00 20.00    -0.011 C 
HETATM    2  C4  UNL     1     -34.288  16.520  -2.304  1.00 20.00    -0.008 C 
HETATM    3  C5  UNL     1     -33.840  18.054  -0.590  1.00 20.00     0.028 C 
HETATM    4  C6  UNL     1     -32.978  17.132  -2.682  1.00 20.00     0.048 C 
HETATM    5  C7  UNL     1     -32.559  17.847  -1.398  1.00 20.00     0.009 C 
ENDROOT
BRANCH   2   6
HETATM    6  C1  UNL     1     -34.960  15.539  -3.069  1.00 20.00    -0.069 C 
HETATM    7  C2  UNL     1     -35.531  14.707  -3.720  1.00 20.00    -0.075 C 
BRANCH   7   8
HETATM    8  C9  UNL     1     -36.228  13.693  -4.510  1.00 20.00     0.261 C 
BRANCH   8   9
HETATM    9  O10 UNL     1     -35.660  13.626  -5.810  1.00 20.00    -0.384 OA
HETATM   10  C8  UNL     1     -35.841  14.842  -6.524  1.00 20.00     0.202 C 
ENDBRANCH   8   9
ENDBRANCH   7   8
ENDBRANCH   2   6
TORSDOF 3
ENDMDL
MODEL 8
REMARK VINA RESULT:      -4.1     10.730     11.498
REMARK  3 active torsions:
REMARK  status: ('A' for Active; 'I' for Inactive)
REMARK    1  A    between atoms: C1_1  and  C4_4 
REMARK    2  A    between atoms: C2_2  and  C9_9 
REMARK    3  A    between atoms: C9_9  and  O10_10 
ROOT
HETATM    1  C3  UNL     1     -34.415  17.668  -0.745  1.00 20.00    -0.011 C 
HETATM    2  C4  UNL     1     -33.461  17.339  -1.623  1.00 20.00    -0.008 C 
HETATM    3  C5  UNL     1     -33.964  18.748   0.181  1.00 20.00     0.028 C 
HETATM    4  C6  UNL     1     -32.220  18.148  -1.422  1.00 20.00     0.048 C 
HETATM    5  C7  UNL     1     -32.454  18.785  -0.053  1.00 20.00     0.009 C 
ENDROOT
BRANCH   2   6
HETATM    6  C1  UNL     1     -33.617  16.356  -2.627  1.00 20.00    -0.069 C 
HETATM    7  C2  UNL     1     -33.750  15.520  -3.480  1.00 20.00    -0.075 C 
BRANCH   7   8
HETATM    8  C9  UNL     1     -33.910  14.505  -4.519  1.00 20.00     0.261 C 
BRANCH   8   9
HETATM    9  O10 UNL     1     -34.777  13.479  -4.057  1.00 20.00    -0.384 OA
HETATM   10  C8  UNL     1     -36.110  13.676  -4.514  1.00 20.00     0.202 C 
ENDBRANCH   8   9
ENDBRANCH   7   8
ENDBRANCH   2   6
TORSDOF 3
ENDMDL
MODEL 9
REMARK VINA RESULT:      -4.1     10.788     11.605
REMARK  3 active torsions:
REMARK  status: ('A' for Active; 'I' for Inactive)
REMARK    1  A    between atoms: C1_1  and  C4_4 
REMARK    2  A    between atoms: C2_2  and  C9_9 
REMARK    3  A    between atoms: C9_9  and  O10_10 
ROOT
HETATM    1  C3  UNL     1     -33.356  16.203  -2.879  1.00 20.00    -0.011 C 
HETATM    2  C4  UNL     1     -34.582  15.999  -2.384  1.00 20.00    -0.008 C 
HETATM    3  C5  UNL     1     -33.109  15.379  -4.099  1.00 20.00     0.028 C 
HETATM    4  C6  UNL     1     -35.349  15.006  -3.196  1.00 20.00     0.048 C 
HETATM    5  C7  UNL     1     -34.264  14.378  -4.070  1.00 20.00     0.009 C 
ENDROOT
BRANCH   2   6
HETATM    6  C1  UNL     1     -35.091  16.659  -1.242  1.00 20.00    -0.069 C 
HETATM    7  C2  UNL     1     -35.524  17.220  -0.272  1.00 20.00    -0.075 C 
BRANCH   7   8
HETATM    8  C9  UNL     1     -36.048  17.902   0.910  1.00 20.00     0.261 C 
BRANCH   8   9
HETATM    9  O10 UNL     1     -35.071  18.798   1.419  1.00 20.00    -0.384 OA
HETATM   10  C8  UNL     1     -34.031  18.107   2.100  1.00 20.00     0.202 C 
ENDBRANCH   8   9
ENDBRANCH   7   8
ENDBRANCH   2   6
TORSDOF 3
ENDMDL
