MODEL 1
REMARK VINA RESULT:      -4.5      0.000      0.000
REMARK  1 active torsions:
REMARK  status: ('A' for Active; 'I' for Inactive)
REMARK    1  A    between atoms: C7_7  and  C8_8 
ROOT
HETATM    1  C1  UNL     1     -37.258  14.555  -4.721  1.00 20.00     0.066 C 
HETATM    2  C4  UNL     1     -35.587  14.611  -6.549  1.00 20.00     0.048 C 
HETATM    3  C5  UNL     1     -34.147  15.066  -6.583  1.00 20.00     0.169 C 
HETATM    4  C6  UNL     1     -36.088  15.247  -5.270  1.00 20.00     0.124 C 
HETATM    5  C8  UNL     1     -34.861  15.149  -4.361  1.00 20.00     0.143 C 
HETATM    6  N9  UNL     1     -38.183  14.007  -4.286  1.00 20.00    -0.197 NA
HETATM    7  O10 UNL     1     -33.705  15.079  -5.221  1.00 20.00    -0.384 OA
ENDROOT
BRANCH   5   8
HETATM    8  C7  UNL     1     -34.719  16.322  -3.439  1.00 20.00     0.016 A 
HETATM    9  C2  UNL     1     -34.841  16.135  -1.952  1.00 20.00     0.007 A 
HETATM   10  C3  UNL     1     -33.505  16.453  -2.563  1.00 20.00     0.007 A 
ENDBRANCH   5   8
TORSDOF 1
ENDMDL
MODEL 2
REMARK VINA RESULT:      -4.4     17.009     18.928
REMARK  1 active torsions:
REMARK  status: ('A' for Active; 'I' for Inactive)
REMARK    1  A    between atoms: C7_7  and  C8_8 
ROOT
HETATM    1  C1  UNL     1     -21.976  17.303   9.231  1.00 20.00     0.066 C 
HETATM    2  C4  UNL     1     -22.810  17.554  11.550  1.00 20.00     0.048 C 
HETATM    3  C5  UNL     1     -24.089  18.138  12.102  1.00 20.00     0.169 C 
HETATM    4  C6  UNL     1     -22.792  18.112  10.143  1.00 20.00     0.124 C 
HETATM    5  C8  UNL     1     -24.277  18.104   9.774  1.00 20.00     0.143 C 
HETATM    6  N9  UNL     1     -21.331  16.664   8.509  1.00 20.00    -0.197 NA
HETATM    7  O10 UNL     1     -25.017  18.159  11.012  1.00 20.00    -0.384 OA
ENDROOT
BRANCH   5   8
HETATM    8  C7  UNL     1     -24.672  19.263   8.910  1.00 20.00     0.016 A 
HETATM    9  C2  UNL     1     -24.699  19.116   7.414  1.00 20.00     0.007 A 
HETATM   10  C3  UNL     1     -25.986  19.248   8.180  1.00 20.00     0.007 A 
ENDBRANCH   5   8
TORSDOF 1
ENDMDL
MODEL 3
REMARK VINA RESULT:      -4.3      1.074      3.257
REMARK  1 active torsions:
REMARK  status: ('A' for Active; 'I' for Inactive)
REMARK    1  A    between atoms: C7_7  and  C8_8 
ROOT
HETATM    1  C1  UNL     1     -36.686  14.171  -4.337  1.00 20.00     0.066 C 
HETATM    2  C4  UNL     1     -34.861  15.186  -3.003  1.00 20.00     0.048 C 
HETATM    3  C5  UNL     1     -33.634  15.968  -3.408  1.00 20.00     0.169 C 
HETATM    4  C6  UNL     1     -35.266  14.540  -4.311  1.00 20.00     0.124 C 
HETATM    5  C8  UNL     1     -34.917  15.628  -5.329  1.00 20.00     0.143 C 
HETATM    6  N9  UNL     1     -37.808  13.881  -4.358  1.00 20.00    -0.197 NA
HETATM    7  O10 UNL     1     -33.889  16.445  -4.733  1.00 20.00    -0.384 OA
ENDROOT
BRANCH   5   8
HETATM    8  C7  UNL     1     -34.417  15.075  -6.629  1.00 20.00     0.016 A 
HETATM    9  C2  UNL     1     -35.272  15.155  -7.863  1.00 20.00     0.007 A 
HETATM   10  C3  UNL     1     -34.037  16.003  -7.749  1.00 20.00     0.007 A 
ENDBRANCH   5   8
TORSDOF 1
ENDMDL
MODEL 4
REMARK VINA RESULT:      -4.1     17.493     18.653
REMARK  1 active torsions:
REMARK  status: ('A' for Active; 'I' for Inactive)
REMARK    1  A    between atoms: C7_7  and  C8_8 
ROOT
HETATM    1  C1  UNL     1     -23.932  18.892   7.894  1.00 20.00     0.066 C 
HETATM    2  C4  UNL     1     -22.411  18.005   9.637  1.00 20.00     0.048 C 
HETATM    3  C5  UNL     1     -22.630  17.692  11.099  1.00 20.00     0.169 C 
HETATM    4  C6  UNL     1     -23.603  18.884   9.323  1.00 20.00     0.124 C 
HETATM    5  C8  UNL     1     -24.702  18.254  10.182  1.00 20.00     0.143 C 
HETATM    6  N9  UNL     1     -24.193  18.897   6.764  1.00 20.00    -0.197 NA
HETATM    7  O10 UNL     1     -24.046  17.572  11.270  1.00 20.00    -0.384 OA
ENDROOT
BRANCH   5   8
HETATM    8  C7  UNL     1     -25.661  19.263  10.738  1.00 20.00     0.016 A 
HETATM    9  C2  UNL     1     -27.090  18.880  11.006  1.00 20.00     0.007 A 
HETATM   10  C3  UNL     1     -26.154  19.138  12.152  1.00 20.00     0.007 A 
ENDBRANCH   5   8
TORSDOF 1
ENDMDL
MODEL 5
REMARK VINA RESULT:      -4.1      1.403      1.646
REMARK  1 active torsions:
REMARK  status: ('A' for Active; 'I' for Inactive)
REMARK    1  A    between atoms: C7_7  and  C8_8 
ROOT
HETATM    1  C1  UNL     1     -36.940  14.566  -4.218  1.00 20.00     0.066 C 
HETATM    2  C4  UNL     1     -34.574  14.599  -4.952  1.00 20.00     0.048 C 
HETATM    3  C5  UNL     1     -33.337  15.206  -4.334  1.00 20.00     0.169 C 
HETATM    4  C6  UNL     1     -35.681  15.318  -4.210  1.00 20.00     0.124 C 
HETATM    5  C8  UNL     1     -35.086  15.463  -2.808  1.00 20.00     0.143 C 
HETATM    6  N9  UNL     1     -37.936  13.971  -4.223  1.00 20.00    -0.197 NA
HETATM    7  O10 UNL     1     -33.651  15.424  -2.954  1.00 20.00    -0.384 OA
ENDROOT
BRANCH   5   8
HETATM    8  C7  UNL     1     -35.480  16.742  -2.133  1.00 20.00     0.016 A 
HETATM    9  C2  UNL     1     -35.318  16.894  -0.646  1.00 20.00     0.007 A 
HETATM   10  C3  UNL     1     -34.426  17.661  -1.581  1.00 20.00     0.007 A 
ENDBRANCH   5   8
TORSDOF 1
ENDMDL
MODEL 6
REMARK VINA RESULT:      -3.9     12.027     12.776
REMARK  1 active torsions:
REMARK  status: ('A' for Active; 'I' for Inactive)
REMARK    1  A    between atoms: C7_7  and  C8_8 
ROOT
HETATM    1  C1  UNL     1     -32.790   7.131   2.187  1.00 20.00     0.066 C 
HETATM    2  C4  UNL     1     -33.037   4.682   2.462  1.00 20.00     0.048 C 
HETATM    3  C5  UNL     1     -33.881   3.855   3.403  1.00 20.00     0.169 C 
HETATM    4  C6  UNL     1     -33.064   6.041   3.128  1.00 20.00     0.124 C 
HETATM    5  C8  UNL     1     -34.484   6.092   3.697  1.00 20.00     0.143 C 
HETATM    6  N9  UNL     1     -32.573   7.994   1.442  1.00 20.00    -0.197 NA
HETATM    7  O10 UNL     1     -34.914   4.727   3.877  1.00 20.00    -0.384 OA
ENDROOT
BRANCH   5   8
HETATM    8  C7  UNL     1     -34.565   6.813   5.008  1.00 20.00     0.016 A 
HETATM    9  C2  UNL     1     -34.506   6.044   6.299  1.00 20.00     0.007 A 
HETATM   10  C3  UNL     1     -33.352   6.915   5.890  1.00 20.00     0.007 A 
ENDBRANCH   5   8
TORSDOF 1
ENDMDL
MODEL 7
REMARK VINA RESULT:      -3.9      1.413      1.417
REMARK  1 active torsions:
REMARK  status: ('A' for Active; 'I' for Inactive)
REMARK    1  A    between atoms: C7_7  and  C8_8 
ROOT
HETATM    1  C1  UNL     1     -36.023  13.893  -4.816  1.00 20.00     0.066 C 
HETATM    2  C4  UNL     1     -36.062  15.394  -6.787  1.00 20.00     0.048 C 
HETATM    3  C5  UNL     1     -35.379  16.713  -7.061  1.00 20.00     0.169 C 
HETATM    4  C6  UNL     1     -35.933  15.281  -5.282  1.00 20.00     0.124 C 
HETATM    5  C8  UNL     1     -34.558  15.903  -5.030  1.00 20.00     0.143 C 
HETATM    6  N9  UNL     1     -36.094  12.796  -4.447  1.00 20.00    -0.197 NA
HETATM    7  O10 UNL     1     -34.293  16.796  -6.132  1.00 20.00    -0.384 OA
ENDROOT
BRANCH   5   8
HETATM    8  C7  UNL     1     -34.490  16.671  -3.745  1.00 20.00     0.016 A 
HETATM    9  C2  UNL     1     -34.143  15.968  -2.462  1.00 20.00     0.007 A 
HETATM   10  C3  UNL     1     -33.163  16.922  -3.085  1.00 20.00     0.007 A 
ENDBRANCH   5   8
TORSDOF 1
ENDMDL
MODEL 8
REMARK VINA RESULT:      -3.9      3.451      5.187
REMARK  1 active torsions:
REMARK  status: ('A' for Active; 'I' for Inactive)
REMARK    1  A    between atoms: C7_7  and  C8_8 
ROOT
HETATM    1  C1  UNL     1     -32.300  18.142  -1.492  1.00 20.00     0.066 C 
HETATM    2  C4  UNL     1     -34.683  18.038  -0.823  1.00 20.00     0.048 C 
HETATM    3  C5  UNL     1     -35.815  17.143  -1.269  1.00 20.00     0.169 C 
HETATM    4  C6  UNL     1     -33.666  17.830  -1.925  1.00 20.00     0.124 C 
HETATM    5  C8  UNL     1     -33.857  16.350  -2.263  1.00 20.00     0.143 C 
HETATM    6  N9  UNL     1     -31.220  18.388  -1.149  1.00 20.00    -0.197 NA
HETATM    7  O10 UNL     1     -35.201  16.000  -1.873  1.00 20.00    -0.384 OA
ENDROOT
BRANCH   5   8
HETATM    8  C7  UNL     1     -33.672  16.053  -3.721  1.00 20.00     0.016 A 
HETATM    9  C2  UNL     1     -32.856  14.868  -4.154  1.00 20.00     0.007 A 
HETATM   10  C3  UNL     1     -34.347  14.862  -4.341  1.00 20.00     0.007 A 
ENDBRANCH   5   8
TORSDOF 1
ENDMDL
MODEL 9
REMARK VINA RESULT:      -3.8      2.458      3.076
REMARK  1 active torsions:
REMARK  status: ('A' for Active; 'I' for Inactive)
REMARK    1  A    between atoms: C7_7  and  C8_8 
ROOT
HETATM    1  C1  UNL     1     -33.741  14.234  -4.250  1.00 20.00     0.066 C 
HETATM    2  C4  UNL     1     -36.170  14.056  -4.703  1.00 20.00     0.048 C 
HETATM    3  C5  UNL     1     -37.355  14.811  -4.149  1.00 20.00     0.169 C 
HETATM    4  C6  UNL     1     -35.090  14.384  -3.694  1.00 20.00     0.124 C 
HETATM    5  C8  UNL     1     -35.423  15.831  -3.326  1.00 20.00     0.143 C 
HETATM    6  N9  UNL     1     -32.674  14.117  -4.690  1.00 20.00    -0.197 NA
HETATM    7  O10 UNL     1     -36.828  16.019  -3.591  1.00 20.00    -0.384 OA
ENDROOT
BRANCH   5   8
HETATM    8  C7  UNL     1     -35.145  16.149  -1.888  1.00 20.00     0.016 A 
HETATM    9  C2  UNL     1     -34.185  17.249  -1.528  1.00 20.00     0.007 A 
HETATM   10  C3  UNL     1     -35.657  17.425  -1.283  1.00 20.00     0.007 A 
ENDBRANCH   5   8
TORSDOF 1
ENDMDL
