MODEL 1
REMARK VINA RESULT:      -4.5      0.000      0.000
REMARK  4 active torsions:
REMARK  status: ('A' for Active; 'I' for Inactive)
REMARK    1  A    between atoms: C2_2  and  C6_6 
REMARK    2  A    between atoms: C3_3  and  C7_7 
REMARK    3  A    between atoms: C3_3  and  O9_9 
REMARK    4  A    between atoms: C6_6  and  C8_8 
ROOT
HETATM    1  C1  UNL     1     -33.152   4.915   3.098  1.00 20.00     0.045 A 
HETATM    2  C2  UNL     1     -33.516   6.223   2.446  1.00 20.00     0.023 A 
HETATM    3  C3  UNL     1     -34.112   5.852   3.787  1.00 20.00     0.062 A 
ENDROOT
BRANCH   3   4
HETATM    4  C7  UNL     1     -33.708   6.533   5.054  1.00 20.00     0.034 C 
HETATM    5  C4  UNL     1     -34.480   6.045   6.252  1.00 20.00     0.008 C 
ENDBRANCH   3   4
BRANCH   3   6
HETATM    6  O9  UNL     1     -35.496   5.463   3.762  1.00 20.00    -0.389 OA
HETATM    7  H25 UNL     1     -35.592   4.880   2.999  1.00 20.00     0.210 HD
ENDBRANCH   3   6
BRANCH   2   8
HETATM    8  C6  UNL     1     -32.496   7.298   2.296  1.00 20.00     0.007 C 
BRANCH   8   9
HETATM    9  C8  UNL     1     -32.408   7.833   0.856  1.00 20.00    -0.004 C 
HETATM   10  C5  UNL     1     -32.995   9.228   0.714  1.00 20.00     0.005 C 
ENDBRANCH   8   9
ENDBRANCH   2   8
TORSDOF 4
ENDMDL
MODEL 2
REMARK VINA RESULT:      -4.2      9.115      9.725
REMARK  4 active torsions:
REMARK  status: ('A' for Active; 'I' for Inactive)
REMARK    1  A    between atoms: C2_2  and  C6_6 
REMARK    2  A    between atoms: C3_3  and  C7_7 
REMARK    3  A    between atoms: C3_3  and  O9_9 
REMARK    4  A    between atoms: C6_6  and  C8_8 
ROOT
HETATM    1  C1  UNL     1     -41.538   5.859   0.267  1.00 20.00     0.045 A 
HETATM    2  C2  UNL     1     -41.280   6.741  -0.926  1.00 20.00     0.023 A 
HETATM    3  C3  UNL     1     -41.559   5.266  -1.119  1.00 20.00     0.062 A 
ENDROOT
BRANCH   3   4
HETATM    4  C7  UNL     1     -42.842   4.766  -1.698  1.00 20.00     0.034 C 
HETATM    5  C4  UNL     1     -42.655   3.560  -2.580  1.00 20.00     0.008 C 
ENDBRANCH   3   4
BRANCH   3   6
HETATM    6  O9  UNL     1     -40.419   4.464  -1.476  1.00 20.00    -0.389 OA
HETATM    7  H25 UNL     1     -40.312   3.827  -0.759  1.00 20.00     0.210 HD
ENDBRANCH   3   6
BRANCH   2   8
HETATM    8  C6  UNL     1     -42.262   7.795  -1.308  1.00 20.00     0.007 C 
BRANCH   8   9
HETATM    9  C8  UNL     1     -42.583   8.751  -0.147  1.00 20.00    -0.004 C 
HETATM   10  C5  UNL     1     -41.364   9.527   0.326  1.00 20.00     0.005 C 
ENDBRANCH   8   9
ENDBRANCH   2   8
TORSDOF 4
ENDMDL
MODEL 3
REMARK VINA RESULT:      -4.1     10.748     12.024
REMARK  4 active torsions:
REMARK  status: ('A' for Active; 'I' for Inactive)
REMARK    1  A    between atoms: C2_2  and  C6_6 
REMARK    2  A    between atoms: C3_3  and  C7_7 
REMARK    3  A    between atoms: C3_3  and  O9_9 
REMARK    4  A    between atoms: C6_6  and  C8_8 
ROOT
HETATM    1  C1  UNL     1     -34.991  13.734  -4.124  1.00 20.00     0.045 A 
HETATM    2  C2  UNL     1     -34.345  14.891  -3.407  1.00 20.00     0.023 A 
HETATM    3  C3  UNL     1     -34.274  14.798  -4.917  1.00 20.00     0.062 A 
ENDROOT
BRANCH   3   4
HETATM    4  C7  UNL     1     -35.049  15.712  -5.809  1.00 20.00     0.034 C 
HETATM    5  C4  UNL     1     -35.703  14.992  -6.958  1.00 20.00     0.008 C 
ENDBRANCH   3   4
BRANCH   3   6
HETATM    6  O9  UNL     1     -32.993  14.425  -5.453  1.00 20.00    -0.389 OA
HETATM    7  H25 UNL     1     -32.799  15.071  -6.144  1.00 20.00     0.210 HD
ENDBRANCH   3   6
BRANCH   2   8
HETATM    8  C6  UNL     1     -35.183  15.906  -2.709  1.00 20.00     0.007 C 
BRANCH   8   9
HETATM    9  C8  UNL     1     -34.358  16.819  -1.786  1.00 20.00    -0.004 C 
HETATM   10  C5  UNL     1     -32.999  17.167  -2.372  1.00 20.00     0.005 C 
ENDBRANCH   8   9
ENDBRANCH   2   8
TORSDOF 4
ENDMDL
MODEL 4
REMARK VINA RESULT:      -4.0     10.660     11.826
REMARK  4 active torsions:
REMARK  status: ('A' for Active; 'I' for Inactive)
REMARK    1  A    between atoms: C2_2  and  C6_6 
REMARK    2  A    between atoms: C3_3  and  C7_7 
REMARK    3  A    between atoms: C3_3  and  O9_9 
REMARK    4  A    between atoms: C6_6  and  C8_8 
ROOT
HETATM    1  C1  UNL     1     -36.325  15.101  -3.722  1.00 20.00     0.045 A 
HETATM    2  C2  UNL     1     -34.922  14.680  -3.369  1.00 20.00     0.023 A 
HETATM    3  C3  UNL     1     -35.555  14.203  -4.658  1.00 20.00     0.062 A 
ENDROOT
BRANCH   3   4
HETATM    4  C7  UNL     1     -35.124  14.712  -5.994  1.00 20.00     0.034 C 
HETATM    5  C4  UNL     1     -36.184  15.535  -6.677  1.00 20.00     0.008 C 
ENDBRANCH   3   4
BRANCH   3   6
HETATM    6  O9  UNL     1     -35.957  12.822  -4.675  1.00 20.00    -0.389 OA
HETATM    7  H25 UNL     1     -36.777  12.793  -5.183  1.00 20.00     0.210 HD
ENDBRANCH   3   6
BRANCH   2   8
HETATM    8  C6  UNL     1     -33.820  15.683  -3.345  1.00 20.00     0.007 C 
BRANCH   8   9
HETATM    9  C8  UNL     1     -33.943  16.668  -2.169  1.00 20.00    -0.004 C 
HETATM   10  C5  UNL     1     -32.745  17.598  -2.059  1.00 20.00     0.005 C 
ENDBRANCH   8   9
ENDBRANCH   2   8
TORSDOF 4
ENDMDL
MODEL 5
REMARK VINA RESULT:      -3.9     11.055     12.337
REMARK  4 active torsions:
REMARK  status: ('A' for Active; 'I' for Inactive)
REMARK    1  A    between atoms: C2_2  and  C6_6 
REMARK    2  A    between atoms: C3_3  and  C7_7 
REMARK    3  A    between atoms: C3_3  and  O9_9 
REMARK    4  A    between atoms: C6_6  and  C8_8 
ROOT
HETATM    1  C1  UNL     1     -36.572  15.194  -4.573  1.00 20.00     0.045 A 
HETATM    2  C2  UNL     1     -35.346  14.417  -4.168  1.00 20.00     0.023 A 
HETATM    3  C3  UNL     1     -35.561  14.795  -5.618  1.00 20.00     0.062 A 
ENDROOT
BRANCH   3   4
HETATM    4  C7  UNL     1     -34.740  15.840  -6.300  1.00 20.00     0.034 C 
HETATM    5  C4  UNL     1     -33.917  15.291  -7.435  1.00 20.00     0.008 C 
ENDBRANCH   3   4
BRANCH   3   6
HETATM    6  O9  UNL     1     -35.948  13.716  -6.487  1.00 20.00    -0.389 OA
HETATM    7  H25 UNL     1     -35.816  12.907  -5.976  1.00 20.00     0.210 HD
ENDBRANCH   3   6
BRANCH   2   8
HETATM    8  C6  UNL     1     -34.296  15.055  -3.325  1.00 20.00     0.007 C 
BRANCH   8   9
HETATM    9  C8  UNL     1     -34.888  15.966  -2.235  1.00 20.00    -0.004 C 
HETATM   10  C5  UNL     1     -33.936  17.079  -1.824  1.00 20.00     0.005 C 
ENDBRANCH   8   9
ENDBRANCH   2   8
TORSDOF 4
ENDMDL
MODEL 6
REMARK VINA RESULT:      -3.7      1.815      4.347
REMARK  4 active torsions:
REMARK  status: ('A' for Active; 'I' for Inactive)
REMARK    1  A    between atoms: C2_2  and  C6_6 
REMARK    2  A    between atoms: C3_3  and  C7_7 
REMARK    3  A    between atoms: C3_3  and  O9_9 
REMARK    4  A    between atoms: C6_6  and  C8_8 
ROOT
HETATM    1  C1  UNL     1     -32.660   5.591   2.315  1.00 20.00     0.045 A 
HETATM    2  C2  UNL     1     -33.373   6.050   3.560  1.00 20.00     0.023 A 
HETATM    3  C3  UNL     1     -32.638   7.051   2.695  1.00 20.00     0.062 A 
ENDROOT
BRANCH   3   4
HETATM    4  C7  UNL     1     -33.355   8.052   1.849  1.00 20.00     0.034 C 
HETATM    5  C4  UNL     1     -32.615   8.383   0.580  1.00 20.00     0.008 C 
ENDBRANCH   3   4
BRANCH   3   6
HETATM    6  O9  UNL     1     -31.398   7.541   3.234  1.00 20.00    -0.389 OA
HETATM    7  H25 UNL     1     -31.601   8.404   3.616  1.00 20.00     0.210 HD
ENDBRANCH   3   6
BRANCH   2   8
HETATM    8  C6  UNL     1     -34.861   6.001   3.635  1.00 20.00     0.007 C 
BRANCH   8   9
HETATM    9  C8  UNL     1     -35.365   5.078   4.758  1.00 20.00    -0.004 C 
HETATM   10  C5  UNL     1     -34.650   5.320   6.078  1.00 20.00     0.005 C 
ENDBRANCH   8   9
ENDBRANCH   2   8
TORSDOF 4
ENDMDL
MODEL 7
REMARK VINA RESULT:      -3.7     11.374     12.164
REMARK  4 active torsions:
REMARK  status: ('A' for Active; 'I' for Inactive)
REMARK    1  A    between atoms: C2_2  and  C6_6 
REMARK    2  A    between atoms: C3_3  and  C7_7 
REMARK    3  A    between atoms: C3_3  and  O9_9 
REMARK    4  A    between atoms: C6_6  and  C8_8 
ROOT
HETATM    1  C1  UNL     1     -33.180  18.481  -2.753  1.00 20.00     0.045 A 
HETATM    2  C2  UNL     1     -33.043  17.020  -2.413  1.00 20.00     0.023 A 
HETATM    3  C3  UNL     1     -32.666  18.075  -1.395  1.00 20.00     0.062 A 
ENDROOT
BRANCH   3   4
HETATM    4  C7  UNL     1     -33.489  18.336  -0.176  1.00 20.00     0.034 C 
HETATM    5  C4  UNL     1     -32.654  18.544   1.060  1.00 20.00     0.008 C 
ENDBRANCH   3   4
BRANCH   3   6
HETATM    6  O9  UNL     1     -31.254  18.249  -1.180  1.00 20.00    -0.389 OA
HETATM    7  H25 UNL     1     -31.015  17.626  -0.483  1.00 20.00     0.210 HD
ENDBRANCH   3   6
BRANCH   2   8
HETATM    8  C6  UNL     1     -34.255  16.165  -2.265  1.00 20.00     0.007 C 
BRANCH   8   9
HETATM    9  C8  UNL     1     -34.448  15.205  -3.452  1.00 20.00    -0.004 C 
HETATM   10  C5  UNL     1     -33.143  14.887  -4.164  1.00 20.00     0.005 C 
ENDBRANCH   8   9
ENDBRANCH   2   8
TORSDOF 4
ENDMDL
MODEL 8
REMARK VINA RESULT:      -3.6     10.735     11.840
REMARK  4 active torsions:
REMARK  status: ('A' for Active; 'I' for Inactive)
REMARK    1  A    between atoms: C2_2  and  C6_6 
REMARK    2  A    between atoms: C3_3  and  C7_7 
REMARK    3  A    between atoms: C3_3  and  O9_9 
REMARK    4  A    between atoms: C6_6  and  C8_8 
ROOT
HETATM    1  C1  UNL     1     -33.056  14.883  -4.180  1.00 20.00     0.045 A 
HETATM    2  C2  UNL     1     -33.968  14.959  -5.377  1.00 20.00     0.023 A 
HETATM    3  C3  UNL     1     -34.483  14.408  -4.065  1.00 20.00     0.062 A 
ENDROOT
BRANCH   3   4
HETATM    4  C7  UNL     1     -35.452  15.158  -3.211  1.00 20.00     0.034 C 
HETATM    5  C4  UNL     1     -34.778  15.989  -2.152  1.00 20.00     0.008 C 
ENDBRANCH   3   4
BRANCH   3   6
HETATM    6  O9  UNL     1     -34.669  12.982  -4.025  1.00 20.00    -0.389 OA
HETATM    7  H25 UNL     1     -35.320  12.783  -4.709  1.00 20.00     0.210 HD
ENDBRANCH   3   6
BRANCH   2   8
HETATM    8  C6  UNL     1     -34.398  16.283  -5.911  1.00 20.00     0.007 C 
BRANCH   8   9
HETATM    9  C8  UNL     1     -34.978  16.185  -7.333  1.00 20.00    -0.004 C 
HETATM   10  C5  UNL     1     -35.774  14.908  -7.553  1.00 20.00     0.005 C 
ENDBRANCH   8   9
ENDBRANCH   2   8
TORSDOF 4
ENDMDL
MODEL 9
REMARK VINA RESULT:      -3.6     10.871     11.753
REMARK  4 active torsions:
REMARK  status: ('A' for Active; 'I' for Inactive)
REMARK    1  A    between atoms: C2_2  and  C6_6 
REMARK    2  A    between atoms: C3_3  and  C7_7 
REMARK    3  A    between atoms: C3_3  and  O9_9 
REMARK    4  A    between atoms: C6_6  and  C8_8 
ROOT
HETATM    1  C1  UNL     1     -33.128  15.947  -3.337  1.00 20.00     0.045 A 
HETATM    2  C2  UNL     1     -34.495  16.481  -3.000  1.00 20.00     0.023 A 
HETATM    3  C3  UNL     1     -34.333  15.450  -4.096  1.00 20.00     0.062 A 
ENDROOT
BRANCH   3   4
HETATM    4  C7  UNL     1     -34.786  14.036  -3.934  1.00 20.00     0.034 C 
HETATM    5  C4  UNL     1     -36.142  13.783  -4.538  1.00 20.00     0.008 C 
ENDBRANCH   3   4
BRANCH   3   6
HETATM    6  O9  UNL     1     -34.478  15.947  -5.438  1.00 20.00    -0.389 OA
HETATM    7  H25 UNL     1     -33.582  16.120  -5.753  1.00 20.00     0.210 HD
ENDBRANCH   3   6
BRANCH   2   8
HETATM    8  C6  UNL     1     -35.126  16.159  -1.689  1.00 20.00     0.007 C 
BRANCH   8   9
HETATM    9  C8  UNL     1     -35.566  17.417  -0.921  1.00 20.00    -0.004 C 
HETATM   10  C5  UNL     1     -35.335  17.298   0.577  1.00 20.00     0.005 C 
ENDBRANCH   8   9
ENDBRANCH   2   8
TORSDOF 4
ENDMDL
