MODEL 1
REMARK VINA RESULT:      -3.4      0.000      0.000
REMARK  2 active torsions:
REMARK  status: ('A' for Active; 'I' for Inactive)
REMARK    1  A    between atoms: C4_4  and  O6_6 
REMARK    2  A    between atoms: C4_4  and  O7_7 
ROOT
HETATM    1  C1  UNL     1     -21.690  17.373   8.037  1.00 20.00     0.120 C 
HETATM    2  C4  UNL     1     -21.971  18.110   9.278  1.00 20.00     0.369 C 
HETATM    3  N5  UNL     1     -21.467  16.790   7.058  1.00 20.00    -0.192 NA
ENDROOT
BRANCH   2   4
HETATM    4  O6  UNL     1     -22.684  17.262  10.185  1.00 20.00    -0.354 OA
HETATM    5  C2  UNL     1     -22.562  17.680  11.539  1.00 20.00     0.206 C 
ENDBRANCH   2   4
BRANCH   2   6
HETATM    6  O7  UNL     1     -22.751  19.262   8.938  1.00 20.00    -0.354 OA
HETATM    7  C3  UNL     1     -24.025  18.915   8.411  1.00 20.00     0.206 C 
ENDBRANCH   2   6
TORSDOF 2
ENDMDL
MODEL 2
REMARK VINA RESULT:      -3.3     18.123     19.121
REMARK  2 active torsions:
REMARK  status: ('A' for Active; 'I' for Inactive)
REMARK    1  A    between atoms: C4_4  and  O6_6 
REMARK    2  A    between atoms: C4_4  and  O7_7 
ROOT
HETATM    1  C1  UNL     1     -36.529  14.289  -4.456  1.00 20.00     0.120 C 
HETATM    2  C4  UNL     1     -35.211  14.940  -4.478  1.00 20.00     0.369 C 
HETATM    3  N5  UNL     1     -37.569  13.775  -4.440  1.00 20.00    -0.192 NA
ENDROOT
BRANCH   2   4
HETATM    4  O6  UNL     1     -34.367  14.277  -5.426  1.00 20.00    -0.354 OA
HETATM    5  C2  UNL     1     -34.144  15.051  -6.599  1.00 20.00     0.206 C 
ENDBRANCH   2   4
BRANCH   2   6
HETATM    6  O7  UNL     1     -34.658  14.857  -3.159  1.00 20.00    -0.354 OA
HETATM    7  C3  UNL     1     -33.864  15.991  -2.834  1.00 20.00     0.206 C 
ENDBRANCH   2   6
TORSDOF 2
ENDMDL
MODEL 3
REMARK VINA RESULT:      -3.3     17.937     18.841
REMARK  2 active torsions:
REMARK  status: ('A' for Active; 'I' for Inactive)
REMARK    1  A    between atoms: C4_4  and  O6_6 
REMARK    2  A    between atoms: C4_4  and  O7_7 
ROOT
HETATM    1  C1  UNL     1     -36.160  13.998  -4.282  1.00 20.00     0.120 C 
HETATM    2  C4  UNL     1     -34.757  14.323  -3.986  1.00 20.00     0.369 C 
HETATM    3  N5  UNL     1     -37.268  13.741  -4.513  1.00 20.00    -0.192 NA
ENDROOT
BRANCH   2   4
HETATM    4  O6  UNL     1     -34.656  15.701  -3.609  1.00 20.00    -0.354 OA
HETATM    5  C2  UNL     1     -34.997  15.924  -2.246  1.00 20.00     0.206 C 
ENDBRANCH   2   4
BRANCH   2   6
HETATM    6  O7  UNL     1     -33.987  14.061  -5.165  1.00 20.00    -0.354 OA
HETATM    7  C3  UNL     1     -34.160  15.064  -6.157  1.00 20.00     0.206 C 
ENDBRANCH   2   6
TORSDOF 2
ENDMDL
MODEL 4
REMARK VINA RESULT:      -3.3      1.617      2.952
REMARK  2 active torsions:
REMARK  status: ('A' for Active; 'I' for Inactive)
REMARK    1  A    between atoms: C4_4  and  O6_6 
REMARK    2  A    between atoms: C4_4  and  O7_7 
ROOT
HETATM    1  C1  UNL     1     -22.836  16.848   9.368  1.00 20.00     0.120 C 
HETATM    2  C4  UNL     1     -23.867  17.059  10.395  1.00 20.00     0.369 C 
HETATM    3  N5  UNL     1     -22.024  16.681   8.556  1.00 20.00    -0.192 NA
ENDROOT
BRANCH   2   4
HETATM    4  O6  UNL     1     -24.240  18.441  10.420  1.00 20.00    -0.354 OA
HETATM    5  C2  UNL     1     -24.889  18.858   9.225  1.00 20.00     0.206 C 
ENDBRANCH   2   4
BRANCH   2   6
HETATM    6  O7  UNL     1     -23.320  16.656  11.656  1.00 20.00    -0.354 OA
HETATM    7  C3  UNL     1     -22.629  17.714  12.307  1.00 20.00     0.206 C 
ENDBRANCH   2   6
TORSDOF 2
ENDMDL
MODEL 5
REMARK VINA RESULT:      -3.2      1.625      1.680
REMARK  2 active torsions:
REMARK  status: ('A' for Active; 'I' for Inactive)
REMARK    1  A    between atoms: C4_4  and  O6_6 
REMARK    2  A    between atoms: C4_4  and  O7_7 
ROOT
HETATM    1  C1  UNL     1     -22.487  16.984   8.849  1.00 20.00     0.120 C 
HETATM    2  C4  UNL     1     -23.101  17.150  10.175  1.00 20.00     0.369 C 
HETATM    3  N5  UNL     1     -22.001  16.852   7.803  1.00 20.00    -0.192 NA
ENDROOT
BRANCH   2   4
HETATM    4  O6  UNL     1     -24.208  16.251  10.303  1.00 20.00    -0.354 OA
HETATM    5  C2  UNL     1     -24.486  15.910  11.656  1.00 20.00     0.206 C 
ENDBRANCH   2   4
BRANCH   2   6
HETATM    6  O7  UNL     1     -23.534  18.511  10.292  1.00 20.00    -0.354 OA
HETATM    7  C3  UNL     1     -24.578  18.826   9.379  1.00 20.00     0.206 C 
ENDBRANCH   2   6
TORSDOF 2
ENDMDL
MODEL 6
REMARK VINA RESULT:      -3.2     16.645     17.179
REMARK  2 active torsions:
REMARK  status: ('A' for Active; 'I' for Inactive)
REMARK    1  A    between atoms: C4_4  and  O6_6 
REMARK    2  A    between atoms: C4_4  and  O7_7 
ROOT
HETATM    1  C1  UNL     1     -34.266   5.175   3.956  1.00 20.00     0.120 C 
HETATM    2  C4  UNL     1     -33.686   6.498   3.676  1.00 20.00     0.369 C 
HETATM    3  N5  UNL     1     -34.724   4.132   4.175  1.00 20.00    -0.192 NA
ENDROOT
BRANCH   2   4
HETATM    4  O6  UNL     1     -32.679   6.373   2.666  1.00 20.00    -0.354 OA
HETATM    5  C2  UNL     1     -32.507   7.566   1.910  1.00 20.00     0.206 C 
ENDBRANCH   2   4
BRANCH   2   6
HETATM    6  O7  UNL     1     -33.125   6.999   4.896  1.00 20.00    -0.354 OA
HETATM    7  C3  UNL     1     -34.006   6.839   6.000  1.00 20.00     0.206 C 
ENDBRANCH   2   6
TORSDOF 2
ENDMDL
MODEL 7
REMARK VINA RESULT:      -3.2     20.107     20.613
REMARK  2 active torsions:
REMARK  status: ('A' for Active; 'I' for Inactive)
REMARK    1  A    between atoms: C4_4  and  O6_6 
REMARK    2  A    between atoms: C4_4  and  O7_7 
ROOT
HETATM    1  C1  UNL     1     -36.143  13.651  -4.400  1.00 20.00     0.120 C 
HETATM    2  C4  UNL     1     -37.201  14.652  -4.610  1.00 20.00     0.369 C 
HETATM    3  N5  UNL     1     -35.310  12.862  -4.233  1.00 20.00    -0.192 NA
ENDROOT
BRANCH   2   4
HETATM    4  O6  UNL     1     -38.479  14.053  -4.370  1.00 20.00    -0.354 OA
HETATM    5  C2  UNL     1     -39.524  15.011  -4.262  1.00 20.00     0.206 C 
ENDBRANCH   2   4
BRANCH   2   6
HETATM    6  O7  UNL     1     -37.102  15.119  -5.961  1.00 20.00    -0.354 OA
HETATM    7  C3  UNL     1     -36.052  16.062  -6.130  1.00 20.00     0.206 C 
ENDBRANCH   2   6
TORSDOF 2
ENDMDL
MODEL 8
REMARK VINA RESULT:      -3.2     19.134     20.063
REMARK  2 active torsions:
REMARK  status: ('A' for Active; 'I' for Inactive)
REMARK    1  A    between atoms: C4_4  and  O6_6 
REMARK    2  A    between atoms: C4_4  and  O7_7 
ROOT
HETATM    1  C1  UNL     1     -36.111  14.322  -5.792  1.00 20.00     0.120 C 
HETATM    2  C4  UNL     1     -36.480  13.938  -4.421  1.00 20.00     0.369 C 
HETATM    3  N5  UNL     1     -35.820  14.624  -6.874  1.00 20.00    -0.192 NA
ENDROOT
BRANCH   2   4
HETATM    4  O6  UNL     1     -37.893  13.720  -4.350  1.00 20.00    -0.354 OA
HETATM    5  C2  UNL     1     -38.632  14.931  -4.239  1.00 20.00     0.206 C 
ENDBRANCH   2   4
BRANCH   2   6
HETATM    6  O7  UNL     1     -36.084  15.001  -3.545  1.00 20.00    -0.354 OA
HETATM    7  C3  UNL     1     -34.674  15.058  -3.370  1.00 20.00     0.206 C 
ENDBRANCH   2   6
TORSDOF 2
ENDMDL
MODEL 9
REMARK VINA RESULT:      -3.1     19.305     20.136
REMARK  2 active torsions:
REMARK  status: ('A' for Active; 'I' for Inactive)
REMARK    1  A    between atoms: C4_4  and  O6_6 
REMARK    2  A    between atoms: C4_4  and  O7_7 
ROOT
HETATM    1  C1  UNL     1     -35.632  14.649  -3.880  1.00 20.00     0.120 C 
HETATM    2  C4  UNL     1     -36.395  13.904  -4.893  1.00 20.00     0.369 C 
HETATM    3  N5  UNL     1     -35.029  15.236  -3.081  1.00 20.00    -0.192 NA
ENDROOT
BRANCH   2   4
HETATM    4  O6  UNL     1     -36.462  14.672  -6.099  1.00 20.00    -0.354 OA
HETATM    5  C2  UNL     1     -35.184  14.891  -6.684  1.00 20.00     0.206 C 
ENDBRANCH   2   4
BRANCH   2   6
HETATM    6  O7  UNL     1     -37.706  13.664  -4.368  1.00 20.00    -0.354 OA
HETATM    7  C3  UNL     1     -38.473  14.857  -4.265  1.00 20.00     0.206 C 
ENDBRANCH   2   6
TORSDOF 2
ENDMDL
