MODEL 1
REMARK VINA RESULT:      -6.0      0.000      0.000
REMARK  1 active torsions:
REMARK  status: ('A' for Active; 'I' for Inactive)
REMARK    1  A    between atoms: C3_3  and  C6_6 
ROOT
HETATM    1  C1  UNL     1     -32.508   8.052   1.539  1.00 20.00    -0.154 C 
HETATM    2  C5  UNL     1     -32.907   8.764   0.530  1.00 20.00     0.096 C 
HETATM    3  C6  UNL     1     -32.102   7.341   2.548  1.00 20.00     0.058 C 
ENDROOT
BRANCH   3   4
HETATM    4  C3  UNL     1     -33.017   6.653   3.412  1.00 20.00    -0.041 A 
HETATM    5  C2  UNL     1     -33.579   5.459   3.182  1.00 20.00    -0.009 A 
HETATM    6  C4  UNL     1     -34.432   5.194   4.359  1.00 20.00     0.156 A 
HETATM    7  C9  UNL     1     -33.475   4.502   2.055  1.00 20.00     0.052 C 
HETATM    8  C8  UNL     1     -34.370   6.311   5.359  1.00 20.00     0.088 A 
HETATM    9  O10 UNL     1     -35.104   4.182   4.494  1.00 20.00    -0.293 OA
HETATM   10  C7  UNL     1     -33.408   7.296   4.709  1.00 20.00     0.047 A 
ENDBRANCH   3   4
TORSDOF 1
ENDMDL
MODEL 2
REMARK VINA RESULT:      -6.0      0.796      2.092
REMARK  1 active torsions:
REMARK  status: ('A' for Active; 'I' for Inactive)
REMARK    1  A    between atoms: C3_3  and  C6_6 
ROOT
HETATM    1  C1  UNL     1     -32.571   7.880   1.634  1.00 20.00    -0.154 C 
HETATM    2  C5  UNL     1     -32.915   8.548   0.575  1.00 20.00     0.096 C 
HETATM    3  C6  UNL     1     -32.220   7.216   2.693  1.00 20.00     0.058 C 
ENDROOT
BRANCH   3   4
HETATM    4  C3  UNL     1     -33.106   6.294   3.343  1.00 20.00    -0.041 A 
HETATM    5  C2  UNL     1     -33.647   6.437   4.559  1.00 20.00    -0.009 A 
HETATM    6  C4  UNL     1     -34.475   5.230   4.765  1.00 20.00     0.156 A 
HETATM    7  C9  UNL     1     -33.539   7.500   5.586  1.00 20.00     0.052 C 
HETATM    8  C8  UNL     1     -34.420   4.305   3.585  1.00 20.00     0.088 A 
HETATM    9  O10 UNL     1     -35.124   5.019   5.779  1.00 20.00    -0.293 OA
HETATM   10  C7  UNL     1     -33.490   5.034   2.625  1.00 20.00     0.047 A 
ENDBRANCH   3   4
TORSDOF 1
ENDMDL
MODEL 3
REMARK VINA RESULT:      -4.5     15.755     16.728
REMARK  1 active torsions:
REMARK  status: ('A' for Active; 'I' for Inactive)
REMARK    1  A    between atoms: C3_3  and  C6_6 
ROOT
HETATM    1  C1  UNL     1     -25.588  19.261   7.500  1.00 20.00    -0.154 C 
HETATM    2  C5  UNL     1     -25.616  19.263   6.203  1.00 20.00     0.096 C 
HETATM    3  C6  UNL     1     -25.567  19.263   8.799  1.00 20.00     0.058 C 
ENDROOT
BRANCH   3   4
HETATM    4  C3  UNL     1     -24.486  18.686   9.544  1.00 20.00    -0.041 A 
HETATM    5  C2  UNL     1     -24.527  18.289  10.822  1.00 20.00    -0.009 A 
HETATM    6  C4  UNL     1     -23.174  17.773  11.116  1.00 20.00     0.156 A 
HETATM    7  C9  UNL     1     -25.602  18.298  11.841  1.00 20.00     0.052 C 
HETATM    8  C8  UNL     1     -22.265  17.872   9.926  1.00 20.00     0.088 A 
HETATM    9  O10 UNL     1     -22.842  17.320  12.202  1.00 20.00    -0.293 OA
HETATM   10  C7  UNL     1     -23.163  18.492   8.864  1.00 20.00     0.047 A 
ENDBRANCH   3   4
TORSDOF 1
ENDMDL
MODEL 4
REMARK VINA RESULT:      -4.5     11.122     11.601
REMARK  1 active torsions:
REMARK  status: ('A' for Active; 'I' for Inactive)
REMARK    1  A    between atoms: C3_3  and  C6_6 
ROOT
HETATM    1  C1  UNL     1     -33.295  17.532  -1.543  1.00 20.00    -0.154 C 
HETATM    2  C5  UNL     1     -33.471  18.265  -0.486  1.00 20.00     0.096 C 
HETATM    3  C6  UNL     1     -33.113  16.802  -2.601  1.00 20.00     0.058 C 
ENDROOT
BRANCH   3   4
HETATM    4  C3  UNL     1     -34.138  15.945  -3.122  1.00 20.00    -0.041 A 
HETATM    5  C2  UNL     1     -33.955  14.873  -3.905  1.00 20.00    -0.009 A 
HETATM    6  C4  UNL     1     -35.308  14.341  -4.164  1.00 20.00     0.156 A 
HETATM    7  C9  UNL     1     -32.740  14.240  -4.469  1.00 20.00     0.052 C 
HETATM    8  C8  UNL     1     -36.370  15.155  -3.486  1.00 20.00     0.088 A 
HETATM    9  O10 UNL     1     -35.528  13.354  -4.851  1.00 20.00    -0.293 OA
HETATM   10  C7  UNL     1     -35.569  16.241  -2.781  1.00 20.00     0.047 A 
ENDBRANCH   3   4
TORSDOF 1
ENDMDL
MODEL 5
REMARK VINA RESULT:      -4.5     11.270     12.085
REMARK  1 active torsions:
REMARK  status: ('A' for Active; 'I' for Inactive)
REMARK    1  A    between atoms: C3_3  and  C6_6 
ROOT
HETATM    1  C1  UNL     1     -33.718  15.365  -3.605  1.00 20.00    -0.154 C 
HETATM    2  C5  UNL     1     -34.180  14.275  -4.138  1.00 20.00     0.096 C 
HETATM    3  C6  UNL     1     -33.251  16.456  -3.077  1.00 20.00     0.058 C 
ENDROOT
BRANCH   3   4
HETATM    4  C3  UNL     1     -33.777  16.999  -1.858  1.00 20.00    -0.041 A 
HETATM    5  C2  UNL     1     -33.155  17.854  -1.037  1.00 20.00    -0.009 A 
HETATM    6  C4  UNL     1     -34.108  18.105   0.064  1.00 20.00     0.156 A 
HETATM    7  C9  UNL     1     -31.819  18.493  -1.080  1.00 20.00     0.052 C 
HETATM    8  C8  UNL     1     -35.388  17.343  -0.119  1.00 20.00     0.088 A 
HETATM    9  O10 UNL     1     -33.874  18.846   1.007  1.00 20.00    -0.293 OA
HETATM   10  C7  UNL     1     -35.156  16.596  -1.425  1.00 20.00     0.047 A 
ENDBRANCH   3   4
TORSDOF 1
ENDMDL
MODEL 6
REMARK VINA RESULT:      -4.5     11.425     12.037
REMARK  1 active torsions:
REMARK  status: ('A' for Active; 'I' for Inactive)
REMARK    1  A    between atoms: C3_3  and  C6_6 
ROOT
HETATM    1  C1  UNL     1     -34.316  16.827  -1.702  1.00 20.00    -0.154 C 
HETATM    2  C5  UNL     1     -33.557  17.772  -1.237  1.00 20.00     0.096 C 
HETATM    3  C6  UNL     1     -35.080  15.882  -2.161  1.00 20.00     0.058 C 
ENDROOT
BRANCH   3   4
HETATM    4  C3  UNL     1     -34.937  15.366  -3.491  1.00 20.00    -0.041 A 
HETATM    5  C2  UNL     1     -35.922  14.902  -4.272  1.00 20.00    -0.009 A 
HETATM    6  C4  UNL     1     -35.265  14.492  -5.530  1.00 20.00     0.156 A 
HETATM    7  C9  UNL     1     -37.383  14.763  -4.066  1.00 20.00     0.052 C 
HETATM    8  C8  UNL     1     -33.784  14.730  -5.493  1.00 20.00     0.088 A 
HETATM    9  O10 UNL     1     -35.864  14.016  -6.483  1.00 20.00    -0.293 OA
HETATM   10  C7  UNL     1     -33.570  15.324  -4.107  1.00 20.00     0.047 A 
ENDBRANCH   3   4
TORSDOF 1
ENDMDL
MODEL 7
REMARK VINA RESULT:      -4.4     15.924     16.900
REMARK  1 active torsions:
REMARK  status: ('A' for Active; 'I' for Inactive)
REMARK    1  A    between atoms: C3_3  and  C6_6 
ROOT
HETATM    1  C1  UNL     1     -24.187  16.792  11.838  1.00 20.00    -0.154 C 
HETATM    2  C5  UNL     1     -24.952  15.866  12.331  1.00 20.00     0.096 C 
HETATM    3  C6  UNL     1     -23.420  17.720  11.351  1.00 20.00     0.058 C 
ENDROOT
BRANCH   3   4
HETATM    4  C3  UNL     1     -23.197  17.863   9.942  1.00 20.00    -0.041 A 
HETATM    5  C2  UNL     1     -23.988  18.507   9.074  1.00 20.00    -0.009 A 
HETATM    6  C4  UNL     1     -23.326  18.368   7.761  1.00 20.00     0.156 A 
HETATM    7  C9  UNL     1     -25.266  19.240   9.237  1.00 20.00     0.052 C 
HETATM    8  C8  UNL     1     -22.050  17.584   7.856  1.00 20.00     0.088 A 
HETATM    9  O10 UNL     1     -23.772  18.838   6.724  1.00 20.00    -0.293 OA
HETATM   10  C7  UNL     1     -21.969  17.245   9.339  1.00 20.00     0.047 A 
ENDBRANCH   3   4
TORSDOF 1
ENDMDL
MODEL 8
REMARK VINA RESULT:      -4.4     11.352     12.170
REMARK  1 active torsions:
REMARK  status: ('A' for Active; 'I' for Inactive)
REMARK    1  A    between atoms: C3_3  and  C6_6 
ROOT
HETATM    1  C1  UNL     1     -34.591  15.148  -3.273  1.00 20.00    -0.154 C 
HETATM    2  C5  UNL     1     -34.141  14.361  -4.202  1.00 20.00     0.096 C 
HETATM    3  C6  UNL     1     -35.047  15.932  -2.344  1.00 20.00     0.058 C 
ENDROOT
BRANCH   3   4
HETATM    4  C3  UNL     1     -34.213  16.887  -1.675  1.00 20.00    -0.041 A 
HETATM    5  C2  UNL     1     -34.469  17.480  -0.501  1.00 20.00    -0.009 A 
HETATM    6  C4  UNL     1     -33.315  18.367  -0.250  1.00 20.00     0.156 A 
HETATM    7  C9  UNL     1     -35.603  17.377   0.447  1.00 20.00     0.052 C 
HETATM    8  C8  UNL     1     -32.301  18.295  -1.354  1.00 20.00     0.088 A 
HETATM    9  O10 UNL     1     -33.206  19.073   0.742  1.00 20.00    -0.293 OA
HETATM   10  C7  UNL     1     -32.917  17.289  -2.316  1.00 20.00     0.047 A 
ENDBRANCH   3   4
TORSDOF 1
ENDMDL
MODEL 9
REMARK VINA RESULT:      -4.4     10.760     11.739
REMARK  1 active torsions:
REMARK  status: ('A' for Active; 'I' for Inactive)
REMARK    1  A    between atoms: C3_3  and  C6_6 
ROOT
HETATM    1  C1  UNL     1     -34.221  16.901  -1.894  1.00 20.00    -0.154 C 
HETATM    2  C5  UNL     1     -34.362  17.476  -0.739  1.00 20.00     0.096 C 
HETATM    3  C6  UNL     1     -34.073  16.329  -3.050  1.00 20.00     0.058 C 
ENDROOT
BRANCH   3   4
HETATM    4  C3  UNL     1     -35.000  15.351  -3.541  1.00 20.00    -0.041 A 
HETATM    5  C2  UNL     1     -36.318  15.523  -3.713  1.00 20.00    -0.009 A 
HETATM    6  C4  UNL     1     -36.817  14.234  -4.234  1.00 20.00     0.156 A 
HETATM    7  C9  UNL     1     -37.217  16.678  -3.480  1.00 20.00     0.052 C 
HETATM    8  C8  UNL     1     -35.716  13.225  -4.381  1.00 20.00     0.088 A 
HETATM    9  O10 UNL     1     -37.989  14.023  -4.509  1.00 20.00    -0.293 OA
HETATM   10  C7  UNL     1     -34.488  13.991  -3.910  1.00 20.00     0.047 A 
ENDBRANCH   3   4
TORSDOF 1
ENDMDL
