MODEL 1
REMARK VINA RESULT:      -4.1      0.000      0.000
REMARK  1 active torsions:
REMARK  status: ('A' for Active; 'I' for Inactive)
REMARK    1  A    between atoms: C1_1  and  C6_6 
ROOT
HETATM    1  C1  UNL     1     -22.458  17.932  10.265  1.00 20.00     0.149 C 
HETATM    2  C2  UNL     1     -23.176  17.849  12.332  1.00 20.00     0.209 C 
HETATM    3  C3  UNL     1     -24.294  17.508  11.352  1.00 20.00     0.070 C 
HETATM    4  C4  UNL     1     -24.647  16.018  11.384  1.00 20.00     0.042 C 
HETATM    5  C5  UNL     1     -25.540  18.357  11.585  1.00 20.00     0.042 C 
HETATM    6  N7  UNL     1     -23.726  17.821  10.027  1.00 20.00    -0.257 NA
HETATM    7  O8  UNL     1     -22.000  17.834  11.533  1.00 20.00    -0.335 OA
ENDROOT
BRANCH   1   8
HETATM    8  C6  UNL     1     -21.413  18.173   9.239  1.00 20.00     0.200 C 
HETATM    9 CL9  UNL     1     -21.933  17.366   7.755  1.00 20.00    -0.122 Cl
ENDBRANCH   1   8
TORSDOF 1
ENDMDL
MODEL 2
REMARK VINA RESULT:      -4.0     16.336     17.345
REMARK  1 active torsions:
REMARK  status: ('A' for Active; 'I' for Inactive)
REMARK    1  A    between atoms: C1_1  and  C6_6 
ROOT
HETATM    1  C1  UNL     1     -33.066   6.386   3.181  1.00 20.00     0.149 C 
HETATM    2  C2  UNL     1     -33.945   4.408   3.512  1.00 20.00     0.209 C 
HETATM    3  C3  UNL     1     -34.646   5.465   4.360  1.00 20.00     0.070 C 
HETATM    4  C4  UNL     1     -36.051   5.777   3.836  1.00 20.00     0.042 C 
HETATM    5  C5  UNL     1     -34.699   5.076   5.834  1.00 20.00     0.042 C 
HETATM    6  N7  UNL     1     -33.813   6.673   4.200  1.00 20.00    -0.257 NA
HETATM    7  O8  UNL     1     -33.144   5.162   2.612  1.00 20.00    -0.335 OA
ENDROOT
BRANCH   1   8
HETATM    8  C6  UNL     1     -32.086   7.307   2.553  1.00 20.00     0.200 C 
HETATM    9 CL9  UNL     1     -32.880   8.055   1.162  1.00 20.00    -0.122 Cl
ENDBRANCH   1   8
TORSDOF 1
ENDMDL
MODEL 3
REMARK VINA RESULT:      -4.0      2.149      2.593
REMARK  1 active torsions:
REMARK  status: ('A' for Active; 'I' for Inactive)
REMARK    1  A    between atoms: C1_1  and  C6_6 
ROOT
HETATM    1  C1  UNL     1     -24.195  18.141   9.368  1.00 20.00     0.149 C 
HETATM    2  C2  UNL     1     -25.221  18.154  11.301  1.00 20.00     0.209 C 
HETATM    3  C3  UNL     1     -24.096  17.124  11.289  1.00 20.00     0.070 C 
HETATM    4  C4  UNL     1     -22.907  17.568  12.146  1.00 20.00     0.042 C 
HETATM    5  C5  UNL     1     -24.578  15.742  11.717  1.00 20.00     0.042 C 
HETATM    6  N7  UNL     1     -23.659  17.079   9.880  1.00 20.00    -0.257 NA
HETATM    7  O8  UNL     1     -25.006  18.917  10.121  1.00 20.00    -0.335 OA
ENDROOT
BRANCH   1   8
HETATM    8  C6  UNL     1     -24.002  18.608   7.972  1.00 20.00     0.200 C 
HETATM    9 CL9  UNL     1     -25.604  18.894   7.284  1.00 20.00    -0.122 Cl
ENDBRANCH   1   8
TORSDOF 1
ENDMDL
MODEL 4
REMARK VINA RESULT:      -3.9      2.968      4.006
REMARK  1 active torsions:
REMARK  status: ('A' for Active; 'I' for Inactive)
REMARK    1  A    between atoms: C1_1  and  C6_6 
ROOT
HETATM    1  C1  UNL     1     -25.445  18.065  11.596  1.00 20.00     0.149 C 
HETATM    2  C2  UNL     1     -24.334  16.178  11.587  1.00 20.00     0.209 C 
HETATM    3  C3  UNL     1     -23.477  17.317  11.044  1.00 20.00     0.070 C 
HETATM    4  C4  UNL     1     -22.378  17.725  12.029  1.00 20.00     0.042 C 
HETATM    5  C5  UNL     1     -22.878  16.985   9.681  1.00 20.00     0.042 C 
HETATM    6  N7  UNL     1     -24.417  18.447  10.906  1.00 20.00    -0.257 NA
HETATM    7  O8  UNL     1     -25.463  16.833  12.152  1.00 20.00    -0.335 OA
ENDROOT
BRANCH   1   8
HETATM    8  C6  UNL     1     -26.660  18.880  11.843  1.00 20.00     0.200 C 
HETATM    9 CL9  UNL     1     -27.949  17.774  12.332  1.00 20.00    -0.122 Cl
ENDBRANCH   1   8
TORSDOF 1
ENDMDL
MODEL 5
REMARK VINA RESULT:      -3.5     24.024     24.780
REMARK  1 active torsions:
REMARK  status: ('A' for Active; 'I' for Inactive)
REMARK    1  A    between atoms: C1_1  and  C6_6 
ROOT
HETATM    1  C1  UNL     1     -42.727   7.441  -0.069  1.00 20.00     0.149 C 
HETATM    2  C2  UNL     1     -42.632   5.399   0.717  1.00 20.00     0.209 C 
HETATM    3  C3  UNL     1     -42.404   5.414  -0.792  1.00 20.00     0.070 C 
HETATM    4  C4  UNL     1     -40.943   5.127  -1.151  1.00 20.00     0.042 C 
HETATM    5  C5  UNL     1     -43.334   4.450  -1.522  1.00 20.00     0.042 C 
HETATM    6  N7  UNL     1     -42.716   6.799  -1.194  1.00 20.00    -0.257 NA
HETATM    7  O8  UNL     1     -42.556   6.769   1.091  1.00 20.00    -0.335 OA
ENDROOT
BRANCH   1   8
HETATM    8  C6  UNL     1     -42.923   8.904   0.079  1.00 20.00     0.200 C 
HETATM    9 CL9  UNL     1     -41.332   9.626   0.348  1.00 20.00    -0.122 Cl
ENDBRANCH   1   8
TORSDOF 1
ENDMDL
MODEL 6
REMARK VINA RESULT:      -3.5     18.955     19.267
REMARK  1 active torsions:
REMARK  status: ('A' for Active; 'I' for Inactive)
REMARK    1  A    between atoms: C1_1  and  C6_6 
ROOT
HETATM    1  C1  UNL     1     -34.303  15.603  -5.916  1.00 20.00     0.149 C 
HETATM    2  C2  UNL     1     -33.177  14.540  -4.368  1.00 20.00     0.209 C 
HETATM    3  C3  UNL     1     -33.927  15.729  -3.776  1.00 20.00     0.070 C 
HETATM    4  C4  UNL     1     -35.121  15.283  -2.926  1.00 20.00     0.042 C 
HETATM    5  C5  UNL     1     -33.010  16.644  -2.972  1.00 20.00     0.042 C 
HETATM    6  N7  UNL     1     -34.442  16.457  -4.952  1.00 20.00    -0.257 NA
HETATM    7  O8  UNL     1     -33.712  14.411  -5.679  1.00 20.00    -0.335 OA
ENDROOT
BRANCH   1   8
HETATM    8  C6  UNL     1     -34.744  15.816  -7.317  1.00 20.00     0.200 C 
HETATM    9 CL9  UNL     1     -33.934  17.270  -7.911  1.00 20.00    -0.122 Cl
ENDBRANCH   1   8
TORSDOF 1
ENDMDL
MODEL 7
REMARK VINA RESULT:      -3.5     23.560     24.424
REMARK  1 active torsions:
REMARK  status: ('A' for Active; 'I' for Inactive)
REMARK    1  A    between atoms: C1_1  and  C6_6 
ROOT
HETATM    1  C1  UNL     1     -41.534   6.166  -0.670  1.00 20.00     0.149 C 
HETATM    2  C2  UNL     1     -42.507   7.234   0.975  1.00 20.00     0.209 C 
HETATM    3  C3  UNL     1     -42.166   8.186  -0.166  1.00 20.00     0.070 C 
HETATM    4  C4  UNL     1     -43.417   8.634  -0.928  1.00 20.00     0.042 C 
HETATM    5  C5  UNL     1     -41.369   9.395   0.313  1.00 20.00     0.042 C 
HETATM    6  N7  UNL     1     -41.333   7.378  -1.079  1.00 20.00    -0.257 NA
HETATM    7  O8  UNL     1     -42.299   5.941   0.422  1.00 20.00    -0.335 OA
ENDROOT
BRANCH   1   8
HETATM    8  C6  UNL     1     -40.977   4.945  -1.305  1.00 20.00     0.200 C 
HETATM    9 CL9  UNL     1     -42.294   4.157  -2.181  1.00 20.00    -0.122 Cl
ENDBRANCH   1   8
TORSDOF 1
ENDMDL
MODEL 8
REMARK VINA RESULT:      -3.5     20.214     20.759
REMARK  1 active torsions:
REMARK  status: ('A' for Active; 'I' for Inactive)
REMARK    1  A    between atoms: C1_1  and  C6_6 
ROOT
HETATM    1  C1  UNL     1     -37.914  14.931  -4.336  1.00 20.00     0.149 C 
HETATM    2  C2  UNL     1     -36.167  13.693  -4.795  1.00 20.00     0.209 C 
HETATM    3  C3  UNL     1     -35.748  15.116  -4.440  1.00 20.00     0.070 C 
HETATM    4  C4  UNL     1     -35.082  15.188  -3.062  1.00 20.00     0.042 C 
HETATM    5  C5  UNL     1     -34.845  15.732  -5.503  1.00 20.00     0.042 C 
HETATM    6  N7  UNL     1     -37.018  15.866  -4.379  1.00 20.00    -0.257 NA
HETATM    7  O8  UNL     1     -37.540  13.635  -4.431  1.00 20.00    -0.335 OA
ENDROOT
BRANCH   1   8
HETATM    8  C6  UNL     1     -39.374  15.151  -4.193  1.00 20.00     0.200 C 
HETATM    9 CL9  UNL     1     -39.596  16.638  -3.263  1.00 20.00    -0.122 Cl
ENDBRANCH   1   8
TORSDOF 1
ENDMDL
MODEL 9
REMARK VINA RESULT:      -3.4      2.604      3.740
REMARK  1 active torsions:
REMARK  status: ('A' for Active; 'I' for Inactive)
REMARK    1  A    between atoms: C1_1  and  C6_6 
ROOT
HETATM    1  C1  UNL     1     -24.205  17.688  11.034  1.00 20.00     0.149 C 
HETATM    2  C2  UNL     1     -23.344  16.564   9.365  1.00 20.00     0.209 C 
HETATM    3  C3  UNL     1     -23.184  18.065   9.151  1.00 20.00     0.070 C 
HETATM    4  C4  UNL     1     -21.731  18.516   9.331  1.00 20.00     0.042 C 
HETATM    5  C5  UNL     1     -23.718  18.512   7.793  1.00 20.00     0.042 C 
HETATM    6  N7  UNL     1     -23.994  18.675  10.223  1.00 20.00    -0.257 NA
HETATM    7  O8  UNL     1     -23.765  16.450  10.718  1.00 20.00    -0.335 OA
ENDROOT
BRANCH   1   8
HETATM    8  C6  UNL     1     -24.920  17.785  12.332  1.00 20.00     0.200 C 
HETATM    9 CL9  UNL     1     -26.229  18.955  12.128  1.00 20.00    -0.122 Cl
ENDBRANCH   1   8
TORSDOF 1
ENDMDL
