MODEL 1
REMARK VINA RESULT:      -3.9      0.000      0.000
REMARK  2 active torsions:
REMARK  status: ('A' for Active; 'I' for Inactive)
REMARK    1  A    between atoms: C6_6  and  C7_7 
REMARK    2  A    between atoms: C7_7  and  N8_8 
ROOT
HETATM    1  C7  UNL     1     -34.157  15.079  -4.127  1.00 20.00     0.443 C 
HETATM    2  F9  UNL     1     -32.821  14.852  -4.311  1.00 20.00    -0.172 F 
HETATM    3  F10 UNL     1     -34.608  13.988  -3.442  1.00 20.00    -0.172 F 
ENDROOT
BRANCH   1   4
HETATM    4  C6  UNL     1     -34.295  16.338  -3.225  1.00 20.00     0.046 C 
HETATM    5  C1  UNL     1     -35.118  16.056  -1.957  1.00 20.00     0.023 C 
HETATM    6  C2  UNL     1     -32.887  16.794  -2.790  1.00 20.00     0.023 C 
HETATM    7  C3  UNL     1     -34.957  17.491  -4.004  1.00 20.00     0.023 C 
ENDBRANCH   1   4
BRANCH   1   8
HETATM    8  N8  UNL     1     -34.840  15.193  -5.429  1.00 20.00     0.152 N 
HETATM    9  C4  UNL     1     -33.926  14.993  -6.554  1.00 20.00     0.317 C 
HETATM   10  C5  UNL     1     -35.971  14.269  -5.553  1.00 20.00     0.317 C 
ENDBRANCH   1   8
TORSDOF 2
ENDMDL
MODEL 2
REMARK VINA RESULT:      -3.9      0.034      1.371
REMARK  2 active torsions:
REMARK  status: ('A' for Active; 'I' for Inactive)
REMARK    1  A    between atoms: C6_6  and  C7_7 
REMARK    2  A    between atoms: C7_7  and  N8_8 
ROOT
HETATM    1  C7  UNL     1     -34.151  15.072  -4.106  1.00 20.00     0.443 C 
HETATM    2  F9  UNL     1     -32.819  14.821  -4.295  1.00 20.00    -0.172 F 
HETATM    3  F10 UNL     1     -34.618  13.991  -3.415  1.00 20.00    -0.172 F 
ENDROOT
BRANCH   1   4
HETATM    4  C6  UNL     1     -34.263  16.337  -3.208  1.00 20.00     0.046 C 
HETATM    5  C1  UNL     1     -32.886  16.852  -2.760  1.00 20.00     0.023 C 
HETATM    6  C2  UNL     1     -34.956  17.456  -4.011  1.00 20.00     0.023 C 
HETATM    7  C3  UNL     1     -35.116  16.038  -1.960  1.00 20.00     0.023 C 
ENDBRANCH   1   4
BRANCH   1   8
HETATM    8  N8  UNL     1     -34.837  15.192  -5.406  1.00 20.00     0.152 N 
HETATM    9  C4  UNL     1     -33.927  14.988  -6.534  1.00 20.00     0.317 C 
HETATM   10  C5  UNL     1     -35.973  14.276  -5.528  1.00 20.00     0.317 C 
ENDBRANCH   1   8
TORSDOF 2
ENDMDL
MODEL 3
REMARK VINA RESULT:      -3.9      0.032      1.373
REMARK  2 active torsions:
REMARK  status: ('A' for Active; 'I' for Inactive)
REMARK    1  A    between atoms: C6_6  and  C7_7 
REMARK    2  A    between atoms: C7_7  and  N8_8 
ROOT
HETATM    1  C7  UNL     1     -34.157  15.082  -4.141  1.00 20.00     0.443 C 
HETATM    2  F9  UNL     1     -32.825  14.833  -4.333  1.00 20.00    -0.172 F 
HETATM    3  F10 UNL     1     -34.618  14.007  -3.439  1.00 20.00    -0.172 F 
ENDROOT
BRANCH   1   4
HETATM    4  C6  UNL     1     -34.269  16.355  -3.254  1.00 20.00     0.046 C 
HETATM    5  C1  UNL     1     -34.940  17.522  -3.996  1.00 20.00     0.023 C 
HETATM    6  C2  UNL     1     -35.122  16.022  -2.013  1.00 20.00     0.023 C 
HETATM    7  C3  UNL     1     -32.874  16.803  -2.775  1.00 20.00     0.023 C 
ENDBRANCH   1   4
BRANCH   1   8
HETATM    8  N8  UNL     1     -34.848  15.190  -5.439  1.00 20.00     0.152 N 
HETATM    9  C4  UNL     1     -33.939  14.998  -6.570  1.00 20.00     0.317 C 
HETATM   10  C5  UNL     1     -35.971  14.257  -5.556  1.00 20.00     0.317 C 
ENDBRANCH   1   8
TORSDOF 2
ENDMDL
MODEL 4
REMARK VINA RESULT:      -3.6      1.694      2.779
REMARK  2 active torsions:
REMARK  status: ('A' for Active; 'I' for Inactive)
REMARK    1  A    between atoms: C6_6  and  C7_7 
REMARK    2  A    between atoms: C7_7  and  N8_8 
ROOT
HETATM    1  C7  UNL     1     -35.210  15.315  -3.302  1.00 20.00     0.443 C 
HETATM    2  F9  UNL     1     -35.239  13.952  -3.416  1.00 20.00    -0.172 F 
HETATM    3  F10 UNL     1     -35.200  15.556  -1.959  1.00 20.00    -0.172 F 
ENDROOT
BRANCH   1   4
HETATM    4  C6  UNL     1     -33.868  15.805  -3.917  1.00 20.00     0.046 C 
HETATM    5  C1  UNL     1     -32.978  14.636  -4.369  1.00 20.00     0.023 C 
HETATM    6  C2  UNL     1     -34.175  16.679  -5.150  1.00 20.00     0.023 C 
HETATM    7  C3  UNL     1     -33.089  16.661  -2.899  1.00 20.00     0.023 C 
ENDBRANCH   1   4
BRANCH   1   8
HETATM    8  N8  UNL     1     -36.409  15.905  -3.926  1.00 20.00     0.152 N 
HETATM    9  C4  UNL     1     -37.411  14.894  -4.268  1.00 20.00     0.317 C 
HETATM   10  C5  UNL     1     -37.027  16.937  -3.091  1.00 20.00     0.317 C 
ENDBRANCH   1   8
TORSDOF 2
ENDMDL
MODEL 5
REMARK VINA RESULT:      -3.6      1.785      3.496
REMARK  2 active torsions:
REMARK  status: ('A' for Active; 'I' for Inactive)
REMARK    1  A    between atoms: C6_6  and  C7_7 
REMARK    2  A    between atoms: C7_7  and  N8_8 
ROOT
HETATM    1  C7  UNL     1     -34.215  16.110  -3.044  1.00 20.00     0.443 C 
HETATM    2  F9  UNL     1     -34.857  15.491  -2.007  1.00 20.00    -0.172 F 
HETATM    3  F10 UNL     1     -32.925  16.257  -2.621  1.00 20.00    -0.172 F 
ENDROOT
BRANCH   1   4
HETATM    4  C6  UNL     1     -34.243  15.136  -4.256  1.00 20.00     0.046 C 
HETATM    5  C1  UNL     1     -34.537  15.865  -5.578  1.00 20.00     0.023 C 
HETATM    6  C2  UNL     1     -32.864  14.456  -4.380  1.00 20.00     0.023 C 
HETATM    7  C3  UNL     1     -35.305  14.040  -4.043  1.00 20.00     0.023 C 
ENDBRANCH   1   4
BRANCH   1   8
HETATM    8  N8  UNL     1     -34.826  17.424  -3.312  1.00 20.00     0.152 N 
HETATM    9  C4  UNL     1     -36.108  17.590  -2.626  1.00 20.00     0.317 C 
HETATM   10  C5  UNL     1     -33.941  18.538  -2.961  1.00 20.00     0.317 C 
ENDBRANCH   1   8
TORSDOF 2
ENDMDL
MODEL 6
REMARK VINA RESULT:      -3.6      1.104      3.466
REMARK  2 active torsions:
REMARK  status: ('A' for Active; 'I' for Inactive)
REMARK    1  A    between atoms: C6_6  and  C7_7 
REMARK    2  A    between atoms: C7_7  and  N8_8 
ROOT
HETATM    1  C7  UNL     1     -34.076  15.156  -4.091  1.00 20.00     0.443 C 
HETATM    2  F9  UNL     1     -34.585  14.040  -3.485  1.00 20.00    -0.172 F 
HETATM    3  F10 UNL     1     -32.754  14.879  -4.284  1.00 20.00    -0.172 F 
ENDROOT
BRANCH   1   4
HETATM    4  C6  UNL     1     -34.774  15.293  -5.474  1.00 20.00     0.046 C 
HETATM    5  C1  UNL     1     -33.821  14.974  -6.638  1.00 20.00     0.023 C 
HETATM    6  C2  UNL     1     -35.954  14.302  -5.536  1.00 20.00     0.023 C 
HETATM    7  C3  UNL     1     -35.329  16.719  -5.660  1.00 20.00     0.023 C 
ENDBRANCH   1   4
BRANCH   1   8
HETATM    8  N8  UNL     1     -34.238  16.331  -3.215  1.00 20.00     0.152 N 
HETATM    9  C4  UNL     1     -35.061  16.039  -2.041  1.00 20.00     0.317 C 
HETATM   10  C5  UNL     1     -32.955  16.888  -2.781  1.00 20.00     0.317 C 
ENDBRANCH   1   8
TORSDOF 2
ENDMDL
MODEL 7
REMARK VINA RESULT:      -3.6      1.095      3.377
REMARK  2 active torsions:
REMARK  status: ('A' for Active; 'I' for Inactive)
REMARK    1  A    between atoms: C6_6  and  C7_7 
REMARK    2  A    between atoms: C7_7  and  N8_8 
ROOT
HETATM    1  C7  UNL     1     -34.074  15.137  -4.102  1.00 20.00     0.443 C 
HETATM    2  F9  UNL     1     -34.566  14.021  -3.484  1.00 20.00    -0.172 F 
HETATM    3  F10 UNL     1     -32.752  14.870  -4.311  1.00 20.00    -0.172 F 
ENDROOT
BRANCH   1   4
HETATM    4  C6  UNL     1     -34.790  15.260  -5.478  1.00 20.00     0.046 C 
HETATM    5  C1  UNL     1     -35.986  14.302  -5.595  1.00 20.00     0.023 C 
HETATM    6  C2  UNL     1     -35.314  16.702  -5.638  1.00 20.00     0.023 C 
HETATM    7  C3  UNL     1     -33.804  14.974  -6.627  1.00 20.00     0.023 C 
ENDBRANCH   1   4
BRANCH   1   8
HETATM    8  N8  UNL     1     -34.234  16.316  -3.232  1.00 20.00     0.152 N 
HETATM    9  C4  UNL     1     -35.057  16.030  -2.056  1.00 20.00     0.317 C 
HETATM   10  C5  UNL     1     -32.950  16.874  -2.800  1.00 20.00     0.317 C 
ENDBRANCH   1   8
TORSDOF 2
ENDMDL
MODEL 8
REMARK VINA RESULT:      -3.5      1.779      2.732
REMARK  2 active torsions:
REMARK  status: ('A' for Active; 'I' for Inactive)
REMARK    1  A    between atoms: C6_6  and  C7_7 
REMARK    2  A    between atoms: C7_7  and  N8_8 
ROOT
HETATM    1  C7  UNL     1     -34.564  16.253  -5.254  1.00 20.00     0.443 C 
HETATM    2  F9  UNL     1     -35.866  16.526  -4.935  1.00 20.00    -0.172 F 
HETATM    3  F10 UNL     1     -34.031  17.457  -5.614  1.00 20.00    -0.172 F 
ENDROOT
BRANCH   1   4
HETATM    4  C6  UNL     1     -33.863  15.755  -3.958  1.00 20.00     0.046 C 
HETATM    5  C1  UNL     1     -33.064  16.871  -3.266  1.00 20.00     0.023 C 
HETATM    6  C2  UNL     1     -34.938  15.253  -2.973  1.00 20.00     0.023 C 
HETATM    7  C3  UNL     1     -32.913  14.583  -4.275  1.00 20.00     0.023 C 
ENDBRANCH   1   4
BRANCH   1   8
HETATM    8  N8  UNL     1     -34.503  15.301  -6.378  1.00 20.00     0.152 N 
HETATM    9  C4  UNL     1     -35.779  14.620  -6.598  1.00 20.00     0.317 C 
HETATM   10  C5  UNL     1     -34.068  15.933  -7.626  1.00 20.00     0.317 C 
ENDBRANCH   1   8
TORSDOF 2
ENDMDL
MODEL 9
REMARK VINA RESULT:      -3.5     11.531     12.559
REMARK  2 active torsions:
REMARK  status: ('A' for Active; 'I' for Inactive)
REMARK    1  A    between atoms: C6_6  and  C7_7 
REMARK    2  A    between atoms: C7_7  and  N8_8 
ROOT
HETATM    1  C7  UNL     1     -42.201   6.845  -1.045  1.00 20.00     0.443 C 
HETATM    2  F9  UNL     1     -43.187   7.218  -1.918  1.00 20.00    -0.172 F 
HETATM    3  F10 UNL     1     -41.049   7.336  -1.586  1.00 20.00    -0.172 F 
ENDROOT
BRANCH   1   4
HETATM    4  C6  UNL     1     -42.478   7.568   0.304  1.00 20.00     0.046 C 
HETATM    5  C1  UNL     1     -41.189   8.104   0.949  1.00 20.00     0.023 C 
HETATM    6  C2  UNL     1     -43.417   8.763   0.045  1.00 20.00     0.023 C 
HETATM    7  C3  UNL     1     -43.173   6.614   1.295  1.00 20.00     0.023 C 
ENDBRANCH   1   4
BRANCH   1   8
HETATM    8  N8  UNL     1     -42.141   5.376  -0.941  1.00 20.00     0.152 N 
HETATM    9  C4  UNL     1     -43.076   4.716  -1.853  1.00 20.00     0.317 C 
HETATM   10  C5  UNL     1     -40.792   4.852  -1.167  1.00 20.00     0.317 C 
ENDBRANCH   1   8
TORSDOF 2
ENDMDL
