MODEL 1
REMARK VINA RESULT:      -4.5      0.000      0.000
REMARK  1 active torsions:
REMARK  status: ('A' for Active; 'I' for Inactive)
REMARK    1  A    between atoms: C4_4  and  C6_6 
ROOT
HETATM    1  C1  UNL     1     -35.015   5.234   5.872  1.00 20.00     0.135 A 
HETATM    2  C2  UNL     1     -34.275   6.378   6.069  1.00 20.00     0.136 A 
HETATM    3  C3  UNL     1     -34.312   5.153   3.698  1.00 20.00     0.149 A 
HETATM    4  C4  UNL     1     -33.572   6.297   3.894  1.00 20.00     0.122 A 
HETATM    5  N7  UNL     1     -35.047   4.600   4.683  1.00 20.00    -0.269 NA
HETATM    6  N8  UNL     1     -33.539   6.930   5.084  1.00 20.00    -0.256 NA
ENDROOT
BRANCH   4   7
HETATM    7  C6  UNL     1     -32.772   6.880   2.782  1.00 20.00     0.285 C 
HETATM    8  C5  UNL     1     -31.521   7.596   3.290  1.00 20.00     0.097 C 
HETATM    9  F9  UNL     1     -33.475   7.791   2.032  1.00 20.00    -0.200 F 
HETATM   10  F10 UNL     1     -32.354   5.944   1.870  1.00 20.00    -0.200 F 
ENDBRANCH   4   7
TORSDOF 1
ENDMDL
MODEL 2
REMARK VINA RESULT:      -4.4     16.421     16.853
REMARK  1 active torsions:
REMARK  status: ('A' for Active; 'I' for Inactive)
REMARK    1  A    between atoms: C4_4  and  C6_6 
ROOT
HETATM    1  C1  UNL     1     -24.334  18.959   7.473  1.00 20.00     0.135 A 
HETATM    2  C2  UNL     1     -25.181  19.235   8.523  1.00 20.00     0.136 A 
HETATM    3  C3  UNL     1     -22.939  17.835   8.895  1.00 20.00     0.149 A 
HETATM    4  C4  UNL     1     -23.785  18.112   9.945  1.00 20.00     0.122 A 
HETATM    5  N7  UNL     1     -23.197  18.253   7.640  1.00 20.00    -0.269 NA
HETATM    6  N8  UNL     1     -24.922  18.817   9.778  1.00 20.00    -0.256 NA
ENDROOT
BRANCH   4   7
HETATM    7  C6  UNL     1     -23.466  17.635  11.319  1.00 20.00     0.285 C 
HETATM    8  C5  UNL     1     -24.033  16.241  11.587  1.00 20.00     0.097 C 
HETATM    9  F9  UNL     1     -23.954  18.459  12.303  1.00 20.00    -0.200 F 
HETATM   10  F10 UNL     1     -22.118  17.573  11.569  1.00 20.00    -0.200 F 
ENDBRANCH   4   7
TORSDOF 1
ENDMDL
MODEL 3
REMARK VINA RESULT:      -4.3      1.228      1.943
REMARK  1 active torsions:
REMARK  status: ('A' for Active; 'I' for Inactive)
REMARK    1  A    between atoms: C4_4  and  C6_6 
ROOT
HETATM    1  C1  UNL     1     -34.997   5.384   5.776  1.00 20.00     0.135 A 
HETATM    2  C2  UNL     1     -34.929   4.797   4.532  1.00 20.00     0.136 A 
HETATM    3  C3  UNL     1     -33.490   6.970   5.111  1.00 20.00     0.149 A 
HETATM    4  C4  UNL     1     -33.421   6.384   3.867  1.00 20.00     0.122 A 
HETATM    5  N7  UNL     1     -34.280   6.482   6.088  1.00 20.00    -0.269 NA
HETATM    6  N8  UNL     1     -34.139   5.287   3.555  1.00 20.00    -0.256 NA
ENDROOT
BRANCH   4   7
HETATM    7  C6  UNL     1     -32.537   6.951   2.812  1.00 20.00     0.285 C 
HETATM    8  C5  UNL     1     -33.211   8.091   2.052  1.00 20.00     0.097 C 
HETATM    9  F9  UNL     1     -32.150   6.022   1.877  1.00 20.00    -0.200 F 
HETATM   10  F10 UNL     1     -31.355   7.444   3.306  1.00 20.00    -0.200 F 
ENDBRANCH   4   7
TORSDOF 1
ENDMDL
MODEL 4
REMARK VINA RESULT:      -4.3      2.140      3.601
REMARK  1 active torsions:
REMARK  status: ('A' for Active; 'I' for Inactive)
REMARK    1  A    between atoms: C4_4  and  C6_6 
ROOT
HETATM    1  C1  UNL     1     -31.875   7.630   2.871  1.00 20.00     0.135 A 
HETATM    2  C2  UNL     1     -32.262   7.771   4.185  1.00 20.00     0.136 A 
HETATM    3  C3  UNL     1     -33.370   5.919   2.615  1.00 20.00     0.149 A 
HETATM    4  C4  UNL     1     -33.757   6.059   3.929  1.00 20.00     0.122 A 
HETATM    5  N7  UNL     1     -32.422   6.701   2.061  1.00 20.00    -0.269 NA
HETATM    6  N8  UNL     1     -33.210   6.988   4.738  1.00 20.00    -0.256 NA
ENDROOT
BRANCH   4   7
HETATM    7  C6  UNL     1     -34.807   5.176   4.506  1.00 20.00     0.285 C 
HETATM    8  C5  UNL     1     -34.811   5.213   6.033  1.00 20.00     0.097 C 
HETATM    9  F9  UNL     1     -34.665   3.859   4.139  1.00 20.00    -0.200 F 
HETATM   10  F10 UNL     1     -36.074   5.505   4.095  1.00 20.00    -0.200 F 
ENDBRANCH   4   7
TORSDOF 1
ENDMDL
MODEL 5
REMARK VINA RESULT:      -4.3      2.156      3.867
REMARK  1 active torsions:
REMARK  status: ('A' for Active; 'I' for Inactive)
REMARK    1  A    between atoms: C4_4  and  C6_6 
ROOT
HETATM    1  C1  UNL     1     -31.872   7.647   2.918  1.00 20.00     0.135 A 
HETATM    2  C2  UNL     1     -32.490   6.694   2.139  1.00 20.00     0.136 A 
HETATM    3  C3  UNL     1     -33.141   7.005   4.709  1.00 20.00     0.149 A 
HETATM    4  C4  UNL     1     -33.760   6.053   3.930  1.00 20.00     0.122 A 
HETATM    5  N7  UNL     1     -32.186   7.819   4.218  1.00 20.00    -0.269 NA
HETATM    6  N8  UNL     1     -33.445   5.880   2.631  1.00 20.00    -0.256 NA
ENDROOT
BRANCH   4   7
HETATM    7  C6  UNL     1     -34.812   5.172   4.507  1.00 20.00     0.285 C 
HETATM    8  C5  UNL     1     -34.831   5.225   6.033  1.00 20.00     0.097 C 
HETATM    9  F9  UNL     1     -34.660   3.852   4.156  1.00 20.00    -0.200 F 
HETATM   10  F10 UNL     1     -36.077   5.490   4.080  1.00 20.00    -0.200 F 
ENDBRANCH   4   7
TORSDOF 1
ENDMDL
MODEL 6
REMARK VINA RESULT:      -4.2     15.470     16.059
REMARK  1 active torsions:
REMARK  status: ('A' for Active; 'I' for Inactive)
REMARK    1  A    between atoms: C4_4  and  C6_6 
ROOT
HETATM    1  C1  UNL     1     -25.483  16.669  12.181  1.00 20.00     0.135 A 
HETATM    2  C2  UNL     1     -25.707  17.978  11.817  1.00 20.00     0.136 A 
HETATM    3  C3  UNL     1     -24.028  16.432  10.432  1.00 20.00     0.149 A 
HETATM    4  C4  UNL     1     -24.252  17.740  10.068  1.00 20.00     0.122 A 
HETATM    5  N7  UNL     1     -24.639  15.871  11.495  1.00 20.00    -0.269 NA
HETATM    6  N8  UNL     1     -25.095  18.538  10.754  1.00 20.00    -0.256 NA
ENDROOT
BRANCH   4   7
HETATM    7  C6  UNL     1     -23.560  18.326   8.887  1.00 20.00     0.285 C 
HETATM    8  C5  UNL     1     -24.536  19.007   7.930  1.00 20.00     0.097 C 
HETATM    9  F9  UNL     1     -22.867  17.394   8.152  1.00 20.00    -0.200 F 
HETATM   10  F10 UNL     1     -22.614  19.260   9.225  1.00 20.00    -0.200 F 
ENDBRANCH   4   7
TORSDOF 1
ENDMDL
MODEL 7
REMARK VINA RESULT:      -4.2     11.718     12.314
REMARK  1 active torsions:
REMARK  status: ('A' for Active; 'I' for Inactive)
REMARK    1  A    between atoms: C4_4  and  C6_6 
ROOT
HETATM    1  C1  UNL     1     -38.702  15.140  -4.226  1.00 20.00     0.135 A 
HETATM    2  C2  UNL     1     -38.018  16.290  -3.899  1.00 20.00     0.136 A 
HETATM    3  C3  UNL     1     -36.724  13.999  -4.350  1.00 20.00     0.149 A 
HETATM    4  C4  UNL     1     -36.040  15.148  -4.024  1.00 20.00     0.122 A 
HETATM    5  N7  UNL     1     -38.067  13.973  -4.457  1.00 20.00    -0.269 NA
HETATM    6  N8  UNL     1     -36.674  16.315  -3.791  1.00 20.00    -0.256 NA
ENDROOT
BRANCH   4   7
HETATM    7  C6  UNL     1     -34.555  15.140  -3.915  1.00 20.00     0.285 C 
HETATM    8  C5  UNL     1     -34.065  15.915  -2.693  1.00 20.00     0.097 C 
HETATM    9  F9  UNL     1     -33.931  15.686  -5.010  1.00 20.00    -0.200 F 
HETATM   10  F10 UNL     1     -34.028  13.875  -3.823  1.00 20.00    -0.200 F 
ENDBRANCH   4   7
TORSDOF 1
ENDMDL
MODEL 8
REMARK VINA RESULT:      -4.2     11.778     12.328
REMARK  1 active torsions:
REMARK  status: ('A' for Active; 'I' for Inactive)
REMARK    1  A    between atoms: C4_4  and  C6_6 
ROOT
HETATM    1  C1  UNL     1     -38.722  15.136  -4.284  1.00 20.00     0.135 A 
HETATM    2  C2  UNL     1     -38.140  16.298  -3.829  1.00 20.00     0.136 A 
HETATM    3  C3  UNL     1     -36.686  14.097  -4.236  1.00 20.00     0.149 A 
HETATM    4  C4  UNL     1     -36.103  15.259  -3.781  1.00 20.00     0.122 A 
HETATM    5  N7  UNL     1     -38.005  14.014  -4.496  1.00 20.00    -0.269 NA
HETATM    6  N8  UNL     1     -36.820  16.380  -3.569  1.00 20.00    -0.256 NA
ENDROOT
BRANCH   4   7
HETATM    7  C6  UNL     1     -34.641  15.314  -3.505  1.00 20.00     0.285 C 
HETATM    8  C5  UNL     1     -33.931  16.347  -4.378  1.00 20.00     0.097 C 
HETATM    9  F9  UNL     1     -34.007  14.113  -3.714  1.00 20.00    -0.200 F 
HETATM   10  F10 UNL     1     -34.350  15.626  -2.201  1.00 20.00    -0.200 F 
ENDBRANCH   4   7
TORSDOF 1
ENDMDL
MODEL 9
REMARK VINA RESULT:      -4.1     11.982     13.190
REMARK  1 active torsions:
REMARK  status: ('A' for Active; 'I' for Inactive)
REMARK    1  A    between atoms: C4_4  and  C6_6 
ROOT
HETATM    1  C1  UNL     1     -35.656  15.405  -7.901  1.00 20.00     0.135 A 
HETATM    2  C2  UNL     1     -34.310  15.219  -7.675  1.00 20.00     0.136 A 
HETATM    3  C3  UNL     1     -36.090  14.923  -5.708  1.00 20.00     0.149 A 
HETATM    4  C4  UNL     1     -34.745  14.736  -5.482  1.00 20.00     0.122 A 
HETATM    5  N7  UNL     1     -36.571  15.261  -6.921  1.00 20.00    -0.269 NA
HETATM    6  N8  UNL     1     -33.830  14.882  -6.461  1.00 20.00    -0.256 NA
ENDROOT
BRANCH   4   7
HETATM    7  C6  UNL     1     -34.250  14.363  -4.128  1.00 20.00     0.285 C 
HETATM    8  C5  UNL     1     -34.661  15.382  -3.067  1.00 20.00     0.097 C 
HETATM    9  F9  UNL     1     -32.882  14.251  -4.066  1.00 20.00    -0.200 F 
HETATM   10  F10 UNL     1     -34.707  13.140  -3.705  1.00 20.00    -0.200 F 
ENDBRANCH   4   7
TORSDOF 1
ENDMDL
