MODEL 1
REMARK VINA RESULT:      -5.8      0.000      0.000
REMARK  0 active torsions:
REMARK  status: ('A' for Active; 'I' for Inactive)
ROOT
HETATM    1  C1  UNL     1     -36.243  14.199  -4.260  1.00 20.00     0.097 C 
HETATM    2  C2  UNL     1     -33.527  17.651  -1.279  1.00 20.00     0.008 C 
HETATM    3  C3  UNL     1     -32.812  17.284  -2.355  1.00 20.00     0.029 C 
HETATM    4  C4  UNL     1     -35.507  16.367  -1.884  1.00 20.00    -0.004 C 
HETATM    5  C5  UNL     1     -33.824  14.493  -4.282  1.00 20.00     0.136 C 
HETATM    6  C6  UNL     1     -35.054  14.892  -3.937  1.00 20.00     0.053 C 
HETATM    7  C7  UNL     1     -34.826  17.067  -0.954  1.00 20.00    -0.065 C 
HETATM    8  C8  UNL     1     -33.449  16.255  -3.197  1.00 20.00     0.047 C 
HETATM    9  C9  UNL     1     -34.969  16.222  -3.271  1.00 20.00     0.106 C 
HETATM   10  C10 UNL     1     -35.345  17.299   0.431  1.00 20.00     0.048 C 
HETATM   11  N11 UNL     1     -37.219  13.630  -4.525  1.00 20.00    -0.192 NA
HETATM   12  N12 UNL     1     -32.824  15.324  -3.850  1.00 20.00    -0.263 NA
ENDROOT
TORSDOF 0
ENDMDL
MODEL 2
REMARK VINA RESULT:      -5.6      1.124      1.490
REMARK  0 active torsions:
REMARK  status: ('A' for Active; 'I' for Inactive)
ROOT
HETATM    1  C1  UNL     1     -37.718  14.347  -4.253  1.00 20.00     0.097 C 
HETATM    2  C2  UNL     1     -33.328  16.683  -2.398  1.00 20.00     0.008 C 
HETATM    3  C3  UNL     1     -33.030  15.827  -3.387  1.00 20.00     0.029 C 
HETATM    4  C4  UNL     1     -35.739  16.357  -2.544  1.00 20.00    -0.004 C 
HETATM    5  C5  UNL     1     -35.450  13.491  -4.490  1.00 20.00     0.136 C 
HETATM    6  C6  UNL     1     -36.312  14.467  -4.185  1.00 20.00     0.053 C 
HETATM    7  C7  UNL     1     -34.678  16.836  -1.861  1.00 20.00    -0.065 C 
HETATM    8  C8  UNL     1     -34.178  15.060  -3.906  1.00 20.00     0.047 C 
HETATM    9  C9  UNL     1     -35.553  15.713  -3.880  1.00 20.00     0.106 C 
HETATM   10  C10 UNL     1     -34.809  17.548  -0.549  1.00 20.00     0.048 C 
HETATM   11  N11 UNL     1     -38.873  14.249  -4.310  1.00 20.00    -0.192 NA
HETATM   12  N12 UNL     1     -34.132  13.839  -4.341  1.00 20.00    -0.263 NA
ENDROOT
TORSDOF 0
ENDMDL
MODEL 3
REMARK VINA RESULT:      -5.2      1.908      4.052
REMARK  0 active torsions:
REMARK  status: ('A' for Active; 'I' for Inactive)
ROOT
HETATM    1  C1  UNL     1     -32.990  17.005  -2.535  1.00 20.00     0.097 C 
HETATM    2  C2  UNL     1     -37.190  14.355  -4.408  1.00 20.00     0.008 C 
HETATM    3  C3  UNL     1     -36.081  13.602  -4.481  1.00 20.00     0.029 C 
HETATM    4  C4  UNL     1     -36.103  16.245  -3.322  1.00 20.00    -0.004 C 
HETATM    5  C5  UNL     1     -32.902  15.096  -4.046  1.00 20.00     0.136 C 
HETATM    6  C6  UNL     1     -33.561  15.897  -3.202  1.00 20.00     0.053 C 
HETATM    7  C7  UNL     1     -37.176  15.748  -3.970  1.00 20.00    -0.065 C 
HETATM    8  C8  UNL     1     -34.843  14.288  -4.067  1.00 20.00     0.047 C 
HETATM    9  C9  UNL     1     -34.938  15.366  -2.996  1.00 20.00     0.106 C 
HETATM   10  C10 UNL     1     -38.397  16.564  -4.266  1.00 20.00     0.048 C 
HETATM   11  N11 UNL     1     -32.521  17.914  -1.988  1.00 20.00    -0.192 NA
HETATM   12  N12 UNL     1     -33.667  14.090  -4.578  1.00 20.00    -0.263 NA
ENDROOT
TORSDOF 0
ENDMDL
MODEL 4
REMARK VINA RESULT:      -5.2      2.373      4.973
REMARK  0 active torsions:
REMARK  status: ('A' for Active; 'I' for Inactive)
ROOT
HETATM    1  C1  UNL     1     -31.727  18.327  -0.616  1.00 20.00     0.097 C 
HETATM    2  C2  UNL     1     -35.315  15.682  -3.496  1.00 20.00     0.008 C 
HETATM    3  C3  UNL     1     -35.918  16.476  -2.598  1.00 20.00     0.029 C 
HETATM    4  C4  UNL     1     -33.052  16.388  -2.932  1.00 20.00    -0.004 C 
HETATM    5  C5  UNL     1     -34.036  17.908   0.036  1.00 20.00     0.136 C 
HETATM    6  C6  UNL     1     -33.056  17.925  -0.874  1.00 20.00     0.053 C 
HETATM    7  C7  UNL     1     -33.865  15.514  -3.561  1.00 20.00    -0.065 C 
HETATM    8  C8  UNL     1     -34.999  17.185  -1.687  1.00 20.00     0.047 C 
HETATM    9  C9  UNL     1     -33.619  17.565  -2.207  1.00 20.00     0.106 C 
HETATM   10  C10 UNL     1     -33.352  14.353  -4.356  1.00 20.00     0.048 C 
HETATM   11  N11 UNL     1     -30.634  18.658  -0.404  1.00 20.00    -0.192 NA
HETATM   12  N12 UNL     1     -35.243  17.472  -0.446  1.00 20.00    -0.263 NA
ENDROOT
TORSDOF 0
ENDMDL
MODEL 5
REMARK VINA RESULT:      -5.1     15.365     16.762
REMARK  0 active torsions:
REMARK  status: ('A' for Active; 'I' for Inactive)
ROOT
HETATM    1  C1  UNL     1     -23.486  18.522   7.423  1.00 20.00     0.097 C 
HETATM    2  C2  UNL     1     -25.510  18.625  12.328  1.00 20.00     0.008 C 
HETATM    3  C3  UNL     1     -24.279  18.090  12.332  1.00 20.00     0.029 C 
HETATM    4  C4  UNL     1     -25.520  19.138   9.946  1.00 20.00    -0.004 C 
HETATM    5  C5  UNL     1     -22.763  17.124   9.283  1.00 20.00     0.136 C 
HETATM    6  C6  UNL     1     -23.442  18.166   8.789  1.00 20.00     0.053 C 
HETATM    7  C7  UNL     1     -26.204  19.010  11.101  1.00 20.00    -0.065 C 
HETATM    8  C8  UNL     1     -23.670  17.935  10.997  1.00 20.00     0.047 C 
HETATM    9  C9  UNL     1     -24.038  18.940   9.915  1.00 20.00     0.106 C 
HETATM   10  C10 UNL     1     -27.677  19.259  11.206  1.00 20.00     0.048 C 
HETATM   11  N11 UNL     1     -23.521  18.815   6.300  1.00 20.00    -0.192 NA
HETATM   12  N12 UNL     1     -22.877  16.973  10.640  1.00 20.00    -0.263 NA
ENDROOT
TORSDOF 0
ENDMDL
MODEL 6
REMARK VINA RESULT:      -5.0      1.561      2.738
REMARK  0 active torsions:
REMARK  status: ('A' for Active; 'I' for Inactive)
ROOT
HETATM    1  C1  UNL     1     -34.239  15.113  -5.270  1.00 20.00     0.097 C 
HETATM    2  C2  UNL     1     -34.218  17.723  -0.648  1.00 20.00     0.008 C 
HETATM    3  C3  UNL     1     -35.448  17.268  -0.933  1.00 20.00     0.029 C 
HETATM    4  C4  UNL     1     -33.158  16.732  -2.606  1.00 20.00    -0.004 C 
HETATM    5  C5  UNL     1     -36.188  16.097  -4.190  1.00 20.00     0.136 C 
HETATM    6  C6  UNL     1     -34.911  15.699  -4.174  1.00 20.00     0.053 C 
HETATM    7  C7  UNL     1     -33.091  17.591  -1.569  1.00 20.00    -0.065 C 
HETATM    8  C8  UNL     1     -35.572  16.607  -2.246  1.00 20.00     0.047 C 
HETATM    9  C9  UNL     1     -34.362  15.867  -2.799  1.00 20.00     0.106 C 
HETATM   10  C10 UNL     1     -31.886  18.435  -1.289  1.00 20.00     0.048 C 
HETATM   11  N11 UNL     1     -33.686  14.631  -6.170  1.00 20.00    -0.192 NA
HETATM   12  N12 UNL     1     -36.620  16.644  -3.010  1.00 20.00    -0.263 NA
ENDROOT
TORSDOF 0
ENDMDL
MODEL 7
REMARK VINA RESULT:      -4.9      2.062      3.955
REMARK  0 active torsions:
REMARK  status: ('A' for Active; 'I' for Inactive)
ROOT
HETATM    1  C1  UNL     1     -35.826  17.871  -0.846  1.00 20.00     0.097 C 
HETATM    2  C2  UNL     1     -33.823  14.440  -4.365  1.00 20.00     0.008 C 
HETATM    3  C3  UNL     1     -32.876  15.289  -3.936  1.00 20.00     0.029 C 
HETATM    4  C4  UNL     1     -35.578  15.319  -2.922  1.00 20.00    -0.004 C 
HETATM    5  C5  UNL     1     -33.796  18.204  -2.152  1.00 20.00     0.136 C 
HETATM    6  C6  UNL     1     -34.783  17.428  -1.690  1.00 20.00     0.053 C 
HETATM    7  C7  UNL     1     -35.226  14.553  -3.975  1.00 20.00    -0.065 C 
HETATM    8  C8  UNL     1     -33.360  16.341  -3.022  1.00 20.00     0.047 C 
HETATM    9  C9  UNL     1     -34.537  16.019  -2.110  1.00 20.00     0.106 C 
HETATM   10  C10 UNL     1     -36.219  13.777  -4.784  1.00 20.00     0.048 C 
HETATM   11  N11 UNL     1     -36.683  18.236  -0.154  1.00 20.00    -0.192 NA
HETATM   12  N12 UNL     1     -32.902  17.552  -2.960  1.00 20.00    -0.263 NA
ENDROOT
TORSDOF 0
ENDMDL
MODEL 8
REMARK VINA RESULT:      -4.9      3.210      5.754
REMARK  0 active torsions:
REMARK  status: ('A' for Active; 'I' for Inactive)
ROOT
HETATM    1  C1  UNL     1     -31.042  18.789   0.965  1.00 20.00     0.097 C 
HETATM    2  C2  UNL     1     -35.076  16.880  -1.907  1.00 20.00     0.008 C 
HETATM    3  C3  UNL     1     -35.517  17.388  -0.746  1.00 20.00     0.029 C 
HETATM    4  C4  UNL     1     -32.745  17.488  -1.543  1.00 20.00    -0.004 C 
HETATM    5  C5  UNL     1     -33.219  18.135   1.841  1.00 20.00     0.136 C 
HETATM    6  C6  UNL     1     -32.400  18.425   0.823  1.00 20.00     0.053 C 
HETATM    7  C7  UNL     1     -33.658  16.785  -2.244  1.00 20.00    -0.065 C 
HETATM    8  C8  UNL     1     -34.456  17.861   0.162  1.00 20.00     0.047 C 
HETATM    9  C9  UNL     1     -33.175  18.412  -0.449  1.00 20.00     0.106 C 
HETATM   10  C10 UNL     1     -33.292  15.894  -3.391  1.00 20.00     0.048 C 
HETATM   11  N11 UNL     1     -29.927  19.089   1.081  1.00 20.00    -0.192 NA
HETATM   12  N12 UNL     1     -34.492  17.801   1.458  1.00 20.00    -0.263 NA
ENDROOT
TORSDOF 0
ENDMDL
MODEL 9
REMARK VINA RESULT:      -4.8      2.451      4.164
REMARK  0 active torsions:
REMARK  status: ('A' for Active; 'I' for Inactive)
ROOT
HETATM    1  C1  UNL     1     -38.867  17.544  -4.459  1.00 20.00     0.097 C 
HETATM    2  C2  UNL     1     -34.673  14.353  -3.824  1.00 20.00     0.008 C 
HETATM    3  C3  UNL     1     -35.713  13.676  -4.336  1.00 20.00     0.029 C 
HETATM    4  C4  UNL     1     -35.801  16.513  -3.809  1.00 20.00    -0.004 C 
HETATM    5  C5  UNL     1     -38.947  15.114  -4.298  1.00 20.00     0.136 C 
HETATM    6  C6  UNL     1     -38.275  16.261  -4.452  1.00 20.00     0.053 C 
HETATM    7  C7  UNL     1     -34.764  15.750  -3.407  1.00 20.00    -0.065 C 
HETATM    8  C8  UNL     1     -36.956  14.460  -4.463  1.00 20.00     0.047 C 
HETATM    9  C9  UNL     1     -36.842  15.956  -4.726  1.00 20.00     0.106 C 
HETATM   10  C10 UNL     1     -33.658  16.272  -2.542  1.00 20.00     0.048 C 
HETATM   11  N11 UNL     1     -39.353  18.598  -4.465  1.00 20.00    -0.192 NA
HETATM   12  N12 UNL     1     -38.157  13.994  -4.318  1.00 20.00    -0.263 NA
ENDROOT
TORSDOF 0
ENDMDL
