MODEL 1
REMARK VINA RESULT:      -4.7      0.000      0.000
REMARK  4 active torsions:
REMARK  status: ('A' for Active; 'I' for Inactive)
REMARK    1  A    between atoms: C7_7  and  C9_9 
REMARK    2  A    between atoms: C9_9  and  C11_11 
REMARK    3  A    between atoms: C10_10  and  C12_12 
REMARK    4  A    between atoms: C11_11  and  C12_12 
ROOT
HETATM    1  C1  UNL     1     -35.173  15.680  -6.703  1.00 20.00     0.004 C 
HETATM    2  C2  UNL     1     -35.927  16.751  -5.916  1.00 20.00     0.008 C 
HETATM    3  C3  UNL     1     -35.865  14.372  -6.349  1.00 20.00     0.038 C 
HETATM    4  C4  UNL     1     -38.134  15.978  -4.869  1.00 20.00     0.034 C 
HETATM    5  C5  UNL     1     -38.456  14.662  -4.198  1.00 20.00     0.169 C 
HETATM    6  C6  UNL     1     -36.621  16.023  -4.763  1.00 20.00     0.022 C 
HETATM    7  C7  UNL     1     -36.236  14.545  -4.876  1.00 20.00     0.064 C 
HETATM    8  O13 UNL     1     -37.397  13.764  -4.560  1.00 20.00    -0.380 OA
ENDROOT
BRANCH   7   9
HETATM    9  C9  UNL     1     -35.104  14.151  -3.934  1.00 20.00     0.038 C 
BRANCH   9  10
HETATM   10  C11 UNL     1     -34.746  15.291  -2.981  1.00 20.00     0.003 C 
BRANCH  10  11
HETATM   11  C12 UNL     1     -33.352  15.845  -3.276  1.00 20.00    -0.000 C 
BRANCH  11  12
HETATM   12  C10 UNL     1     -33.080  17.121  -2.480  1.00 20.00    -0.005 C 
HETATM   13  C8  UNL     1     -34.157  17.367  -1.435  1.00 20.00     0.005 C 
ENDBRANCH  11  12
ENDBRANCH  10  11
ENDBRANCH   9  10
ENDBRANCH   7   9
TORSDOF 4
ENDMDL
MODEL 2
REMARK VINA RESULT:      -4.4      1.240      1.508
REMARK  4 active torsions:
REMARK  status: ('A' for Active; 'I' for Inactive)
REMARK    1  A    between atoms: C7_7  and  C9_9 
REMARK    2  A    between atoms: C9_9  and  C11_11 
REMARK    3  A    between atoms: C10_10  and  C12_12 
REMARK    4  A    between atoms: C11_11  and  C12_12 
ROOT
HETATM    1  C1  UNL     1     -34.375  16.700  -6.770  1.00 20.00     0.004 C 
HETATM    2  C2  UNL     1     -35.587  17.110  -5.933  1.00 20.00     0.008 C 
HETATM    3  C3  UNL     1     -34.260  15.195  -6.587  1.00 20.00     0.038 C 
HETATM    4  C4  UNL     1     -37.038  15.168  -5.104  1.00 20.00     0.034 C 
HETATM    5  C5  UNL     1     -36.608  13.816  -4.583  1.00 20.00     0.169 C 
HETATM    6  C6  UNL     1     -35.785  15.998  -4.901  1.00 20.00     0.022 C 
HETATM    7  C7  UNL     1     -34.669  14.975  -5.130  1.00 20.00     0.064 C 
HETATM    8  O13 UNL     1     -35.232  13.666  -4.962  1.00 20.00    -0.380 OA
ENDROOT
BRANCH   7   9
HETATM    9  C9  UNL     1     -33.503  15.139  -4.161  1.00 20.00     0.038 C 
BRANCH   9  10
HETATM   10  C11 UNL     1     -33.959  15.736  -2.831  1.00 20.00     0.003 C 
BRANCH  10  11
HETATM   11  C12 UNL     1     -33.118  16.955  -2.452  1.00 20.00    -0.000 C 
BRANCH  11  12
HETATM   12  C10 UNL     1     -33.735  17.713  -1.276  1.00 20.00    -0.005 C 
HETATM   13  C8  UNL     1     -35.059  17.099  -0.850  1.00 20.00     0.005 C 
ENDBRANCH  11  12
ENDBRANCH  10  11
ENDBRANCH   9  10
ENDBRANCH   7   9
TORSDOF 4
ENDMDL
MODEL 3
REMARK VINA RESULT:      -4.3      1.429      4.148
REMARK  4 active torsions:
REMARK  status: ('A' for Active; 'I' for Inactive)
REMARK    1  A    between atoms: C7_7  and  C9_9 
REMARK    2  A    between atoms: C9_9  and  C11_11 
REMARK    3  A    between atoms: C10_10  and  C12_12 
REMARK    4  A    between atoms: C11_11  and  C12_12 
ROOT
HETATM    1  C1  UNL     1     -33.799  16.707  -2.296  1.00 20.00     0.004 C 
HETATM    2  C2  UNL     1     -33.128  15.799  -3.326  1.00 20.00     0.008 C 
HETATM    3  C3  UNL     1     -35.250  16.253  -2.257  1.00 20.00     0.038 C 
HETATM    4  C4  UNL     1     -34.519  13.776  -4.058  1.00 20.00     0.034 C 
HETATM    5  C5  UNL     1     -36.003  13.694  -4.332  1.00 20.00     0.169 C 
HETATM    6  C6  UNL     1     -34.251  15.260  -4.214  1.00 20.00     0.022 C 
HETATM    7  C7  UNL     1     -35.555  15.887  -3.710  1.00 20.00     0.064 C 
HETATM    8  O13 UNL     1     -36.576  14.882  -3.767  1.00 20.00    -0.380 OA
ENDROOT
BRANCH   7   9
HETATM    9  C9  UNL     1     -35.997  17.089  -4.539  1.00 20.00     0.038 C 
BRANCH   9  10
HETATM   10  C11 UNL     1     -35.366  17.072  -5.930  1.00 20.00     0.003 C 
BRANCH  10  11
HETATM   11  C12 UNL     1     -36.314  16.462  -6.963  1.00 20.00    -0.000 C 
BRANCH  11  12
HETATM   12  C10 UNL     1     -35.672  15.270  -7.672  1.00 20.00    -0.005 C 
HETATM   13  C8  UNL     1     -34.181  15.482  -7.881  1.00 20.00     0.005 C 
ENDBRANCH  11  12
ENDBRANCH  10  11
ENDBRANCH   9  10
ENDBRANCH   7   9
TORSDOF 4
ENDMDL
MODEL 4
REMARK VINA RESULT:      -4.2      1.560      2.940
REMARK  4 active torsions:
REMARK  status: ('A' for Active; 'I' for Inactive)
REMARK    1  A    between atoms: C7_7  and  C9_9 
REMARK    2  A    between atoms: C9_9  and  C11_11 
REMARK    3  A    between atoms: C10_10  and  C12_12 
REMARK    4  A    between atoms: C11_11  and  C12_12 
ROOT
HETATM    1  C1  UNL     1     -37.513  16.168  -3.863  1.00 20.00     0.004 C 
HETATM    2  C2  UNL     1     -37.468  14.792  -4.527  1.00 20.00     0.008 C 
HETATM    3  C3  UNL     1     -36.222  16.851  -4.285  1.00 20.00     0.038 C 
HETATM    4  C4  UNL     1     -35.646  14.505  -6.305  1.00 20.00     0.034 C 
HETATM    5  C5  UNL     1     -34.221  15.011  -6.294  1.00 20.00     0.169 C 
HETATM    6  C6  UNL     1     -35.994  14.513  -4.829  1.00 20.00     0.022 C 
HETATM    7  C7  UNL     1     -35.200  15.714  -4.307  1.00 20.00     0.064 C 
HETATM    8  O13 UNL     1     -34.160  15.997  -5.253  1.00 20.00    -0.380 OA
ENDROOT
BRANCH   7   9
HETATM    9  C9  UNL     1     -34.570  15.463  -2.941  1.00 20.00     0.038 C 
BRANCH   9  10
HETATM   10  C11 UNL     1     -33.514  16.517  -2.609  1.00 20.00     0.003 C 
BRANCH  10  11
HETATM   11  C12 UNL     1     -33.961  17.405  -1.447  1.00 20.00    -0.000 C 
BRANCH  11  12
HETATM   12  C10 UNL     1     -35.241  16.873  -0.802  1.00 20.00    -0.005 C 
HETATM   13  C8  UNL     1     -35.353  17.304   0.652  1.00 20.00     0.005 C 
ENDBRANCH  11  12
ENDBRANCH  10  11
ENDBRANCH   9  10
ENDBRANCH   7   9
TORSDOF 4
ENDMDL
MODEL 5
REMARK VINA RESULT:      -4.1      1.453      2.823
REMARK  4 active torsions:
REMARK  status: ('A' for Active; 'I' for Inactive)
REMARK    1  A    between atoms: C7_7  and  C9_9 
REMARK    2  A    between atoms: C9_9  and  C11_11 
REMARK    3  A    between atoms: C10_10  and  C12_12 
REMARK    4  A    between atoms: C11_11  and  C12_12 
ROOT
HETATM    1  C1  UNL     1     -34.855  13.671  -3.864  1.00 20.00     0.004 C 
HETATM    2  C2  UNL     1     -33.850  14.599  -4.546  1.00 20.00     0.008 C 
HETATM    3  C3  UNL     1     -36.081  13.690  -4.763  1.00 20.00     0.038 C 
HETATM    4  C4  UNL     1     -34.455  15.282  -6.940  1.00 20.00     0.034 C 
HETATM    5  C5  UNL     1     -35.808  15.638  -7.512  1.00 20.00     0.169 C 
HETATM    6  C6  UNL     1     -34.668  15.516  -5.457  1.00 20.00     0.022 C 
HETATM    7  C7  UNL     1     -36.139  15.132  -5.269  1.00 20.00     0.064 C 
HETATM    8  O13 UNL     1     -36.774  15.185  -6.553  1.00 20.00    -0.380 OA
ENDROOT
BRANCH   7   9
HETATM    9  C9  UNL     1     -36.879  16.060  -4.312  1.00 20.00     0.038 C 
BRANCH   9  10
HETATM   10  C11 UNL     1     -35.987  17.208  -3.843  1.00 20.00     0.003 C 
BRANCH  10  11
HETATM   11  C12 UNL     1     -36.076  17.399  -2.329  1.00 20.00    -0.000 C 
BRANCH  11  12
HETATM   12  C10 UNL     1     -34.979  16.619  -1.604  1.00 20.00    -0.005 C 
HETATM   13  C8  UNL     1     -33.596  17.141  -1.960  1.00 20.00     0.005 C 
ENDBRANCH  11  12
ENDBRANCH  10  11
ENDBRANCH   9  10
ENDBRANCH   7   9
TORSDOF 4
ENDMDL
MODEL 6
REMARK VINA RESULT:      -4.1     17.752     19.254
REMARK  4 active torsions:
REMARK  status: ('A' for Active; 'I' for Inactive)
REMARK    1  A    between atoms: C7_7  and  C9_9 
REMARK    2  A    between atoms: C9_9  and  C11_11 
REMARK    3  A    between atoms: C10_10  and  C12_12 
REMARK    4  A    between atoms: C11_11  and  C12_12 
ROOT
HETATM    1  C1  UNL     1     -23.956  16.064  12.129  1.00 20.00     0.004 C 
HETATM    2  C2  UNL     1     -22.744  16.975  11.940  1.00 20.00     0.008 C 
HETATM    3  C3  UNL     1     -24.946  16.497  11.058  1.00 20.00     0.038 C 
HETATM    4  C4  UNL     1     -22.737  18.333   9.767  1.00 20.00     0.034 C 
HETATM    5  C5  UNL     1     -23.891  19.023   9.075  1.00 20.00     0.169 C 
HETATM    6  C6  UNL     1     -23.251  18.208  11.188  1.00 20.00     0.022 C 
HETATM    7  C7  UNL     1     -24.756  18.012  10.980  1.00 20.00     0.064 C 
HETATM    8  O13 UNL     1     -25.083  18.488   9.667  1.00 20.00    -0.380 OA
ENDROOT
BRANCH   7   9
HETATM    9  C9  UNL     1     -25.602  18.763  12.003  1.00 20.00     0.038 C 
BRANCH   9  10
HETATM   10  C11 UNL     1     -26.951  18.081  12.223  1.00 20.00     0.003 C 
BRANCH  10  11
HETATM   11  C12 UNL     1     -28.080  18.849  11.535  1.00 20.00    -0.000 C 
BRANCH  11  12
HETATM   12  C10 UNL     1     -29.449  18.282  11.912  1.00 20.00    -0.005 C 
HETATM   13  C8  UNL     1     -29.426  16.763  11.971  1.00 20.00     0.005 C 
ENDBRANCH  11  12
ENDBRANCH  10  11
ENDBRANCH   9  10
ENDBRANCH   7   9
TORSDOF 4
ENDMDL
MODEL 7
REMARK VINA RESULT:      -4.1      1.536      2.870
REMARK  4 active torsions:
REMARK  status: ('A' for Active; 'I' for Inactive)
REMARK    1  A    between atoms: C7_7  and  C9_9 
REMARK    2  A    between atoms: C9_9  and  C11_11 
REMARK    3  A    between atoms: C10_10  and  C12_12 
REMARK    4  A    between atoms: C11_11  and  C12_12 
ROOT
HETATM    1  C1  UNL     1     -37.554  14.407  -4.257  1.00 20.00     0.004 C 
HETATM    2  C2  UNL     1     -36.291  13.678  -4.716  1.00 20.00     0.008 C 
HETATM    3  C3  UNL     1     -37.357  15.850  -4.695  1.00 20.00     0.038 C 
HETATM    4  C4  UNL     1     -34.798  15.002  -6.322  1.00 20.00     0.034 C 
HETATM    5  C5  UNL     1     -34.447  16.472  -6.299  1.00 20.00     0.169 C 
HETATM    6  C6  UNL     1     -35.217  14.755  -4.886  1.00 20.00     0.022 C 
HETATM    7  C7  UNL     1     -35.859  16.089  -4.494  1.00 20.00     0.064 C 
HETATM    8  O13 UNL     1     -35.388  17.088  -5.408  1.00 20.00    -0.380 OA
ENDROOT
BRANCH   7   9
HETATM    9  C9  UNL     1     -35.519  16.519  -3.071  1.00 20.00     0.038 C 
BRANCH   9  10
HETATM   10  C11 UNL     1     -34.238  15.849  -2.576  1.00 20.00     0.003 C 
BRANCH  10  11
HETATM   11  C12 UNL     1     -33.023  16.755  -2.778  1.00 20.00    -0.000 C 
BRANCH  11  12
HETATM   12  C10 UNL     1     -33.124  18.020  -1.926  1.00 20.00    -0.005 C 
HETATM   13  C8  UNL     1     -31.878  18.223  -1.080  1.00 20.00     0.005 C 
ENDBRANCH  11  12
ENDBRANCH  10  11
ENDBRANCH   9  10
ENDBRANCH   7   9
TORSDOF 4
ENDMDL
MODEL 8
REMARK VINA RESULT:      -4.0      2.001      3.285
REMARK  4 active torsions:
REMARK  status: ('A' for Active; 'I' for Inactive)
REMARK    1  A    between atoms: C7_7  and  C9_9 
REMARK    2  A    between atoms: C9_9  and  C11_11 
REMARK    3  A    between atoms: C10_10  and  C12_12 
REMARK    4  A    between atoms: C11_11  and  C12_12 
ROOT
HETATM    1  C1  UNL     1     -34.740  13.943  -3.939  1.00 20.00     0.004 C 
HETATM    2  C2  UNL     1     -33.710  14.751  -4.726  1.00 20.00     0.008 C 
HETATM    3  C3  UNL     1     -35.878  14.915  -3.665  1.00 20.00     0.038 C 
HETATM    4  C4  UNL     1     -34.537  17.017  -5.589  1.00 20.00     0.034 C 
HETATM    5  C5  UNL     1     -35.424  18.029  -4.899  1.00 20.00     0.169 C 
HETATM    6  C6  UNL     1     -33.996  16.222  -4.417  1.00 20.00     0.022 C 
HETATM    7  C7  UNL     1     -35.166  16.248  -3.429  1.00 20.00     0.064 C 
HETATM    8  O13 UNL     1     -36.022  17.340  -3.792  1.00 20.00    -0.380 OA
ENDROOT
BRANCH   7   9
HETATM    9  C9  UNL     1     -34.721  16.428  -1.982  1.00 20.00     0.038 C 
BRANCH   9  10
HETATM   10  C11 UNL     1     -33.383  17.161  -1.895  1.00 20.00     0.003 C 
BRANCH  10  11
HETATM   11  C12 UNL     1     -33.513  18.463  -1.104  1.00 20.00    -0.000 C 
BRANCH  11  12
HETATM   12  C10 UNL     1     -32.603  18.462   0.123  1.00 20.00    -0.005 C 
HETATM   13  C8  UNL     1     -31.137  18.372  -0.269  1.00 20.00     0.005 C 
ENDBRANCH  11  12
ENDBRANCH  10  11
ENDBRANCH   9  10
ENDBRANCH   7   9
TORSDOF 4
ENDMDL
MODEL 9
REMARK VINA RESULT:      -4.0      1.442      2.447
REMARK  4 active torsions:
REMARK  status: ('A' for Active; 'I' for Inactive)
REMARK    1  A    between atoms: C7_7  and  C9_9 
REMARK    2  A    between atoms: C9_9  and  C11_11 
REMARK    3  A    between atoms: C10_10  and  C12_12 
REMARK    4  A    between atoms: C11_11  and  C12_12 
ROOT
HETATM    1  C1  UNL     1     -36.319  13.788  -4.812  1.00 20.00     0.004 C 
HETATM    2  C2  UNL     1     -35.468  14.578  -5.806  1.00 20.00     0.008 C 
HETATM    3  C3  UNL     1     -36.981  14.841  -3.936  1.00 20.00     0.038 C 
HETATM    4  C4  UNL     1     -35.923  17.099  -5.859  1.00 20.00     0.034 C 
HETATM    5  C5  UNL     1     -36.200  18.038  -4.707  1.00 20.00     0.169 C 
HETATM    6  C6  UNL     1     -35.225  15.945  -5.164  1.00 20.00     0.022 C 
HETATM    7  C7  UNL     1     -35.908  15.921  -3.794  1.00 20.00     0.064 C 
HETATM    8  O13 UNL     1     -36.517  17.203  -3.584  1.00 20.00    -0.380 OA
ENDROOT
BRANCH   7   9
HETATM    9  C9  UNL     1     -34.940  15.640  -2.650  1.00 20.00     0.038 C 
BRANCH   9  10
HETATM   10  C11 UNL     1     -33.498  15.957  -3.046  1.00 20.00     0.003 C 
BRANCH  10  11
HETATM   11  C12 UNL     1     -33.002  17.232  -2.365  1.00 20.00    -0.000 C 
BRANCH  11  12
HETATM   12  C10 UNL     1     -33.940  17.661  -1.237  1.00 20.00    -0.005 C 
HETATM   13  C8  UNL     1     -34.343  19.121  -1.370  1.00 20.00     0.005 C 
ENDBRANCH  11  12
ENDBRANCH  10  11
ENDBRANCH   9  10
ENDBRANCH   7   9
TORSDOF 4
ENDMDL
