MODEL 1
REMARK VINA RESULT:      -4.2      0.000      0.000
REMARK  2 active torsions:
REMARK  status: ('A' for Active; 'I' for Inactive)
REMARK    1  A    between atoms: C1_1  and  C4_4 
REMARK    2  A    between atoms: C2_2  and  C3_3 
ROOT
HETATM    1  C1  UNL     1     -33.137   6.825   3.749  1.00 20.00     0.015 C 
HETATM    2  C3  UNL     1     -34.011   6.241   4.581  1.00 20.00     0.069 C 
HETATM    3 CL6  UNL     1     -34.278   6.729   6.207  1.00 20.00    -0.081 Cl
ENDROOT
BRANCH   2   4
HETATM    4  C2  UNL     1     -34.814   5.103   4.075  1.00 20.00     0.282 C 
HETATM    5  O5  UNL     1     -34.459   3.934   4.162  1.00 20.00    -0.301 OA
ENDBRANCH   2   4
BRANCH   1   6
HETATM    6  C4  UNL     1     -32.868   6.452   2.325  1.00 20.00     0.143 C 
HETATM    7 CL7  UNL     1     -32.555   7.919   1.369  1.00 20.00    -0.126 Cl
ENDBRANCH   1   6
TORSDOF 2
ENDMDL
MODEL 2
REMARK VINA RESULT:      -4.0      1.878      2.053
REMARK  2 active torsions:
REMARK  status: ('A' for Active; 'I' for Inactive)
REMARK    1  A    between atoms: C1_1  and  C4_4 
REMARK    2  A    between atoms: C2_2  and  C3_3 
ROOT
HETATM    1  C1  UNL     1     -33.280   6.189   2.926  1.00 20.00     0.015 C 
HETATM    2  C3  UNL     1     -33.947   6.003   4.074  1.00 20.00     0.069 C 
HETATM    3 CL6  UNL     1     -35.121   4.773   4.325  1.00 20.00    -0.081 Cl
ENDROOT
BRANCH   2   4
HETATM    4  C2  UNL     1     -33.657   6.905   5.213  1.00 20.00     0.282 C 
HETATM    5  O5  UNL     1     -34.208   6.814   6.304  1.00 20.00    -0.301 OA
ENDBRANCH   2   4
BRANCH   1   6
HETATM    6  C4  UNL     1     -32.244   7.233   2.651  1.00 20.00     0.143 C 
HETATM    7 CL7  UNL     1     -32.651   8.104   1.154  1.00 20.00    -0.126 Cl
ENDBRANCH   1   6
TORSDOF 2
ENDMDL
MODEL 3
REMARK VINA RESULT:      -3.5      1.444      3.411
REMARK  2 active torsions:
REMARK  status: ('A' for Active; 'I' for Inactive)
REMARK    1  A    between atoms: C1_1  and  C4_4 
REMARK    2  A    between atoms: C2_2  and  C3_3 
ROOT
HETATM    1  C1  UNL     1     -33.990   6.542   4.249  1.00 20.00     0.015 C 
HETATM    2  C3  UNL     1     -33.181   6.435   3.185  1.00 20.00     0.069 C 
HETATM    3 CL6  UNL     1     -31.917   7.540   2.813  1.00 20.00    -0.081 Cl
ENDROOT
BRANCH   2   4
HETATM    4  C2  UNL     1     -33.370   5.289   2.266  1.00 20.00     0.282 C 
HETATM    5  O5  UNL     1     -32.829   4.201   2.421  1.00 20.00    -0.301 OA
ENDBRANCH   2   4
BRANCH   1   6
HETATM    6  C4  UNL     1     -35.098   5.611   4.629  1.00 20.00     0.143 C 
HETATM    7 CL7  UNL     1     -34.834   5.008   6.282  1.00 20.00    -0.126 Cl
ENDBRANCH   1   6
TORSDOF 2
ENDMDL
MODEL 4
REMARK VINA RESULT:      -3.5      2.372      3.978
REMARK  2 active torsions:
REMARK  status: ('A' for Active; 'I' for Inactive)
REMARK    1  A    between atoms: C1_1  and  C4_4 
REMARK    2  A    between atoms: C2_2  and  C3_3 
ROOT
HETATM    1  C1  UNL     1     -34.542   4.865   3.687  1.00 20.00     0.015 C 
HETATM    2  C3  UNL     1     -33.516   5.179   2.883  1.00 20.00     0.069 C 
HETATM    3 CL6  UNL     1     -32.818   4.106   1.736  1.00 20.00    -0.081 Cl
ENDROOT
BRANCH   2   4
HETATM    4  C2  UNL     1     -32.940   6.541   2.973  1.00 20.00     0.282 C 
HETATM    5  O5  UNL     1     -32.552   7.176   2.000  1.00 20.00    -0.301 OA
ENDBRANCH   2   4
BRANCH   1   6
HETATM    6  C4  UNL     1     -35.195   5.757   4.696  1.00 20.00     0.143 C 
HETATM    7 CL7  UNL     1     -34.531   5.423   6.312  1.00 20.00    -0.126 Cl
ENDBRANCH   1   6
TORSDOF 2
ENDMDL
MODEL 5
REMARK VINA RESULT:      -3.4      9.160      9.621
REMARK  2 active torsions:
REMARK  status: ('A' for Active; 'I' for Inactive)
REMARK    1  A    between atoms: C1_1  and  C4_4 
REMARK    2  A    between atoms: C2_2  and  C3_3 
ROOT
HETATM    1  C1  UNL     1     -41.236   7.156   0.542  1.00 20.00     0.015 C 
HETATM    2  C3  UNL     1     -41.830   8.267   0.083  1.00 20.00     0.069 C 
HETATM    3 CL6  UNL     1     -41.273   9.864   0.392  1.00 20.00    -0.081 Cl
ENDROOT
BRANCH   2   4
HETATM    4  C2  UNL     1     -43.043   8.124  -0.756  1.00 20.00     0.282 C 
HETATM    5  O5  UNL     1     -43.011   7.993  -1.973  1.00 20.00    -0.301 OA
ENDBRANCH   2   4
BRANCH   1   6
HETATM    6  C4  UNL     1     -41.667   5.744   0.300  1.00 20.00     0.143 C 
HETATM    7 CL7  UNL     1     -40.931   5.141  -1.202  1.00 20.00    -0.126 Cl
ENDBRANCH   1   6
TORSDOF 2
ENDMDL
MODEL 6
REMARK VINA RESULT:      -3.4     11.631     12.327
REMARK  2 active torsions:
REMARK  status: ('A' for Active; 'I' for Inactive)
REMARK    1  A    between atoms: C1_1  and  C4_4 
REMARK    2  A    between atoms: C2_2  and  C3_3 
ROOT
HETATM    1  C1  UNL     1     -34.569  15.544  -4.542  1.00 20.00     0.015 C 
HETATM    2  C3  UNL     1     -35.376  14.742  -5.252  1.00 20.00     0.069 C 
HETATM    3 CL6  UNL     1     -35.571  14.825  -6.958  1.00 20.00    -0.081 Cl
ENDROOT
BRANCH   2   4
HETATM    4  C2  UNL     1     -36.152  13.705  -4.532  1.00 20.00     0.282 C 
HETATM    5  O5  UNL     1     -35.807  12.533  -4.457  1.00 20.00    -0.301 OA
ENDBRANCH   2   4
BRANCH   1   6
HETATM    6  C4  UNL     1     -34.353  15.514  -3.062  1.00 20.00     0.143 C 
HETATM    7 CL7  UNL     1     -33.049  16.642  -2.623  1.00 20.00    -0.126 Cl
ENDBRANCH   1   6
TORSDOF 2
ENDMDL
MODEL 7
REMARK VINA RESULT:      -3.4     11.627     11.868
REMARK  2 active torsions:
REMARK  status: ('A' for Active; 'I' for Inactive)
REMARK    1  A    between atoms: C1_1  and  C4_4 
REMARK    2  A    between atoms: C2_2  and  C3_3 
ROOT
HETATM    1  C1  UNL     1     -35.892  15.499  -3.296  1.00 20.00     0.015 C 
HETATM    2  C3  UNL     1     -36.679  14.723  -4.055  1.00 20.00     0.069 C 
HETATM    3 CL6  UNL     1     -38.389  14.872  -4.148  1.00 20.00    -0.081 Cl
ENDROOT
BRANCH   2   4
HETATM    4  C2  UNL     1     -36.045  13.669  -4.881  1.00 20.00     0.282 C 
HETATM    5  O5  UNL     1     -35.831  12.532  -4.477  1.00 20.00    -0.301 OA
ENDBRANCH   2   4
BRANCH   1   6
HETATM    6  C4  UNL     1     -34.402  15.423  -3.180  1.00 20.00     0.143 C 
HETATM    7 CL7  UNL     1     -33.818  16.706  -2.095  1.00 20.00    -0.126 Cl
ENDBRANCH   1   6
TORSDOF 2
ENDMDL
MODEL 8
REMARK VINA RESULT:      -3.3     11.427     12.432
REMARK  2 active torsions:
REMARK  status: ('A' for Active; 'I' for Inactive)
REMARK    1  A    between atoms: C1_1  and  C4_4 
REMARK    2  A    between atoms: C2_2  and  C3_3 
ROOT
HETATM    1  C1  UNL     1     -34.882  15.545  -5.458  1.00 20.00     0.015 C 
HETATM    2  C3  UNL     1     -35.280  14.903  -4.350  1.00 20.00     0.069 C 
HETATM    3 CL6  UNL     1     -34.842  15.361  -2.752  1.00 20.00    -0.081 Cl
ENDROOT
BRANCH   2   4
HETATM    4  C2  UNL     1     -36.164  13.724  -4.497  1.00 20.00     0.282 C 
HETATM    5  O5  UNL     1     -35.761  12.568  -4.461  1.00 20.00    -0.301 OA
ENDBRANCH   2   4
BRANCH   1   6
HETATM    6  C4  UNL     1     -35.236  15.201  -6.870  1.00 20.00     0.143 C 
HETATM    7 CL7  UNL     1     -33.767  15.191  -7.872  1.00 20.00    -0.126 Cl
ENDBRANCH   1   6
TORSDOF 2
ENDMDL
MODEL 9
REMARK VINA RESULT:      -3.3      8.906      9.056
REMARK  2 active torsions:
REMARK  status: ('A' for Active; 'I' for Inactive)
REMARK    1  A    between atoms: C1_1  and  C4_4 
REMARK    2  A    between atoms: C2_2  and  C3_3 
ROOT
HETATM    1  C1  UNL     1     -41.922   7.366   0.556  1.00 20.00     0.015 C 
HETATM    2  C3  UNL     1     -42.119   6.063   0.309  1.00 20.00     0.069 C 
HETATM    3 CL6  UNL     1     -42.833   4.962   1.420  1.00 20.00    -0.081 Cl
ENDROOT
BRANCH   2   4
HETATM    4  C2  UNL     1     -41.706   5.523  -1.007  1.00 20.00     0.282 C 
HETATM    5  O5  UNL     1     -40.582   5.096  -1.241  1.00 20.00    -0.301 OA
ENDBRANCH   2   4
BRANCH   1   6
HETATM    6  C4  UNL     1     -41.315   8.372  -0.372  1.00 20.00     0.143 C 
HETATM    7 CL7  UNL     1     -41.184   9.944   0.450  1.00 20.00    -0.126 Cl
ENDBRANCH   1   6
TORSDOF 2
ENDMDL
