MODEL 1
REMARK VINA RESULT:      -4.8      0.000      0.000
REMARK  3 active torsions:
REMARK  status: ('A' for Active; 'I' for Inactive)
REMARK    1  A    between atoms: C3_3  and  C7_7 
REMARK    2  A    between atoms: C7_7  and  C8_8 
REMARK    3  A    between atoms: C8_8  and  C9_9 
ROOT
HETATM    1  C1  UNL     1     -35.506  13.820  -4.116  1.00 20.00     0.088 C 
HETATM    2  C2  UNL     1     -35.003  14.994  -3.492  1.00 20.00     0.096 C 
HETATM    3  C3  UNL     1     -33.721  15.398  -3.571  1.00 20.00    -0.074 C 
HETATM    4  C4  UNL     1     -32.719  14.591  -4.356  1.00 20.00     0.044 C 
HETATM    5  N10 UNL     1     -35.922  12.862  -4.621  1.00 20.00    -0.192 NA
ENDROOT
BRANCH   3   6
HETATM    6  C7  UNL     1     -33.169  16.634  -2.887  1.00 20.00     0.034 C 
BRANCH   6   7
HETATM    7  C8  UNL     1     -34.026  17.061  -1.689  1.00 20.00     0.008 C 
BRANCH   7   8
HETATM    8  C9  UNL     1     -33.435  18.252  -0.910  1.00 20.00    -0.023 C 
HETATM    9  C5  UNL     1     -31.910  18.250  -1.039  1.00 20.00     0.009 C 
HETATM   10  C6  UNL     1     -33.827  18.233   0.568  1.00 20.00     0.009 C 
ENDBRANCH   7   8
ENDBRANCH   6   7
ENDBRANCH   3   6
TORSDOF 3
ENDMDL
MODEL 2
REMARK VINA RESULT:      -4.6      1.026      1.718
REMARK  3 active torsions:
REMARK  status: ('A' for Active; 'I' for Inactive)
REMARK    1  A    between atoms: C3_3  and  C7_7 
REMARK    2  A    between atoms: C7_7  and  C8_8 
REMARK    3  A    between atoms: C8_8  and  C9_9 
ROOT
HETATM    1  C1  UNL     1     -34.349  14.401  -4.004  1.00 20.00     0.088 C 
HETATM    2  C2  UNL     1     -33.487  15.457  -3.603  1.00 20.00     0.096 C 
HETATM    3  C3  UNL     1     -33.758  16.310  -2.597  1.00 20.00    -0.074 C 
HETATM    4  C4  UNL     1     -35.041  16.178  -1.818  1.00 20.00     0.044 C 
HETATM    5  N10 UNL     1     -35.049  13.537  -4.338  1.00 20.00    -0.192 NA
ENDROOT
BRANCH   3   6
HETATM    6  C7  UNL     1     -32.858  17.456  -2.179  1.00 20.00     0.034 C 
BRANCH   6   7
HETATM    7  C8  UNL     1     -33.522  18.359  -1.132  1.00 20.00     0.008 C 
BRANCH   7   8
HETATM    8  C9  UNL     1     -32.554  18.831  -0.030  1.00 20.00    -0.023 C 
HETATM    9  C5  UNL     1     -31.142  18.325  -0.330  1.00 20.00     0.009 C 
HETATM   10  C6  UNL     1     -32.984  18.365   1.362  1.00 20.00     0.009 C 
ENDBRANCH   7   8
ENDBRANCH   6   7
ENDBRANCH   3   6
TORSDOF 3
ENDMDL
MODEL 3
REMARK VINA RESULT:      -4.5     10.250     11.134
REMARK  3 active torsions:
REMARK  status: ('A' for Active; 'I' for Inactive)
REMARK    1  A    between atoms: C3_3  and  C7_7 
REMARK    2  A    between atoms: C7_7  and  C8_8 
REMARK    3  A    between atoms: C8_8  and  C9_9 
ROOT
HETATM    1  C1  UNL     1     -34.437   5.883   5.631  1.00 20.00     0.088 C 
HETATM    2  C2  UNL     1     -33.628   6.799   4.904  1.00 20.00     0.096 C 
HETATM    3  C3  UNL     1     -33.189   6.583   3.650  1.00 20.00    -0.074 C 
HETATM    4  C4  UNL     1     -33.549   5.310   2.930  1.00 20.00     0.044 C 
HETATM    5  N10 UNL     1     -35.096   5.140   6.231  1.00 20.00    -0.192 NA
ENDROOT
BRANCH   3   6
HETATM    6  C7  UNL     1     -32.305   7.541   2.876  1.00 20.00     0.034 C 
BRANCH   6   7
HETATM    7  C8  UNL     1     -32.430   7.345   1.360  1.00 20.00     0.008 C 
BRANCH   7   8
HETATM    8  C9  UNL     1     -32.559   8.669   0.581  1.00 20.00    -0.023 C 
HETATM    9  C5  UNL     1     -33.076   9.768   1.512  1.00 20.00     0.009 C 
HETATM   10  C6  UNL     1     -33.482   8.544  -0.631  1.00 20.00     0.009 C 
ENDBRANCH   7   8
ENDBRANCH   6   7
ENDBRANCH   3   6
TORSDOF 3
ENDMDL
MODEL 4
REMARK VINA RESULT:      -4.4      2.597      4.963
REMARK  3 active torsions:
REMARK  status: ('A' for Active; 'I' for Inactive)
REMARK    1  A    between atoms: C3_3  and  C7_7 
REMARK    2  A    between atoms: C7_7  and  C8_8 
REMARK    3  A    between atoms: C8_8  and  C9_9 
ROOT
HETATM    1  C1  UNL     1     -35.180  16.963  -0.862  1.00 20.00     0.088 C 
HETATM    2  C2  UNL     1     -35.106  16.043  -1.943  1.00 20.00     0.096 C 
HETATM    3  C3  UNL     1     -34.090  15.998  -2.826  1.00 20.00    -0.074 C 
HETATM    4  C4  UNL     1     -32.938  16.961  -2.703  1.00 20.00     0.044 C 
HETATM    5  N10 UNL     1     -35.247  17.712   0.022  1.00 20.00    -0.192 NA
ENDROOT
BRANCH   3   6
HETATM    6  C7  UNL     1     -34.015  15.039  -3.997  1.00 20.00     0.034 C 
BRANCH   6   7
HETATM    7  C8  UNL     1     -34.986  13.861  -3.841  1.00 20.00     0.008 C 
BRANCH   7   8
HETATM    8  C9  UNL     1     -36.113  13.855  -4.892  1.00 20.00    -0.023 C 
HETATM    9  C5  UNL     1     -35.672  14.641  -6.129  1.00 20.00     0.009 C 
HETATM   10  C6  UNL     1     -37.418  14.437  -4.349  1.00 20.00     0.009 C 
ENDBRANCH   7   8
ENDBRANCH   6   7
ENDBRANCH   3   6
TORSDOF 3
ENDMDL
MODEL 5
REMARK VINA RESULT:      -4.4      2.925      5.338
REMARK  3 active torsions:
REMARK  status: ('A' for Active; 'I' for Inactive)
REMARK    1  A    between atoms: C3_3  and  C7_7 
REMARK    2  A    between atoms: C7_7  and  C8_8 
REMARK    3  A    between atoms: C8_8  and  C9_9 
ROOT
HETATM    1  C1  UNL     1     -31.572  18.240  -0.918  1.00 20.00     0.088 C 
HETATM    2  C2  UNL     1     -32.629  17.827  -1.775  1.00 20.00     0.096 C 
HETATM    3  C3  UNL     1     -33.895  17.623  -1.364  1.00 20.00    -0.074 C 
HETATM    4  C4  UNL     1     -34.265  17.831   0.082  1.00 20.00     0.044 C 
HETATM    5  N10 UNL     1     -30.704  18.575  -0.224  1.00 20.00    -0.192 NA
ENDROOT
BRANCH   3   6
HETATM    6  C7  UNL     1     -35.022  17.158  -2.264  1.00 20.00     0.034 C 
BRANCH   6   7
HETATM    7  C8  UNL     1     -35.038  15.633  -2.427  1.00 20.00     0.008 C 
BRANCH   7   8
HETATM    8  C9  UNL     1     -34.710  15.168  -3.859  1.00 20.00    -0.023 C 
HETATM    9  C5  UNL     1     -35.422  13.845  -4.150  1.00 20.00     0.009 C 
HETATM   10  C6  UNL     1     -33.207  15.006  -4.088  1.00 20.00     0.009 C 
ENDBRANCH   7   8
ENDBRANCH   6   7
ENDBRANCH   3   6
TORSDOF 3
ENDMDL
MODEL 6
REMARK VINA RESULT:      -4.4      2.687      5.247
REMARK  3 active torsions:
REMARK  status: ('A' for Active; 'I' for Inactive)
REMARK    1  A    between atoms: C3_3  and  C7_7 
REMARK    2  A    between atoms: C7_7  and  C8_8 
REMARK    3  A    between atoms: C8_8  and  C9_9 
ROOT
HETATM    1  C1  UNL     1     -32.802  17.801  -1.740  1.00 20.00     0.088 C 
HETATM    2  C2  UNL     1     -32.865  16.846  -2.791  1.00 20.00     0.096 C 
HETATM    3  C3  UNL     1     -33.890  15.992  -2.972  1.00 20.00    -0.074 C 
HETATM    4  C4  UNL     1     -35.066  16.010  -2.030  1.00 20.00     0.044 C 
HETATM    5  N10 UNL     1     -32.744  18.582  -0.883  1.00 20.00    -0.192 NA
ENDROOT
BRANCH   3   6
HETATM    6  C7  UNL     1     -33.953  14.952  -4.073  1.00 20.00     0.034 C 
BRANCH   6   7
HETATM    7  C8  UNL     1     -35.025  13.889  -3.802  1.00 20.00     0.008 C 
BRANCH   7   8
HETATM    8  C9  UNL     1     -36.138  13.858  -4.867  1.00 20.00    -0.023 C 
HETATM    9  C5  UNL     1     -35.686  14.626  -6.111  1.00 20.00     0.009 C 
HETATM   10  C6  UNL     1     -37.454  14.440  -4.351  1.00 20.00     0.009 C 
ENDBRANCH   7   8
ENDBRANCH   6   7
ENDBRANCH   3   6
TORSDOF 3
ENDMDL
MODEL 7
REMARK VINA RESULT:      -4.3      1.218      1.789
REMARK  3 active torsions:
REMARK  status: ('A' for Active; 'I' for Inactive)
REMARK    1  A    between atoms: C3_3  and  C7_7 
REMARK    2  A    between atoms: C7_7  and  C8_8 
REMARK    3  A    between atoms: C8_8  and  C9_9 
ROOT
HETATM    1  C1  UNL     1     -36.607  14.241  -4.103  1.00 20.00     0.088 C 
HETATM    2  C2  UNL     1     -35.386  14.677  -3.520  1.00 20.00     0.096 C 
HETATM    3  C3  UNL     1     -34.380  15.241  -4.215  1.00 20.00    -0.074 C 
HETATM    4  C4  UNL     1     -34.507  15.445  -5.702  1.00 20.00     0.044 C 
HETATM    5  N10 UNL     1     -37.606  13.882  -4.572  1.00 20.00    -0.192 NA
ENDROOT
BRANCH   3   6
HETATM    6  C7  UNL     1     -33.063  15.684  -3.607  1.00 20.00     0.034 C 
BRANCH   6   7
HETATM    7  C8  UNL     1     -33.064  17.177  -3.255  1.00 20.00     0.008 C 
BRANCH   7   8
HETATM    8  C9  UNL     1     -33.059  17.446  -1.738  1.00 20.00    -0.023 C 
HETATM    9  C5  UNL     1     -34.438  17.938  -1.294  1.00 20.00     0.009 C 
HETATM   10  C6  UNL     1     -31.993  18.464  -1.330  1.00 20.00     0.009 C 
ENDBRANCH   7   8
ENDBRANCH   6   7
ENDBRANCH   3   6
TORSDOF 3
ENDMDL
MODEL 8
REMARK VINA RESULT:      -4.3      3.245      5.502
REMARK  3 active torsions:
REMARK  status: ('A' for Active; 'I' for Inactive)
REMARK    1  A    between atoms: C3_3  and  C7_7 
REMARK    2  A    between atoms: C7_7  and  C8_8 
REMARK    3  A    between atoms: C8_8  and  C9_9 
ROOT
HETATM    1  C1  UNL     1     -30.995  18.516   0.030  1.00 20.00     0.088 C 
HETATM    2  C2  UNL     1     -31.823  18.125  -1.059  1.00 20.00     0.096 C 
HETATM    3  C3  UNL     1     -33.167  18.071  -1.001  1.00 20.00    -0.074 C 
HETATM    4  C4  UNL     1     -33.885  18.436   0.272  1.00 20.00     0.044 C 
HETATM    5  N10 UNL     1     -30.314  18.832   0.914  1.00 20.00    -0.192 NA
ENDROOT
BRANCH   3   6
HETATM    6  C7  UNL     1     -34.056  17.630  -2.147  1.00 20.00     0.034 C 
BRANCH   6   7
HETATM    7  C8  UNL     1     -34.760  16.300  -1.852  1.00 20.00     0.008 C 
BRANCH   7   8
HETATM    8  C9  UNL     1     -34.642  15.279  -3.001  1.00 20.00    -0.023 C 
HETATM    9  C5  UNL     1     -33.327  15.495  -3.753  1.00 20.00     0.009 C 
HETATM   10  C6  UNL     1     -35.815  15.364  -3.978  1.00 20.00     0.009 C 
ENDBRANCH   7   8
ENDBRANCH   6   7
ENDBRANCH   3   6
TORSDOF 3
ENDMDL
MODEL 9
REMARK VINA RESULT:      -4.1      2.863      5.040
REMARK  3 active torsions:
REMARK  status: ('A' for Active; 'I' for Inactive)
REMARK    1  A    between atoms: C3_3  and  C7_7 
REMARK    2  A    between atoms: C7_7  and  C8_8 
REMARK    3  A    between atoms: C8_8  and  C9_9 
ROOT
HETATM    1  C1  UNL     1     -34.769  17.715  -0.527  1.00 20.00     0.088 C 
HETATM    2  C2  UNL     1     -35.122  16.621  -1.363  1.00 20.00     0.096 C 
HETATM    3  C3  UNL     1     -34.356  16.167  -2.373  1.00 20.00    -0.074 C 
HETATM    4  C4  UNL     1     -33.035  16.825  -2.675  1.00 20.00     0.044 C 
HETATM    5  N10 UNL     1     -34.487  18.609   0.158  1.00 20.00    -0.192 NA
ENDROOT
BRANCH   3   6
HETATM    6  C7  UNL     1     -34.736  15.019  -3.287  1.00 20.00     0.034 C 
BRANCH   6   7
HETATM    7  C8  UNL     1     -33.758  14.866  -4.459  1.00 20.00     0.008 C 
BRANCH   7   8
HETATM    8  C9  UNL     1     -34.424  15.044  -5.837  1.00 20.00    -0.023 C 
HETATM    9  C5  UNL     1     -34.524  16.533  -6.175  1.00 20.00     0.009 C 
HETATM   10  C6  UNL     1     -35.812  14.406  -5.900  1.00 20.00     0.009 C 
ENDBRANCH   7   8
ENDBRANCH   6   7
ENDBRANCH   3   6
TORSDOF 3
ENDMDL
