MODEL 1
REMARK VINA RESULT:      -4.8      0.000      0.000
REMARK  3 active torsions:
REMARK  status: ('A' for Active; 'I' for Inactive)
REMARK    1  A    between atoms: C6_6  and  C8_8 
REMARK    2  A    between atoms: C7_7  and  O11_11 
REMARK    3  A    between atoms: C9_9  and  C10_10 
ROOT
HETATM    1  C1  UNL     1     -22.789  17.881   8.211  1.00 20.00    -0.023 C 
HETATM    2  C2  UNL     1     -23.949  18.534   7.968  1.00 20.00     0.001 C 
HETATM    3  C6  UNL     1     -22.427  18.146   9.626  1.00 20.00     0.019 C 
HETATM    4  C7  UNL     1     -24.542  19.115   9.253  1.00 20.00     0.145 C 
HETATM    5  C10 UNL     1     -23.854  18.154  10.194  1.00 20.00     0.030 C 
ENDROOT
BRANCH   4   6
HETATM    6  O11 UNL     1     -25.945  18.949   9.282  1.00 20.00    -0.391 OA
HETATM    7  H25 UNL     1     -26.125  17.997   9.188  1.00 20.00     0.210 HD
ENDBRANCH   4   6
BRANCH   5   8
HETATM    8  C9  UNL     1     -23.612  18.178  11.713  1.00 20.00    -0.007 C 
HETATM    9  C4  UNL     1     -25.035  18.155  12.332  1.00 20.00     0.005 C 
HETATM   10  C3  UNL     1     -25.594  16.801  11.821  1.00 20.00     0.005 C 
HETATM   11  C8  UNL     1     -24.357  16.095  11.229  1.00 20.00    -0.006 C 
HETATM   12  C5  UNL     1     -23.221  16.733  12.076  1.00 20.00     0.010 C 
ENDBRANCH   5   8
TORSDOF 3
ENDMDL
MODEL 2
REMARK VINA RESULT:      -4.6     16.862     18.570
REMARK  3 active torsions:
REMARK  status: ('A' for Active; 'I' for Inactive)
REMARK    1  A    between atoms: C6_6  and  C8_8 
REMARK    2  A    between atoms: C7_7  and  O11_11 
REMARK    3  A    between atoms: C9_9  and  C10_10 
ROOT
HETATM    1  C1  UNL     1     -33.061  16.174  -3.407  1.00 20.00    -0.023 C 
HETATM    2  C2  UNL     1     -33.838  16.622  -2.394  1.00 20.00     0.001 C 
HETATM    3  C6  UNL     1     -33.654  14.899  -3.882  1.00 20.00     0.019 C 
HETATM    4  C7  UNL     1     -35.108  15.781  -2.252  1.00 20.00     0.145 C 
HETATM    5  C10 UNL     1     -35.127  15.280  -3.678  1.00 20.00     0.030 C 
ENDROOT
BRANCH   4   6
HETATM    6  O11 UNL     1     -36.227  16.600  -1.979  1.00 20.00    -0.391 OA
HETATM    7  H25 UNL     1     -36.243  16.756  -1.019  1.00 20.00     0.210 HD
ENDBRANCH   4   6
BRANCH   5   8
HETATM    8  C9  UNL     1     -35.874  14.124  -4.364  1.00 20.00    -0.007 C 
HETATM    9  C4  UNL     1     -37.372  14.516  -4.265  1.00 20.00     0.005 C 
HETATM   10  C3  UNL     1     -37.418  15.841  -5.072  1.00 20.00     0.005 C 
HETATM   11  C8  UNL     1     -36.039  15.896  -5.763  1.00 20.00    -0.006 C 
HETATM   12  C5  UNL     1     -35.706  14.383  -5.873  1.00 20.00     0.010 C 
ENDBRANCH   5   8
TORSDOF 3
ENDMDL
MODEL 3
REMARK VINA RESULT:      -4.4     16.676     18.263
REMARK  3 active torsions:
REMARK  status: ('A' for Active; 'I' for Inactive)
REMARK    1  A    between atoms: C6_6  and  C8_8 
REMARK    2  A    between atoms: C7_7  and  O11_11 
REMARK    3  A    between atoms: C9_9  and  C10_10 
ROOT
HETATM    1  C1  UNL     1     -36.214  14.007  -5.093  1.00 20.00    -0.023 C 
HETATM    2  C2  UNL     1     -35.528  14.556  -6.121  1.00 20.00     0.001 C 
HETATM    3  C6  UNL     1     -35.327  14.051  -3.904  1.00 20.00     0.019 C 
HETATM    4  C7  UNL     1     -34.215  15.181  -5.646  1.00 20.00     0.145 C 
HETATM    5  C10 UNL     1     -34.650  15.393  -4.214  1.00 20.00     0.030 C 
ENDROOT
BRANCH   4   6
HETATM    6  O11 UNL     1     -33.976  16.411  -6.299  1.00 20.00    -0.391 OA
HETATM    7  H25 UNL     1     -33.242  16.848  -5.832  1.00 20.00     0.210 HD
ENDBRANCH   4   6
BRANCH   5   8
HETATM    8  C9  UNL     1     -33.868  15.684  -2.921  1.00 20.00    -0.007 C 
HETATM    9  C4  UNL     1     -33.200  17.061  -3.174  1.00 20.00     0.005 C 
HETATM   10  C3  UNL     1     -34.427  17.991  -3.372  1.00 20.00     0.005 C 
HETATM   11  C8  UNL     1     -35.620  17.118  -2.931  1.00 20.00    -0.006 C 
HETATM   12  C5  UNL     1     -34.930  16.167  -1.916  1.00 20.00     0.010 C 
ENDBRANCH   5   8
TORSDOF 3
ENDMDL
MODEL 4
REMARK VINA RESULT:      -4.3      1.559      2.429
REMARK  3 active torsions:
REMARK  status: ('A' for Active; 'I' for Inactive)
REMARK    1  A    between atoms: C6_6  and  C8_8 
REMARK    2  A    between atoms: C7_7  and  O11_11 
REMARK    3  A    between atoms: C9_9  and  C10_10 
ROOT
HETATM    1  C1  UNL     1     -23.874  19.263   8.418  1.00 20.00    -0.023 C 
HETATM    2  C2  UNL     1     -23.058  18.236   8.086  1.00 20.00     0.001 C 
HETATM    3  C6  UNL     1     -24.957  18.703   9.265  1.00 20.00     0.019 C 
HETATM    4  C7  UNL     1     -23.428  16.961   8.846  1.00 20.00     0.145 C 
HETATM    5  C10 UNL     1     -24.109  17.657  10.002  1.00 20.00     0.030 C 
ENDROOT
BRANCH   4   6
HETATM    6  O11 UNL     1     -22.270  16.271   9.269  1.00 20.00    -0.391 OA
HETATM    7  H25 UNL     1     -21.548  16.521   8.666  1.00 20.00     0.210 HD
ENDBRANCH   4   6
BRANCH   5   8
HETATM    8  C9  UNL     1     -25.065  17.159  11.099  1.00 20.00    -0.007 C 
HETATM    9  C4  UNL     1     -24.315  15.970  11.755  1.00 20.00     0.005 C 
HETATM   10  C3  UNL     1     -23.041  16.654  12.317  1.00 20.00     0.005 C 
HETATM   11  C8  UNL     1     -23.343  18.160  12.174  1.00 20.00    -0.006 C 
HETATM   12  C5  UNL     1     -24.894  18.158  12.258  1.00 20.00     0.010 C 
ENDBRANCH   5   8
TORSDOF 3
ENDMDL
MODEL 5
REMARK VINA RESULT:      -4.3      1.277      1.722
REMARK  3 active torsions:
REMARK  status: ('A' for Active; 'I' for Inactive)
REMARK    1  A    between atoms: C6_6  and  C8_8 
REMARK    2  A    between atoms: C7_7  and  O11_11 
REMARK    3  A    between atoms: C9_9  and  C10_10 
ROOT
HETATM    1  C1  UNL     1     -25.149  19.074   7.933  1.00 20.00    -0.023 C 
HETATM    2  C2  UNL     1     -26.289  19.237   8.644  1.00 20.00     0.001 C 
HETATM    3  C6  UNL     1     -24.019  19.177   8.890  1.00 20.00     0.019 C 
HETATM    4  C7  UNL     1     -26.009  19.263  10.148  1.00 20.00     0.145 C 
HETATM    5  C10 UNL     1     -24.708  18.496  10.081  1.00 20.00     0.030 C 
ENDROOT
BRANCH   4   6
HETATM    6  O11 UNL     1     -26.996  18.542  10.857  1.00 20.00    -0.391 OA
HETATM    7  H25 UNL     1     -26.704  17.615  10.898  1.00 20.00     0.210 HD
ENDBRANCH   4   6
BRANCH   5   8
HETATM    8  C9  UNL     1     -23.554  18.315  11.081  1.00 20.00    -0.007 C 
HETATM    9  C4  UNL     1     -24.176  17.503  12.248  1.00 20.00     0.005 C 
HETATM   10  C3  UNL     1     -24.591  16.183  11.545  1.00 20.00     0.005 C 
HETATM   11  C8  UNL     1     -23.913  16.277  10.162  1.00 20.00    -0.006 C 
HETATM   12  C5  UNL     1     -22.694  17.181  10.494  1.00 20.00     0.010 C 
ENDBRANCH   5   8
TORSDOF 3
ENDMDL
MODEL 6
REMARK VINA RESULT:      -4.2     15.930     17.731
REMARK  3 active torsions:
REMARK  status: ('A' for Active; 'I' for Inactive)
REMARK    1  A    between atoms: C6_6  and  C8_8 
REMARK    2  A    between atoms: C7_7  and  O11_11 
REMARK    3  A    between atoms: C9_9  and  C10_10 
ROOT
HETATM    1  C1  UNL     1     -32.861  17.338  -2.032  1.00 20.00    -0.023 C 
HETATM    2  C2  UNL     1     -32.807  18.253  -3.028  1.00 20.00     0.001 C 
HETATM    3  C6  UNL     1     -34.116  16.567  -2.216  1.00 20.00     0.019 C 
HETATM    4  C7  UNL     1     -33.918  18.025  -4.055  1.00 20.00     0.145 C 
HETATM    5  C10 UNL     1     -34.117  16.558  -3.751  1.00 20.00     0.030 C 
ENDROOT
BRANCH   4   6
HETATM    6  O11 UNL     1     -33.437  18.218  -5.370  1.00 20.00    -0.391 OA
HETATM    7  H25 UNL     1     -34.039  18.844  -5.809  1.00 20.00     0.210 HD
ENDBRANCH   4   6
BRANCH   5   8
HETATM    8  C9  UNL     1     -35.249  15.571  -4.083  1.00 20.00    -0.007 C 
HETATM    9  C4  UNL     1     -35.245  15.483  -5.632  1.00 20.00     0.005 C 
HETATM   10  C3  UNL     1     -33.830  14.915  -5.925  1.00 20.00     0.005 C 
HETATM   11  C8  UNL     1     -33.316  14.484  -4.535  1.00 20.00    -0.006 C 
HETATM   12  C5  UNL     1     -34.654  14.178  -3.809  1.00 20.00     0.010 C 
ENDBRANCH   5   8
TORSDOF 3
ENDMDL
MODEL 7
REMARK VINA RESULT:      -4.1     17.011     18.774
REMARK  3 active torsions:
REMARK  status: ('A' for Active; 'I' for Inactive)
REMARK    1  A    between atoms: C6_6  and  C8_8 
REMARK    2  A    between atoms: C7_7  and  O11_11 
REMARK    3  A    between atoms: C9_9  and  C10_10 
ROOT
HETATM    1  C1  UNL     1     -34.867  16.667  -7.481  1.00 20.00    -0.023 C 
HETATM    2  C2  UNL     1     -34.076  15.570  -7.440  1.00 20.00     0.001 C 
HETATM    3  C6  UNL     1     -35.719  16.636  -6.266  1.00 20.00     0.019 C 
HETATM    4  C7  UNL     1     -34.207  14.838  -6.103  1.00 20.00     0.145 C 
HETATM    5  C10 UNL     1     -34.678  16.036  -5.311  1.00 20.00     0.030 C 
ENDROOT
BRANCH   4   6
HETATM    6  O11 UNL     1     -32.948  14.384  -5.651  1.00 20.00    -0.391 OA
HETATM    7  H25 UNL     1     -32.697  13.626  -6.207  1.00 20.00     0.210 HD
ENDBRANCH   4   6
BRANCH   5   8
HETATM    8  C9  UNL     1     -35.359  16.174  -3.939  1.00 20.00    -0.007 C 
HETATM    9  C4  UNL     1     -34.337  15.575  -2.937  1.00 20.00     0.005 C 
HETATM   10  C3  UNL     1     -33.115  16.515  -3.113  1.00 20.00     0.005 C 
HETATM   11  C8  UNL     1     -33.671  17.682  -3.956  1.00 20.00    -0.006 C 
HETATM   12  C5  UNL     1     -35.169  17.651  -3.548  1.00 20.00     0.010 C 
ENDBRANCH   5   8
TORSDOF 3
ENDMDL
MODEL 8
REMARK VINA RESULT:      -4.0     17.276     18.964
REMARK  3 active torsions:
REMARK  status: ('A' for Active; 'I' for Inactive)
REMARK    1  A    between atoms: C6_6  and  C8_8 
REMARK    2  A    between atoms: C7_7  and  O11_11 
REMARK    3  A    between atoms: C9_9  and  C10_10 
ROOT
HETATM    1  C1  UNL     1     -36.623  16.063  -6.667  1.00 20.00    -0.023 C 
HETATM    2  C2  UNL     1     -35.854  17.163  -6.835  1.00 20.00     0.001 C 
HETATM    3  C6  UNL     1     -35.714  14.946  -6.306  1.00 20.00     0.019 C 
HETATM    4  C7  UNL     1     -34.408  16.903  -6.408  1.00 20.00     0.145 C 
HETATM    5  C10 UNL     1     -34.722  15.764  -5.467  1.00 20.00     0.030 C 
ENDROOT
BRANCH   4   6
HETATM    6  O11 UNL     1     -33.879  18.014  -5.713  1.00 20.00    -0.391 OA
HETATM    7  H25 UNL     1     -33.307  17.668  -5.007  1.00 20.00     0.210 HD
ENDBRANCH   4   6
BRANCH   5   8
HETATM    8  C9  UNL     1     -33.847  14.675  -4.822  1.00 20.00    -0.007 C 
HETATM    9  C4  UNL     1     -32.974  15.440  -3.793  1.00 20.00     0.005 C 
HETATM   10  C3  UNL     1     -34.039  16.023  -2.826  1.00 20.00     0.005 C 
HETATM   11  C8  UNL     1     -35.339  15.301  -3.239  1.00 20.00    -0.006 C 
HETATM   12  C5  UNL     1     -34.770  13.973  -3.809  1.00 20.00     0.010 C 
ENDBRANCH   5   8
TORSDOF 3
ENDMDL
MODEL 9
REMARK VINA RESULT:      -4.0     16.951     18.654
REMARK  3 active torsions:
REMARK  status: ('A' for Active; 'I' for Inactive)
REMARK    1  A    between atoms: C6_6  and  C8_8 
REMARK    2  A    between atoms: C7_7  and  O11_11 
REMARK    3  A    between atoms: C9_9  and  C10_10 
ROOT
HETATM    1  C1  UNL     1     -37.030  15.493  -5.689  1.00 20.00    -0.023 C 
HETATM    2  C2  UNL     1     -36.076  15.556  -6.646  1.00 20.00     0.001 C 
HETATM    3  C6  UNL     1     -36.411  14.864  -4.495  1.00 20.00     0.019 C 
HETATM    4  C7  UNL     1     -34.706  15.156  -6.094  1.00 20.00     0.145 C 
HETATM    5  C10 UNL     1     -35.014  15.482  -4.651  1.00 20.00     0.030 C 
ENDROOT
BRANCH   4   6
HETATM    6  O11 UNL     1     -33.691  15.995  -6.606  1.00 20.00    -0.391 OA
HETATM    7  H25 UNL     1     -33.880  16.899  -6.299  1.00 20.00     0.210 HD
ENDBRANCH   4   6
BRANCH   5   8
HETATM    8  C9  UNL     1     -34.327  15.102  -3.329  1.00 20.00    -0.007 C 
HETATM    9  C4  UNL     1     -32.968  15.851  -3.369  1.00 20.00     0.005 C 
HETATM   10  C3  UNL     1     -33.413  17.336  -3.424  1.00 20.00     0.005 C 
HETATM   11  C8  UNL     1     -34.925  17.275  -3.122  1.00 20.00    -0.006 C 
HETATM   12  C5  UNL     1     -35.002  15.984  -2.262  1.00 20.00     0.010 C 
ENDBRANCH   5   8
TORSDOF 3
ENDMDL
