MODEL 1
REMARK VINA RESULT:      -4.9      0.000      0.000
REMARK  2 active torsions:
REMARK  status: ('A' for Active; 'I' for Inactive)
REMARK    1  A    between atoms: C1_1  and  C5_5 
REMARK    2  A    between atoms: C1_1  and  C6_6 
ROOT
HETATM    1  C2  UNL     1     -34.484   6.244   6.317  1.00 20.00     0.029 C 
HETATM    2  C3  UNL     1     -33.574   6.889   5.302  1.00 20.00     0.042 C 
HETATM    3  C4  UNL     1     -34.801   4.923   5.657  1.00 20.00     0.168 C 
HETATM    4  C5  UNL     1     -34.165   6.414   3.989  1.00 20.00     0.192 C 
HETATM    5  O8  UNL     1     -34.850   5.182   4.247  1.00 20.00    -0.378 OA
ENDROOT
BRANCH   4   6
HETATM    6  C1  UNL     1     -33.126   6.108   2.963  1.00 20.00     0.169 C 
HETATM    7  O7  UNL     1     -33.085   5.002   2.424  1.00 20.00    -0.294 OA
BRANCH   6   8
HETATM    8  C6  UNL     1     -32.160   7.228   2.652  1.00 20.00     0.195 C 
HETATM    9 CL9  UNL     1     -32.632   8.067   1.167  1.00 20.00    -0.122 Cl
ENDBRANCH   6   8
ENDBRANCH   4   6
TORSDOF 2
ENDMDL
MODEL 2
REMARK VINA RESULT:      -4.5      1.348      1.421
REMARK  2 active torsions:
REMARK  status: ('A' for Active; 'I' for Inactive)
REMARK    1  A    between atoms: C1_1  and  C5_5 
REMARK    2  A    between atoms: C1_1  and  C6_6 
ROOT
HETATM    1  C2  UNL     1     -34.789   5.344   5.652  1.00 20.00     0.029 C 
HETATM    2  C3  UNL     1     -33.962   6.579   5.396  1.00 20.00     0.042 C 
HETATM    3  C4  UNL     1     -34.413   4.468   4.481  1.00 20.00     0.168 C 
HETATM    4  C5  UNL     1     -33.982   6.674   3.883  1.00 20.00     0.192 C 
HETATM    5  O8  UNL     1     -34.199   5.353   3.373  1.00 20.00    -0.378 OA
ENDROOT
BRANCH   4   6
HETATM    6  C1  UNL     1     -32.682   7.134   3.313  1.00 20.00     0.169 C 
HETATM    7  O7  UNL     1     -31.799   7.577   4.046  1.00 20.00    -0.294 OA
BRANCH   6   8
HETATM    8  C6  UNL     1     -32.545   7.016   1.813  1.00 20.00     0.195 C 
HETATM    9 CL9  UNL     1     -32.830   8.580   1.034  1.00 20.00    -0.122 Cl
ENDBRANCH   6   8
ENDBRANCH   4   6
TORSDOF 2
ENDMDL
MODEL 3
REMARK VINA RESULT:      -4.2     15.959     16.588
REMARK  2 active torsions:
REMARK  status: ('A' for Active; 'I' for Inactive)
REMARK    1  A    between atoms: C1_1  and  C5_5 
REMARK    2  A    between atoms: C1_1  and  C6_6 
ROOT
HETATM    1  C2  UNL     1     -23.614  16.595  11.696  1.00 20.00     0.029 C 
HETATM    2  C3  UNL     1     -24.064  16.648  10.258  1.00 20.00     0.042 C 
HETATM    3  C4  UNL     1     -22.624  17.734  11.756  1.00 20.00     0.168 C 
HETATM    4  C5  UNL     1     -22.794  17.058   9.537  1.00 20.00     0.192 C 
HETATM    5  O8  UNL     1     -21.978  17.769  10.476  1.00 20.00    -0.378 OA
ENDROOT
BRANCH   4   6
HETATM    6  C1  UNL     1     -23.048  17.999   8.407  1.00 20.00     0.169 C 
HETATM    7  O7  UNL     1     -22.409  17.907   7.360  1.00 20.00    -0.294 OA
BRANCH   6   8
HETATM    8  C6  UNL     1     -24.115  19.042   8.648  1.00 20.00     0.195 C 
HETATM    9 CL9  UNL     1     -25.437  18.865   7.485  1.00 20.00    -0.122 Cl
ENDBRANCH   6   8
ENDBRANCH   4   6
TORSDOF 2
ENDMDL
MODEL 4
REMARK VINA RESULT:      -4.1     11.681     12.267
REMARK  2 active torsions:
REMARK  status: ('A' for Active; 'I' for Inactive)
REMARK    1  A    between atoms: C1_1  and  C5_5 
REMARK    2  A    between atoms: C1_1  and  C6_6 
ROOT
HETATM    1  C2  UNL     1     -33.797  15.787  -2.870  1.00 20.00     0.029 C 
HETATM    2  C3  UNL     1     -35.266  15.507  -3.068  1.00 20.00     0.042 C 
HETATM    3  C4  UNL     1     -33.192  15.175  -4.112  1.00 20.00     0.168 C 
HETATM    4  C5  UNL     1     -35.248  14.150  -3.746  1.00 20.00     0.192 C 
HETATM    5  O8  UNL     1     -33.989  14.023  -4.418  1.00 20.00    -0.378 OA
ENDROOT
BRANCH   4   6
HETATM    6  C1  UNL     1     -36.298  14.013  -4.797  1.00 20.00     0.169 C 
HETATM    7  O7  UNL     1     -37.424  13.611  -4.508  1.00 20.00    -0.294 OA
BRANCH   6   8
HETATM    8  C6  UNL     1     -35.878  14.394  -6.198  1.00 20.00     0.195 C 
HETATM    9 CL9  UNL     1     -36.179  16.112  -6.497  1.00 20.00    -0.122 Cl
ENDBRANCH   6   8
ENDBRANCH   4   6
TORSDOF 2
ENDMDL
MODEL 5
REMARK VINA RESULT:      -4.1     11.196     12.232
REMARK  2 active torsions:
REMARK  status: ('A' for Active; 'I' for Inactive)
REMARK    1  A    between atoms: C1_1  and  C5_5 
REMARK    2  A    between atoms: C1_1  and  C6_6 
ROOT
HETATM    1  C2  UNL     1     -38.181  15.977  -5.028  1.00 20.00     0.029 C 
HETATM    2  C3  UNL     1     -36.681  15.840  -4.955  1.00 20.00     0.042 C 
HETATM    3  C4  UNL     1     -38.642  14.788  -4.219  1.00 20.00     0.168 C 
HETATM    4  C5  UNL     1     -36.491  14.336  -4.980  1.00 20.00     0.192 C 
HETATM    5  O8  UNL     1     -37.690  13.744  -4.465  1.00 20.00    -0.378 OA
ENDROOT
BRANCH   4   6
HETATM    6  C1  UNL     1     -35.384  13.876  -4.092  1.00 20.00     0.169 C 
HETATM    7  O7  UNL     1     -35.082  12.685  -4.032  1.00 20.00    -0.294 OA
BRANCH   6   8
HETATM    8  C6  UNL     1     -34.689  14.958  -3.297  1.00 20.00     0.195 C 
HETATM    9 CL9  UNL     1     -33.057  15.243  -3.921  1.00 20.00    -0.122 Cl
ENDBRANCH   6   8
ENDBRANCH   4   6
TORSDOF 2
ENDMDL
MODEL 6
REMARK VINA RESULT:      -3.9     11.811     12.272
REMARK  2 active torsions:
REMARK  status: ('A' for Active; 'I' for Inactive)
REMARK    1  A    between atoms: C1_1  and  C5_5 
REMARK    2  A    between atoms: C1_1  and  C6_6 
ROOT
HETATM    1  C2  UNL     1     -33.298  15.655  -3.445  1.00 20.00     0.029 C 
HETATM    2  C3  UNL     1     -33.948  14.652  -4.364  1.00 20.00     0.042 C 
HETATM    3  C4  UNL     1     -34.404  15.932  -2.453  1.00 20.00     0.168 C 
HETATM    4  C5  UNL     1     -35.385  15.133  -4.405  1.00 20.00     0.192 C 
HETATM    5  O8  UNL     1     -35.631  15.855  -3.191  1.00 20.00    -0.378 OA
ENDROOT
BRANCH   4   6
HETATM    6  C1  UNL     1     -36.371  14.014  -4.432  1.00 20.00     0.169 C 
HETATM    7  O7  UNL     1     -35.994  12.849  -4.550  1.00 20.00    -0.294 OA
BRANCH   6   8
HETATM    8  C6  UNL     1     -37.824  14.415  -4.309  1.00 20.00     0.195 C 
HETATM    9 CL9  UNL     1     -38.159  15.857  -5.278  1.00 20.00    -0.122 Cl
ENDBRANCH   6   8
ENDBRANCH   4   6
TORSDOF 2
ENDMDL
MODEL 7
REMARK VINA RESULT:      -3.8     16.037     16.559
REMARK  2 active torsions:
REMARK  status: ('A' for Active; 'I' for Inactive)
REMARK    1  A    between atoms: C1_1  and  C5_5 
REMARK    2  A    between atoms: C1_1  and  C6_6 
ROOT
HETATM    1  C2  UNL     1     -25.792  17.082  12.332  1.00 20.00     0.029 C 
HETATM    2  C3  UNL     1     -24.838  18.190  11.963  1.00 20.00     0.042 C 
HETATM    3  C4  UNL     1     -25.020  15.853  11.912  1.00 20.00     0.168 C 
HETATM    4  C5  UNL     1     -24.196  17.657  10.697  1.00 20.00     0.192 C 
HETATM    5  O8  UNL     1     -24.278  16.228  10.743  1.00 20.00    -0.378 OA
ENDROOT
BRANCH   4   6
HETATM    6  C1  UNL     1     -22.745  17.989  10.598  1.00 20.00     0.169 C 
HETATM    7  O7  UNL     1     -21.993  17.805  11.555  1.00 20.00    -0.294 OA
BRANCH   6   8
HETATM    8  C6  UNL     1     -22.289  18.554   9.272  1.00 20.00     0.195 C 
HETATM    9 CL9  UNL     1     -22.153  17.272   8.059  1.00 20.00    -0.122 Cl
ENDBRANCH   6   8
ENDBRANCH   4   6
TORSDOF 2
ENDMDL
MODEL 8
REMARK VINA RESULT:      -3.8     16.342     17.057
REMARK  2 active torsions:
REMARK  status: ('A' for Active; 'I' for Inactive)
REMARK    1  A    between atoms: C1_1  and  C5_5 
REMARK    2  A    between atoms: C1_1  and  C6_6 
ROOT
HETATM    1  C2  UNL     1     -22.413  17.733   8.209  1.00 20.00     0.029 C 
HETATM    2  C3  UNL     1     -22.090  17.405   9.645  1.00 20.00     0.042 C 
HETATM    3  C4  UNL     1     -23.758  18.410   8.339  1.00 20.00     0.168 C 
HETATM    4  C5  UNL     1     -23.454  17.069  10.215  1.00 20.00     0.192 C 
HETATM    5  O8  UNL     1     -24.431  17.754   9.422  1.00 20.00    -0.378 OA
ENDROOT
BRANCH   4   6
HETATM    6  C1  UNL     1     -23.634  17.558  11.614  1.00 20.00     0.169 C 
HETATM    7  O7  UNL     1     -22.683  18.019  12.244  1.00 20.00    -0.294 OA
BRANCH   6   8
HETATM    8  C6  UNL     1     -25.033  17.442  12.175  1.00 20.00     0.195 C 
HETATM    9 CL9  UNL     1     -25.823  19.025  12.219  1.00 20.00    -0.122 Cl
ENDBRANCH   6   8
ENDBRANCH   4   6
TORSDOF 2
ENDMDL
MODEL 9
REMARK VINA RESULT:      -3.7      9.369      9.935
REMARK  2 active torsions:
REMARK  status: ('A' for Active; 'I' for Inactive)
REMARK    1  A    between atoms: C1_1  and  C5_5 
REMARK    2  A    between atoms: C1_1  and  C6_6 
ROOT
HETATM    1  C2  UNL     1     -41.938   9.109   0.268  1.00 20.00     0.029 C 
HETATM    2  C3  UNL     1     -41.147   7.827   0.330  1.00 20.00     0.042 C 
HETATM    3  C4  UNL     1     -43.138   8.696  -0.552  1.00 20.00     0.168 C 
HETATM    4  C5  UNL     1     -41.406   7.220  -1.035  1.00 20.00     0.192 C 
HETATM    5  O8  UNL     1     -42.660   7.734  -1.502  1.00 20.00    -0.378 OA
ENDROOT
BRANCH   4   6
HETATM    6  C1  UNL     1     -41.554   5.736  -0.991  1.00 20.00     0.169 C 
HETATM    7  O7  UNL     1     -40.609   5.004  -1.283  1.00 20.00    -0.294 OA
BRANCH   6   8
HETATM    8  C6  UNL     1     -42.914   5.223  -0.576  1.00 20.00     0.195 C 
HETATM    9 CL9  UNL     1     -42.980   4.968   1.174  1.00 20.00    -0.122 Cl
ENDBRANCH   6   8
ENDBRANCH   4   6
TORSDOF 2
ENDMDL
