MODEL 1
REMARK VINA RESULT:      -5.7      0.000      0.000
REMARK  0 active torsions:
REMARK  status: ('A' for Active; 'I' for Inactive)
ROOT
HETATM    1  C1  UNL     1     -34.985   5.183   5.826  1.00 20.00     0.002 C 
HETATM    2  C2  UNL     1     -35.000   4.720   4.565  1.00 20.00     0.030 C 
HETATM    3  C3  UNL     1     -34.128   6.280   6.247  1.00 20.00    -0.001 C 
HETATM    4  C4  UNL     1     -33.539   7.088   5.348  1.00 20.00     0.006 C 
HETATM    5  C5  UNL     1     -32.596   5.989   2.302  1.00 20.00     0.228 C 
HETATM    6  C6  UNL     1     -34.102   5.438   3.648  1.00 20.00     0.064 C 
HETATM    7  C7  UNL     1     -33.797   6.891   3.891  1.00 20.00     0.184 C 
HETATM    8  N8  UNL     1     -32.639   7.084   3.003  1.00 20.00    -0.268 NA
HETATM    9  N9  UNL     1     -33.459   4.972   2.636  1.00 20.00    -0.244 NA
ENDROOT
TORSDOF 0
ENDMDL
MODEL 2
REMARK VINA RESULT:      -5.5      1.676      3.528
REMARK  0 active torsions:
REMARK  status: ('A' for Active; 'I' for Inactive)
ROOT
HETATM    1  C1  UNL     1     -32.806   6.073   2.325  1.00 20.00     0.002 C 
HETATM    2  C2  UNL     1     -33.041   7.037   3.230  1.00 20.00     0.030 C 
HETATM    3  C3  UNL     1     -33.237   4.698   2.516  1.00 20.00    -0.001 C 
HETATM    4  C4  UNL     1     -34.151   4.377   3.449  1.00 20.00     0.006 C 
HETATM    5  C5  UNL     1     -34.430   6.089   6.342  1.00 20.00     0.228 C 
HETATM    6  C6  UNL     1     -33.794   6.586   4.410  1.00 20.00     0.064 C 
HETATM    7  C7  UNL     1     -34.773   5.451   4.279  1.00 20.00     0.184 C 
HETATM    8  N8  UNL     1     -35.002   5.117   5.693  1.00 20.00    -0.268 NA
HETATM    9  N9  UNL     1     -33.702   7.007   5.622  1.00 20.00    -0.244 NA
ENDROOT
TORSDOF 0
ENDMDL
MODEL 3
REMARK VINA RESULT:      -4.6      0.556      2.048
REMARK  0 active torsions:
REMARK  status: ('A' for Active; 'I' for Inactive)
ROOT
HETATM    1  C1  UNL     1     -34.469   6.211   6.081  1.00 20.00     0.002 C 
HETATM    2  C2  UNL     1     -33.489   6.946   5.530  1.00 20.00     0.030 C 
HETATM    3  C3  UNL     1     -35.175   5.172   5.348  1.00 20.00    -0.001 C 
HETATM    4  C4  UNL     1     -34.688   4.679   4.196  1.00 20.00     0.006 C 
HETATM    5  C5  UNL     1     -32.877   6.567   2.067  1.00 20.00     0.228 C 
HETATM    6  C6  UNL     1     -33.174   6.586   4.139  1.00 20.00     0.064 C 
HETATM    7  C7  UNL     1     -33.379   5.170   3.672  1.00 20.00     0.184 C 
HETATM    8  N8  UNL     1     -33.296   5.345   2.213  1.00 20.00    -0.268 NA
HETATM    9  N9  UNL     1     -32.773   7.354   3.189  1.00 20.00    -0.244 NA
ENDROOT
TORSDOF 0
ENDMDL
MODEL 4
REMARK VINA RESULT:      -4.3     16.635     16.967
REMARK  0 active torsions:
REMARK  status: ('A' for Active; 'I' for Inactive)
ROOT
HETATM    1  C1  UNL     1     -25.139  18.887   9.988  1.00 20.00     0.002 C 
HETATM    2  C2  UNL     1     -24.610  19.171   8.787  1.00 20.00     0.030 C 
HETATM    3  C3  UNL     1     -24.494  17.991  10.935  1.00 20.00    -0.001 C 
HETATM    4  C4  UNL     1     -23.203  17.643  10.796  1.00 20.00     0.006 C 
HETATM    5  C5  UNL     1     -21.738  17.375   7.770  1.00 20.00     0.228 C 
HETATM    6  C6  UNL     1     -23.315  18.523   8.529  1.00 20.00     0.064 C 
HETATM    7  C7  UNL     1     -22.395  18.214   9.679  1.00 20.00     0.184 C 
HETATM    8  N8  UNL     1     -21.447  17.292   9.035  1.00 20.00    -0.268 NA
HETATM    9  N9  UNL     1     -22.842  18.110   7.407  1.00 20.00    -0.244 NA
ENDROOT
TORSDOF 0
ENDMDL
MODEL 5
REMARK VINA RESULT:      -4.3     12.358     12.764
REMARK  0 active torsions:
REMARK  status: ('A' for Active; 'I' for Inactive)
ROOT
HETATM    1  C1  UNL     1     -33.400  15.882  -3.027  1.00 20.00     0.002 C 
HETATM    2  C2  UNL     1     -33.082  15.245  -4.166  1.00 20.00     0.030 C 
HETATM    3  C3  UNL     1     -34.775  16.122  -2.622  1.00 20.00    -0.001 C 
HETATM    4  C4  UNL     1     -35.796  15.460  -3.195  1.00 20.00     0.006 C 
HETATM    5  C5  UNL     1     -35.697  14.462  -6.415  1.00 20.00     0.228 C 
HETATM    6  C6  UNL     1     -34.243  14.787  -4.945  1.00 20.00     0.064 C 
HETATM    7  C7  UNL     1     -35.520  14.427  -4.236  1.00 20.00     0.184 C 
HETATM    8  N8  UNL     1     -36.462  14.386  -5.366  1.00 20.00    -0.268 NA
HETATM    9  N9  UNL     1     -34.355  14.689  -6.223  1.00 20.00    -0.244 NA
ENDROOT
TORSDOF 0
ENDMDL
MODEL 6
REMARK VINA RESULT:      -4.2     16.276     17.172
REMARK  0 active torsions:
REMARK  status: ('A' for Active; 'I' for Inactive)
ROOT
HETATM    1  C1  UNL     1     -22.781  17.678  12.116  1.00 20.00     0.002 C 
HETATM    2  C2  UNL     1     -22.175  17.766  10.921  1.00 20.00     0.030 C 
HETATM    3  C3  UNL     1     -24.178  18.029  12.313  1.00 20.00    -0.001 C 
HETATM    4  C4  UNL     1     -25.016  18.164  11.271  1.00 20.00     0.006 C 
HETATM    5  C5  UNL     1     -23.962  19.260   8.259  1.00 20.00     0.228 C 
HETATM    6  C6  UNL     1     -23.053  18.218   9.831  1.00 20.00     0.064 C 
HETATM    7  C7  UNL     1     -24.525  17.909   9.884  1.00 20.00     0.184 C 
HETATM    8  N8  UNL     1     -25.036  18.816   8.844  1.00 20.00    -0.268 NA
HETATM    9  N9  UNL     1     -22.744  18.923   8.801  1.00 20.00    -0.244 NA
ENDROOT
TORSDOF 0
ENDMDL
MODEL 7
REMARK VINA RESULT:      -4.2     16.157     16.790
REMARK  0 active torsions:
REMARK  status: ('A' for Active; 'I' for Inactive)
ROOT
HETATM    1  C1  UNL     1     -23.894  18.640   8.081  1.00 20.00     0.002 C 
HETATM    2  C2  UNL     1     -24.838  18.815   9.020  1.00 20.00     0.030 C 
HETATM    3  C3  UNL     1     -22.725  17.803   8.293  1.00 20.00    -0.001 C 
HETATM    4  C4  UNL     1     -22.673  16.922   9.307  1.00 20.00     0.006 C 
HETATM    5  C5  UNL     1     -24.245  17.477  12.240  1.00 20.00     0.228 C 
HETATM    6  C6  UNL     1     -24.600  18.065  10.262  1.00 20.00     0.064 C 
HETATM    7  C7  UNL     1     -23.850  16.761  10.212  1.00 20.00     0.184 C 
HETATM    8  N8  UNL     1     -23.542  16.563  11.637  1.00 20.00    -0.268 NA
HETATM    9  N9  UNL     1     -24.911  18.397  11.465  1.00 20.00    -0.244 NA
ENDROOT
TORSDOF 0
ENDMDL
MODEL 8
REMARK VINA RESULT:      -4.2     12.245     12.548
REMARK  0 active torsions:
REMARK  status: ('A' for Active; 'I' for Inactive)
ROOT
HETATM    1  C1  UNL     1     -34.318  16.507  -2.268  1.00 20.00     0.002 C 
HETATM    2  C2  UNL     1     -35.607  16.209  -2.498  1.00 20.00     0.030 C 
HETATM    3  C3  UNL     1     -33.234  15.967  -3.071  1.00 20.00    -0.001 C 
HETATM    4  C4  UNL     1     -33.469  15.393  -4.264  1.00 20.00     0.006 C 
HETATM    5  C5  UNL     1     -36.330  13.728  -4.914  1.00 20.00     0.228 C 
HETATM    6  C6  UNL     1     -35.823  15.316  -3.647  1.00 20.00     0.064 C 
HETATM    7  C7  UNL     1     -34.860  15.344  -4.803  1.00 20.00     0.184 C 
HETATM    8  N8  UNL     1     -35.234  14.105  -5.504  1.00 20.00    -0.268 NA
HETATM    9  N9  UNL     1     -36.739  14.426  -3.801  1.00 20.00    -0.244 NA
ENDROOT
TORSDOF 0
ENDMDL
MODEL 9
REMARK VINA RESULT:      -4.1     16.635     17.208
REMARK  0 active torsions:
REMARK  status: ('A' for Active; 'I' for Inactive)
ROOT
HETATM    1  C1  UNL     1     -22.501  17.901   9.823  1.00 20.00     0.002 C 
HETATM    2  C2  UNL     1     -23.679  18.209   9.255  1.00 20.00     0.030 C 
HETATM    3  C3  UNL     1     -22.319  17.839  11.264  1.00 20.00    -0.001 C 
HETATM    4  C4  UNL     1     -23.373  17.782  12.097  1.00 20.00     0.006 C 
HETATM    5  C5  UNL     1     -26.314  19.263  11.365  1.00 20.00     0.228 C 
HETATM    6  C6  UNL     1     -24.768  18.446  10.215  1.00 20.00     0.064 C 
HETATM    7  C7  UNL     1     -24.758  17.737  11.542  1.00 20.00     0.184 C 
HETATM    8  N8  UNL     1     -25.770  18.511  12.277  1.00 20.00    -0.268 NA
HETATM    9  N9  UNL     1     -25.762  19.255  10.106  1.00 20.00    -0.244 NA
ENDROOT
TORSDOF 0
ENDMDL
