MODEL 1
REMARK VINA RESULT:      -4.0      0.000      0.000
REMARK  2 active torsions:
REMARK  status: ('A' for Active; 'I' for Inactive)
REMARK    1  A    between atoms: C5_5  and  C6_6 
REMARK    2  A    between atoms: C6_6  and  N7_7 
ROOT
HETATM    1  C1  UNL     1     -32.802   8.521   0.575  1.00 20.00     0.012 C 
HETATM    2  C2  UNL     1     -32.581   7.886   1.571  1.00 20.00    -0.116 C 
HETATM    3  C5  UNL     1     -32.310   7.112   2.792  1.00 20.00     0.123 C 
ENDROOT
BRANCH   3   4
HETATM    4  C6  UNL     1     -33.222   5.895   2.912  1.00 20.00     0.283 C 
BRANCH   4   5
HETATM    5  N7  UNL     1     -34.224   6.094   3.957  1.00 20.00     0.080 N 
HETATM    6  C3  UNL     1     -33.633   6.779   5.107  1.00 20.00     0.309 C 
HETATM    7  C4  UNL     1     -34.799   4.814   4.365  1.00 20.00     0.309 C 
ENDBRANCH   4   5
ENDBRANCH   3   4
TORSDOF 2
ENDMDL
MODEL 2
REMARK VINA RESULT:      -3.6      0.752      1.456
REMARK  2 active torsions:
REMARK  status: ('A' for Active; 'I' for Inactive)
REMARK    1  A    between atoms: C5_5  and  C6_6 
REMARK    2  A    between atoms: C6_6  and  N7_7 
ROOT
HETATM    1  C1  UNL     1     -32.572   8.382   0.701  1.00 20.00     0.012 C 
HETATM    2  C2  UNL     1     -32.572   7.692   1.684  1.00 20.00    -0.116 C 
HETATM    3  C5  UNL     1     -32.567   6.847   2.888  1.00 20.00     0.123 C 
ENDROOT
BRANCH   3   4
HETATM    4  C6  UNL     1     -33.914   6.865   3.604  1.00 20.00     0.283 C 
BRANCH   4   5
HETATM    5  N7  UNL     1     -33.931   5.905   4.708  1.00 20.00     0.080 N 
HETATM    6  C3  UNL     1     -35.006   4.931   4.521  1.00 20.00     0.309 C 
HETATM    7  C4  UNL     1     -34.086   6.599   5.985  1.00 20.00     0.309 C 
ENDBRANCH   4   5
ENDBRANCH   3   4
TORSDOF 2
ENDMDL
MODEL 3
REMARK VINA RESULT:      -3.5      1.254      3.907
REMARK  2 active torsions:
REMARK  status: ('A' for Active; 'I' for Inactive)
REMARK    1  A    between atoms: C5_5  and  C6_6 
REMARK    2  A    between atoms: C6_6  and  N7_7 
ROOT
HETATM    1  C1  UNL     1     -34.734   5.368   5.941  1.00 20.00     0.012 C 
HETATM    2  C2  UNL     1     -34.598   5.309   4.749  1.00 20.00    -0.116 C 
HETATM    3  C5  UNL     1     -34.436   5.239   3.289  1.00 20.00     0.123 C 
ENDROOT
BRANCH   3   4
HETATM    4  C6  UNL     1     -33.035   5.651   2.849  1.00 20.00     0.283 C 
BRANCH   4   5
HETATM    5  N7  UNL     1     -32.899   7.106   2.837  1.00 20.00     0.080 N 
HETATM    6  C3  UNL     1     -32.581   7.579   1.489  1.00 20.00     0.309 C 
HETATM    7  C4  UNL     1     -31.868   7.531   3.783  1.00 20.00     0.309 C 
ENDBRANCH   4   5
ENDBRANCH   3   4
TORSDOF 2
ENDMDL
MODEL 4
REMARK VINA RESULT:      -3.3      1.300      3.932
REMARK  2 active torsions:
REMARK  status: ('A' for Active; 'I' for Inactive)
REMARK    1  A    between atoms: C5_5  and  C6_6 
REMARK    2  A    between atoms: C6_6  and  N7_7 
ROOT
HETATM    1  C1  UNL     1     -35.010   4.950   6.267  1.00 20.00     0.012 C 
HETATM    2  C2  UNL     1     -34.353   5.850   5.819  1.00 20.00    -0.116 C 
HETATM    3  C5  UNL     1     -33.546   6.951   5.272  1.00 20.00     0.123 C 
ENDROOT
BRANCH   3   4
HETATM    4  C6  UNL     1     -33.810   7.171   3.785  1.00 20.00     0.283 C 
BRANCH   4   5
HETATM    5  N7  UNL     1     -32.744   6.585   2.974  1.00 20.00     0.080 N 
HETATM    6  C3  UNL     1     -32.411   7.466   1.855  1.00 20.00     0.309 C 
HETATM    7  C4  UNL     1     -33.142   5.266   2.484  1.00 20.00     0.309 C 
ENDBRANCH   4   5
ENDBRANCH   3   4
TORSDOF 2
ENDMDL
MODEL 5
REMARK VINA RESULT:      -3.3      1.134      2.110
REMARK  2 active torsions:
REMARK  status: ('A' for Active; 'I' for Inactive)
REMARK    1  A    between atoms: C5_5  and  C6_6 
REMARK    2  A    between atoms: C6_6  and  N7_7 
ROOT
HETATM    1  C1  UNL     1     -32.227   7.392   2.091  1.00 20.00     0.012 C 
HETATM    2  C2  UNL     1     -32.853   6.432   2.451  1.00 20.00    -0.116 C 
HETATM    3  C5  UNL     1     -33.617   5.255   2.891  1.00 20.00     0.123 C 
ENDROOT
BRANCH   3   4
HETATM    4  C6  UNL     1     -34.658   5.612   3.948  1.00 20.00     0.283 C 
BRANCH   4   5
HETATM    5  N7  UNL     1     -34.058   5.650   5.280  1.00 20.00     0.080 N 
HETATM    6  C3  UNL     1     -34.877   4.899   6.231  1.00 20.00     0.309 C 
HETATM    7  C4  UNL     1     -33.896   7.033   5.728  1.00 20.00     0.309 C 
ENDBRANCH   4   5
ENDBRANCH   3   4
TORSDOF 2
ENDMDL
MODEL 6
REMARK VINA RESULT:      -3.3     10.870     11.461
REMARK  2 active torsions:
REMARK  status: ('A' for Active; 'I' for Inactive)
REMARK    1  A    between atoms: C5_5  and  C6_6 
REMARK    2  A    between atoms: C6_6  and  N7_7 
ROOT
HETATM    1  C1  UNL     1     -35.082  16.464  -1.572  1.00 20.00     0.012 C 
HETATM    2  C2  UNL     1     -34.336  16.105  -2.442  1.00 20.00    -0.116 C 
HETATM    3  C5  UNL     1     -33.420  15.666  -3.505  1.00 20.00     0.123 C 
ENDROOT
BRANCH   3   4
HETATM    4  C6  UNL     1     -33.955  14.450  -4.255  1.00 20.00     0.283 C 
BRANCH   4   5
HETATM    5  N7  UNL     1     -35.228  14.756  -4.906  1.00 20.00     0.080 N 
HETATM    6  C3  UNL     1     -36.209  13.708  -4.626  1.00 20.00     0.309 C 
HETATM    7  C4  UNL     1     -35.041  14.908  -6.348  1.00 20.00     0.309 C 
ENDBRANCH   4   5
ENDBRANCH   3   4
TORSDOF 2
ENDMDL
MODEL 7
REMARK VINA RESULT:      -3.2     10.619     11.347
REMARK  2 active torsions:
REMARK  status: ('A' for Active; 'I' for Inactive)
REMARK    1  A    between atoms: C5_5  and  C6_6 
REMARK    2  A    between atoms: C6_6  and  N7_7 
ROOT
HETATM    1  C1  UNL     1     -33.059  16.876  -2.512  1.00 20.00     0.012 C 
HETATM    2  C2  UNL     1     -33.993  16.147  -2.709  1.00 20.00    -0.116 C 
HETATM    3  C5  UNL     1     -35.139  15.256  -2.948  1.00 20.00     0.123 C 
ENDROOT
BRANCH   3   4
HETATM    4  C6  UNL     1     -34.814  14.168  -3.967  1.00 20.00     0.283 C 
BRANCH   4   5
HETATM    5  N7  UNL     1     -35.944  13.942  -4.867  1.00 20.00     0.080 N 
HETATM    6  C3  UNL     1     -35.694  14.565  -6.166  1.00 20.00     0.309 C 
HETATM    7  C4  UNL     1     -37.177  14.462  -4.279  1.00 20.00     0.309 C 
ENDBRANCH   4   5
ENDBRANCH   3   4
TORSDOF 2
ENDMDL
MODEL 8
REMARK VINA RESULT:      -3.1     10.988     12.044
REMARK  2 active torsions:
REMARK  status: ('A' for Active; 'I' for Inactive)
REMARK    1  A    between atoms: C5_5  and  C6_6 
REMARK    2  A    between atoms: C6_6  and  N7_7 
ROOT
HETATM    1  C1  UNL     1     -34.776  16.365  -1.906  1.00 20.00     0.012 C 
HETATM    2  C2  UNL     1     -34.755  15.523  -2.763  1.00 20.00    -0.116 C 
HETATM    3  C5  UNL     1     -34.733  14.493  -3.812  1.00 20.00     0.123 C 
ENDROOT
BRANCH   3   4
HETATM    4  C6  UNL     1     -33.713  14.808  -4.902  1.00 20.00     0.283 C 
BRANCH   4   5
HETATM    5  N7  UNL     1     -34.379  15.100  -6.170  1.00 20.00     0.080 N 
HETATM    6  C3  UNL     1     -34.496  16.545  -6.365  1.00 20.00     0.309 C 
HETATM    7  C4  UNL     1     -35.698  14.471  -6.212  1.00 20.00     0.309 C 
ENDBRANCH   4   5
ENDBRANCH   3   4
TORSDOF 2
ENDMDL
MODEL 9
REMARK VINA RESULT:      -3.1      8.945      9.671
REMARK  2 active torsions:
REMARK  status: ('A' for Active; 'I' for Inactive)
REMARK    1  A    between atoms: C5_5  and  C6_6 
REMARK    2  A    between atoms: C6_6  and  N7_7 
ROOT
HETATM    1  C1  UNL     1     -41.194   4.877  -1.447  1.00 20.00     0.012 C 
HETATM    2  C2  UNL     1     -41.149   5.739  -0.612  1.00 20.00    -0.116 C 
HETATM    3  C5  UNL     1     -41.092   6.795   0.409  1.00 20.00     0.123 C 
ENDROOT
BRANCH   3   4
HETATM    4  C6  UNL     1     -42.483   7.262   0.828  1.00 20.00     0.283 C 
BRANCH   4   5
HETATM    5  N7  UNL     1     -42.734   8.628   0.371  1.00 20.00     0.080 N 
HETATM    6  C3  UNL     1     -43.417   8.616  -0.923  1.00 20.00     0.309 C 
HETATM    7  C4  UNL     1     -41.481   9.375   0.279  1.00 20.00     0.309 C 
ENDBRANCH   4   5
ENDBRANCH   3   4
TORSDOF 2
ENDMDL
