MODEL 1
REMARK VINA RESULT:      -4.7      0.000      0.000
REMARK  1 active torsions:
REMARK  status: ('A' for Active; 'I' for Inactive)
REMARK    1  A    between atoms: C3_3  and  C7_7 
ROOT
HETATM    1  C1  UNL     1     -34.017  15.394  -5.778  1.00 20.00    -0.025 C 
HETATM    2  C2  UNL     1     -35.219  15.990  -5.766  1.00 20.00    -0.024 C 
HETATM    3  C4  UNL     1     -34.562  13.993  -3.859  1.00 20.00     0.021 C 
HETATM    4  C5  UNL     1     -33.633  15.145  -4.333  1.00 20.00     0.017 C 
HETATM    5  C6  UNL     1     -35.637  16.121  -4.310  1.00 20.00     0.027 C 
HETATM    6  C7  UNL     1     -35.958  14.687  -3.805  1.00 20.00     0.056 C 
HETATM    7  C8  UNL     1     -34.252  16.402  -3.662  1.00 20.00    -0.033 C 
HETATM    8  C9  UNL     1     -33.606  17.743  -4.087  1.00 20.00     0.016 C 
HETATM    9  C10 UNL     1     -34.232  16.388  -2.122  1.00 20.00     0.016 C 
ENDROOT
BRANCH   6  10
HETATM   10  C3  UNL     1     -36.995  13.978  -4.625  1.00 20.00     0.236 C 
HETATM   11  O11 UNL     1     -38.184  13.943  -4.328  1.00 20.00    -0.306 OA
ENDBRANCH   6  10
TORSDOF 1
ENDMDL
MODEL 2
REMARK VINA RESULT:      -4.7      1.135      2.047
REMARK  1 active torsions:
REMARK  status: ('A' for Active; 'I' for Inactive)
REMARK    1  A    between atoms: C3_3  and  C7_7 
ROOT
HETATM    1  C1  UNL     1     -35.457  17.583  -3.913  1.00 20.00    -0.025 C 
HETATM    2  C2  UNL     1     -35.844  16.823  -2.877  1.00 20.00    -0.024 C 
HETATM    3  C4  UNL     1     -35.548  15.710  -5.472  1.00 20.00     0.021 C 
HETATM    4  C5  UNL     1     -34.578  16.716  -4.793  1.00 20.00     0.017 C 
HETATM    5  C6  UNL     1     -35.231  15.446  -3.081  1.00 20.00     0.027 C 
HETATM    6  C7  UNL     1     -35.974  14.797  -4.282  1.00 20.00     0.056 C 
HETATM    7  C8  UNL     1     -33.870  15.854  -3.711  1.00 20.00    -0.033 C 
HETATM    8  C9  UNL     1     -32.938  16.648  -2.763  1.00 20.00     0.016 C 
HETATM    9  C10 UNL     1     -33.026  14.690  -4.263  1.00 20.00     0.016 C 
ENDROOT
BRANCH   6  10
HETATM   10  C3  UNL     1     -37.462  14.728  -4.102  1.00 20.00     0.236 C 
HETATM   11  O11 UNL     1     -38.140  13.764  -4.442  1.00 20.00    -0.306 OA
ENDBRANCH   6  10
TORSDOF 1
ENDMDL
MODEL 3
REMARK VINA RESULT:      -4.5      1.287      1.390
REMARK  1 active torsions:
REMARK  status: ('A' for Active; 'I' for Inactive)
REMARK    1  A    between atoms: C3_3  and  C7_7 
ROOT
HETATM    1  C1  UNL     1     -34.425  16.713  -5.292  1.00 20.00    -0.025 C 
HETATM    2  C2  UNL     1     -35.755  16.570  -5.183  1.00 20.00    -0.024 C 
HETATM    3  C4  UNL     1     -33.985  14.904  -3.718  1.00 20.00     0.021 C 
HETATM    4  C5  UNL     1     -33.838  16.437  -3.921  1.00 20.00     0.017 C 
HETATM    5  C6  UNL     1     -36.045  16.185  -3.741  1.00 20.00     0.027 C 
HETATM    6  C7  UNL     1     -35.525  14.732  -3.552  1.00 20.00     0.056 C 
HETATM    7  C8  UNL     1     -34.956  17.026  -3.018  1.00 20.00    -0.033 C 
HETATM    8  C9  UNL     1     -35.144  18.558  -3.141  1.00 20.00     0.016 C 
HETATM    9  C10 UNL     1     -34.791  16.736  -1.515  1.00 20.00     0.016 C 
ENDROOT
BRANCH   6  10
HETATM   10  C3  UNL     1     -36.112  13.752  -4.525  1.00 20.00     0.236 C 
HETATM   11  O11 UNL     1     -35.839  12.556  -4.528  1.00 20.00    -0.306 OA
ENDBRANCH   6  10
TORSDOF 1
ENDMDL
MODEL 4
REMARK VINA RESULT:      -4.5      2.035      3.163
REMARK  1 active torsions:
REMARK  status: ('A' for Active; 'I' for Inactive)
REMARK    1  A    between atoms: C3_3  and  C7_7 
ROOT
HETATM    1  C1  UNL     1     -36.100  16.689  -3.588  1.00 20.00    -0.025 C 
HETATM    2  C2  UNL     1     -35.749  15.493  -3.091  1.00 20.00    -0.024 C 
HETATM    3  C4  UNL     1     -33.830  17.177  -4.331  1.00 20.00     0.021 C 
HETATM    4  C5  UNL     1     -34.937  17.629  -3.340  1.00 20.00     0.017 C 
HETATM    5  C6  UNL     1     -34.345  15.641  -2.525  1.00 20.00     0.027 C 
HETATM    6  C7  UNL     1     -33.388  15.804  -3.739  1.00 20.00     0.056 C 
HETATM    7  C8  UNL     1     -34.434  17.091  -1.972  1.00 20.00    -0.033 C 
HETATM    8  C9  UNL     1     -35.433  17.270  -0.803  1.00 20.00     0.016 C 
HETATM    9  C10 UNL     1     -33.102  17.694  -1.491  1.00 20.00     0.016 C 
ENDROOT
BRANCH   6  10
HETATM   10  C3  UNL     1     -33.478  14.684  -4.732  1.00 20.00     0.236 C 
HETATM   11  O11 UNL     1     -33.215  13.517  -4.460  1.00 20.00    -0.306 OA
ENDBRANCH   6  10
TORSDOF 1
ENDMDL
MODEL 5
REMARK VINA RESULT:      -4.3      2.138      3.499
REMARK  1 active torsions:
REMARK  status: ('A' for Active; 'I' for Inactive)
REMARK    1  A    between atoms: C3_3  and  C7_7 
ROOT
HETATM    1  C1  UNL     1     -33.396  17.417  -3.795  1.00 20.00    -0.025 C 
HETATM    2  C2  UNL     1     -33.192  16.852  -2.595  1.00 20.00    -0.024 C 
HETATM    3  C4  UNL     1     -35.816  17.175  -3.626  1.00 20.00     0.021 C 
HETATM    4  C5  UNL     1     -34.573  16.698  -4.426  1.00 20.00     0.017 C 
HETATM    5  C6  UNL     1     -34.245  15.768  -2.427  1.00 20.00     0.027 C 
HETATM    6  C7  UNL     1     -35.608  16.493  -2.240  1.00 20.00     0.056 C 
HETATM    7  C8  UNL     1     -34.336  15.259  -3.892  1.00 20.00    -0.033 C 
HETATM    8  C9  UNL     1     -33.045  14.582  -4.416  1.00 20.00     0.016 C 
HETATM    9  C10 UNL     1     -35.481  14.269  -4.175  1.00 20.00     0.016 C 
ENDROOT
BRANCH   6  10
HETATM   10  C3  UNL     1     -35.619  17.468  -1.101  1.00 20.00     0.236 C 
HETATM   11  O11 UNL     1     -35.582  17.132   0.079  1.00 20.00    -0.306 OA
ENDBRANCH   6  10
TORSDOF 1
ENDMDL
MODEL 6
REMARK VINA RESULT:      -4.3      1.142      2.375
REMARK  1 active torsions:
REMARK  status: ('A' for Active; 'I' for Inactive)
REMARK    1  A    between atoms: C3_3  and  C7_7 
ROOT
HETATM    1  C1  UNL     1     -35.153  15.967  -2.309  1.00 20.00    -0.025 C 
HETATM    2  C2  UNL     1     -34.446  15.129  -3.083  1.00 20.00    -0.024 C 
HETATM    3  C4  UNL     1     -36.798  16.383  -4.060  1.00 20.00     0.021 C 
HETATM    4  C5  UNL     1     -35.685  17.061  -3.215  1.00 20.00     0.017 C 
HETATM    5  C6  UNL     1     -34.525  15.662  -4.505  1.00 20.00     0.027 C 
HETATM    6  C7  UNL     1     -35.984  15.433  -4.990  1.00 20.00     0.056 C 
HETATM    7  C8  UNL     1     -34.505  17.189  -4.216  1.00 20.00    -0.033 C 
HETATM    8  C9  UNL     1     -33.185  17.706  -3.593  1.00 20.00     0.016 C 
HETATM    9  C10 UNL     1     -34.784  18.093  -5.431  1.00 20.00     0.016 C 
ENDROOT
BRANCH   6  10
HETATM   10  C3  UNL     1     -36.429  14.004  -4.901  1.00 20.00     0.236 C 
HETATM   11  O11 UNL     1     -37.511  13.661  -4.435  1.00 20.00    -0.306 OA
ENDBRANCH   6  10
TORSDOF 1
ENDMDL
MODEL 7
REMARK VINA RESULT:      -4.2     18.149     19.147
REMARK  1 active torsions:
REMARK  status: ('A' for Active; 'I' for Inactive)
REMARK    1  A    between atoms: C3_3  and  C7_7 
ROOT
HETATM    1  C1  UNL     1     -24.981  19.242  11.815  1.00 20.00    -0.025 C 
HETATM    2  C2  UNL     1     -25.432  18.920  10.593  1.00 20.00    -0.024 C 
HETATM    3  C4  UNL     1     -22.894  18.023  11.491  1.00 20.00     0.021 C 
HETATM    4  C5  UNL     1     -24.204  18.045  12.327  1.00 20.00     0.017 C 
HETATM    5  C6  UNL     1     -24.940  17.514  10.291  1.00 20.00     0.027 C 
HETATM    6  C7  UNL     1     -23.404  17.613  10.076  1.00 20.00     0.056 C 
HETATM    7  C8  UNL     1     -25.040  16.889  11.711  1.00 20.00    -0.033 C 
HETATM    8  C9  UNL     1     -26.483  16.774  12.260  1.00 20.00     0.016 C 
HETATM    9  C10 UNL     1     -24.414  15.490  11.859  1.00 20.00     0.016 C 
ENDROOT
BRANCH   6  10
HETATM   10  C3  UNL     1     -23.008  18.587   9.007  1.00 20.00     0.236 C 
HETATM   11  O11 UNL     1     -21.896  19.101   8.939  1.00 20.00    -0.306 OA
ENDBRANCH   6  10
TORSDOF 1
ENDMDL
MODEL 8
REMARK VINA RESULT:      -4.2      1.938      3.181
REMARK  1 active torsions:
REMARK  status: ('A' for Active; 'I' for Inactive)
REMARK    1  A    between atoms: C3_3  and  C7_7 
ROOT
HETATM    1  C1  UNL     1     -34.768  16.135  -1.919  1.00 20.00    -0.025 C 
HETATM    2  C2  UNL     1     -33.649  16.581  -2.510  1.00 20.00    -0.024 C 
HETATM    3  C4  UNL     1     -35.455  14.889  -3.899  1.00 20.00     0.021 C 
HETATM    4  C5  UNL     1     -35.842  16.087  -2.988  1.00 20.00     0.017 C 
HETATM    5  C6  UNL     1     -33.980  16.814  -3.975  1.00 20.00     0.027 C 
HETATM    6  C7  UNL     1     -34.175  15.412  -4.619  1.00 20.00     0.056 C 
HETATM    7  C8  UNL     1     -35.441  17.325  -3.837  1.00 20.00    -0.033 C 
HETATM    8  C9  UNL     1     -35.579  18.681  -3.104  1.00 20.00     0.016 C 
HETATM    9  C10 UNL     1     -36.212  17.477  -5.162  1.00 20.00     0.016 C 
ENDROOT
BRANCH   6  10
HETATM   10  C3  UNL     1     -32.995  14.502  -4.448  1.00 20.00     0.236 C 
HETATM   11  O11 UNL     1     -33.095  13.291  -4.275  1.00 20.00    -0.306 OA
ENDBRANCH   6  10
TORSDOF 1
ENDMDL
MODEL 9
REMARK VINA RESULT:      -4.2      9.803     12.150
REMARK  1 active torsions:
REMARK  status: ('A' for Active; 'I' for Inactive)
REMARK    1  A    between atoms: C3_3  and  C7_7 
ROOT
HETATM    1  C1  UNL     1     -43.297   6.853   0.870  1.00 20.00    -0.025 C 
HETATM    2  C2  UNL     1     -43.417   7.511  -0.294  1.00 20.00    -0.024 C 
HETATM    3  C4  UNL     1     -40.865   7.021   0.848  1.00 20.00     0.021 C 
HETATM    4  C5  UNL     1     -42.041   6.009   0.772  1.00 20.00     0.017 C 
HETATM    5  C6  UNL     1     -42.229   7.113  -1.156  1.00 20.00     0.027 C 
HETATM    6  C7  UNL     1     -40.972   7.767  -0.517  1.00 20.00     0.056 C 
HETATM    7  C8  UNL     1     -42.084   5.624  -0.733  1.00 20.00    -0.033 C 
HETATM    8  C9  UNL     1     -43.278   4.724  -1.134  1.00 20.00     0.016 C 
HETATM    9  C10 UNL     1     -40.821   4.913  -1.253  1.00 20.00     0.016 C 
ENDROOT
BRANCH   6  10
HETATM   10  C3  UNL     1     -41.081   9.254  -0.363  1.00 20.00     0.236 C 
HETATM   11  O11 UNL     1     -41.206   9.815   0.721  1.00 20.00    -0.306 OA
ENDBRANCH   6  10
TORSDOF 1
ENDMDL
