MODEL 1
REMARK VINA RESULT:      -4.5      0.000      0.000
REMARK  1 active torsions:
REMARK  status: ('A' for Active; 'I' for Inactive)
REMARK    1  A    between atoms: C6_6  and  N12_12 
ROOT
HETATM    1  C1  UNL     1     -35.571  16.642  -1.290  1.00 20.00     0.026 A 
HETATM    2  C2  UNL     1     -34.632  17.591  -0.940  1.00 20.00     0.097 A 
HETATM    3  C3  UNL     1     -35.038  15.905  -2.376  1.00 20.00    -0.034 A 
HETATM    4  C4  UNL     1     -33.788  16.427  -2.646  1.00 20.00     0.022 A 
HETATM    5  C7  UNL     1     -35.606  14.758  -3.135  1.00 20.00     0.040 C 
HETATM    6  C8  UNL     1     -32.863  15.984  -3.721  1.00 20.00     0.058 C 
HETATM    7  C9  UNL     1     -34.839  14.530  -4.452  1.00 20.00     0.005 C 
HETATM    8  C10 UNL     1     -33.312  14.610  -4.257  1.00 20.00     0.006 C 
HETATM    9  N12 UNL     1     -33.550  17.451  -1.773  1.00 20.00    -0.330 N 
ENDROOT
BRANCH   9  10
HETATM   10  C6  UNL     1     -32.408  18.231  -1.712  1.00 20.00     0.003 C 
HETATM   11  C5  UNL     1     -31.473  18.139  -0.745  1.00 20.00     0.038 C 
HETATM   12  C11 UNL     1     -32.169  19.263  -2.795  1.00 20.00     0.068 C 
ENDBRANCH   9  10
TORSDOF 1
ENDMDL
MODEL 2
REMARK VINA RESULT:      -4.3      1.173      2.891
REMARK  1 active torsions:
REMARK  status: ('A' for Active; 'I' for Inactive)
REMARK    1  A    between atoms: C6_6  and  N12_12 
ROOT
HETATM    1  C1  UNL     1     -32.548  17.462  -2.230  1.00 20.00     0.026 A 
HETATM    2  C2  UNL     1     -33.361  18.019  -1.263  1.00 20.00     0.097 A 
HETATM    3  C3  UNL     1     -33.289  16.432  -2.858  1.00 20.00    -0.034 A 
HETATM    4  C4  UNL     1     -34.531  16.400  -2.256  1.00 20.00     0.022 A 
HETATM    5  C7  UNL     1     -32.917  15.519  -3.974  1.00 20.00     0.040 C 
HETATM    6  C8  UNL     1     -35.639  15.461  -2.573  1.00 20.00     0.058 C 
HETATM    7  C9  UNL     1     -33.895  14.331  -4.067  1.00 20.00     0.005 C 
HETATM    8  C10 UNL     1     -35.364  14.773  -3.925  1.00 20.00     0.006 C 
HETATM    9  N12 UNL     1     -34.567  17.363  -1.288  1.00 20.00    -0.330 N 
ENDROOT
BRANCH   9  10
HETATM   10  C6  UNL     1     -35.635  17.656  -0.458  1.00 20.00     0.003 C 
HETATM   11  C5  UNL     1     -35.711  17.302   0.840  1.00 20.00     0.038 C 
HETATM   12  C11 UNL     1     -36.811  18.426  -1.024  1.00 20.00     0.068 C 
ENDBRANCH   9  10
TORSDOF 1
ENDMDL
MODEL 3
REMARK VINA RESULT:      -4.2      2.512      5.187
REMARK  1 active torsions:
REMARK  status: ('A' for Active; 'I' for Inactive)
REMARK    1  A    between atoms: C6_6  and  N12_12 
ROOT
HETATM    1  C1  UNL     1     -34.557  14.775  -5.873  1.00 20.00     0.026 A 
HETATM    2  C2  UNL     1     -35.902  14.870  -6.170  1.00 20.00     0.097 A 
HETATM    3  C3  UNL     1     -34.367  15.360  -4.598  1.00 20.00    -0.034 A 
HETATM    4  C4  UNL     1     -35.605  15.786  -4.158  1.00 20.00     0.022 A 
HETATM    5  C7  UNL     1     -33.131  15.516  -3.783  1.00 20.00     0.040 C 
HETATM    6  C8  UNL     1     -35.891  16.482  -2.876  1.00 20.00     0.058 C 
HETATM    7  C9  UNL     1     -33.343  16.533  -2.645  1.00 20.00     0.005 C 
HETATM    8  C10 UNL     1     -34.689  16.329  -1.924  1.00 20.00     0.006 C 
HETATM    9  N12 UNL     1     -36.530  15.488  -5.117  1.00 20.00    -0.330 N 
ENDROOT
BRANCH   9  10
HETATM   10  C6  UNL     1     -37.888  15.748  -5.059  1.00 20.00     0.003 C 
HETATM   11  C5  UNL     1     -38.492  16.787  -5.670  1.00 20.00     0.038 C 
HETATM   12  C11 UNL     1     -38.778  14.818  -4.260  1.00 20.00     0.068 C 
ENDBRANCH   9  10
TORSDOF 1
ENDMDL
MODEL 4
REMARK VINA RESULT:      -4.2      1.449      4.104
REMARK  1 active torsions:
REMARK  status: ('A' for Active; 'I' for Inactive)
REMARK    1  A    between atoms: C6_6  and  N12_12 
ROOT
HETATM    1  C1  UNL     1     -35.324  17.285  -0.073  1.00 20.00     0.026 A 
HETATM    2  C2  UNL     1     -35.314  16.842  -1.380  1.00 20.00     0.097 A 
HETATM    3  C3  UNL     1     -34.059  17.867   0.182  1.00 20.00    -0.034 A 
HETATM    4  C4  UNL     1     -33.323  17.765  -0.982  1.00 20.00     0.022 A 
HETATM    5  C7  UNL     1     -33.526  18.517   1.411  1.00 20.00     0.040 C 
HETATM    6  C8  UNL     1     -31.923  18.222  -1.180  1.00 20.00     0.058 C 
HETATM    7  C9  UNL     1     -31.994  18.665   1.339  1.00 20.00     0.005 C 
HETATM    8  C10 UNL     1     -31.521  19.173  -0.036  1.00 20.00     0.006 C 
HETATM    9  N12 UNL     1     -34.089  17.139  -1.924  1.00 20.00    -0.330 N 
ENDROOT
BRANCH   9  10
HETATM   10  C6  UNL     1     -33.718  16.848  -3.225  1.00 20.00     0.003 C 
HETATM   11  C5  UNL     1     -33.185  15.674  -3.620  1.00 20.00     0.038 C 
HETATM   12  C11 UNL     1     -33.913  17.902  -4.295  1.00 20.00     0.068 C 
ENDBRANCH   9  10
TORSDOF 1
ENDMDL
MODEL 5
REMARK VINA RESULT:      -4.1      2.104      4.878
REMARK  1 active torsions:
REMARK  status: ('A' for Active; 'I' for Inactive)
REMARK    1  A    between atoms: C6_6  and  N12_12 
ROOT
HETATM    1  C1  UNL     1     -31.114  18.350   1.046  1.00 20.00     0.026 A 
HETATM    2  C2  UNL     1     -31.031  18.302  -0.331  1.00 20.00     0.097 A 
HETATM    3  C3  UNL     1     -32.487  18.299   1.385  1.00 20.00    -0.034 A 
HETATM    4  C4  UNL     1     -33.195  18.216   0.202  1.00 20.00     0.022 A 
HETATM    5  C7  UNL     1     -33.153  18.300   2.716  1.00 20.00     0.040 C 
HETATM    6  C8  UNL     1     -34.674  18.162   0.063  1.00 20.00     0.058 C 
HETATM    7  C9  UNL     1     -34.658  18.606   2.583  1.00 20.00     0.005 C 
HETATM    8  C10 UNL     1     -35.310  17.826   1.426  1.00 20.00     0.006 C 
HETATM    9  N12 UNL     1     -32.305  18.221  -0.835  1.00 20.00    -0.330 N 
ENDROOT
BRANCH   9  10
HETATM   10  C6  UNL     1     -32.612  18.149  -2.182  1.00 20.00     0.003 C 
HETATM   11  C5  UNL     1     -32.571  19.195  -3.030  1.00 20.00     0.038 C 
HETATM   12  C11 UNL     1     -33.026  16.814  -2.768  1.00 20.00     0.068 C 
ENDBRANCH   9  10
TORSDOF 1
ENDMDL
MODEL 6
REMARK VINA RESULT:      -4.1      2.547      4.703
REMARK  1 active torsions:
REMARK  status: ('A' for Active; 'I' for Inactive)
REMARK    1  A    between atoms: C6_6  and  N12_12 
ROOT
HETATM    1  C1  UNL     1     -35.899  14.174  -4.076  1.00 20.00     0.026 A 
HETATM    2  C2  UNL     1     -35.899  14.220  -5.455  1.00 20.00     0.097 A 
HETATM    3  C3  UNL     1     -35.223  15.331  -3.618  1.00 20.00    -0.034 A 
HETATM    4  C4  UNL     1     -34.839  16.046  -4.735  1.00 20.00     0.022 A 
HETATM    5  C7  UNL     1     -34.946  15.802  -2.233  1.00 20.00     0.040 C 
HETATM    6  C8  UNL     1     -34.079  17.323  -4.745  1.00 20.00     0.058 C 
HETATM    7  C9  UNL     1     -33.871  16.906  -2.228  1.00 20.00     0.005 C 
HETATM    8  C10 UNL     1     -34.103  17.950  -3.337  1.00 20.00     0.006 C 
HETATM    9  N12 UNL     1     -35.250  15.365  -5.846  1.00 20.00    -0.330 N 
ENDROOT
BRANCH   9  10
HETATM   10  C6  UNL     1     -35.062  15.749  -7.162  1.00 20.00     0.003 C 
HETATM   11  C5  UNL     1     -34.006  15.388  -7.918  1.00 20.00     0.038 C 
HETATM   12  C11 UNL     1     -36.100  16.634  -7.822  1.00 20.00     0.068 C 
ENDBRANCH   9  10
TORSDOF 1
ENDMDL
MODEL 7
REMARK VINA RESULT:      -4.0      1.981      4.796
REMARK  1 active torsions:
REMARK  status: ('A' for Active; 'I' for Inactive)
REMARK    1  A    between atoms: C6_6  and  N12_12 
ROOT
HETATM    1  C1  UNL     1     -34.552  18.091   2.015  1.00 20.00     0.026 A 
HETATM    2  C2  UNL     1     -35.405  17.767   0.981  1.00 20.00     0.097 A 
HETATM    3  C3  UNL     1     -33.269  18.294   1.453  1.00 20.00    -0.034 A 
HETATM    4  C4  UNL     1     -33.385  18.092   0.092  1.00 20.00     0.022 A 
HETATM    5  C7  UNL     1     -31.983  18.679   2.096  1.00 20.00     0.040 C 
HETATM    6  C8  UNL     1     -32.288  18.174  -0.907  1.00 20.00     0.058 C 
HETATM    7  C9  UNL     1     -30.792  18.419   1.154  1.00 20.00     0.005 C 
HETATM    8  C10 UNL     1     -31.074  18.891  -0.285  1.00 20.00     0.006 C 
HETATM    9  N12 UNL     1     -34.684  17.770  -0.187  1.00 20.00    -0.330 N 
ENDROOT
BRANCH   9  10
HETATM   10  C6  UNL     1     -35.212  17.494  -1.436  1.00 20.00     0.003 C 
HETATM   11  C5  UNL     1     -35.885  18.385  -2.192  1.00 20.00     0.038 C 
HETATM   12  C11 UNL     1     -35.035  16.106  -2.015  1.00 20.00     0.068 C 
ENDBRANCH   9  10
TORSDOF 1
ENDMDL
MODEL 8
REMARK VINA RESULT:      -3.9      1.564      3.056
REMARK  1 active torsions:
REMARK  status: ('A' for Active; 'I' for Inactive)
REMARK    1  A    between atoms: C6_6  and  N12_12 
ROOT
HETATM    1  C1  UNL     1     -33.655  14.336  -4.326  1.00 20.00     0.026 A 
HETATM    2  C2  UNL     1     -32.984  15.410  -3.778  1.00 20.00     0.097 A 
HETATM    3  C3  UNL     1     -35.035  14.653  -4.314  1.00 20.00    -0.034 A 
HETATM    4  C4  UNL     1     -35.157  15.914  -3.764  1.00 20.00     0.022 A 
HETATM    5  C7  UNL     1     -36.208  13.876  -4.798  1.00 20.00     0.040 C 
HETATM    6  C8  UNL     1     -36.424  16.653  -3.529  1.00 20.00     0.058 C 
HETATM    7  C9  UNL     1     -37.524  14.455  -4.244  1.00 20.00     0.005 C 
HETATM    8  C10 UNL     1     -37.565  15.993  -4.329  1.00 20.00     0.006 C 
HETATM    9  N12 UNL     1     -33.909  16.366  -3.438  1.00 20.00    -0.330 N 
ENDROOT
BRANCH   9  10
HETATM   10  C6  UNL     1     -33.600  17.587  -2.865  1.00 20.00     0.003 C 
HETATM   11  C5  UNL     1     -33.262  18.691  -3.561  1.00 20.00     0.038 C 
HETATM   12  C11 UNL     1     -33.638  17.718  -1.356  1.00 20.00     0.068 C 
ENDBRANCH   9  10
TORSDOF 1
ENDMDL
MODEL 9
REMARK VINA RESULT:      -3.9      2.380      4.640
REMARK  1 active torsions:
REMARK  status: ('A' for Active; 'I' for Inactive)
REMARK    1  A    between atoms: C6_6  and  N12_12 
ROOT
HETATM    1  C1  UNL     1     -34.961  14.596  -3.444  1.00 20.00     0.026 A 
HETATM    2  C2  UNL     1     -35.264  14.424  -4.779  1.00 20.00     0.097 A 
HETATM    3  C3  UNL     1     -34.412  15.894  -3.303  1.00 20.00    -0.034 A 
HETATM    4  C4  UNL     1     -34.405  16.470  -4.558  1.00 20.00     0.022 A 
HETATM    5  C7  UNL     1     -33.930  16.611  -2.091  1.00 20.00     0.040 C 
HETATM    6  C8  UNL     1     -33.896  17.824  -4.901  1.00 20.00     0.058 C 
HETATM    7  C9  UNL     1     -33.085  17.841  -2.474  1.00 20.00     0.005 C 
HETATM    8  C10 UNL     1     -33.726  18.655  -3.615  1.00 20.00     0.006 C 
HETATM    9  N12 UNL     1     -34.921  15.572  -5.448  1.00 20.00    -0.330 N 
ENDROOT
BRANCH   9  10
HETATM   10  C6  UNL     1     -35.089  15.766  -6.808  1.00 20.00     0.003 C 
HETATM   11  C5  UNL     1     -36.204  16.269  -7.374  1.00 20.00     0.038 C 
HETATM   12  C11 UNL     1     -33.957  15.398  -7.745  1.00 20.00     0.068 C 
ENDBRANCH   9  10
TORSDOF 1
ENDMDL
