MODEL 1
REMARK VINA RESULT:      -4.5      0.000      0.000
REMARK  1 active torsions:
REMARK  status: ('A' for Active; 'I' for Inactive)
REMARK    1  A    between atoms: C7_7  and  N8_8 
ROOT
HETATM    1  C1  UNL     1     -32.959   8.757   0.637  1.00 20.00     0.013 C 
HETATM    2  C2  UNL     1     -32.638   7.973   1.487  1.00 20.00    -0.087 C 
HETATM    3  C7  UNL     1     -32.240   7.015   2.522  1.00 20.00     0.364 C 
ENDROOT
BRANCH   3   4
HETATM    4  N8  UNL     1     -33.369   6.732   3.429  1.00 20.00     0.100 N 
HETATM    5  C3  UNL     1     -33.745   5.316   3.291  1.00 20.00     0.283 C 
HETATM    6  C5  UNL     1     -34.994   4.966   4.097  1.00 20.00     0.104 C 
HETATM    7  S9  UNL     1     -34.733   5.213   5.874  1.00 20.00    -0.166 SA
HETATM    8  C6  UNL     1     -34.118   6.918   5.797  1.00 20.00     0.104 C 
HETATM    9  C4  UNL     1     -32.966   7.056   4.805  1.00 20.00     0.283 C 
ENDBRANCH   3   4
TORSDOF 1
ENDMDL
MODEL 2
REMARK VINA RESULT:      -3.7     15.258     15.943
REMARK  1 active torsions:
REMARK  status: ('A' for Active; 'I' for Inactive)
REMARK    1  A    between atoms: C7_7  and  N8_8 
ROOT
HETATM    1  C1  UNL     1     -26.620  18.930   6.585  1.00 20.00     0.013 C 
HETATM    2  C2  UNL     1     -25.579  18.914   7.182  1.00 20.00    -0.087 C 
HETATM    3  C7  UNL     1     -24.305  18.898   7.906  1.00 20.00     0.364 C 
ENDROOT
BRANCH   3   4
HETATM    4  N8  UNL     1     -24.446  18.185   9.190  1.00 20.00     0.100 N 
HETATM    5  C3  UNL     1     -23.106  17.888   9.718  1.00 20.00     0.283 C 
HETATM    6  C5  UNL     1     -23.156  17.033  10.982  1.00 20.00     0.104 C 
HETATM    7  S9  UNL     1     -24.016  17.884  12.332  1.00 20.00    -0.166 SA
HETATM    8  C6  UNL     1     -25.531  18.307  11.429  1.00 20.00     0.104 C 
HETATM    9  C4  UNL     1     -25.223  19.022  10.115  1.00 20.00     0.283 C 
ENDBRANCH   3   4
TORSDOF 1
ENDMDL
MODEL 3
REMARK VINA RESULT:      -3.6     16.448     17.081
REMARK  1 active torsions:
REMARK  status: ('A' for Active; 'I' for Inactive)
REMARK    1  A    between atoms: C7_7  and  N8_8 
ROOT
HETATM    1  C1  UNL     1     -27.376  19.263  11.572  1.00 20.00     0.013 C 
HETATM    2  C2  UNL     1     -26.437  18.554  11.809  1.00 20.00    -0.087 C 
HETATM    3  C7  UNL     1     -25.294  17.685  12.101  1.00 20.00     0.364 C 
ENDROOT
BRANCH   3   4
HETATM    4  N8  UNL     1     -24.079  18.178  11.424  1.00 20.00     0.100 N 
HETATM    5  C3  UNL     1     -22.941  17.332  11.817  1.00 20.00     0.283 C 
HETATM    6  C5  UNL     1     -21.615  17.851  11.265  1.00 20.00     0.104 C 
HETATM    7  S9  UNL     1     -21.599  17.853   9.452  1.00 20.00    -0.166 SA
HETATM    8  C6  UNL     1     -23.142  18.771   9.194  1.00 20.00     0.104 C 
HETATM    9  C4  UNL     1     -24.301  18.153   9.972  1.00 20.00     0.283 C 
ENDBRANCH   3   4
TORSDOF 1
ENDMDL
MODEL 4
REMARK VINA RESULT:      -3.3     11.858     13.238
REMARK  1 active torsions:
REMARK  status: ('A' for Active; 'I' for Inactive)
REMARK    1  A    between atoms: C7_7  and  N8_8 
ROOT
HETATM    1  C1  UNL     1     -34.066  16.006  -2.560  1.00 20.00     0.013 C 
HETATM    2  C2  UNL     1     -34.563  15.156  -3.247  1.00 20.00    -0.087 C 
HETATM    3  C7  UNL     1     -35.170  14.115  -4.080  1.00 20.00     0.364 C 
ENDROOT
BRANCH   3   4
HETATM    4  N8  UNL     1     -35.320  14.585  -5.471  1.00 20.00     0.100 N 
HETATM    5  C3  UNL     1     -36.257  15.718  -5.490  1.00 20.00     0.283 C 
HETATM    6  C5  UNL     1     -36.575  16.185  -6.910  1.00 20.00     0.104 C 
HETATM    7  S9  UNL     1     -35.093  16.782  -7.765  1.00 20.00    -0.166 SA
HETATM    8  C6  UNL     1     -34.039  15.336  -7.470  1.00 20.00     0.104 C 
HETATM    9  C4  UNL     1     -33.998  14.961  -5.991  1.00 20.00     0.283 C 
ENDBRANCH   3   4
TORSDOF 1
ENDMDL
MODEL 5
REMARK VINA RESULT:      -3.3     11.806     13.000
REMARK  1 active torsions:
REMARK  status: ('A' for Active; 'I' for Inactive)
REMARK    1  A    between atoms: C7_7  and  N8_8 
ROOT
HETATM    1  C1  UNL     1     -35.136  16.591  -1.494  1.00 20.00     0.013 C 
HETATM    2  C2  UNL     1     -34.788  15.871  -2.389  1.00 20.00    -0.087 C 
HETATM    3  C7  UNL     1     -34.362  14.988  -3.478  1.00 20.00     0.364 C 
ENDROOT
BRANCH   3   4
HETATM    4  N8  UNL     1     -34.727  15.563  -4.786  1.00 20.00     0.100 N 
HETATM    5  C3  UNL     1     -33.939  14.897  -5.834  1.00 20.00     0.283 C 
HETATM    6  C5  UNL     1     -34.156  15.522  -7.211  1.00 20.00     0.104 C 
HETATM    7  S9  UNL     1     -35.881  15.371  -7.750  1.00 20.00    -0.166 SA
HETATM    8  C6  UNL     1     -36.662  16.071  -6.270  1.00 20.00     0.104 C 
HETATM    9  C4  UNL     1     -36.171  15.388  -4.996  1.00 20.00     0.283 C 
ENDBRANCH   3   4
TORSDOF 1
ENDMDL
MODEL 6
REMARK VINA RESULT:      -3.3     11.925     12.930
REMARK  1 active torsions:
REMARK  status: ('A' for Active; 'I' for Inactive)
REMARK    1  A    between atoms: C7_7  and  N8_8 
ROOT
HETATM    1  C1  UNL     1     -35.042  16.430  -1.554  1.00 20.00     0.013 C 
HETATM    2  C2  UNL     1     -34.269  16.124  -2.419  1.00 20.00    -0.087 C 
HETATM    3  C7  UNL     1     -33.321  15.748  -3.471  1.00 20.00     0.364 C 
ENDROOT
BRANCH   3   4
HETATM    4  N8  UNL     1     -33.984  15.733  -4.788  1.00 20.00     0.100 N 
HETATM    5  C3  UNL     1     -35.066  14.737  -4.764  1.00 20.00     0.283 C 
HETATM    6  C5  UNL     1     -35.723  14.560  -6.131  1.00 20.00     0.104 C 
HETATM    7  S9  UNL     1     -36.507  16.092  -6.700  1.00 20.00    -0.166 SA
HETATM    8  C6  UNL     1     -35.081  17.192  -6.484  1.00 20.00     0.104 C 
HETATM    9  C4  UNL     1     -34.492  17.081  -5.079  1.00 20.00     0.283 C 
ENDBRANCH   3   4
TORSDOF 1
ENDMDL
MODEL 7
REMARK VINA RESULT:      -3.3     11.542     12.309
REMARK  1 active torsions:
REMARK  status: ('A' for Active; 'I' for Inactive)
REMARK    1  A    between atoms: C7_7  and  N8_8 
ROOT
HETATM    1  C1  UNL     1     -30.714  18.412   0.911  1.00 20.00     0.013 C 
HETATM    2  C2  UNL     1     -31.280  18.477  -0.146  1.00 20.00    -0.087 C 
HETATM    3  C7  UNL     1     -31.966  18.561  -1.437  1.00 20.00     0.364 C 
ENDROOT
BRANCH   3   4
HETATM    4  N8  UNL     1     -32.929  17.453  -1.587  1.00 20.00     0.100 N 
HETATM    5  C3  UNL     1     -34.260  17.921  -1.170  1.00 20.00     0.283 C 
HETATM    6  C5  UNL     1     -35.296  16.799  -1.167  1.00 20.00     0.104 C 
HETATM    7  S9  UNL     1     -35.537  16.106  -2.825  1.00 20.00    -0.166 SA
HETATM    8  C6  UNL     1     -33.796  15.771  -3.206  1.00 20.00     0.104 C 
HETATM    9  C4  UNL     1     -32.923  17.004  -2.986  1.00 20.00     0.283 C 
ENDBRANCH   3   4
TORSDOF 1
ENDMDL
MODEL 8
REMARK VINA RESULT:      -3.3     11.370     11.916
REMARK  1 active torsions:
REMARK  status: ('A' for Active; 'I' for Inactive)
REMARK    1  A    between atoms: C7_7  and  N8_8 
ROOT
HETATM    1  C1  UNL     1     -35.558  17.303   0.657  1.00 20.00     0.013 C 
HETATM    2  C2  UNL     1     -34.853  17.321  -0.314  1.00 20.00    -0.087 C 
HETATM    3  C7  UNL     1     -33.989  17.346  -1.497  1.00 20.00     0.364 C 
ENDROOT
BRANCH   3   4
HETATM    4  N8  UNL     1     -34.245  16.173  -2.353  1.00 20.00     0.100 N 
HETATM    5  C3  UNL     1     -35.590  16.295  -2.936  1.00 20.00     0.283 C 
HETATM    6  C5  UNL     1     -35.992  15.056  -3.734  1.00 20.00     0.104 C 
HETATM    7  S9  UNL     1     -34.889  14.783  -5.146  1.00 20.00    -0.166 SA
HETATM    8  C6  UNL     1     -33.316  14.845  -4.245  1.00 20.00     0.104 C 
HETATM    9  C4  UNL     1     -33.206  16.106  -3.391  1.00 20.00     0.283 C 
ENDBRANCH   3   4
TORSDOF 1
ENDMDL
MODEL 9
REMARK VINA RESULT:      -3.2     11.562     12.505
REMARK  1 active torsions:
REMARK  status: ('A' for Active; 'I' for Inactive)
REMARK    1  A    between atoms: C7_7  and  N8_8 
ROOT
HETATM    1  C1  UNL     1     -35.375  17.102  -0.591  1.00 20.00     0.013 C 
HETATM    2  C2  UNL     1     -34.797  16.575  -1.501  1.00 20.00    -0.087 C 
HETATM    3  C7  UNL     1     -34.088  15.931  -2.609  1.00 20.00     0.364 C 
ENDROOT
BRANCH   3   4
HETATM    4  N8  UNL     1     -34.977  15.775  -3.776  1.00 20.00     0.100 N 
HETATM    5  C3  UNL     1     -34.408  16.520  -4.909  1.00 20.00     0.283 C 
HETATM    6  C5  UNL     1     -35.332  16.523  -6.125  1.00 20.00     0.104 C 
HETATM    7  S9  UNL     1     -35.614  14.847  -6.756  1.00 20.00    -0.166 SA
HETATM    8  C6  UNL     1     -36.126  14.080  -5.194  1.00 20.00     0.104 C 
HETATM    9  C4  UNL     1     -35.116  14.344  -4.080  1.00 20.00     0.283 C 
ENDBRANCH   3   4
TORSDOF 1
ENDMDL
