MODEL 1
REMARK VINA RESULT:      -4.9      0.000      0.000
REMARK  0 active torsions:
REMARK  status: ('A' for Active; 'I' for Inactive)
ROOT
HETATM    1  C1  UNL     1     -32.884  16.045  -3.476  1.00 20.00     0.011 A 
HETATM    2  C2  UNL     1     -33.645  15.048  -4.086  1.00 20.00     0.024 A 
HETATM    3  C3  UNL     1     -35.460  15.493  -2.555  1.00 20.00     0.031 A 
HETATM    4  C4  UNL     1     -33.409  16.779  -2.406  1.00 20.00    -0.028 A 
HETATM    5  C5  UNL     1     -34.699  16.486  -1.930  1.00 20.00    -0.046 A 
HETATM    6  C6  UNL     1     -34.932  14.773  -3.628  1.00 20.00     0.034 A 
HETATM    7  C7  UNL     1     -35.278  17.290  -0.796  1.00 20.00     0.065 C 
HETATM    8  C8  UNL     1     -32.572  17.834  -1.729  1.00 20.00     0.206 C 
HETATM    9  C9  UNL     1     -34.180  17.986  -0.002  1.00 20.00     0.172 C 
HETATM   10  O10 UNL     1     -33.342  18.713  -0.900  1.00 20.00    -0.386 OA
HETATM   11 CL11 UNL     1     -35.872  13.548  -4.387  1.00 20.00    -0.084 Cl
ENDROOT
TORSDOF 0
ENDMDL
MODEL 2
REMARK VINA RESULT:      -4.9      2.945      4.194
REMARK  0 active torsions:
REMARK  status: ('A' for Active; 'I' for Inactive)
ROOT
HETATM    1  C1  UNL     1     -32.955  16.445  -3.405  1.00 20.00     0.011 A 
HETATM    2  C2  UNL     1     -33.106  17.108  -2.188  1.00 20.00     0.024 A 
HETATM    3  C3  UNL     1     -35.346  16.229  -1.982  1.00 20.00     0.031 A 
HETATM    4  C4  UNL     1     -33.997  15.662  -3.916  1.00 20.00    -0.028 A 
HETATM    5  C5  UNL     1     -35.208  15.569  -3.208  1.00 20.00    -0.046 A 
HETATM    6  C6  UNL     1     -34.299  16.999  -1.475  1.00 20.00     0.034 A 
HETATM    7  C7  UNL     1     -36.322  14.708  -3.741  1.00 20.00     0.065 C 
HETATM    8  C8  UNL     1     -33.841  14.971  -5.247  1.00 20.00     0.206 C 
HETATM    9  C9  UNL     1     -36.147  14.448  -5.232  1.00 20.00     0.172 C 
HETATM   10  O10 UNL     1     -34.828  13.957  -5.470  1.00 20.00    -0.386 OA
HETATM   11 CL11 UNL     1     -34.480  17.813   0.029  1.00 20.00    -0.084 Cl
ENDROOT
TORSDOF 0
ENDMDL
MODEL 3
REMARK VINA RESULT:      -4.8      2.818      4.028
REMARK  0 active torsions:
REMARK  status: ('A' for Active; 'I' for Inactive)
ROOT
HETATM    1  C1  UNL     1     -32.752  17.048  -2.368  1.00 20.00     0.011 A 
HETATM    2  C2  UNL     1     -33.297  17.787  -1.318  1.00 20.00     0.024 A 
HETATM    3  C3  UNL     1     -35.366  16.555  -1.520  1.00 20.00     0.031 A 
HETATM    4  C4  UNL     1     -33.508  16.051  -2.996  1.00 20.00    -0.028 A 
HETATM    5  C5  UNL     1     -34.831  15.817  -2.582  1.00 20.00    -0.046 A 
HETATM    6  C6  UNL     1     -34.601  17.540  -0.893  1.00 20.00     0.034 A 
HETATM    7  C7  UNL     1     -35.639  14.729  -3.237  1.00 20.00     0.065 C 
HETATM    8  C8  UNL     1     -32.927  15.275  -4.151  1.00 20.00     0.206 C 
HETATM    9  C9  UNL     1     -35.062  14.364  -4.599  1.00 20.00     0.172 C 
HETATM   10  O10 UNL     1     -33.668  14.089  -4.458  1.00 20.00    -0.386 OA
HETATM   11 CL11 UNL     1     -35.269  18.448   0.407  1.00 20.00    -0.084 Cl
ENDROOT
TORSDOF 0
ENDMDL
MODEL 4
REMARK VINA RESULT:      -4.8      3.173      4.383
REMARK  0 active torsions:
REMARK  status: ('A' for Active; 'I' for Inactive)
ROOT
HETATM    1  C1  UNL     1     -33.940  14.508  -4.208  1.00 20.00     0.011 A 
HETATM    2  C2  UNL     1     -33.106  15.421  -3.563  1.00 20.00     0.024 A 
HETATM    3  C3  UNL     1     -35.039  16.653  -2.800  1.00 20.00     0.031 A 
HETATM    4  C4  UNL     1     -35.331  14.657  -4.147  1.00 20.00    -0.028 A 
HETATM    5  C5  UNL     1     -35.882  15.749  -3.454  1.00 20.00    -0.046 A 
HETATM    6  C6  UNL     1     -33.654  16.491  -2.858  1.00 20.00     0.034 A 
HETATM    7  C7  UNL     1     -37.378  15.899  -3.363  1.00 20.00     0.065 C 
HETATM    8  C8  UNL     1     -36.229  13.685  -4.870  1.00 20.00     0.206 C 
HETATM    9  C9  UNL     1     -38.075  15.105  -4.461  1.00 20.00     0.172 C 
HETATM   10  O10 UNL     1     -37.594  13.761  -4.444  1.00 20.00    -0.386 OA
HETATM   11 CL11 UNL     1     -32.623  17.612  -2.058  1.00 20.00    -0.084 Cl
ENDROOT
TORSDOF 0
ENDMDL
MODEL 5
REMARK VINA RESULT:      -4.7      1.246      2.331
REMARK  0 active torsions:
REMARK  status: ('A' for Active; 'I' for Inactive)
ROOT
HETATM    1  C1  UNL     1     -35.319  16.252  -1.779  1.00 20.00     0.011 A 
HETATM    2  C2  UNL     1     -35.041  15.486  -2.910  1.00 20.00     0.024 A 
HETATM    3  C3  UNL     1     -32.857  16.507  -3.069  1.00 20.00     0.031 A 
HETATM    4  C4  UNL     1     -34.365  17.146  -1.279  1.00 20.00    -0.028 A 
HETATM    5  C5  UNL     1     -33.133  17.288  -1.941  1.00 20.00    -0.046 A 
HETATM    6  C6  UNL     1     -33.811  15.611  -3.554  1.00 20.00     0.034 A 
HETATM    7  C7  UNL     1     -32.093  18.229  -1.393  1.00 20.00     0.065 C 
HETATM    8  C8  UNL     1     -34.680  17.994  -0.074  1.00 20.00     0.206 C 
HETATM    9  C9  UNL     1     -32.724  19.262  -0.468  1.00 20.00     0.172 C 
HETATM   10  O10 UNL     1     -33.517  18.592   0.511  1.00 20.00    -0.386 OA
HETATM   11 CL11 UNL     1     -33.468  14.660  -4.946  1.00 20.00    -0.084 Cl
ENDROOT
TORSDOF 0
ENDMDL
MODEL 6
REMARK VINA RESULT:      -4.6      2.973      4.566
REMARK  0 active torsions:
REMARK  status: ('A' for Active; 'I' for Inactive)
ROOT
HETATM    1  C1  UNL     1     -35.348  16.788  -1.187  1.00 20.00     0.011 A 
HETATM    2  C2  UNL     1     -34.588  17.718  -0.478  1.00 20.00     0.024 A 
HETATM    3  C3  UNL     1     -32.742  17.374  -1.998  1.00 20.00     0.031 A 
HETATM    4  C4  UNL     1     -34.812  16.149  -2.312  1.00 20.00    -0.028 A 
HETATM    5  C5  UNL     1     -33.493  16.431  -2.708  1.00 20.00    -0.046 A 
HETATM    6  C6  UNL     1     -33.288  18.013  -0.884  1.00 20.00     0.034 A 
HETATM    7  C7  UNL     1     -32.921  15.767  -3.932  1.00 20.00     0.065 C 
HETATM    8  C8  UNL     1     -35.625  15.122  -3.058  1.00 20.00     0.206 C 
HETATM    9  C9  UNL     1     -33.700  14.505  -4.283  1.00 20.00     0.172 C 
HETATM   10  O10 UNL     1     -35.091  14.817  -4.351  1.00 20.00    -0.386 OA
HETATM   11 CL11 UNL     1     -32.356  19.166  -0.011  1.00 20.00    -0.084 Cl
ENDROOT
TORSDOF 0
ENDMDL
MODEL 7
REMARK VINA RESULT:      -4.6      3.343      4.649
REMARK  0 active torsions:
REMARK  status: ('A' for Active; 'I' for Inactive)
ROOT
HETATM    1  C1  UNL     1     -34.423  17.348  -5.196  1.00 20.00     0.011 A 
HETATM    2  C2  UNL     1     -33.650  17.902  -4.176  1.00 20.00     0.024 A 
HETATM    3  C3  UNL     1     -33.818  15.843  -2.924  1.00 20.00     0.031 A 
HETATM    4  C4  UNL     1     -34.894  16.034  -5.090  1.00 20.00    -0.028 A 
HETATM    5  C5  UNL     1     -34.605  15.283  -3.937  1.00 20.00    -0.046 A 
HETATM    6  C6  UNL     1     -33.346  17.151  -3.043  1.00 20.00     0.034 A 
HETATM    7  C7  UNL     1     -35.086  13.861  -3.830  1.00 20.00     0.065 C 
HETATM    8  C8  UNL     1     -35.755  15.448  -6.180  1.00 20.00     0.206 C 
HETATM    9  C9  UNL     1     -36.243  13.601  -4.786  1.00 20.00     0.172 C 
HETATM   10  O10 UNL     1     -35.870  14.023  -6.098  1.00 20.00    -0.386 OA
HETATM   11 CL11 UNL     1     -32.386  17.835  -1.789  1.00 20.00    -0.084 Cl
ENDROOT
TORSDOF 0
ENDMDL
MODEL 8
REMARK VINA RESULT:      -4.5     11.798     12.303
REMARK  0 active torsions:
REMARK  status: ('A' for Active; 'I' for Inactive)
ROOT
HETATM    1  C1  UNL     1     -33.693   4.914   2.486  1.00 20.00     0.011 A 
HETATM    2  C2  UNL     1     -33.055   5.767   1.587  1.00 20.00     0.024 A 
HETATM    3  C3  UNL     1     -32.838   7.437   3.318  1.00 20.00     0.031 A 
HETATM    4  C4  UNL     1     -33.901   5.314   3.812  1.00 20.00    -0.028 A 
HETATM    5  C5  UNL     1     -33.488   6.592   4.224  1.00 20.00    -0.046 A 
HETATM    6  C6  UNL     1     -32.625   7.026   2.001  1.00 20.00     0.034 A 
HETATM    7  C7  UNL     1     -33.686   7.018   5.655  1.00 20.00     0.065 C 
HETATM    8  C8  UNL     1     -34.618   4.401   4.773  1.00 20.00     0.206 C 
HETATM    9  C9  UNL     1     -34.759   6.174   6.333  1.00 20.00     0.172 C 
HETATM   10  O10 UNL     1     -34.457   4.792   6.142  1.00 20.00    -0.386 OA
HETATM   11 CL11 UNL     1     -31.832   8.074   0.891  1.00 20.00    -0.084 Cl
ENDROOT
TORSDOF 0
ENDMDL
MODEL 9
REMARK VINA RESULT:      -4.3      3.151      4.717
REMARK  0 active torsions:
REMARK  status: ('A' for Active; 'I' for Inactive)
ROOT
HETATM    1  C1  UNL     1     -36.517  17.233  -2.725  1.00 20.00     0.011 A 
HETATM    2  C2  UNL     1     -35.498  17.795  -1.957  1.00 20.00     0.024 A 
HETATM    3  C3  UNL     1     -34.025  15.982  -2.573  1.00 20.00     0.031 A 
HETATM    4  C4  UNL     1     -36.294  16.044  -3.431  1.00 20.00    -0.028 A 
HETATM    5  C5  UNL     1     -35.045  15.405  -3.338  1.00 20.00    -0.046 A 
HETATM    6  C6  UNL     1     -34.254  17.173  -1.882  1.00 20.00     0.034 A 
HETATM    7  C7  UNL     1     -34.792  14.140  -4.115  1.00 20.00     0.065 C 
HETATM    8  C8  UNL     1     -37.406  15.422  -4.237  1.00 20.00     0.206 C 
HETATM    9  C9  UNL     1     -36.102  13.468  -4.508  1.00 20.00     0.172 C 
HETATM   10  O10 UNL     1     -36.943  14.424  -5.154  1.00 20.00    -0.386 OA
HETATM   11 CL11 UNL     1     -32.997  17.873  -0.938  1.00 20.00    -0.084 Cl
ENDROOT
TORSDOF 0
ENDMDL
