MODEL 1
REMARK VINA RESULT:      -4.3      0.000      0.000
REMARK  0 active torsions:
REMARK  status: ('A' for Active; 'I' for Inactive)
ROOT
HETATM    1  C1  UNL     1     -23.341  17.891   9.639  1.00 20.00     0.131 C 
HETATM    2  C2  UNL     1     -23.557  18.066  12.331  1.00 20.00     0.059 C 
HETATM    3  C3  UNL     1     -22.206  17.703  11.751  1.00 20.00     0.179 C 
HETATM    4  C4  UNL     1     -24.675  17.390  11.534  1.00 20.00     0.051 C 
HETATM    5  C5  UNL     1     -23.110  18.164   8.187  1.00 20.00     0.099 C 
HETATM    6  C6  UNL     1     -24.697  15.868  11.732  1.00 20.00     0.040 C 
HETATM    7  C7  UNL     1     -26.030  17.969  11.963  1.00 20.00     0.040 C 
HETATM    8  N8  UNL     1     -24.519  17.664  10.101  1.00 20.00    -0.261 NA
HETATM    9  O9  UNL     1     -22.174  17.931  10.333  1.00 20.00    -0.338 OA
ENDROOT
TORSDOF 0
ENDMDL
MODEL 2
REMARK VINA RESULT:      -4.2      1.726      2.570
REMARK  0 active torsions:
REMARK  status: ('A' for Active; 'I' for Inactive)
ROOT
HETATM    1  C1  UNL     1     -22.270  17.446   8.319  1.00 20.00     0.131 C 
HETATM    2  C2  UNL     1     -24.492  18.190   9.673  1.00 20.00     0.059 C 
HETATM    3  C3  UNL     1     -23.723  19.262   8.930  1.00 20.00     0.179 C 
HETATM    4  C4  UNL     1     -23.525  17.193  10.315  1.00 20.00     0.051 C 
HETATM    5  C5  UNL     1     -21.294  17.007   7.276  1.00 20.00     0.099 C 
HETATM    6  C6  UNL     1     -22.732  17.810  11.476  1.00 20.00     0.040 C 
HETATM    7  C7  UNL     1     -24.310  15.981  10.835  1.00 20.00     0.040 C 
HETATM    8  N8  UNL     1     -22.568  16.696   9.320  1.00 20.00    -0.261 NA
HETATM    9  O9  UNL     1     -22.758  18.682   8.038  1.00 20.00    -0.338 OA
ENDROOT
TORSDOF 0
ENDMDL
MODEL 3
REMARK VINA RESULT:      -4.0     16.310     17.287
REMARK  0 active torsions:
REMARK  status: ('A' for Active; 'I' for Inactive)
ROOT
HETATM    1  C1  UNL     1     -33.022   6.477   3.088  1.00 20.00     0.131 C 
HETATM    2  C2  UNL     1     -33.993   4.145   4.059  1.00 20.00     0.059 C 
HETATM    3  C3  UNL     1     -33.652   4.212   2.585  1.00 20.00     0.179 C 
HETATM    4  C4  UNL     1     -34.619   5.464   4.518  1.00 20.00     0.051 C 
HETATM    5  C5  UNL     1     -32.144   7.596   2.626  1.00 20.00     0.099 C 
HETATM    6  C6  UNL     1     -36.018   5.686   3.927  1.00 20.00     0.040 C 
HETATM    7  C7  UNL     1     -34.716   5.478   6.050  1.00 20.00     0.040 C 
HETATM    8  N8  UNL     1     -33.772   6.596   4.126  1.00 20.00    -0.261 NA
HETATM    9  O9  UNL     1     -32.889   5.391   2.284  1.00 20.00    -0.338 OA
ENDROOT
TORSDOF 0
ENDMDL
MODEL 4
REMARK VINA RESULT:      -4.0      1.402      2.360
REMARK  0 active torsions:
REMARK  status: ('A' for Active; 'I' for Inactive)
ROOT
HETATM    1  C1  UNL     1     -24.419  18.343   9.382  1.00 20.00     0.131 C 
HETATM    2  C2  UNL     1     -25.740  17.715  11.659  1.00 20.00     0.059 C 
HETATM    3  C3  UNL     1     -25.804  19.148  11.175  1.00 20.00     0.179 C 
HETATM    4  C4  UNL     1     -24.342  17.138  11.423  1.00 20.00     0.051 C 
HETATM    5  C5  UNL     1     -24.035  18.616   7.963  1.00 20.00     0.099 C 
HETATM    6  C6  UNL     1     -23.284  17.777  12.332  1.00 20.00     0.040 C 
HETATM    7  C7  UNL     1     -24.366  15.623  11.672  1.00 20.00     0.040 C 
HETATM    8  N8  UNL     1     -23.934  17.343  10.029  1.00 20.00    -0.261 NA
HETATM    9  O9  UNL     1     -25.313  19.262   9.830  1.00 20.00    -0.338 OA
ENDROOT
TORSDOF 0
ENDMDL
MODEL 5
REMARK VINA RESULT:      -4.0      1.513      3.325
REMARK  0 active torsions:
REMARK  status: ('A' for Active; 'I' for Inactive)
ROOT
HETATM    1  C1  UNL     1     -23.736  16.578  11.152  1.00 20.00     0.131 C 
HETATM    2  C2  UNL     1     -21.438  17.788  10.391  1.00 20.00     0.059 C 
HETATM    3  C3  UNL     1     -21.952  18.059  11.790  1.00 20.00     0.179 C 
HETATM    4  C4  UNL     1     -22.605  17.712   9.403  1.00 20.00     0.051 C 
HETATM    5  C5  UNL     1     -24.760  15.643  11.712  1.00 20.00     0.099 C 
HETATM    6  C6  UNL     1     -23.278  19.074   9.185  1.00 20.00     0.040 C 
HETATM    7  C7  UNL     1     -22.099  17.182   8.055  1.00 20.00     0.040 C 
HETATM    8  N8  UNL     1     -23.622  16.771   9.886  1.00 20.00    -0.261 NA
HETATM    9  O9  UNL     1     -22.996  17.139  12.144  1.00 20.00    -0.338 OA
ENDROOT
TORSDOF 0
ENDMDL
MODEL 6
REMARK VINA RESULT:      -3.9     18.551     19.797
REMARK  0 active torsions:
REMARK  status: ('A' for Active; 'I' for Inactive)
ROOT
HETATM    1  C1  UNL     1     -35.333  14.938  -6.316  1.00 20.00     0.131 C 
HETATM    2  C2  UNL     1     -34.844  13.882  -3.873  1.00 20.00     0.059 C 
HETATM    3  C3  UNL     1     -36.123  13.478  -4.577  1.00 20.00     0.179 C 
HETATM    4  C4  UNL     1     -34.550  15.364  -4.119  1.00 20.00     0.051 C 
HETATM    5  C5  UNL     1     -35.430  15.195  -7.786  1.00 20.00     0.099 C 
HETATM    6  C6  UNL     1     -35.551  16.286  -3.410  1.00 20.00     0.040 C 
HETATM    7  C7  UNL     1     -33.133  15.692  -3.627  1.00 20.00     0.040 C 
HETATM    8  N8  UNL     1     -34.591  15.662  -5.555  1.00 20.00    -0.261 NA
HETATM    9  O9  UNL     1     -36.103  13.879  -5.956  1.00 20.00    -0.338 OA
ENDROOT
TORSDOF 0
ENDMDL
MODEL 7
REMARK VINA RESULT:      -3.9     17.106     18.397
REMARK  0 active torsions:
REMARK  status: ('A' for Active; 'I' for Inactive)
ROOT
HETATM    1  C1  UNL     1     -34.869  16.100  -2.307  1.00 20.00     0.131 C 
HETATM    2  C2  UNL     1     -33.875  14.456  -4.213  1.00 20.00     0.059 C 
HETATM    3  C3  UNL     1     -33.000  15.594  -3.732  1.00 20.00     0.179 C 
HETATM    4  C4  UNL     1     -35.334  14.912  -4.306  1.00 20.00     0.051 C 
HETATM    5  C5  UNL     1     -35.234  16.762  -1.017  1.00 20.00     0.099 C 
HETATM    6  C6  UNL     1     -35.560  15.924  -5.438  1.00 20.00     0.040 C 
HETATM    7  C7  UNL     1     -36.237  13.693  -4.538  1.00 20.00     0.040 C 
HETATM    8  N8  UNL     1     -35.756  15.533  -3.046  1.00 20.00    -0.261 NA
HETATM    9  O9  UNL     1     -33.534  16.189  -2.539  1.00 20.00    -0.338 OA
ENDROOT
TORSDOF 0
ENDMDL
MODEL 8
REMARK VINA RESULT:      -3.8     18.895     20.089
REMARK  0 active torsions:
REMARK  status: ('A' for Active; 'I' for Inactive)
ROOT
HETATM    1  C1  UNL     1     -37.829  14.945  -4.240  1.00 20.00     0.131 C 
HETATM    2  C2  UNL     1     -35.240  14.638  -4.965  1.00 20.00     0.059 C 
HETATM    3  C3  UNL     1     -36.014  13.401  -4.556  1.00 20.00     0.179 C 
HETATM    4  C4  UNL     1     -35.633  15.824  -4.081  1.00 20.00     0.051 C 
HETATM    5  C5  UNL     1     -39.322  15.034  -4.213  1.00 20.00     0.099 C 
HETATM    6  C6  UNL     1     -35.142  15.665  -2.636  1.00 20.00     0.040 C 
HETATM    7  C7  UNL     1     -35.045  17.115  -4.669  1.00 20.00     0.040 C 
HETATM    8  N8  UNL     1     -37.091  15.982  -4.056  1.00 20.00    -0.261 NA
HETATM    9  O9  UNL     1     -37.422  13.673  -4.483  1.00 20.00    -0.338 OA
ENDROOT
TORSDOF 0
ENDMDL
MODEL 9
REMARK VINA RESULT:      -3.7      2.233      3.767
REMARK  0 active torsions:
REMARK  status: ('A' for Active; 'I' for Inactive)
ROOT
HETATM    1  C1  UNL     1     -24.422  18.501   8.193  1.00 20.00     0.131 C 
HETATM    2  C2  UNL     1     -22.916  16.584   9.365  1.00 20.00     0.059 C 
HETATM    3  C3  UNL     1     -24.020  17.217  10.185  1.00 20.00     0.179 C 
HETATM    4  C4  UNL     1     -22.234  17.639   8.490  1.00 20.00     0.051 C 
HETATM    5  C5  UNL     1     -25.485  19.259   7.462  1.00 20.00     0.099 C 
HETATM    6  C6  UNL     1     -21.417  18.644   9.314  1.00 20.00     0.040 C 
HETATM    7  C7  UNL     1     -21.305  16.946   7.483  1.00 20.00     0.040 C 
HETATM    8  N8  UNL     1     -23.233  18.385   7.717  1.00 20.00    -0.261 NA
HETATM    9  O9  UNL     1     -24.903  17.989   9.355  1.00 20.00    -0.338 OA
ENDROOT
TORSDOF 0
ENDMDL
