MODEL 1
REMARK VINA RESULT:      -4.3      0.000      0.000
REMARK  1 active torsions:
REMARK  status: ('A' for Active; 'I' for Inactive)
REMARK    1  A    between atoms: C4_4  and  C10_10 
ROOT
HETATM    1  C1  UNL     1     -36.247  15.887  -3.647  1.00 20.00     0.092 C 
HETATM    2  C2  UNL     1     -33.509  15.898  -3.206  1.00 20.00     0.029 C 
HETATM    3  C3  UNL     1     -34.065  14.635  -3.846  1.00 20.00     0.016 C 
HETATM    4  C4  UNL     1     -34.477  16.367  -2.125  1.00 20.00     0.110 C 
HETATM    5  C5  UNL     1     -35.437  14.906  -4.476  1.00 20.00    -0.014 C 
HETATM    6  C6  UNL     1     -35.281  15.524  -5.876  1.00 20.00     0.020 C 
HETATM    7  C7  UNL     1     -36.229  13.598  -4.591  1.00 20.00     0.020 C 
HETATM    8  N11 UNL     1     -35.837  16.562  -2.630  1.00 20.00    -0.299 NA
ENDROOT
BRANCH   4   9
HETATM    9  C10 UNL     1     -34.010  17.688  -1.519  1.00 20.00     0.002 C 
HETATM   10  C8  UNL     1     -34.440  17.791  -0.057  1.00 20.00     0.011 C 
HETATM   11  C9  UNL     1     -32.494  17.831  -1.644  1.00 20.00     0.011 C 
ENDBRANCH   4   9
TORSDOF 1
ENDMDL
MODEL 2
REMARK VINA RESULT:      -4.3      1.355      4.367
REMARK  1 active torsions:
REMARK  status: ('A' for Active; 'I' for Inactive)
REMARK    1  A    between atoms: C4_4  and  C10_10 
ROOT
HETATM    1  C1  UNL     1     -32.959  17.163  -2.800  1.00 20.00     0.092 C 
HETATM    2  C2  UNL     1     -35.415  15.890  -2.607  1.00 20.00     0.029 C 
HETATM    3  C3  UNL     1     -35.010  16.719  -1.398  1.00 20.00     0.016 C 
HETATM    4  C4  UNL     1     -34.188  15.147  -3.127  1.00 20.00     0.110 C 
HETATM    5  C5  UNL     1     -33.925  17.735  -1.776  1.00 20.00    -0.014 C 
HETATM    6  C6  UNL     1     -34.551  18.991  -2.403  1.00 20.00     0.020 C 
HETATM    7  C7  UNL     1     -33.129  18.140  -0.530  1.00 20.00     0.020 C 
HETATM    8  N11 UNL     1     -33.071  16.045  -3.427  1.00 20.00    -0.299 NA
ENDROOT
BRANCH   4   9
HETATM    9  C10 UNL     1     -34.524  14.378  -4.401  1.00 20.00     0.002 C 
HETATM   10  C8  UNL     1     -35.980  13.914  -4.381  1.00 20.00     0.011 C 
HETATM   11  C9  UNL     1     -34.251  15.234  -5.636  1.00 20.00     0.011 C 
ENDBRANCH   4   9
TORSDOF 1
ENDMDL
MODEL 3
REMARK VINA RESULT:      -4.2      1.362      2.529
REMARK  1 active torsions:
REMARK  status: ('A' for Active; 'I' for Inactive)
REMARK    1  A    between atoms: C4_4  and  C10_10 
ROOT
HETATM    1  C1  UNL     1     -34.989  16.821  -5.777  1.00 20.00     0.092 C 
HETATM    2  C2  UNL     1     -34.933  14.477  -4.297  1.00 20.00     0.029 C 
HETATM    3  C3  UNL     1     -35.687  14.402  -5.616  1.00 20.00     0.016 C 
HETATM    4  C4  UNL     1     -35.239  15.814  -3.632  1.00 20.00     0.110 C 
HETATM    5  C5  UNL     1     -35.262  15.542  -6.549  1.00 20.00    -0.014 C 
HETATM    6  C6  UNL     1     -33.966  15.181  -7.293  1.00 20.00     0.020 C 
HETATM    7  C7  UNL     1     -36.368  15.820  -7.575  1.00 20.00     0.020 C 
HETATM    8  N11 UNL     1     -34.943  16.957  -4.498  1.00 20.00    -0.299 NA
ENDROOT
BRANCH   4   9
HETATM    9  C10 UNL     1     -34.426  15.977  -2.351  1.00 20.00     0.002 C 
HETATM   10  C8  UNL     1     -33.113  16.706  -2.636  1.00 20.00     0.011 C 
HETATM   11  C9  UNL     1     -35.234  16.724  -1.291  1.00 20.00     0.011 C 
ENDBRANCH   4   9
TORSDOF 1
ENDMDL
MODEL 4
REMARK VINA RESULT:      -4.2      1.691      2.629
REMARK  1 active torsions:
REMARK  status: ('A' for Active; 'I' for Inactive)
REMARK    1  A    between atoms: C4_4  and  C10_10 
ROOT
HETATM    1  C1  UNL     1     -33.585  14.661  -5.154  1.00 20.00     0.092 C 
HETATM    2  C2  UNL     1     -34.819  17.009  -4.346  1.00 20.00     0.029 C 
HETATM    3  C3  UNL     1     -34.710  16.810  -5.850  1.00 20.00     0.016 C 
HETATM    4  C4  UNL     1     -33.522  16.543  -3.693  1.00 20.00     0.110 C 
HETATM    5  C5  UNL     1     -34.476  15.332  -6.185  1.00 20.00    -0.014 C 
HETATM    6  C6  UNL     1     -35.806  14.560  -6.199  1.00 20.00     0.020 C 
HETATM    7  C7  UNL     1     -33.809  15.205  -7.560  1.00 20.00     0.020 C 
HETATM    8  N11 UNL     1     -33.180  15.162  -4.040  1.00 20.00    -0.299 NA
ENDROOT
BRANCH   4   9
HETATM    9  C10 UNL     1     -33.621  16.632  -2.173  1.00 20.00     0.002 C 
HETATM   10  C8  UNL     1     -33.081  17.972  -1.676  1.00 20.00     0.011 C 
HETATM   11  C9  UNL     1     -35.065  16.433  -1.715  1.00 20.00     0.011 C 
ENDBRANCH   4   9
TORSDOF 1
ENDMDL
MODEL 5
REMARK VINA RESULT:      -4.1      1.168      4.474
REMARK  1 active torsions:
REMARK  status: ('A' for Active; 'I' for Inactive)
REMARK    1  A    between atoms: C4_4  and  C10_10 
ROOT
HETATM    1  C1  UNL     1     -35.621  17.693  -3.065  1.00 20.00     0.092 C 
HETATM    2  C2  UNL     1     -34.531  15.164  -3.394  1.00 20.00     0.029 C 
HETATM    3  C3  UNL     1     -33.678  16.148  -2.609  1.00 20.00     0.016 C 
HETATM    4  C4  UNL     1     -35.173  15.897  -4.567  1.00 20.00     0.110 C 
HETATM    5  C5  UNL     1     -34.534  17.304  -2.077  1.00 20.00    -0.014 C 
HETATM    6  C6  UNL     1     -35.239  16.903  -0.771  1.00 20.00     0.020 C 
HETATM    7  C7  UNL     1     -33.654  18.532  -1.816  1.00 20.00     0.020 C 
HETATM    8  N11 UNL     1     -35.938  17.072  -4.147  1.00 20.00    -0.299 NA
ENDROOT
BRANCH   4   9
HETATM    9  C10 UNL     1     -36.118  14.971  -5.328  1.00 20.00     0.002 C 
HETATM   10  C8  UNL     1     -35.622  14.754  -6.757  1.00 20.00     0.011 C 
HETATM   11  C9  UNL     1     -36.264  13.635  -4.602  1.00 20.00     0.011 C 
ENDBRANCH   4   9
TORSDOF 1
ENDMDL
MODEL 6
REMARK VINA RESULT:      -4.1      1.271      4.370
REMARK  1 active torsions:
REMARK  status: ('A' for Active; 'I' for Inactive)
REMARK    1  A    between atoms: C4_4  and  C10_10 
ROOT
HETATM    1  C1  UNL     1     -35.464  17.402  -3.534  1.00 20.00     0.092 C 
HETATM    2  C2  UNL     1     -33.896  15.122  -3.723  1.00 20.00     0.029 C 
HETATM    3  C3  UNL     1     -33.309  16.254  -2.894  1.00 20.00     0.016 C 
HETATM    4  C4  UNL     1     -34.567  15.714  -4.958  1.00 20.00     0.110 C 
HETATM    5  C5  UNL     1     -34.407  17.231  -2.456  1.00 20.00    -0.014 C 
HETATM    6  C6  UNL     1     -35.128  16.713  -1.200  1.00 20.00     0.020 C 
HETATM    7  C7  UNL     1     -33.796  18.605  -2.152  1.00 20.00     0.020 C 
HETATM    8  N11 UNL     1     -35.571  16.727  -4.624  1.00 20.00    -0.299 NA
ENDROOT
BRANCH   4   9
HETATM    9  C10 UNL     1     -35.258  14.623  -5.771  1.00 20.00     0.002 C 
HETATM   10  C8  UNL     1     -36.269  13.869  -4.910  1.00 20.00     0.011 C 
HETATM   11  C9  UNL     1     -35.940  15.219  -7.001  1.00 20.00     0.011 C 
ENDBRANCH   4   9
TORSDOF 1
ENDMDL
MODEL 7
REMARK VINA RESULT:      -4.0      1.629      4.529
REMARK  1 active torsions:
REMARK  status: ('A' for Active; 'I' for Inactive)
REMARK    1  A    between atoms: C4_4  and  C10_10 
ROOT
HETATM    1  C1  UNL     1     -34.704  15.010  -3.285  1.00 20.00     0.092 C 
HETATM    2  C2  UNL     1     -35.078  16.982  -5.199  1.00 20.00     0.029 C 
HETATM    3  C3  UNL     1     -35.248  17.429  -3.755  1.00 20.00     0.016 C 
HETATM    4  C4  UNL     1     -35.708  15.603  -5.363  1.00 20.00     0.110 C 
HETATM    5  C5  UNL     1     -34.567  16.442  -2.798  1.00 20.00    -0.014 C 
HETATM    6  C6  UNL     1     -33.062  16.738  -2.691  1.00 20.00     0.020 C 
HETATM    7  C7  UNL     1     -35.198  16.544  -1.404  1.00 20.00     0.020 C 
HETATM    8  N11 UNL     1     -35.172  14.620  -4.419  1.00 20.00    -0.299 NA
ENDROOT
BRANCH   4   9
HETATM    9  C10 UNL     1     -35.475  15.069  -6.774  1.00 20.00     0.002 C 
HETATM   10  C8  UNL     1     -36.258  15.892  -7.796  1.00 20.00     0.011 C 
HETATM   11  C9  UNL     1     -33.985  15.071  -7.111  1.00 20.00     0.011 C 
ENDBRANCH   4   9
TORSDOF 1
ENDMDL
MODEL 8
REMARK VINA RESULT:      -3.9      1.333      2.157
REMARK  1 active torsions:
REMARK  status: ('A' for Active; 'I' for Inactive)
REMARK    1  A    between atoms: C4_4  and  C10_10 
ROOT
HETATM    1  C1  UNL     1     -37.156  16.686  -3.652  1.00 20.00     0.092 C 
HETATM    2  C2  UNL     1     -35.138  14.788  -3.773  1.00 20.00     0.029 C 
HETATM    3  C3  UNL     1     -36.521  14.299  -4.171  1.00 20.00     0.016 C 
HETATM    4  C4  UNL     1     -35.271  15.712  -2.567  1.00 20.00     0.110 C 
HETATM    5  C5  UNL     1     -37.430  15.480  -4.534  1.00 20.00    -0.014 C 
HETATM    6  C6  UNL     1     -37.191  15.923  -5.987  1.00 20.00     0.020 C 
HETATM    7  C7  UNL     1     -38.901  15.080  -4.368  1.00 20.00     0.020 C 
HETATM    8  N11 UNL     1     -36.197  16.821  -2.805  1.00 20.00    -0.299 NA
ENDROOT
BRANCH   4   9
HETATM    9  C10 UNL     1     -33.917  16.307  -2.191  1.00 20.00     0.002 C 
HETATM   10  C8  UNL     1     -33.001  16.372  -3.412  1.00 20.00     0.011 C 
HETATM   11  C9  UNL     1     -34.091  17.695  -1.577  1.00 20.00     0.011 C 
ENDBRANCH   4   9
TORSDOF 1
ENDMDL
MODEL 9
REMARK VINA RESULT:      -3.9      1.260      1.711
REMARK  1 active torsions:
REMARK  status: ('A' for Active; 'I' for Inactive)
REMARK    1  A    between atoms: C4_4  and  C10_10 
ROOT
HETATM    1  C1  UNL     1     -33.976  16.782  -4.625  1.00 20.00     0.092 C 
HETATM    2  C2  UNL     1     -34.682  16.032  -2.050  1.00 20.00     0.029 C 
HETATM    3  C3  UNL     1     -35.296  15.202  -3.166  1.00 20.00     0.016 C 
HETATM    4  C4  UNL     1     -34.691  17.499  -2.467  1.00 20.00     0.110 C 
HETATM    5  C5  UNL     1     -34.497  15.364  -4.465  1.00 20.00    -0.014 C 
HETATM    6  C6  UNL     1     -33.273  14.433  -4.472  1.00 20.00     0.020 C 
HETATM    7  C7  UNL     1     -35.384  15.034  -5.671  1.00 20.00     0.020 C 
HETATM    8  N11 UNL     1     -34.023  17.725  -3.750  1.00 20.00    -0.299 NA
ENDROOT
BRANCH   4   9
HETATM    9  C10 UNL     1     -33.995  18.363  -1.419  1.00 20.00     0.002 C 
HETATM   10  C8  UNL     1     -34.453  17.976  -0.014  1.00 20.00     0.011 C 
HETATM   11  C9  UNL     1     -32.477  18.239  -1.542  1.00 20.00     0.011 C 
ENDBRANCH   4   9
TORSDOF 1
ENDMDL
