MODEL 1
REMARK VINA RESULT:      -4.6      0.000      0.000
REMARK  2 active torsions:
REMARK  status: ('A' for Active; 'I' for Inactive)
REMARK    1  A    between atoms: C1_1  and  C7_7 
REMARK    2  A    between atoms: C4_4  and  C7_7 
ROOT
HETATM    1  C6  UNL     1     -33.511   7.279   5.394  1.00 20.00     0.018 C 
HETATM    2  C7  UNL     1     -34.032   6.472   4.209  1.00 20.00     0.055 C 
ENDROOT
BRANCH   2   3
HETATM    3  C1  UNL     1     -34.512   5.093   4.654  1.00 20.00     0.127 C 
HETATM    4  C5  UNL     1     -34.884   4.938   6.107  1.00 20.00     0.091 C 
HETATM    5  O8  UNL     1     -34.573   4.135   3.883  1.00 20.00    -0.298 OA
ENDBRANCH   2   3
BRANCH   2   6
HETATM    6  C4  UNL     1     -32.957   6.328   3.139  1.00 20.00    -0.004 A 
HETATM    7  C2  UNL     1     -32.903   7.290   1.984  1.00 20.00     0.006 A 
HETATM    8  C3  UNL     1     -31.842   7.331   3.047  1.00 20.00     0.006 A 
ENDBRANCH   2   6
TORSDOF 2
ENDMDL
MODEL 2
REMARK VINA RESULT:      -4.5      1.834      3.857
REMARK  2 active torsions:
REMARK  status: ('A' for Active; 'I' for Inactive)
REMARK    1  A    between atoms: C1_1  and  C7_7 
REMARK    2  A    between atoms: C4_4  and  C7_7 
ROOT
HETATM    1  C6  UNL     1     -33.635   4.963   2.628  1.00 20.00     0.018 C 
HETATM    2  C7  UNL     1     -33.653   6.252   3.445  1.00 20.00     0.055 C 
ENDROOT
BRANCH   2   3
HETATM    3  C1  UNL     1     -32.513   7.178   3.032  1.00 20.00     0.127 C 
HETATM    4  C5  UNL     1     -32.475   7.610   1.588  1.00 20.00     0.091 C 
HETATM    5  O8  UNL     1     -31.641   7.543   3.821  1.00 20.00    -0.298 OA
ENDBRANCH   2   3
BRANCH   2   6
HETATM    6  C4  UNL     1     -33.564   5.948   4.935  1.00 20.00    -0.004 A 
HETATM    7  C2  UNL     1     -34.316   6.792   5.927  1.00 20.00     0.006 A 
HETATM    8  C3  UNL     1     -34.749   5.377   5.663  1.00 20.00     0.006 A 
ENDBRANCH   2   6
TORSDOF 2
ENDMDL
MODEL 3
REMARK VINA RESULT:      -4.5      1.054      1.794
REMARK  2 active torsions:
REMARK  status: ('A' for Active; 'I' for Inactive)
REMARK    1  A    between atoms: C1_1  and  C7_7 
REMARK    2  A    between atoms: C4_4  and  C7_7 
ROOT
HETATM    1  C6  UNL     1     -33.644   4.644   2.390  1.00 20.00     0.018 C 
HETATM    2  C7  UNL     1     -33.401   5.477   3.645  1.00 20.00     0.055 C 
ENDROOT
BRANCH   2   3
HETATM    3  C1  UNL     1     -34.557   5.332   4.631  1.00 20.00     0.127 C 
HETATM    4  C5  UNL     1     -34.433   6.073   5.938  1.00 20.00     0.091 C 
HETATM    5  O8  UNL     1     -35.539   4.627   4.398  1.00 20.00    -0.298 OA
ENDBRANCH   2   3
BRANCH   2   6
HETATM    6  C4  UNL     1     -33.201   6.945   3.289  1.00 20.00    -0.004 A 
HETATM    7  C2  UNL     1     -31.836   7.567   3.377  1.00 20.00     0.006 A 
HETATM    8  C3  UNL     1     -32.466   7.325   2.034  1.00 20.00     0.006 A 
ENDBRANCH   2   6
TORSDOF 2
ENDMDL
MODEL 4
REMARK VINA RESULT:      -4.4     11.461     12.053
REMARK  2 active torsions:
REMARK  status: ('A' for Active; 'I' for Inactive)
REMARK    1  A    between atoms: C1_1  and  C7_7 
REMARK    2  A    between atoms: C4_4  and  C7_7 
ROOT
HETATM    1  C6  UNL     1     -33.210  14.473  -4.459  1.00 20.00     0.018 C 
HETATM    2  C7  UNL     1     -34.487  14.496  -3.624  1.00 20.00     0.055 C 
ENDROOT
BRANCH   2   3
HETATM    3  C1  UNL     1     -35.663  13.916  -4.404  1.00 20.00     0.127 C 
HETATM    4  C5  UNL     1     -36.627  14.901  -5.016  1.00 20.00     0.091 C 
HETATM    5  O8  UNL     1     -35.848  12.703  -4.515  1.00 20.00    -0.298 OA
ENDBRANCH   2   3
BRANCH   2   6
HETATM    6  C4  UNL     1     -34.812  15.915  -3.172  1.00 20.00    -0.004 A 
HETATM    7  C2  UNL     1     -35.042  16.213  -1.717  1.00 20.00     0.006 A 
HETATM    8  C3  UNL     1     -33.799  16.713  -2.399  1.00 20.00     0.006 A 
ENDBRANCH   2   6
TORSDOF 2
ENDMDL
MODEL 5
REMARK VINA RESULT:      -4.0     16.603     17.215
REMARK  2 active torsions:
REMARK  status: ('A' for Active; 'I' for Inactive)
REMARK    1  A    between atoms: C1_1  and  C7_7 
REMARK    2  A    between atoms: C4_4  and  C7_7 
ROOT
HETATM    1  C6  UNL     1     -24.674  18.887   9.367  1.00 20.00     0.018 C 
HETATM    2  C7  UNL     1     -23.229  18.486   9.652  1.00 20.00     0.055 C 
ENDROOT
BRANCH   2   3
HETATM    3  C1  UNL     1     -22.553  17.947   8.395  1.00 20.00     0.127 C 
HETATM    4  C5  UNL     1     -21.299  17.132   8.593  1.00 20.00     0.091 C 
HETATM    5  O8  UNL     1     -22.979  18.179   7.263  1.00 20.00    -0.298 OA
ENDBRANCH   2   3
BRANCH   2   6
HETATM    6  C4  UNL     1     -23.166  17.446  10.763  1.00 20.00    -0.004 A 
HETATM    7  C2  UNL     1     -22.456  17.756  12.052  1.00 20.00     0.006 A 
HETATM    8  C3  UNL     1     -23.954  17.642  12.028  1.00 20.00     0.006 A 
ENDBRANCH   2   6
TORSDOF 2
ENDMDL
MODEL 6
REMARK VINA RESULT:      -4.0     15.755     16.952
REMARK  2 active torsions:
REMARK  status: ('A' for Active; 'I' for Inactive)
REMARK    1  A    between atoms: C1_1  and  C7_7 
REMARK    2  A    between atoms: C4_4  and  C7_7 
ROOT
HETATM    1  C6  UNL     1     -24.667  15.968  11.303  1.00 20.00     0.018 C 
HETATM    2  C7  UNL     1     -24.593  17.465  11.019  1.00 20.00     0.055 C 
ENDROOT
BRANCH   2   3
HETATM    3  C1  UNL     1     -23.148  17.955  11.032  1.00 20.00     0.127 C 
HETATM    4  C5  UNL     1     -22.389  17.803  12.326  1.00 20.00     0.091 C 
HETATM    5  O8  UNL     1     -22.619  18.478  10.051  1.00 20.00    -0.298 OA
ENDBRANCH   2   3
BRANCH   2   6
HETATM    6  C4  UNL     1     -25.417  18.249  12.033  1.00 20.00    -0.004 A 
HETATM    7  C2  UNL     1     -26.559  19.114  11.576  1.00 20.00     0.006 A 
HETATM    8  C3  UNL     1     -26.833  17.844  12.332  1.00 20.00     0.006 A 
ENDBRANCH   2   6
TORSDOF 2
ENDMDL
MODEL 7
REMARK VINA RESULT:      -3.9     11.737     12.223
REMARK  2 active torsions:
REMARK  status: ('A' for Active; 'I' for Inactive)
REMARK    1  A    between atoms: C1_1  and  C7_7 
REMARK    2  A    between atoms: C4_4  and  C7_7 
ROOT
HETATM    1  C6  UNL     1     -36.022  16.477  -4.290  1.00 20.00     0.018 C 
HETATM    2  C7  UNL     1     -35.388  15.130  -4.625  1.00 20.00     0.055 C 
ENDROOT
BRANCH   2   3
HETATM    3  C1  UNL     1     -36.413  14.004  -4.529  1.00 20.00     0.127 C 
HETATM    4  C5  UNL     1     -37.848  14.406  -4.297  1.00 20.00     0.091 C 
HETATM    5  O8  UNL     1     -36.098  12.816  -4.608  1.00 20.00    -0.298 OA
ENDBRANCH   2   3
BRANCH   2   6
HETATM    6  C4  UNL     1     -34.211  14.843  -3.702  1.00 20.00    -0.004 A 
HETATM    7  C2  UNL     1     -32.827  14.676  -4.266  1.00 20.00     0.006 A 
HETATM    8  C3  UNL     1     -33.167  15.896  -3.457  1.00 20.00     0.006 A 
ENDBRANCH   2   6
TORSDOF 2
ENDMDL
MODEL 8
REMARK VINA RESULT:      -3.8      9.323      9.939
REMARK  2 active torsions:
REMARK  status: ('A' for Active; 'I' for Inactive)
REMARK    1  A    between atoms: C1_1  and  C7_7 
REMARK    2  A    between atoms: C4_4  and  C7_7 
ROOT
HETATM    1  C6  UNL     1     -43.074   6.429   1.267  1.00 20.00     0.018 C 
HETATM    2  C7  UNL     1     -41.966   7.148   0.502  1.00 20.00     0.055 C 
ENDROOT
BRANCH   2   3
HETATM    3  C1  UNL     1     -42.267   8.638   0.374  1.00 20.00     0.127 C 
HETATM    4  C5  UNL     1     -41.082   9.571   0.328  1.00 20.00     0.091 C 
HETATM    5  O8  UNL     1     -43.416   9.080   0.336  1.00 20.00    -0.298 OA
ENDBRANCH   2   3
BRANCH   2   6
HETATM    6  C4  UNL     1     -41.778   6.534  -0.880  1.00 20.00    -0.004 A 
HETATM    7  C2  UNL     1     -40.883   5.340  -1.064  1.00 20.00     0.006 A 
HETATM    8  C3  UNL     1     -42.373   5.191  -1.199  1.00 20.00     0.006 A 
ENDBRANCH   2   6
TORSDOF 2
ENDMDL
MODEL 9
REMARK VINA RESULT:      -3.8     15.529     16.687
REMARK  2 active torsions:
REMARK  status: ('A' for Active; 'I' for Inactive)
REMARK    1  A    between atoms: C1_1  and  C7_7 
REMARK    2  A    between atoms: C4_4  and  C7_7 
ROOT
HETATM    1  C6  UNL     1     -25.548  19.263   9.766  1.00 20.00     0.018 C 
HETATM    2  C7  UNL     1     -24.333  19.199   8.846  1.00 20.00     0.055 C 
ENDROOT
BRANCH   2   3
HETATM    3  C1  UNL     1     -24.757  19.072   7.385  1.00 20.00     0.127 C 
HETATM    4  C5  UNL     1     -26.239  19.097   7.102  1.00 20.00     0.091 C 
HETATM    5  O8  UNL     1     -23.945  18.928   6.472  1.00 20.00    -0.298 OA
ENDBRANCH   2   3
BRANCH   2   6
HETATM    6  C4  UNL     1     -23.427  18.034   9.227  1.00 20.00    -0.004 A 
HETATM    7  C2  UNL     1     -21.960  18.262   9.467  1.00 20.00     0.006 A 
HETATM    8  C3  UNL     1     -22.869  17.935  10.619  1.00 20.00     0.006 A 
ENDBRANCH   2   6
TORSDOF 2
ENDMDL
