MODEL 1
REMARK VINA RESULT:      -3.8      0.000      0.000
REMARK  1 active torsions:
REMARK  status: ('A' for Active; 'I' for Inactive)
REMARK    1  A    between atoms: C3_3  and  C7_7 
ROOT
HETATM    1  C1  UNL     1     -23.143  16.674   9.633  1.00 20.00     0.346 C 
HETATM    2  C2  UNL     1     -24.503  18.318  10.653  1.00 20.00     0.233 C 
HETATM    3  C3  UNL     1     -24.209  19.075   9.337  1.00 20.00     0.081 C 
HETATM    4  C4  UNL     1     -25.850  18.715  11.260  1.00 20.00     0.044 C 
HETATM    5  C6  UNL     1     -24.518  16.007  11.496  1.00 20.00     0.311 C 
HETATM    6  N8  UNL     1     -24.417  16.879  10.330  1.00 20.00     0.098 N 
HETATM    7  S9  UNL     1     -22.812  18.147   8.630  1.00 20.00    -0.132 SA
ENDROOT
BRANCH   3   8
HETATM    8  C7  UNL     1     -25.347  19.095   8.320  1.00 20.00     0.013 C 
HETATM    9  C5  UNL     1     -24.835  19.197   6.921  1.00 20.00     0.006 C 
ENDBRANCH   3   8
TORSDOF 1
ENDMDL
MODEL 2
REMARK VINA RESULT:      -3.7      1.785      3.913
REMARK  1 active torsions:
REMARK  status: ('A' for Active; 'I' for Inactive)
REMARK    1  A    between atoms: C3_3  and  C7_7 
ROOT
HETATM    1  C1  UNL     1     -25.714  19.261   9.512  1.00 20.00     0.346 C 
HETATM    2  C2  UNL     1     -23.490  18.470   9.362  1.00 20.00     0.233 C 
HETATM    3  C3  UNL     1     -23.833  17.874  10.747  1.00 20.00     0.081 C 
HETATM    4  C4  UNL     1     -22.439  17.643   8.620  1.00 20.00     0.044 C 
HETATM    5  C6  UNL     1     -24.659  19.259   7.346  1.00 20.00     0.311 C 
HETATM    6  N8  UNL     1     -24.768  18.571   8.628  1.00 20.00     0.098 N 
HETATM    7  S9  UNL     1     -25.350  18.764  11.217  1.00 20.00    -0.132 SA
ENDROOT
BRANCH   3   8
HETATM    8  C7  UNL     1     -24.121  16.375  10.766  1.00 20.00     0.013 C 
HETATM    9  C5  UNL     1     -24.834  15.966  12.013  1.00 20.00     0.006 C 
ENDBRANCH   3   8
TORSDOF 1
ENDMDL
MODEL 3
REMARK VINA RESULT:      -3.7      1.579      2.888
REMARK  1 active torsions:
REMARK  status: ('A' for Active; 'I' for Inactive)
REMARK    1  A    between atoms: C3_3  and  C7_7 
ROOT
HETATM    1  C1  UNL     1     -25.424  19.186   9.893  1.00 20.00     0.346 C 
HETATM    2  C2  UNL     1     -24.737  17.052  10.644  1.00 20.00     0.233 C 
HETATM    3  C3  UNL     1     -23.590  17.300   9.638  1.00 20.00     0.081 C 
HETATM    4  C4  UNL     1     -24.308  16.142  11.797  1.00 20.00     0.044 C 
HETATM    5  C6  UNL     1     -26.372  18.351  11.944  1.00 20.00     0.311 C 
HETATM    6  N8  UNL     1     -25.185  18.385  11.098  1.00 20.00     0.098 N 
HETATM    7  S9  UNL     1     -24.207  18.694   8.643  1.00 20.00    -0.132 SA
ENDROOT
BRANCH   3   8
HETATM    8  C7  UNL     1     -22.248  17.694  10.251  1.00 20.00     0.013 C 
HETATM    9  C5  UNL     1     -21.295  18.196   9.217  1.00 20.00     0.006 C 
ENDBRANCH   3   8
TORSDOF 1
ENDMDL
MODEL 4
REMARK VINA RESULT:      -3.6      2.051      2.792
REMARK  1 active torsions:
REMARK  status: ('A' for Active; 'I' for Inactive)
REMARK    1  A    between atoms: C3_3  and  C7_7 
ROOT
HETATM    1  C1  UNL     1     -23.909  18.122  12.332  1.00 20.00     0.346 C 
HETATM    2  C2  UNL     1     -22.989  17.356  10.292  1.00 20.00     0.233 C 
HETATM    3  C3  UNL     1     -24.342  17.857   9.738  1.00 20.00     0.081 C 
HETATM    4  C4  UNL     1     -21.874  17.428   9.247  1.00 20.00     0.044 C 
HETATM    5  C6  UNL     1     -21.533  17.732  12.239  1.00 20.00     0.311 C 
HETATM    6  N8  UNL     1     -22.707  18.171  11.493  1.00 20.00     0.098 N 
HETATM    7  S9  UNL     1     -25.353  18.064  11.238  1.00 20.00    -0.132 SA
ENDROOT
BRANCH   3   8
HETATM    8  C7  UNL     1     -24.298  19.189   8.993  1.00 20.00     0.013 C 
HETATM    9  C5  UNL     1     -24.654  19.027   7.552  1.00 20.00     0.006 C 
ENDBRANCH   3   8
TORSDOF 1
ENDMDL
MODEL 5
REMARK VINA RESULT:      -3.6     16.649     18.288
REMARK  1 active torsions:
REMARK  status: ('A' for Active; 'I' for Inactive)
REMARK    1  A    between atoms: C3_3  and  C7_7 
ROOT
HETATM    1  C1  UNL     1     -33.987  15.142  -6.046  1.00 20.00     0.346 C 
HETATM    2  C2  UNL     1     -35.849  14.330  -4.834  1.00 20.00     0.233 C 
HETATM    3  C3  UNL     1     -34.849  14.406  -3.658  1.00 20.00     0.081 C 
HETATM    4  C4  UNL     1     -37.297  14.512  -4.376  1.00 20.00     0.044 C 
HETATM    5  C6  UNL     1     -36.164  15.322  -7.064  1.00 20.00     0.311 C 
HETATM    6  N8  UNL     1     -35.419  15.354  -5.809  1.00 20.00     0.098 N 
HETATM    7  S9  UNL     1     -33.240  14.582  -4.492  1.00 20.00    -0.132 SA
ENDROOT
BRANCH   3   8
HETATM    8  C7  UNL     1     -35.037  15.587  -2.708  1.00 20.00     0.013 C 
HETATM    9  C5  UNL     1     -33.767  16.348  -2.514  1.00 20.00     0.006 C 
ENDBRANCH   3   8
TORSDOF 1
ENDMDL
MODEL 6
REMARK VINA RESULT:      -3.5      1.715      3.361
REMARK  1 active torsions:
REMARK  status: ('A' for Active; 'I' for Inactive)
REMARK    1  A    between atoms: C3_3  and  C7_7 
ROOT
HETATM    1  C1  UNL     1     -24.571  18.440   8.896  1.00 20.00     0.346 C 
HETATM    2  C2  UNL     1     -23.626  18.071  11.032  1.00 20.00     0.233 C 
HETATM    3  C3  UNL     1     -25.034  18.509  11.497  1.00 20.00     0.081 C 
HETATM    4  C4  UNL     1     -22.959  17.118  12.025  1.00 20.00     0.044 C 
HETATM    5  C6  UNL     1     -22.544  17.143   9.027  1.00 20.00     0.311 C 
HETATM    6  N8  UNL     1     -23.800  17.478   9.690  1.00 20.00     0.098 N 
HETATM    7  S9  UNL     1     -25.748  19.262  10.001  1.00 20.00    -0.132 SA
ENDROOT
BRANCH   3   8
HETATM    8  C7  UNL     1     -25.954  17.384  11.964  1.00 20.00     0.013 C 
HETATM    9  C5  UNL     1     -27.308  17.894  12.332  1.00 20.00     0.006 C 
ENDBRANCH   3   8
TORSDOF 1
ENDMDL
MODEL 7
REMARK VINA RESULT:      -3.5      1.987      3.198
REMARK  1 active torsions:
REMARK  status: ('A' for Active; 'I' for Inactive)
REMARK    1  A    between atoms: C3_3  and  C7_7 
ROOT
HETATM    1  C1  UNL     1     -22.704  17.478  11.624  1.00 20.00     0.346 C 
HETATM    2  C2  UNL     1     -23.711  17.664   9.492  1.00 20.00     0.233 C 
HETATM    3  C3  UNL     1     -24.999  17.751  10.342  1.00 20.00     0.081 C 
HETATM    4  C4  UNL     1     -23.842  18.411   8.163  1.00 20.00     0.044 C 
HETATM    5  C6  UNL     1     -21.293  18.036   9.753  1.00 20.00     0.311 C 
HETATM    6  N8  UNL     1     -22.619  18.185  10.342  1.00 20.00     0.098 N 
HETATM    7  S9  UNL     1     -24.455  17.173  11.980  1.00 20.00    -0.132 SA
ENDROOT
BRANCH   3   8
HETATM    8  C7  UNL     1     -25.597  19.148  10.491  1.00 20.00     0.013 C 
HETATM    9  C5  UNL     1     -26.434  19.262  11.722  1.00 20.00     0.006 C 
ENDBRANCH   3   8
TORSDOF 1
ENDMDL
MODEL 8
REMARK VINA RESULT:      -3.3     16.259     17.813
REMARK  1 active torsions:
REMARK  status: ('A' for Active; 'I' for Inactive)
REMARK    1  A    between atoms: C3_3  and  C7_7 
ROOT
HETATM    1  C1  UNL     1     -37.117  15.461  -4.236  1.00 20.00     0.346 C 
HETATM    2  C2  UNL     1     -35.221  15.573  -2.827  1.00 20.00     0.233 C 
HETATM    3  C3  UNL     1     -34.697  14.491  -3.799  1.00 20.00     0.081 C 
HETATM    4  C4  UNL     1     -34.087  16.400  -2.216  1.00 20.00     0.044 C 
HETATM    5  C6  UNL     1     -36.894  17.377  -2.793  1.00 20.00     0.311 C 
HETATM    6  N8  UNL     1     -36.180  16.391  -3.598  1.00 20.00     0.098 N 
HETATM    7  S9  UNL     1     -36.201  13.960  -4.676  1.00 20.00    -0.132 SA
ENDROOT
BRANCH   3   8
HETATM    8  C7  UNL     1     -33.675  14.967  -4.828  1.00 20.00     0.013 C 
HETATM    9  C5  UNL     1     -34.208  14.877  -6.219  1.00 20.00     0.006 C 
ENDBRANCH   3   8
TORSDOF 1
ENDMDL
MODEL 9
REMARK VINA RESULT:      -3.3     15.378     17.059
REMARK  1 active torsions:
REMARK  status: ('A' for Active; 'I' for Inactive)
REMARK    1  A    between atoms: C3_3  and  C7_7 
ROOT
HETATM    1  C1  UNL     1     -34.089  17.682  -4.876  1.00 20.00     0.346 C 
HETATM    2  C2  UNL     1     -34.031  15.436  -4.137  1.00 20.00     0.233 C 
HETATM    3  C3  UNL     1     -33.791  16.114  -2.769  1.00 20.00     0.081 C 
HETATM    4  C4  UNL     1     -34.730  14.082  -3.998  1.00 20.00     0.044 C 
HETATM    5  C6  UNL     1     -34.991  15.990  -6.334  1.00 20.00     0.311 C 
HETATM    6  N8  UNL     1     -34.802  16.403  -4.948  1.00 20.00     0.098 N 
HETATM    7  S9  UNL     1     -33.357  17.823  -3.224  1.00 20.00    -0.132 SA
ENDROOT
BRANCH   3   8
HETATM    8  C7  UNL     1     -34.995  16.150  -1.831  1.00 20.00     0.013 C 
HETATM    9  C5  UNL     1     -34.859  17.221  -0.798  1.00 20.00     0.006 C 
ENDBRANCH   3   8
TORSDOF 1
ENDMDL
