MODEL 1
REMARK VINA RESULT:      -4.2      0.000      0.000
REMARK  0 active torsions:
REMARK  status: ('A' for Active; 'I' for Inactive)
ROOT
HETATM    1  C1  UNL     1     -33.948   6.679   4.587  1.00 20.00     0.251 C 
HETATM    2  C2  UNL     1     -35.059   5.652   4.474  1.00 20.00     0.251 C 
HETATM    3  C3  UNL     1     -33.278   6.690   3.226  1.00 20.00     0.271 C 
HETATM    4  C4  UNL     1     -34.412   4.377   3.966  1.00 20.00     0.271 C 
HETATM    5  F5  UNL     1     -33.050   6.258   5.522  1.00 20.00    -0.242 F 
HETATM    6  F6  UNL     1     -35.627   5.440   5.684  1.00 20.00    -0.242 F 
HETATM    7  F7  UNL     1     -32.038   7.225   3.317  1.00 20.00    -0.235 F 
HETATM    8  F8  UNL     1     -33.722   3.789   4.980  1.00 20.00    -0.235 F 
HETATM    9  S9  UNL     1     -33.226   4.951   2.712  1.00 20.00    -0.089 SA
ENDROOT
TORSDOF 0
ENDMDL
MODEL 2
REMARK VINA RESULT:      -4.0      9.289      9.843
REMARK  0 active torsions:
REMARK  status: ('A' for Active; 'I' for Inactive)
ROOT
HETATM    1  C1  UNL     1     -41.067   7.371  -0.679  1.00 20.00     0.251 C 
HETATM    2  C2  UNL     1     -41.182   5.881  -0.419  1.00 20.00     0.251 C 
HETATM    3  C3  UNL     1     -41.696   8.035   0.531  1.00 20.00     0.271 C 
HETATM    4  C4  UNL     1     -42.644   5.612  -0.114  1.00 20.00     0.271 C 
HETATM    5  F5  UNL     1     -41.795   7.684  -1.787  1.00 20.00    -0.242 F 
HETATM    6  F6  UNL     1     -40.795   5.182  -1.512  1.00 20.00    -0.242 F 
HETATM    7  F7  UNL     1     -42.041   9.311   0.240  1.00 20.00    -0.235 F 
HETATM    8  F8  UNL     1     -43.359   5.652  -1.270  1.00 20.00    -0.235 F 
HETATM    9  S9  UNL     1     -43.145   7.018   0.927  1.00 20.00    -0.089 SA
ENDROOT
TORSDOF 0
ENDMDL
MODEL 3
REMARK VINA RESULT:      -4.0     16.379     16.991
REMARK  0 active torsions:
REMARK  status: ('A' for Active; 'I' for Inactive)
ROOT
HETATM    1  C1  UNL     1     -22.479  17.562   9.891  1.00 20.00     0.251 C 
HETATM    2  C2  UNL     1     -23.036  17.875  11.266  1.00 20.00     0.251 C 
HETATM    3  C3  UNL     1     -23.077  18.609   8.971  1.00 20.00     0.271 C 
HETATM    4  C4  UNL     1     -24.545  17.938  11.111  1.00 20.00     0.271 C 
HETATM    5  F5  UNL     1     -22.916  16.330   9.507  1.00 20.00    -0.242 F 
HETATM    6  F6  UNL     1     -22.696  16.904  12.145  1.00 20.00    -0.242 F 
HETATM    7  F7  UNL     1     -23.010  18.197   7.684  1.00 20.00    -0.235 F 
HETATM    8  F8  UNL     1     -25.037  16.676  10.997  1.00 20.00    -0.235 F 
HETATM    9  S9  UNL     1     -24.792  18.802   9.529  1.00 20.00    -0.089 SA
ENDROOT
TORSDOF 0
ENDMDL
MODEL 4
REMARK VINA RESULT:      -4.0      8.722      9.505
REMARK  0 active torsions:
REMARK  status: ('A' for Active; 'I' for Inactive)
ROOT
HETATM    1  C1  UNL     1     -41.168   7.198  -0.378  1.00 20.00     0.251 C 
HETATM    2  C2  UNL     1     -42.505   7.871  -0.133  1.00 20.00     0.251 C 
HETATM    3  C3  UNL     1     -41.492   5.946  -1.169  1.00 20.00     0.271 C 
HETATM    4  C4  UNL     1     -43.403   6.820   0.495  1.00 20.00     0.271 C 
HETATM    5  F5  UNL     1     -40.626   6.842   0.820  1.00 20.00    -0.242 F 
HETATM    6  F6  UNL     1     -42.356   8.922   0.706  1.00 20.00    -0.242 F 
HETATM    7  F7  UNL     1     -40.474   5.059  -1.082  1.00 20.00    -0.235 F 
HETATM    8  F8  UNL     1     -43.045   6.644   1.795  1.00 20.00    -0.235 F 
HETATM    9  S9  UNL     1     -43.015   5.299  -0.425  1.00 20.00    -0.089 SA
ENDROOT
TORSDOF 0
ENDMDL
MODEL 5
REMARK VINA RESULT:      -4.0      2.103      2.699
REMARK  0 active torsions:
REMARK  status: ('A' for Active; 'I' for Inactive)
ROOT
HETATM    1  C1  UNL     1     -33.552   6.714   4.122  1.00 20.00     0.251 C 
HETATM    2  C2  UNL     1     -33.672   5.283   3.632  1.00 20.00     0.251 C 
HETATM    3  C3  UNL     1     -33.554   6.616   5.636  1.00 20.00     0.271 C 
HETATM    4  C4  UNL     1     -34.886   4.693   4.327  1.00 20.00     0.271 C 
HETATM    5  F5  UNL     1     -34.651   7.412   3.720  1.00 20.00    -0.242 F 
HETATM    6  F6  UNL     1     -33.843   5.258   2.290  1.00 20.00    -0.242 F 
HETATM    7  F7  UNL     1     -33.880   7.810   6.183  1.00 20.00    -0.235 F 
HETATM    8  F8  UNL     1     -36.015   5.180   3.748  1.00 20.00    -0.235 F 
HETATM    9  S9  UNL     1     -34.780   5.338   6.025  1.00 20.00    -0.089 SA
ENDROOT
TORSDOF 0
ENDMDL
MODEL 6
REMARK VINA RESULT:      -4.0      8.670      9.669
REMARK  0 active torsions:
REMARK  status: ('A' for Active; 'I' for Inactive)
ROOT
HETATM    1  C1  UNL     1     -41.359   6.132  -0.284  1.00 20.00     0.251 C 
HETATM    2  C2  UNL     1     -41.840   7.370  -1.016  1.00 20.00     0.251 C 
HETATM    3  C3  UNL     1     -42.575   5.612   0.459  1.00 20.00     0.271 C 
HETATM    4  C4  UNL     1     -42.495   8.256   0.027  1.00 20.00     0.271 C 
HETATM    5  F5  UNL     1     -40.407   6.495   0.620  1.00 20.00    -0.242 F 
HETATM    6  F6  UNL     1     -40.795   8.013  -1.589  1.00 20.00    -0.242 F 
HETATM    7  F7  UNL     1     -42.195   4.790   1.464  1.00 20.00    -0.235 F 
HETATM    8  F8  UNL     1     -41.531   8.851   0.779  1.00 20.00    -0.235 F 
HETATM    9  S9  UNL     1     -43.417   7.094   1.079  1.00 20.00    -0.089 SA
ENDROOT
TORSDOF 0
ENDMDL
MODEL 7
REMARK VINA RESULT:      -3.9      1.864      2.549
REMARK  0 active torsions:
REMARK  status: ('A' for Active; 'I' for Inactive)
ROOT
HETATM    1  C1  UNL     1     -34.769   4.794   4.233  1.00 20.00     0.251 C 
HETATM    2  C2  UNL     1     -34.164   5.206   5.561  1.00 20.00     0.251 C 
HETATM    3  C3  UNL     1     -33.697   5.087   3.200  1.00 20.00     0.271 C 
HETATM    4  C4  UNL     1     -33.685   6.636   5.387  1.00 20.00     0.271 C 
HETATM    5  F5  UNL     1     -35.855   5.575   3.980  1.00 20.00    -0.242 F 
HETATM    6  F6  UNL     1     -35.094   5.139   6.542  1.00 20.00    -0.242 F 
HETATM    7  F7  UNL     1     -34.244   5.171   1.966  1.00 20.00    -0.235 F 
HETATM    8  F8  UNL     1     -34.757   7.473   5.407  1.00 20.00    -0.235 F 
HETATM    9  S9  UNL     1     -32.959   6.660   3.720  1.00 20.00    -0.089 SA
ENDROOT
TORSDOF 0
ENDMDL
MODEL 8
REMARK VINA RESULT:      -3.9      8.851      9.491
REMARK  0 active torsions:
REMARK  status: ('A' for Active; 'I' for Inactive)
ROOT
HETATM    1  C1  UNL     1     -42.015   7.321   1.007  1.00 20.00     0.251 C 
HETATM    2  C2  UNL     1     -42.690   6.074   0.468  1.00 20.00     0.251 C 
HETATM    3  C3  UNL     1     -42.557   8.461   0.167  1.00 20.00     0.271 C 
HETATM    4  C4  UNL     1     -42.438   6.064  -1.029  1.00 20.00     0.271 C 
HETATM    5  F5  UNL     1     -40.672   7.218   0.805  1.00 20.00    -0.242 F 
HETATM    6  F6  UNL     1     -42.159   4.967   1.040  1.00 20.00    -0.242 F 
HETATM    7  F7  UNL     1     -41.739   9.535   0.249  1.00 20.00    -0.235 F 
HETATM    8  F8  UNL     1     -41.152   5.693  -1.264  1.00 20.00    -0.235 F 
HETATM    9  S9  UNL     1     -42.640   7.803  -1.522  1.00 20.00    -0.089 SA
ENDROOT
TORSDOF 0
ENDMDL
MODEL 9
REMARK VINA RESULT:      -3.9      9.271     10.066
REMARK  0 active torsions:
REMARK  status: ('A' for Active; 'I' for Inactive)
ROOT
HETATM    1  C1  UNL     1     -42.199   7.829  -1.443  1.00 20.00     0.251 C 
HETATM    2  C2  UNL     1     -42.080   8.581  -0.131  1.00 20.00     0.251 C 
HETATM    3  C3  UNL     1     -43.317   6.827  -1.226  1.00 20.00     0.271 C 
HETATM    4  C4  UNL     1     -41.922   7.529   0.952  1.00 20.00     0.271 C 
HETATM    5  F5  UNL     1     -41.037   7.156  -1.674  1.00 20.00    -0.242 F 
HETATM    6  F6  UNL     1     -41.001   9.397  -0.153  1.00 20.00    -0.242 F 
HETATM    7  F7  UNL     1     -43.238   5.831  -2.138  1.00 20.00    -0.235 F 
HETATM    8  F8  UNL     1     -40.657   7.031   0.911  1.00 20.00    -0.235 F 
HETATM    9  S9  UNL     1     -43.080   6.214   0.464  1.00 20.00    -0.089 SA
ENDROOT
TORSDOF 0
ENDMDL
