MODEL 1
REMARK VINA RESULT:      -5.4      0.000      0.000
REMARK  2 active torsions:
REMARK  status: ('A' for Active; 'I' for Inactive)
REMARK    1  A    between atoms: C2_2  and  C5_5 
REMARK    2  A    between atoms: C4_4  and  C8_8 
ROOT
HETATM    1  C1  UNL     1     -33.121   4.980   2.771  1.00 20.00    -0.015 C 
HETATM    2  C2  UNL     1     -33.214   6.266   3.119  1.00 20.00    -0.009 C 
HETATM    3  C6  UNL     1     -34.159   4.162   3.465  1.00 20.00     0.028 C 
HETATM    4  C7  UNL     1     -35.121   5.225   4.009  1.00 20.00     0.017 C 
HETATM    5  C8  UNL     1     -34.319   6.535   4.089  1.00 20.00     0.044 C 
ENDROOT
BRANCH   2   6
HETATM    6  C5  UNL     1     -32.331   7.289   2.584  1.00 20.00     0.152 C 
HETATM    7  C9  UNL     1     -32.635   7.860   1.216  1.00 20.00     0.096 C 
HETATM    8  O10 UNL     1     -31.347   7.684   3.224  1.00 20.00    -0.293 OA
ENDBRANCH   2   6
BRANCH   5   9
HETATM    9  C4  UNL     1     -33.819   6.807   5.472  1.00 20.00    -0.027 C 
HETATM   10  C3  UNL     1     -34.306   6.224   6.573  1.00 20.00     0.007 C 
ENDBRANCH   5   9
TORSDOF 2
ENDMDL
MODEL 2
REMARK VINA RESULT:      -4.6     11.419     12.363
REMARK  2 active torsions:
REMARK  status: ('A' for Active; 'I' for Inactive)
REMARK    1  A    between atoms: C2_2  and  C5_5 
REMARK    2  A    between atoms: C4_4  and  C8_8 
ROOT
HETATM    1  C1  UNL     1     -35.318  14.995  -5.836  1.00 20.00    -0.015 C 
HETATM    2  C2  UNL     1     -35.840  14.792  -4.623  1.00 20.00    -0.009 C 
HETATM    3  C6  UNL     1     -33.827  14.988  -5.784  1.00 20.00     0.028 C 
HETATM    4  C7  UNL     1     -33.537  14.389  -4.402  1.00 20.00     0.017 C 
HETATM    5  C8  UNL     1     -34.805  14.611  -3.560  1.00 20.00     0.044 C 
ENDROOT
BRANCH   2   6
HETATM    6  C5  UNL     1     -37.273  14.740  -4.385  1.00 20.00     0.152 C 
HETATM    7  C9  UNL     1     -38.012  16.040  -4.151  1.00 20.00     0.096 C 
HETATM    8  O10 UNL     1     -37.879  13.661  -4.365  1.00 20.00    -0.293 OA
ENDBRANCH   2   6
BRANCH   5   9
HETATM    9  C4  UNL     1     -34.685  15.802  -2.662  1.00 20.00    -0.027 C 
HETATM   10  C3  UNL     1     -33.561  16.509  -2.503  1.00 20.00     0.007 C 
ENDBRANCH   5   9
TORSDOF 2
ENDMDL
MODEL 3
REMARK VINA RESULT:      -4.6     11.590     12.251
REMARK  2 active torsions:
REMARK  status: ('A' for Active; 'I' for Inactive)
REMARK    1  A    between atoms: C2_2  and  C5_5 
REMARK    2  A    between atoms: C4_4  and  C8_8 
ROOT
HETATM    1  C1  UNL     1     -33.605  15.155  -4.027  1.00 20.00    -0.015 C 
HETATM    2  C2  UNL     1     -34.918  14.912  -3.980  1.00 20.00    -0.009 C 
HETATM    3  C6  UNL     1     -33.213  16.172  -3.007  1.00 20.00     0.028 C 
HETATM    4  C7  UNL     1     -34.447  16.234  -2.098  1.00 20.00     0.017 C 
HETATM    5  C8  UNL     1     -35.627  15.707  -2.932  1.00 20.00     0.044 C 
ENDROOT
BRANCH   2   6
HETATM    6  C5  UNL     1     -35.570  13.954  -4.858  1.00 20.00     0.152 C 
HETATM    7  C9  UNL     1     -35.879  14.374  -6.279  1.00 20.00     0.096 C 
HETATM    8  O10 UNL     1     -35.874  12.823  -4.457  1.00 20.00    -0.293 OA
ENDBRANCH   2   6
BRANCH   5   9
HETATM    9  C4  UNL     1     -36.450  16.816  -3.508  1.00 20.00    -0.027 C 
HETATM   10  C3  UNL     1     -37.763  16.728  -3.746  1.00 20.00     0.007 C 
ENDBRANCH   5   9
TORSDOF 2
ENDMDL
MODEL 4
REMARK VINA RESULT:      -4.5     11.178     12.177
REMARK  2 active torsions:
REMARK  status: ('A' for Active; 'I' for Inactive)
REMARK    1  A    between atoms: C2_2  and  C5_5 
REMARK    2  A    between atoms: C4_4  and  C8_8 
ROOT
HETATM    1  C1  UNL     1     -34.491  16.255  -4.938  1.00 20.00    -0.015 C 
HETATM    2  C2  UNL     1     -34.602  15.367  -3.947  1.00 20.00    -0.009 C 
HETATM    3  C6  UNL     1     -33.844  17.512  -4.460  1.00 20.00     0.028 C 
HETATM    4  C7  UNL     1     -33.258  17.098  -3.104  1.00 20.00     0.017 C 
HETATM    5  C8  UNL     1     -34.053  15.862  -2.648  1.00 20.00     0.044 C 
ENDROOT
BRANCH   2   6
HETATM    6  C5  UNL     1     -35.188  14.050  -4.136  1.00 20.00     0.152 C 
HETATM    7  C9  UNL     1     -36.650  13.959  -4.515  1.00 20.00     0.096 C 
HETATM    8  O10 UNL     1     -34.513  13.022  -3.986  1.00 20.00    -0.293 OA
ENDBRANCH   2   6
BRANCH   5   9
HETATM    9  C4  UNL     1     -35.125  16.212  -1.665  1.00 20.00    -0.027 C 
HETATM   10  C3  UNL     1     -35.016  17.184  -0.753  1.00 20.00     0.007 C 
ENDBRANCH   5   9
TORSDOF 2
ENDMDL
MODEL 5
REMARK VINA RESULT:      -4.5     11.353     12.899
REMARK  2 active torsions:
REMARK  status: ('A' for Active; 'I' for Inactive)
REMARK    1  A    between atoms: C2_2  and  C5_5 
REMARK    2  A    between atoms: C4_4  and  C8_8 
ROOT
HETATM    1  C1  UNL     1     -34.484  15.082  -3.171  1.00 20.00    -0.015 C 
HETATM    2  C2  UNL     1     -35.175  14.883  -4.297  1.00 20.00    -0.009 C 
HETATM    3  C6  UNL     1     -33.466  16.157  -3.352  1.00 20.00     0.028 C 
HETATM    4  C7  UNL     1     -33.901  16.821  -4.664  1.00 20.00     0.017 C 
HETATM    5  C8  UNL     1     -34.751  15.781  -5.413  1.00 20.00     0.044 C 
ENDROOT
BRANCH   2   6
HETATM    6  C5  UNL     1     -36.240  13.899  -4.400  1.00 20.00     0.152 C 
HETATM    7  C9  UNL     1     -37.674  14.380  -4.349  1.00 20.00     0.096 C 
HETATM    8  O10 UNL     1     -35.986  12.693  -4.520  1.00 20.00    -0.293 OA
ENDBRANCH   2   6
BRANCH   5   9
HETATM    9  C4  UNL     1     -33.966  15.063  -6.465  1.00 20.00    -0.027 C 
HETATM   10  C3  UNL     1     -33.953  15.409  -7.757  1.00 20.00     0.007 C 
ENDBRANCH   5   9
TORSDOF 2
ENDMDL
MODEL 6
REMARK VINA RESULT:      -4.5     11.465     12.148
REMARK  2 active torsions:
REMARK  status: ('A' for Active; 'I' for Inactive)
REMARK    1  A    between atoms: C2_2  and  C5_5 
REMARK    2  A    between atoms: C4_4  and  C8_8 
ROOT
HETATM    1  C1  UNL     1     -33.134  16.279  -3.015  1.00 20.00    -0.015 C 
HETATM    2  C2  UNL     1     -34.150  15.495  -3.384  1.00 20.00    -0.009 C 
HETATM    3  C6  UNL     1     -33.554  17.228  -1.942  1.00 20.00     0.028 C 
HETATM    4  C7  UNL     1     -34.893  16.642  -1.475  1.00 20.00     0.017 C 
HETATM    5  C8  UNL     1     -35.412  15.772  -2.632  1.00 20.00     0.044 C 
ENDROOT
BRANCH   2   6
HETATM    6  C5  UNL     1     -34.018  14.470  -4.406  1.00 20.00     0.152 C 
HETATM    7  C9  UNL     1     -33.925  14.903  -5.853  1.00 20.00     0.096 C 
HETATM    8  O10 UNL     1     -33.987  13.268  -4.107  1.00 20.00    -0.293 OA
ENDBRANCH   2   6
BRANCH   5   9
HETATM    9  C4  UNL     1     -36.432  16.485  -3.461  1.00 20.00    -0.027 C 
HETATM   10  C3  UNL     1     -37.427  15.875  -4.113  1.00 20.00     0.007 C 
ENDBRANCH   5   9
TORSDOF 2
ENDMDL
MODEL 7
REMARK VINA RESULT:      -4.2     11.710     12.991
REMARK  2 active torsions:
REMARK  status: ('A' for Active; 'I' for Inactive)
REMARK    1  A    between atoms: C2_2  and  C5_5 
REMARK    2  A    between atoms: C4_4  and  C8_8 
ROOT
HETATM    1  C1  UNL     1     -35.980  14.901  -6.967  1.00 20.00    -0.015 C 
HETATM    2  C2  UNL     1     -35.491  14.489  -5.794  1.00 20.00    -0.009 C 
HETATM    3  C6  UNL     1     -34.931  15.600  -7.766  1.00 20.00     0.028 C 
HETATM    4  C7  UNL     1     -33.637  15.224  -7.033  1.00 20.00     0.017 C 
HETATM    5  C8  UNL     1     -34.049  14.829  -5.605  1.00 20.00     0.044 C 
ENDROOT
BRANCH   2   6
HETATM    6  C5  UNL     1     -36.295  13.768  -4.820  1.00 20.00     0.152 C 
HETATM    7  C9  UNL     1     -37.541  14.435  -4.280  1.00 20.00     0.096 C 
HETATM    8  O10 UNL     1     -35.969  12.638  -4.433  1.00 20.00    -0.293 OA
ENDBRANCH   2   6
BRANCH   5   9
HETATM    9  C4  UNL     1     -33.843  15.945  -4.630  1.00 20.00    -0.027 C 
HETATM   10  C3  UNL     1     -33.632  15.768  -3.321  1.00 20.00     0.007 C 
ENDBRANCH   5   9
TORSDOF 2
ENDMDL
MODEL 8
REMARK VINA RESULT:      -4.2     15.749     16.942
REMARK  2 active torsions:
REMARK  status: ('A' for Active; 'I' for Inactive)
REMARK    1  A    between atoms: C2_2  and  C5_5 
REMARK    2  A    between atoms: C4_4  and  C8_8 
ROOT
HETATM    1  C1  UNL     1     -24.647  18.607   9.684  1.00 20.00    -0.015 C 
HETATM    2  C2  UNL     1     -24.741  18.002  10.872  1.00 20.00    -0.009 C 
HETATM    3  C6  UNL     1     -23.358  18.269   9.013  1.00 20.00     0.028 C 
HETATM    4  C7  UNL     1     -22.850  17.076   9.833  1.00 20.00     0.017 C 
HETATM    5  C8  UNL     1     -23.550  17.160  11.199  1.00 20.00     0.044 C 
ENDROOT
BRANCH   2   6
HETATM    6  C5  UNL     1     -25.901  18.147  11.736  1.00 20.00     0.152 C 
HETATM    7  C9  UNL     1     -26.516  16.899  12.332  1.00 20.00     0.096 C 
HETATM    8  O10 UNL     1     -26.382  19.262  11.978  1.00 20.00    -0.293 OA
ENDBRANCH   2   6
BRANCH   5   9
HETATM    9  C4  UNL     1     -22.676  17.779  12.244  1.00 20.00    -0.027 C 
HETATM   10  C3  UNL     1     -21.340  17.770  12.204  1.00 20.00     0.007 C 
ENDBRANCH   5   9
TORSDOF 2
ENDMDL
MODEL 9
REMARK VINA RESULT:      -4.1      9.366      9.989
REMARK  2 active torsions:
REMARK  status: ('A' for Active; 'I' for Inactive)
REMARK    1  A    between atoms: C2_2  and  C5_5 
REMARK    2  A    between atoms: C4_4  and  C8_8 
ROOT
HETATM    1  C1  UNL     1     -41.156   6.885  -1.027  1.00 20.00    -0.015 C 
HETATM    2  C2  UNL     1     -42.229   7.408  -0.428  1.00 20.00    -0.009 C 
HETATM    3  C6  UNL     1     -41.322   5.416  -1.233  1.00 20.00     0.028 C 
HETATM    4  C7  UNL     1     -42.821   5.206  -0.985  1.00 20.00     0.017 C 
HETATM    5  C8  UNL     1     -43.291   6.399  -0.135  1.00 20.00     0.044 C 
ENDROOT
BRANCH   2   6
HETATM    6  C5  UNL     1     -42.340   8.824  -0.115  1.00 20.00     0.152 C 
HETATM    7  C9  UNL     1     -41.106   9.553   0.370  1.00 20.00     0.096 C 
HETATM    8  O10 UNL     1     -43.417   9.422  -0.234  1.00 20.00    -0.293 OA
ENDBRANCH   2   6
BRANCH   5   9
HETATM    9  C4  UNL     1     -43.377   6.056   1.319  1.00 20.00    -0.027 C 
HETATM   10  C3  UNL     1     -43.401   4.807   1.793  1.00 20.00     0.007 C 
ENDBRANCH   5   9
TORSDOF 2
ENDMDL
