MODEL 1
REMARK VINA RESULT:      -5.5      0.000      0.000
REMARK  1 active torsions:
REMARK  status: ('A' for Active; 'I' for Inactive)
REMARK    1  A    between atoms: C1_1  and  C6_6 
ROOT
HETATM    1  C2  UNL     1     -33.206   7.162   5.186  1.00 20.00     0.019 C 
HETATM    2  C3  UNL     1     -33.836   5.448   3.431  1.00 20.00     0.019 C 
HETATM    3  C4  UNL     1     -34.341   6.665   6.077  1.00 20.00     0.080 C 
HETATM    4  C5  UNL     1     -34.970   4.952   4.324  1.00 20.00     0.080 C 
HETATM    5  C6  UNL     1     -33.504   6.918   3.703  1.00 20.00     0.072 C 
HETATM    6  C7  UNL     1     -34.677   5.212   5.791  1.00 20.00     0.243 C 
HETATM    7  F9  UNL     1     -35.747   4.840   6.538  1.00 20.00    -0.206 F 
HETATM    8  F10 UNL     1     -33.641   4.428   6.186  1.00 20.00    -0.206 F 
ENDROOT
BRANCH   5   9
HETATM    9  C1  UNL     1     -32.329   7.338   2.871  1.00 20.00     0.223 C 
HETATM   10  O8  UNL     1     -31.191   7.367   3.329  1.00 20.00    -0.279 OA
HETATM   11 CL11 UNL     1     -32.793   7.755   1.249  1.00 20.00    -0.043 Cl
ENDBRANCH   5   9
TORSDOF 1
ENDMDL
MODEL 2
REMARK VINA RESULT:      -5.3     12.454     12.932
REMARK  1 active torsions:
REMARK  status: ('A' for Active; 'I' for Inactive)
REMARK    1  A    between atoms: C1_1  and  C6_6 
ROOT
HETATM    1  C2  UNL     1     -35.792  15.672  -3.041  1.00 20.00     0.019 C 
HETATM    2  C3  UNL     1     -33.990  14.925  -4.656  1.00 20.00     0.019 C 
HETATM    3  C4  UNL     1     -34.721  16.220  -2.101  1.00 20.00     0.080 C 
HETATM    4  C5  UNL     1     -32.921  15.474  -3.716  1.00 20.00     0.080 C 
HETATM    5  C6  UNL     1     -35.257  14.520  -3.897  1.00 20.00     0.072 C 
HETATM    6  C7  UNL     1     -33.462  16.604  -2.857  1.00 20.00     0.243 C 
HETATM    7  F9  UNL     1     -32.508  16.998  -1.976  1.00 20.00    -0.206 F 
HETATM    8  F10 UNL     1     -33.725  17.678  -3.646  1.00 20.00    -0.206 F 
ENDROOT
BRANCH   5   9
HETATM    9  C1  UNL     1     -36.311  14.073  -4.865  1.00 20.00     0.223 C 
HETATM   10  O8  UNL     1     -37.363  13.565  -4.487  1.00 20.00    -0.279 OA
HETATM   11 CL11 UNL     1     -35.848  14.363  -6.515  1.00 20.00    -0.043 Cl
ENDBRANCH   5   9
TORSDOF 1
ENDMDL
MODEL 3
REMARK VINA RESULT:      -5.1     15.780     16.234
REMARK  1 active torsions:
REMARK  status: ('A' for Active; 'I' for Inactive)
REMARK    1  A    between atoms: C1_1  and  C6_6 
ROOT
HETATM    1  C2  UNL     1     -22.912  17.771   8.481  1.00 20.00     0.019 C 
HETATM    2  C3  UNL     1     -25.041  18.604   9.571  1.00 20.00     0.019 C 
HETATM    3  C4  UNL     1     -22.332  17.457   9.857  1.00 20.00     0.080 C 
HETATM    4  C5  UNL     1     -24.459  18.288  10.946  1.00 20.00     0.080 C 
HETATM    5  C6  UNL     1     -23.942  18.903   8.548  1.00 20.00     0.072 C 
HETATM    6  C7  UNL     1     -23.426  17.177  10.872  1.00 20.00     0.243 C 
HETATM    7  F9  UNL     1     -22.871  16.993  12.096  1.00 20.00    -0.206 F 
HETATM    8  F10 UNL     1     -24.046  16.011  10.551  1.00 20.00    -0.206 F 
ENDROOT
BRANCH   5   9
HETATM    9  C1  UNL     1     -24.551  19.119   7.194  1.00 20.00     0.223 C 
HETATM   10  O8  UNL     1     -23.864  19.181   6.179  1.00 20.00    -0.279 OA
HETATM   11 CL11 UNL     1     -26.281  19.260   7.271  1.00 20.00    -0.043 Cl
ENDBRANCH   5   9
TORSDOF 1
ENDMDL
MODEL 4
REMARK VINA RESULT:      -4.9     12.116     12.970
REMARK  1 active torsions:
REMARK  status: ('A' for Active; 'I' for Inactive)
REMARK    1  A    between atoms: C1_1  and  C6_6 
ROOT
HETATM    1  C2  UNL     1     -33.980  14.421  -3.966  1.00 20.00     0.019 C 
HETATM    2  C3  UNL     1     -35.858  16.100  -3.707  1.00 20.00     0.019 C 
HETATM    3  C4  UNL     1     -32.959  15.552  -3.884  1.00 20.00     0.080 C 
HETATM    4  C5  UNL     1     -34.835  17.230  -3.624  1.00 20.00     0.080 C 
HETATM    5  C6  UNL     1     -35.324  14.912  -4.512  1.00 20.00     0.072 C 
HETATM    6  C7  UNL     1     -33.499  16.734  -3.098  1.00 20.00     0.243 C 
HETATM    7  F9  UNL     1     -32.597  17.746  -3.128  1.00 20.00    -0.206 F 
HETATM    8  F10 UNL     1     -33.636  16.378  -1.794  1.00 20.00    -0.206 F 
ENDROOT
BRANCH   5   9
HETATM    9  C1  UNL     1     -36.323  13.793  -4.493  1.00 20.00     0.223 C 
HETATM   10  O8  UNL     1     -35.978  12.618  -4.578  1.00 20.00    -0.279 OA
HETATM   11 CL11 UNL     1     -37.953  14.375  -4.338  1.00 20.00    -0.043 Cl
ENDBRANCH   5   9
TORSDOF 1
ENDMDL
MODEL 5
REMARK VINA RESULT:      -4.7     12.364     12.875
REMARK  1 active torsions:
REMARK  status: ('A' for Active; 'I' for Inactive)
REMARK    1  A    between atoms: C1_1  and  C6_6 
ROOT
HETATM    1  C2  UNL     1     -35.452  15.776  -2.613  1.00 20.00     0.019 C 
HETATM    2  C3  UNL     1     -33.156  16.319  -3.533  1.00 20.00     0.019 C 
HETATM    3  C4  UNL     1     -35.147  16.604  -1.368  1.00 20.00     0.080 C 
HETATM    4  C5  UNL     1     -32.853  17.146  -2.287  1.00 20.00     0.080 C 
HETATM    5  C6  UNL     1     -34.174  15.213  -3.243  1.00 20.00     0.072 C 
HETATM    6  C7  UNL     1     -34.124  17.688  -1.657  1.00 20.00     0.243 C 
HETATM    7  F9  UNL     1     -33.817  18.337  -0.506  1.00 20.00    -0.206 F 
HETATM    8  F10 UNL     1     -34.675  18.613  -2.485  1.00 20.00    -0.206 F 
ENDROOT
BRANCH   5   9
HETATM    9  C1  UNL     1     -34.510  14.484  -4.510  1.00 20.00     0.223 C 
HETATM   10  O8  UNL     1     -33.761  14.501  -5.483  1.00 20.00    -0.279 OA
HETATM   11 CL11 UNL     1     -36.032  13.653  -4.403  1.00 20.00    -0.043 Cl
ENDBRANCH   5   9
TORSDOF 1
ENDMDL
MODEL 6
REMARK VINA RESULT:      -4.7      1.427      2.239
REMARK  1 active torsions:
REMARK  status: ('A' for Active; 'I' for Inactive)
REMARK    1  A    between atoms: C1_1  and  C6_6 
ROOT
HETATM    1  C2  UNL     1     -33.519   5.422   2.419  1.00 20.00     0.019 C 
HETATM    2  C3  UNL     1     -33.623   7.449   3.933  1.00 20.00     0.019 C 
HETATM    3  C4  UNL     1     -33.900   4.526   3.594  1.00 20.00     0.080 C 
HETATM    4  C5  UNL     1     -34.006   6.553   5.107  1.00 20.00     0.080 C 
HETATM    5  C6  UNL     1     -32.801   6.692   2.887  1.00 20.00     0.072 C 
HETATM    6  C7  UNL     1     -34.701   5.287   4.636  1.00 20.00     0.243 C 
HETATM    7  F9  UNL     1     -34.940   4.481   5.700  1.00 20.00    -0.206 F 
HETATM    8  F10 UNL     1     -35.915   5.610   4.118  1.00 20.00    -0.206 F 
ENDROOT
BRANCH   5   9
HETATM    9  C1  UNL     1     -32.524   7.583   1.712  1.00 20.00     0.223 C 
HETATM   10  O8  UNL     1     -31.695   7.286   0.857  1.00 20.00    -0.279 OA
HETATM   11 CL11 UNL     1     -33.498   9.021   1.739  1.00 20.00    -0.043 Cl
ENDBRANCH   5   9
TORSDOF 1
ENDMDL
MODEL 7
REMARK VINA RESULT:      -4.7     12.678     13.132
REMARK  1 active torsions:
REMARK  status: ('A' for Active; 'I' for Inactive)
REMARK    1  A    between atoms: C1_1  and  C6_6 
ROOT
HETATM    1  C2  UNL     1     -35.897  16.098  -2.990  1.00 20.00     0.019 C 
HETATM    2  C3  UNL     1     -34.798  14.747  -4.828  1.00 20.00     0.019 C 
HETATM    3  C4  UNL     1     -34.537  16.300  -2.327  1.00 20.00     0.080 C 
HETATM    4  C5  UNL     1     -33.439  14.951  -4.165  1.00 20.00     0.080 C 
HETATM    5  C6  UNL     1     -35.939  14.804  -3.809  1.00 20.00     0.072 C 
HETATM    6  C7  UNL     1     -33.409  16.226  -3.340  1.00 20.00     0.243 C 
HETATM    7  F9  UNL     1     -32.218  16.321  -2.698  1.00 20.00    -0.206 F 
HETATM    8  F10 UNL     1     -33.483  17.298  -4.172  1.00 20.00    -0.206 F 
ENDROOT
BRANCH   5   9
HETATM    9  C1  UNL     1     -37.258  14.688  -4.512  1.00 20.00     0.223 C 
HETATM   10  O8  UNL     1     -38.007  13.733  -4.329  1.00 20.00    -0.279 OA
HETATM   11 CL11 UNL     1     -37.555  16.035  -5.569  1.00 20.00    -0.043 Cl
ENDBRANCH   5   9
TORSDOF 1
ENDMDL
MODEL 8
REMARK VINA RESULT:      -4.6     12.350     13.240
REMARK  1 active torsions:
REMARK  status: ('A' for Active; 'I' for Inactive)
REMARK    1  A    between atoms: C1_1  and  C6_6 
ROOT
HETATM    1  C2  UNL     1     -35.690  14.176  -4.004  1.00 20.00     0.019 C 
HETATM    2  C3  UNL     1     -36.165  16.663  -3.994  1.00 20.00     0.019 C 
HETATM    3  C4  UNL     1     -34.192  14.463  -3.999  1.00 20.00     0.080 C 
HETATM    4  C5  UNL     1     -34.667  16.949  -3.988  1.00 20.00     0.080 C 
HETATM    5  C6  UNL     1     -36.482  15.317  -4.651  1.00 20.00     0.072 C 
HETATM    6  C7  UNL     1     -33.885  15.807  -3.362  1.00 20.00     0.243 C 
HETATM    7  F9  UNL     1     -32.556  16.061  -3.460  1.00 20.00    -0.206 F 
HETATM    8  F10 UNL     1     -34.168  15.746  -2.034  1.00 20.00    -0.206 F 
ENDROOT
BRANCH   5   9
HETATM    9  C1  UNL     1     -37.952  15.035  -4.556  1.00 20.00     0.223 C 
HETATM   10  O8  UNL     1     -38.383  13.900  -4.376  1.00 20.00    -0.279 OA
HETATM   11 CL11 UNL     1     -38.906  16.478  -4.726  1.00 20.00    -0.043 Cl
ENDBRANCH   5   9
TORSDOF 1
ENDMDL
MODEL 9
REMARK VINA RESULT:      -4.5     12.318     13.260
REMARK  1 active torsions:
REMARK  status: ('A' for Active; 'I' for Inactive)
REMARK    1  A    between atoms: C1_1  and  C6_6 
ROOT
HETATM    1  C2  UNL     1     -34.754  16.232  -5.111  1.00 20.00     0.019 C 
HETATM    2  C3  UNL     1     -35.283  15.044  -2.938  1.00 20.00     0.019 C 
HETATM    3  C4  UNL     1     -34.004  17.312  -4.337  1.00 20.00     0.080 C 
HETATM    4  C5  UNL     1     -34.532  16.125  -2.165  1.00 20.00     0.080 C 
HETATM    5  C6  UNL     1     -35.846  15.580  -4.258  1.00 20.00     0.072 C 
HETATM    6  C7  UNL     1     -33.463  16.780  -3.022  1.00 20.00     0.243 C 
HETATM    7  F9  UNL     1     -32.885  17.792  -2.328  1.00 20.00    -0.206 F 
HETATM    8  F10 UNL     1     -32.479  15.878  -3.277  1.00 20.00    -0.206 F 
ENDROOT
BRANCH   5   9
HETATM    9  C1  UNL     1     -36.496  14.467  -5.024  1.00 20.00     0.223 C 
HETATM   10  O8  UNL     1     -37.363  13.757  -4.523  1.00 20.00    -0.279 OA
HETATM   11 CL11 UNL     1     -35.874  14.338  -6.642  1.00 20.00    -0.043 Cl
ENDBRANCH   5   9
TORSDOF 1
ENDMDL
