MODEL 1
REMARK VINA RESULT:      -4.8      0.000      0.000
REMARK  1 active torsions:
REMARK  status: ('A' for Active; 'I' for Inactive)
REMARK    1  A    between atoms: C4_4  and  O11_11 
ROOT
HETATM    1  C1  UNL     1     -33.582  14.494  -4.417  1.00 20.00     0.034 C 
HETATM    2  C2  UNL     1     -32.901  15.480  -3.799  1.00 20.00     0.003 C 
HETATM    3  C3  UNL     1     -35.690  15.060  -3.312  1.00 20.00     0.017 C 
HETATM    4  C4  UNL     1     -35.040  14.422  -4.306  1.00 20.00     0.062 C 
HETATM    5  C5  UNL     1     -34.012  17.574  -1.189  1.00 20.00     0.004 C 
HETATM    6  C6  UNL     1     -35.372  16.995  -1.527  1.00 20.00     0.065 C 
HETATM    7  C7  UNL     1     -34.860  15.816  -2.322  1.00 20.00     0.045 C 
HETATM    8  C8  UNL     1     -33.697  16.501  -3.049  1.00 20.00     0.139 C 
HETATM    9  C9  UNL     1     -33.839  18.451   0.006  1.00 20.00     0.065 C 
HETATM   10  N10 UNL     1     -33.018  17.258  -1.981  1.00 20.00    -0.289 NA
ENDROOT
BRANCH   4  11
HETATM   11  O11 UNL     1     -35.659  13.631  -5.243  1.00 20.00    -0.361 OA
HETATM   12  H22 UNL     1     -35.451  13.943  -6.132  1.00 20.00     0.217 HD
ENDBRANCH   4  11
TORSDOF 1
ENDMDL
MODEL 2
REMARK VINA RESULT:      -4.8      1.322      2.090
REMARK  1 active torsions:
REMARK  status: ('A' for Active; 'I' for Inactive)
REMARK    1  A    between atoms: C4_4  and  O11_11 
ROOT
HETATM    1  C1  UNL     1     -34.977  14.695  -4.076  1.00 20.00     0.034 C 
HETATM    2  C2  UNL     1     -35.672  15.296  -3.089  1.00 20.00     0.003 C 
HETATM    3  C3  UNL     1     -32.889  15.829  -3.492  1.00 20.00     0.017 C 
HETATM    4  C4  UNL     1     -33.520  14.829  -4.141  1.00 20.00     0.062 C 
HETATM    5  C5  UNL     1     -34.611  17.908  -0.972  1.00 20.00     0.004 C 
HETATM    6  C6  UNL     1     -33.243  17.595  -1.546  1.00 20.00     0.065 C 
HETATM    7  C7  UNL     1     -33.738  16.800  -2.733  1.00 20.00     0.045 C 
HETATM    8  C8  UNL     1     -34.893  16.051  -2.060  1.00 20.00     0.139 C 
HETATM    9  C9  UNL     1     -34.807  19.094  -0.087  1.00 20.00     0.065 C 
HETATM   10  N10 UNL     1     -35.592  17.103  -1.298  1.00 20.00    -0.289 NA
ENDROOT
BRANCH   4  11
HETATM   11  O11 UNL     1     -32.883  13.907  -4.935  1.00 20.00    -0.361 OA
HETATM   12  H22 UNL     1     -31.939  13.894  -4.739  1.00 20.00     0.217 HD
ENDBRANCH   4  11
TORSDOF 1
ENDMDL
MODEL 3
REMARK VINA RESULT:      -4.7     15.742     16.547
REMARK  1 active torsions:
REMARK  status: ('A' for Active; 'I' for Inactive)
REMARK    1  A    between atoms: C4_4  and  O11_11 
ROOT
HETATM    1  C1  UNL     1     -22.198  17.036   9.314  1.00 20.00     0.034 C 
HETATM    2  C2  UNL     1     -22.791  17.256  10.505  1.00 20.00     0.003 C 
HETATM    3  C3  UNL     1     -23.822  18.396   8.089  1.00 20.00     0.017 C 
HETATM    4  C4  UNL     1     -22.621  17.784   8.128  1.00 20.00     0.062 C 
HETATM    5  C5  UNL     1     -25.874  18.850  11.126  1.00 20.00     0.004 C 
HETATM    6  C6  UNL     1     -25.765  19.263   9.671  1.00 20.00     0.065 C 
HETATM    7  C7  UNL     1     -24.704  18.256   9.291  1.00 20.00     0.045 C 
HETATM    8  C8  UNL     1     -23.848  18.313  10.561  1.00 20.00     0.139 C 
HETATM    9  C9  UNL     1     -27.120  19.127  11.900  1.00 20.00     0.065 C 
HETATM   10  N10 UNL     1     -24.841  18.240  11.651  1.00 20.00    -0.289 NA
ENDROOT
BRANCH   4  11
HETATM   11  O11 UNL     1     -21.736  17.763   7.078  1.00 20.00    -0.361 OA
HETATM   12  H22 UNL     1     -20.844  17.956   7.389  1.00 20.00     0.217 HD
ENDBRANCH   4  11
TORSDOF 1
ENDMDL
MODEL 4
REMARK VINA RESULT:      -4.6      1.688      2.061
REMARK  1 active torsions:
REMARK  status: ('A' for Active; 'I' for Inactive)
REMARK    1  A    between atoms: C4_4  and  O11_11 
ROOT
HETATM    1  C1  UNL     1     -35.215  14.773  -5.868  1.00 20.00     0.034 C 
HETATM    2  C2  UNL     1     -34.844  16.070  -5.859  1.00 20.00     0.003 C 
HETATM    3  C3  UNL     1     -34.736  14.468  -3.488  1.00 20.00     0.017 C 
HETATM    4  C4  UNL     1     -35.340  14.031  -4.612  1.00 20.00     0.062 C 
HETATM    5  C5  UNL     1     -33.293  17.859  -3.247  1.00 20.00     0.004 C 
HETATM    6  C6  UNL     1     -33.653  16.640  -2.420  1.00 20.00     0.065 C 
HETATM    7  C7  UNL     1     -33.919  15.719  -3.588  1.00 20.00     0.045 C 
HETATM    8  C8  UNL     1     -34.618  16.711  -4.526  1.00 20.00     0.139 C 
HETATM    9  C9  UNL     1     -32.438  18.939  -2.670  1.00 20.00     0.065 C 
HETATM   10  N10 UNL     1     -33.754  17.906  -4.471  1.00 20.00    -0.289 NA
ENDROOT
BRANCH   4  11
HETATM   11  O11 UNL     1     -36.060  12.865  -4.692  1.00 20.00    -0.361 OA
HETATM   12  H22 UNL     1     -35.513  12.159  -5.055  1.00 20.00     0.217 HD
ENDBRANCH   4  11
TORSDOF 1
ENDMDL
MODEL 5
REMARK VINA RESULT:      -4.6      1.472      2.263
REMARK  1 active torsions:
REMARK  status: ('A' for Active; 'I' for Inactive)
REMARK    1  A    between atoms: C4_4  and  O11_11 
ROOT
HETATM    1  C1  UNL     1     -36.700  14.768  -4.174  1.00 20.00     0.034 C 
HETATM    2  C2  UNL     1     -36.600  15.972  -3.574  1.00 20.00     0.003 C 
HETATM    3  C3  UNL     1     -34.303  14.315  -3.987  1.00 20.00     0.017 C 
HETATM    4  C4  UNL     1     -35.553  13.858  -4.198  1.00 20.00     0.062 C 
HETATM    5  C5  UNL     1     -33.667  17.710  -2.678  1.00 20.00     0.004 C 
HETATM    6  C6  UNL     1     -32.989  16.388  -2.982  1.00 20.00     0.065 C 
HETATM    7  C7  UNL     1     -34.138  15.785  -3.758  1.00 20.00     0.045 C 
HETATM    8  C8  UNL     1     -35.303  16.302  -2.906  1.00 20.00     0.139 C 
HETATM    9  C9  UNL     1     -32.854  18.926  -2.383  1.00 20.00     0.065 C 
HETATM   10  N10 UNL     1     -34.976  17.726  -2.699  1.00 20.00    -0.289 NA
ENDROOT
BRANCH   4  11
HETATM   11  O11 UNL     1     -35.852  12.550  -4.492  1.00 20.00    -0.361 OA
HETATM   12  H22 UNL     1     -35.844  12.413  -5.447  1.00 20.00     0.217 HD
ENDBRANCH   4  11
TORSDOF 1
ENDMDL
MODEL 6
REMARK VINA RESULT:      -4.5     14.625     16.433
REMARK  1 active torsions:
REMARK  status: ('A' for Active; 'I' for Inactive)
REMARK    1  A    between atoms: C4_4  and  O11_11 
ROOT
HETATM    1  C1  UNL     1     -25.587  19.261   8.073  1.00 20.00     0.034 C 
HETATM    2  C2  UNL     1     -25.484  18.920   9.374  1.00 20.00     0.003 C 
HETATM    3  C3  UNL     1     -23.303  18.551   7.556  1.00 20.00     0.017 C 
HETATM    4  C4  UNL     1     -24.537  18.884   7.125  1.00 20.00     0.062 C 
HETATM    5  C5  UNL     1     -22.599  17.894  11.122  1.00 20.00     0.004 C 
HETATM    6  C6  UNL     1     -21.998  17.784   9.734  1.00 20.00     0.065 C 
HETATM    7  C7  UNL     1     -23.051  18.611   9.031  1.00 20.00     0.045 C 
HETATM    8  C8  UNL     1     -24.292  18.113   9.781  1.00 20.00     0.139 C 
HETATM    9  C9  UNL     1     -21.743  17.719  12.332  1.00 20.00     0.065 C 
HETATM   10  N10 UNL     1     -23.880  18.154  11.197  1.00 20.00    -0.289 NA
ENDROOT
BRANCH   4  11
HETATM   11  O11 UNL     1     -24.896  18.945   5.801  1.00 20.00    -0.361 OA
HETATM   12  H22 UNL     1     -25.112  19.853   5.556  1.00 20.00     0.217 HD
ENDBRANCH   4  11
TORSDOF 1
ENDMDL
MODEL 7
REMARK VINA RESULT:      -4.5      2.462      3.892
REMARK  1 active torsions:
REMARK  status: ('A' for Active; 'I' for Inactive)
REMARK    1  A    between atoms: C4_4  and  O11_11 
ROOT
HETATM    1  C1  UNL     1     -33.193  15.979  -3.414  1.00 20.00     0.034 C 
HETATM    2  C2  UNL     1     -34.407  16.565  -3.368  1.00 20.00     0.003 C 
HETATM    3  C3  UNL     1     -34.047  13.965  -4.511  1.00 20.00     0.017 C 
HETATM    4  C4  UNL     1     -32.998  14.744  -4.176  1.00 20.00     0.062 C 
HETATM    5  C5  UNL     1     -37.531  15.142  -4.171  1.00 20.00     0.004 C 
HETATM    6  C6  UNL     1     -36.686  14.026  -4.754  1.00 20.00     0.065 C 
HETATM    7  C7  UNL     1     -35.402  14.403  -4.052  1.00 20.00     0.045 C 
HETATM    8  C8  UNL     1     -35.508  15.929  -4.156  1.00 20.00     0.139 C 
HETATM    9  C9  UNL     1     -39.014  15.002  -4.083  1.00 20.00     0.065 C 
HETATM   10  N10 UNL     1     -36.899  16.208  -3.750  1.00 20.00    -0.289 NA
ENDROOT
BRANCH   4  11
HETATM   11  O11 UNL     1     -31.691  14.435  -4.463  1.00 20.00    -0.361 OA
HETATM   12  H22 UNL     1     -31.594  13.485  -4.599  1.00 20.00     0.217 HD
ENDBRANCH   4  11
TORSDOF 1
ENDMDL
MODEL 8
REMARK VINA RESULT:      -4.4     11.668     12.248
REMARK  1 active torsions:
REMARK  status: ('A' for Active; 'I' for Inactive)
REMARK    1  A    between atoms: C4_4  and  O11_11 
ROOT
HETATM    1  C1  UNL     1     -34.319   6.472   6.086  1.00 20.00     0.034 C 
HETATM    2  C2  UNL     1     -33.401   7.244   5.468  1.00 20.00     0.003 C 
HETATM    3  C3  UNL     1     -34.668   5.060   4.118  1.00 20.00     0.017 C 
HETATM    4  C4  UNL     1     -34.805   5.248   5.447  1.00 20.00     0.062 C 
HETATM    5  C5  UNL     1     -32.500   7.228   2.059  1.00 20.00     0.004 C 
HETATM    6  C6  UNL     1     -33.300   5.940   2.024  1.00 20.00     0.065 C 
HETATM    7  C7  UNL     1     -34.028   6.160   3.331  1.00 20.00     0.045 C 
HETATM    8  C8  UNL     1     -32.883   6.772   4.147  1.00 20.00     0.139 C 
HETATM    9  C9  UNL     1     -31.980   7.830   0.797  1.00 20.00     0.065 C 
HETATM   10  N10 UNL     1     -32.303   7.775   3.233  1.00 20.00    -0.289 NA
ENDROOT
BRANCH   4  11
HETATM   11  O11 UNL     1     -35.435   4.361   6.286  1.00 20.00    -0.361 OA
HETATM   12  H22 UNL     1     -36.027   3.790   5.783  1.00 20.00     0.217 HD
ENDBRANCH   4  11
TORSDOF 1
ENDMDL
MODEL 9
REMARK VINA RESULT:      -4.4      1.370      1.826
REMARK  1 active torsions:
REMARK  status: ('A' for Active; 'I' for Inactive)
REMARK    1  A    between atoms: C4_4  and  O11_11 
ROOT
HETATM    1  C1  UNL     1     -34.203  15.330  -3.457  1.00 20.00     0.034 C 
HETATM    2  C2  UNL     1     -33.098  16.074  -3.250  1.00 20.00     0.003 C 
HETATM    3  C3  UNL     1     -35.503  16.531  -1.767  1.00 20.00     0.017 C 
HETATM    4  C4  UNL     1     -35.474  15.706  -2.834  1.00 20.00     0.062 C 
HETATM    5  C5  UNL     1     -32.533  18.455  -0.712  1.00 20.00     0.004 C 
HETATM    6  C6  UNL     1     -34.024  18.311  -0.475  1.00 20.00     0.065 C 
HETATM    7  C7  UNL     1     -34.191  17.017  -1.238  1.00 20.00     0.045 C 
HETATM    8  C8  UNL     1     -33.243  17.302  -2.409  1.00 20.00     0.139 C 
HETATM    9  C9  UNL     1     -31.693  19.261   0.221  1.00 20.00     0.065 C 
HETATM   10  N10 UNL     1     -32.034  17.838  -1.754  1.00 20.00    -0.289 NA
ENDROOT
BRANCH   4  11
HETATM   11  O11 UNL     1     -36.590  15.124  -3.384  1.00 20.00    -0.361 OA
HETATM   12  H22 UNL     1     -36.333  14.436  -4.010  1.00 20.00     0.217 HD
ENDBRANCH   4  11
TORSDOF 1
ENDMDL
