MODEL 1
REMARK VINA RESULT:      -4.9      0.000      0.000
REMARK  2 active torsions:
REMARK  status: ('A' for Active; 'I' for Inactive)
REMARK    1  A    between atoms: C2_2  and  C7_7 
REMARK    2  A    between atoms: C6_6  and  C7_7 
ROOT
HETATM    1  C1  UNL     1     -32.719   7.207   2.150  1.00 20.00     0.064 C 
HETATM    2  C4  UNL     1     -33.389   4.871   2.532  1.00 20.00     0.026 C 
HETATM    3  C6  UNL     1     -32.956   6.184   3.190  1.00 20.00     0.099 C 
HETATM    4  N8  UNL     1     -32.531   8.012   1.334  1.00 20.00    -0.197 NA
ENDROOT
BRANCH   3   5
HETATM    5  C7  UNL     1     -33.952   6.710   4.251  1.00 20.00     0.068 C 
HETATM    6  C5  UNL     1     -33.285   7.308   5.494  1.00 20.00     0.019 C 
BRANCH   5   7
HETATM    7  C2  UNL     1     -34.935   5.609   4.657  1.00 20.00     0.128 C 
HETATM    8  C3  UNL     1     -34.640   4.868   5.937  1.00 20.00     0.091 C 
HETATM    9  O9  UNL     1     -35.913   5.312   3.970  1.00 20.00    -0.298 OA
ENDBRANCH   5   7
ENDBRANCH   3   5
TORSDOF 2
ENDMDL
MODEL 2
REMARK VINA RESULT:      -4.6     11.222     12.074
REMARK  2 active torsions:
REMARK  status: ('A' for Active; 'I' for Inactive)
REMARK    1  A    between atoms: C2_2  and  C7_7 
REMARK    2  A    between atoms: C6_6  and  C7_7 
ROOT
HETATM    1  C1  UNL     1     -37.331  14.765  -4.191  1.00 20.00     0.064 C 
HETATM    2  C4  UNL     1     -35.750  16.270  -5.326  1.00 20.00     0.026 C 
HETATM    3  C6  UNL     1     -36.251  15.751  -3.976  1.00 20.00     0.099 C 
HETATM    4  N8  UNL     1     -38.181  13.991  -4.359  1.00 20.00    -0.197 NA
ENDROOT
BRANCH   3   5
HETATM    5  C7  UNL     1     -35.138  15.151  -3.084  1.00 20.00     0.068 C 
HETATM    6  C5  UNL     1     -34.198  16.193  -2.470  1.00 20.00     0.019 C 
BRANCH   5   7
HETATM    7  C2  UNL     1     -34.334  14.105  -3.859  1.00 20.00     0.128 C 
HETATM    8  C3  UNL     1     -33.010  14.547  -4.429  1.00 20.00     0.091 C 
HETATM    9  O9  UNL     1     -34.745  12.958  -4.039  1.00 20.00    -0.298 OA
ENDBRANCH   5   7
ENDBRANCH   3   5
TORSDOF 2
ENDMDL
MODEL 3
REMARK VINA RESULT:      -4.6     11.504     12.199
REMARK  2 active torsions:
REMARK  status: ('A' for Active; 'I' for Inactive)
REMARK    1  A    between atoms: C2_2  and  C7_7 
REMARK    2  A    between atoms: C6_6  and  C7_7 
ROOT
HETATM    1  C1  UNL     1     -35.893  13.930  -4.242  1.00 20.00     0.064 C 
HETATM    2  C4  UNL     1     -35.790  16.297  -4.902  1.00 20.00     0.026 C 
HETATM    3  C6  UNL     1     -35.899  15.317  -3.732  1.00 20.00     0.099 C 
HETATM    4  N8  UNL     1     -35.891  12.840  -4.642  1.00 20.00    -0.197 NA
ENDROOT
BRANCH   3   5
HETATM    5  C7  UNL     1     -34.803  15.504  -2.656  1.00 20.00     0.068 C 
HETATM    6  C5  UNL     1     -35.158  16.524  -1.570  1.00 20.00     0.019 C 
BRANCH   5   7
HETATM    7  C2  UNL     1     -33.467  15.869  -3.307  1.00 20.00     0.128 C 
HETATM    8  C3  UNL     1     -32.956  17.269  -3.078  1.00 20.00     0.091 C 
HETATM    9  O9  UNL     1     -32.837  15.077  -4.010  1.00 20.00    -0.298 OA
ENDBRANCH   5   7
ENDBRANCH   3   5
TORSDOF 2
ENDMDL
MODEL 4
REMARK VINA RESULT:      -4.5     11.487     12.105
REMARK  2 active torsions:
REMARK  status: ('A' for Active; 'I' for Inactive)
REMARK    1  A    between atoms: C2_2  and  C7_7 
REMARK    2  A    between atoms: C6_6  and  C7_7 
ROOT
HETATM    1  C1  UNL     1     -34.535  16.925  -4.184  1.00 20.00     0.064 C 
HETATM    2  C4  UNL     1     -34.839  16.368  -1.808  1.00 20.00     0.026 C 
HETATM    3  C6  UNL     1     -35.147  15.958  -3.250  1.00 20.00     0.099 C 
HETATM    4  N8  UNL     1     -34.056  17.686  -4.920  1.00 20.00    -0.197 NA
ENDROOT
BRANCH   3   5
HETATM    5  C7  UNL     1     -34.707  14.515  -3.596  1.00 20.00     0.068 C 
HETATM    6  C5  UNL     1     -33.466  14.436  -4.491  1.00 20.00     0.019 C 
BRANCH   5   7
HETATM    7  C2  UNL     1     -35.864  13.738  -4.227  1.00 20.00     0.128 C 
HETATM    8  C3  UNL     1     -37.144  14.497  -4.472  1.00 20.00     0.091 C 
HETATM    9  O9  UNL     1     -35.780  12.541  -4.507  1.00 20.00    -0.298 OA
ENDBRANCH   5   7
ENDBRANCH   3   5
TORSDOF 2
ENDMDL
MODEL 5
REMARK VINA RESULT:      -4.4     16.294     17.191
REMARK  2 active torsions:
REMARK  status: ('A' for Active; 'I' for Inactive)
REMARK    1  A    between atoms: C2_2  and  C7_7 
REMARK    2  A    between atoms: C6_6  and  C7_7 
ROOT
HETATM    1  C1  UNL     1     -23.922  16.489  11.335  1.00 20.00     0.064 C 
HETATM    2  C4  UNL     1     -22.353  18.103  12.327  1.00 20.00     0.026 C 
HETATM    3  C6  UNL     1     -22.801  17.405  11.041  1.00 20.00     0.099 C 
HETATM    4  N8  UNL     1     -24.803  15.768  11.566  1.00 20.00    -0.197 NA
ENDROOT
BRANCH   3   5
HETATM    5  C7  UNL     1     -23.180  18.380   9.901  1.00 20.00     0.068 C 
HETATM    6  C5  UNL     1     -24.688  18.591   9.732  1.00 20.00     0.019 C 
BRANCH   5   7
HETATM    7  C2  UNL     1     -22.558  17.928   8.578  1.00 20.00     0.128 C 
HETATM    8  C3  UNL     1     -21.293  17.112   8.661  1.00 20.00     0.091 C 
HETATM    9  O9  UNL     1     -23.042  18.227   7.485  1.00 20.00    -0.298 OA
ENDBRANCH   5   7
ENDBRANCH   3   5
TORSDOF 2
ENDMDL
MODEL 6
REMARK VINA RESULT:      -4.4     15.623     16.604
REMARK  2 active torsions:
REMARK  status: ('A' for Active; 'I' for Inactive)
REMARK    1  A    between atoms: C2_2  and  C7_7 
REMARK    2  A    between atoms: C6_6  and  C7_7 
ROOT
HETATM    1  C1  UNL     1     -23.816  17.038   9.868  1.00 20.00     0.064 C 
HETATM    2  C4  UNL     1     -21.813  18.362   9.332  1.00 20.00     0.026 C 
HETATM    3  C6  UNL     1     -23.211  17.944   8.870  1.00 20.00     0.099 C 
HETATM    4  N8  UNL     1     -24.292  16.325  10.652  1.00 20.00    -0.197 NA
ENDROOT
BRANCH   3   5
HETATM    5  C7  UNL     1     -24.154  19.135   8.575  1.00 20.00     0.068 C 
HETATM    6  C5  UNL     1     -25.327  19.263   9.552  1.00 20.00     0.019 C 
BRANCH   5   7
HETATM    7  C2  UNL     1     -24.670  19.069   7.136  1.00 20.00     0.128 C 
HETATM    8  C3  UNL     1     -26.162  18.948   6.951  1.00 20.00     0.091 C 
HETATM    9  O9  UNL     1     -23.915  19.088   6.163  1.00 20.00    -0.298 OA
ENDBRANCH   5   7
ENDBRANCH   3   5
TORSDOF 2
ENDMDL
MODEL 7
REMARK VINA RESULT:      -4.4     11.478     12.044
REMARK  2 active torsions:
REMARK  status: ('A' for Active; 'I' for Inactive)
REMARK    1  A    between atoms: C2_2  and  C7_7 
REMARK    2  A    between atoms: C6_6  and  C7_7 
ROOT
HETATM    1  C1  UNL     1     -34.873  15.879  -2.325  1.00 20.00     0.064 C 
HETATM    2  C4  UNL     1     -32.898  15.547  -3.753  1.00 20.00     0.026 C 
HETATM    3  C6  UNL     1     -34.316  15.070  -3.430  1.00 20.00     0.099 C 
HETATM    4  N8  UNL     1     -35.312  16.512  -1.457  1.00 20.00    -0.197 NA
ENDROOT
BRANCH   3   5
HETATM    5  C7  UNL     1     -35.271  15.080  -4.646  1.00 20.00     0.068 C 
HETATM    6  C5  UNL     1     -35.944  16.432  -4.905  1.00 20.00     0.019 C 
BRANCH   5   7
HETATM    7  C2  UNL     1     -36.328  13.982  -4.508  1.00 20.00     0.128 C 
HETATM    8  C3  UNL     1     -37.753  14.428  -4.299  1.00 20.00     0.091 C 
HETATM    9  O9  UNL     1     -36.043  12.784  -4.540  1.00 20.00    -0.298 OA
ENDBRANCH   5   7
ENDBRANCH   3   5
TORSDOF 2
ENDMDL
MODEL 8
REMARK VINA RESULT:      -4.3     11.569     12.200
REMARK  2 active torsions:
REMARK  status: ('A' for Active; 'I' for Inactive)
REMARK    1  A    between atoms: C2_2  and  C7_7 
REMARK    2  A    between atoms: C6_6  and  C7_7 
ROOT
HETATM    1  C1  UNL     1     -35.833  13.862  -4.295  1.00 20.00     0.064 C 
HETATM    2  C4  UNL     1     -36.680  16.110  -4.826  1.00 20.00     0.026 C 
HETATM    3  C6  UNL     1     -35.759  15.290  -3.919  1.00 20.00     0.099 C 
HETATM    4  N8  UNL     1     -35.891  12.740  -4.588  1.00 20.00    -0.197 NA
ENDROOT
BRANCH   3   5
HETATM    5  C7  UNL     1     -34.290  15.776  -3.916  1.00 20.00     0.068 C 
HETATM    6  C5  UNL     1     -33.269  14.688  -4.264  1.00 20.00     0.019 C 
BRANCH   5   7
HETATM    7  C2  UNL     1     -33.940  16.420  -2.573  1.00 20.00     0.128 C 
HETATM    8  C3  UNL     1     -35.025  16.448  -1.526  1.00 20.00     0.091 C 
HETATM    9  O9  UNL     1     -32.836  16.919  -2.348  1.00 20.00    -0.298 OA
ENDBRANCH   5   7
ENDBRANCH   3   5
TORSDOF 2
ENDMDL
MODEL 9
REMARK VINA RESULT:      -4.3     15.737     16.770
REMARK  2 active torsions:
REMARK  status: ('A' for Active; 'I' for Inactive)
REMARK    1  A    between atoms: C2_2  and  C7_7 
REMARK    2  A    between atoms: C6_6  and  C7_7 
ROOT
HETATM    1  C1  UNL     1     -22.822  17.169   9.988  1.00 20.00     0.064 C 
HETATM    2  C4  UNL     1     -21.840  17.771  12.161  1.00 20.00     0.026 C 
HETATM    3  C6  UNL     1     -23.087  17.843  11.276  1.00 20.00     0.099 C 
HETATM    4  N8  UNL     1     -22.615  16.641   8.974  1.00 20.00    -0.197 NA
ENDROOT
BRANCH   3   5
HETATM    5  C7  UNL     1     -24.359  17.264  11.941  1.00 20.00     0.068 C 
HETATM    6  C5  UNL     1     -24.637  15.799  11.593  1.00 20.00     0.019 C 
BRANCH   5   7
HETATM    7  C2  UNL     1     -25.578  18.127  11.608  1.00 20.00     0.128 C 
HETATM    8  C3  UNL     1     -26.861  17.805  12.332  1.00 20.00     0.091 C 
HETATM    9  O9  UNL     1     -25.538  19.031  10.772  1.00 20.00    -0.298 OA
ENDBRANCH   5   7
ENDBRANCH   3   5
TORSDOF 2
ENDMDL
