MODEL 1
REMARK VINA RESULT:      -4.7      0.000      0.000
REMARK  1 active torsions:
REMARK  status: ('A' for Active; 'I' for Inactive)
REMARK    1  A    between atoms: C3_3  and  C9_9 
ROOT
HETATM    1  C1  UNL     1     -35.065  15.687  -2.601  1.00 20.00    -0.030 C 
HETATM    2  C2  UNL     1     -35.986  16.526  -3.098  1.00 20.00    -0.026 C 
HETATM    3  C4  UNL     1     -33.846  15.267  -3.375  1.00 20.00     0.031 C 
HETATM    4  C5  UNL     1     -36.649  16.325  -5.508  1.00 20.00     0.022 C 
HETATM    5  C6  UNL     1     -34.382  17.198  -4.893  1.00 20.00     0.013 C 
HETATM    6  C7  UNL     1     -34.538  14.878  -5.836  1.00 20.00     0.018 C 
HETATM    7  C8  UNL     1     -35.856  17.137  -4.470  1.00 20.00     0.009 C 
HETATM    8  C9  UNL     1     -36.069  14.931  -5.786  1.00 20.00     0.073 C 
HETATM    9  C10 UNL     1     -33.798  15.785  -4.830  1.00 20.00    -0.010 C 
ENDROOT
BRANCH   8  10
HETATM   10  C3  UNL     1     -36.616  13.909  -4.829  1.00 20.00     0.223 C 
HETATM   11  O11 UNL     1     -35.987  12.896  -4.536  1.00 20.00    -0.279 OA
HETATM   12 CL12 UNL     1     -38.187  14.349  -4.230  1.00 20.00    -0.043 Cl
ENDBRANCH   8  10
TORSDOF 1
ENDMDL
MODEL 2
REMARK VINA RESULT:      -4.6      1.356      1.850
REMARK  1 active torsions:
REMARK  status: ('A' for Active; 'I' for Inactive)
REMARK    1  A    between atoms: C3_3  and  C9_9 
ROOT
HETATM    1  C1  UNL     1     -36.062  16.687  -2.972  1.00 20.00    -0.030 C 
HETATM    2  C2  UNL     1     -35.840  17.485  -4.027  1.00 20.00    -0.026 C 
HETATM    3  C4  UNL     1     -34.996  15.809  -2.378  1.00 20.00     0.031 C 
HETATM    4  C5  UNL     1     -34.407  16.654  -5.909  1.00 20.00     0.022 C 
HETATM    5  C6  UNL     1     -33.378  17.215  -3.693  1.00 20.00     0.013 C 
HETATM    6  C7  UNL     1     -33.609  14.793  -4.310  1.00 20.00     0.018 C 
HETATM    7  C8  UNL     1     -34.488  17.584  -4.686  1.00 20.00     0.009 C 
HETATM    8  C9  UNL     1     -34.418  15.160  -5.558  1.00 20.00     0.073 C 
HETATM    9  C10 UNL     1     -33.657  15.811  -3.151  1.00 20.00    -0.010 C 
ENDROOT
BRANCH   8  10
HETATM   10  C3  UNL     1     -35.822  14.629  -5.469  1.00 20.00     0.223 C 
HETATM   11  O11 UNL     1     -36.742  15.126  -6.115  1.00 20.00    -0.279 OA
HETATM   12 CL12 UNL     1     -35.946  13.283  -4.377  1.00 20.00    -0.043 Cl
ENDBRANCH   8  10
TORSDOF 1
ENDMDL
MODEL 3
REMARK VINA RESULT:      -4.6      1.970      3.039
REMARK  1 active torsions:
REMARK  status: ('A' for Active; 'I' for Inactive)
REMARK    1  A    between atoms: C3_3  and  C9_9 
ROOT
HETATM    1  C1  UNL     1     -35.175  17.725  -4.500  1.00 20.00    -0.030 C 
HETATM    2  C2  UNL     1     -33.872  17.406  -4.514  1.00 20.00    -0.026 C 
HETATM    3  C4  UNL     1     -36.151  17.110  -3.536  1.00 20.00     0.031 C 
HETATM    4  C5  UNL     1     -33.194  15.016  -4.168  1.00 20.00     0.022 C 
HETATM    5  C6  UNL     1     -34.120  16.354  -2.261  1.00 20.00     0.013 C 
HETATM    6  C7  UNL     1     -35.585  14.598  -3.295  1.00 20.00     0.018 C 
HETATM    7  C8  UNL     1     -33.277  16.419  -3.541  1.00 20.00     0.009 C 
HETATM    8  C9  UNL     1     -34.559  14.358  -4.407  1.00 20.00     0.073 C 
HETATM    9  C10 UNL     1     -35.558  15.997  -2.642  1.00 20.00    -0.010 C 
ENDROOT
BRANCH   8  10
HETATM   10  C3  UNL     1     -35.119  14.732  -5.752  1.00 20.00     0.223 C 
HETATM   11  O11 UNL     1     -36.329  14.788  -5.954  1.00 20.00    -0.279 OA
HETATM   12 CL12 UNL     1     -33.868  15.054  -6.914  1.00 20.00    -0.043 Cl
ENDBRANCH   8  10
TORSDOF 1
ENDMDL
MODEL 4
REMARK VINA RESULT:      -4.5      2.393      3.310
REMARK  1 active torsions:
REMARK  status: ('A' for Active; 'I' for Inactive)
REMARK    1  A    between atoms: C3_3  and  C9_9 
ROOT
HETATM    1  C1  UNL     1     -33.734  16.270  -2.611  1.00 20.00    -0.030 C 
HETATM    2  C2  UNL     1     -33.041  15.748  -3.634  1.00 20.00    -0.026 C 
HETATM    3  C4  UNL     1     -35.171  15.920  -2.340  1.00 20.00     0.031 C 
HETATM    4  C5  UNL     1     -34.178  15.437  -5.848  1.00 20.00     0.022 C 
HETATM    5  C6  UNL     1     -34.792  13.985  -3.900  1.00 20.00     0.013 C 
HETATM    6  C7  UNL     1     -36.413  15.768  -4.602  1.00 20.00     0.018 C 
HETATM    7  C8  UNL     1     -33.646  14.743  -4.582  1.00 20.00     0.009 C 
HETATM    8  C9  UNL     1     -35.399  16.333  -5.602  1.00 20.00     0.073 C 
HETATM    9  C10 UNL     1     -35.820  15.002  -3.400  1.00 20.00    -0.010 C 
ENDROOT
BRANCH   8  10
HETATM   10  C3  UNL     1     -34.986  17.729  -5.225  1.00 20.00     0.223 C 
HETATM   11  O11 UNL     1     -33.910  18.202  -5.580  1.00 20.00    -0.279 OA
HETATM   12 CL12 UNL     1     -36.191  18.531  -4.263  1.00 20.00    -0.043 Cl
ENDBRANCH   8  10
TORSDOF 1
ENDMDL
MODEL 5
REMARK VINA RESULT:      -4.5      2.229      3.171
REMARK  1 active torsions:
REMARK  status: ('A' for Active; 'I' for Inactive)
REMARK    1  A    between atoms: C3_3  and  C9_9 
ROOT
HETATM    1  C1  UNL     1     -35.797  17.229  -5.297  1.00 20.00    -0.030 C 
HETATM    2  C2  UNL     1     -36.705  16.299  -4.963  1.00 20.00    -0.026 C 
HETATM    3  C4  UNL     1     -34.509  16.893  -5.996  1.00 20.00     0.031 C 
HETATM    4  C5  UNL     1     -35.921  14.084  -4.087  1.00 20.00     0.022 C 
HETATM    5  C6  UNL     1     -35.585  14.677  -6.499  1.00 20.00     0.013 C 
HETATM    6  C7  UNL     1     -33.583  14.700  -4.987  1.00 20.00     0.018 C 
HETATM    7  C8  UNL     1     -36.514  14.840  -5.289  1.00 20.00     0.009 C 
HETATM    8  C9  UNL     1     -34.472  14.471  -3.761  1.00 20.00     0.073 C 
HETATM    9  C10 UNL     1     -34.261  15.380  -6.195  1.00 20.00    -0.010 C 
ENDROOT
BRANCH   8  10
HETATM   10  C3  UNL     1     -34.418  15.646  -2.823  1.00 20.00     0.223 C 
HETATM   11  O11 UNL     1     -35.338  15.898  -2.050  1.00 20.00    -0.279 OA
HETATM   12 CL12 UNL     1     -32.940  16.546  -2.988  1.00 20.00    -0.043 Cl
ENDBRANCH   8  10
TORSDOF 1
ENDMDL
MODEL 6
REMARK VINA RESULT:      -4.5      1.419      2.788
REMARK  1 active torsions:
REMARK  status: ('A' for Active; 'I' for Inactive)
REMARK    1  A    between atoms: C3_3  and  C9_9 
ROOT
HETATM    1  C1  UNL     1     -34.503  16.697  -5.771  1.00 20.00    -0.030 C 
HETATM    2  C2  UNL     1     -34.128  15.412  -5.852  1.00 20.00    -0.026 C 
HETATM    3  C4  UNL     1     -34.440  17.483  -4.491  1.00 20.00     0.031 C 
HETATM    4  C5  UNL     1     -34.699  13.850  -3.974  1.00 20.00     0.022 C 
HETATM    5  C6  UNL     1     -32.962  15.629  -3.651  1.00 20.00     0.013 C 
HETATM    6  C7  UNL     1     -35.197  15.946  -2.554  1.00 20.00     0.018 C 
HETATM    7  C8  UNL     1     -33.586  14.659  -4.663  1.00 20.00     0.009 C 
HETATM    8  C9  UNL     1     -35.756  14.716  -3.275  1.00 20.00     0.073 C 
HETATM    9  C10 UNL     1     -34.020  16.661  -3.251  1.00 20.00    -0.010 C 
ENDROOT
BRANCH   8  10
HETATM   10  C3  UNL     1     -36.862  15.097  -4.221  1.00 20.00     0.223 C 
HETATM   11  O11 UNL     1     -37.145  14.406  -5.196  1.00 20.00    -0.279 OA
HETATM   12 CL12 UNL     1     -37.639  16.581  -3.755  1.00 20.00    -0.043 Cl
ENDBRANCH   8  10
TORSDOF 1
ENDMDL
MODEL 7
REMARK VINA RESULT:      -4.5      2.675      3.764
REMARK  1 active torsions:
REMARK  status: ('A' for Active; 'I' for Inactive)
REMARK    1  A    between atoms: C3_3  and  C9_9 
ROOT
HETATM    1  C1  UNL     1     -35.609  16.455  -5.484  1.00 20.00    -0.030 C 
HETATM    2  C2  UNL     1     -36.278  16.237  -4.342  1.00 20.00    -0.026 C 
HETATM    3  C4  UNL     1     -34.330  15.742  -5.825  1.00 20.00     0.031 C 
HETATM    4  C5  UNL     1     -34.992  15.925  -2.212  1.00 20.00     0.022 C 
HETATM    5  C6  UNL     1     -34.952  14.149  -3.981  1.00 20.00     0.013 C 
HETATM    6  C7  UNL     1     -32.900  15.562  -3.679  1.00 20.00     0.018 C 
HETATM    7  C8  UNL     1     -35.810  15.235  -3.318  1.00 20.00     0.009 C 
HETATM    8  C9  UNL     1     -33.637  16.467  -2.686  1.00 20.00     0.073 C 
HETATM    9  C10 UNL     1     -33.786  14.826  -4.706  1.00 20.00    -0.010 C 
ENDROOT
BRANCH   8  10
HETATM   10  C3  UNL     1     -33.764  17.867  -3.219  1.00 20.00     0.223 C 
HETATM   11  O11 UNL     1     -33.019  18.294  -4.097  1.00 20.00    -0.279 OA
HETATM   12 CL12 UNL     1     -35.053  18.746  -2.452  1.00 20.00    -0.043 Cl
ENDBRANCH   8  10
TORSDOF 1
ENDMDL
MODEL 8
REMARK VINA RESULT:      -4.5      2.092      3.341
REMARK  1 active torsions:
REMARK  status: ('A' for Active; 'I' for Inactive)
REMARK    1  A    between atoms: C3_3  and  C9_9 
ROOT
HETATM    1  C1  UNL     1     -36.003  14.035  -4.438  1.00 20.00    -0.030 C 
HETATM    2  C2  UNL     1     -34.811  13.909  -3.835  1.00 20.00    -0.026 C 
HETATM    3  C4  UNL     1     -36.208  14.881  -5.664  1.00 20.00     0.031 C 
HETATM    4  C5  UNL     1     -33.329  15.921  -3.626  1.00 20.00     0.022 C 
HETATM    5  C6  UNL     1     -33.702  14.857  -5.865  1.00 20.00     0.013 C 
HETATM    6  C7  UNL     1     -34.828  17.050  -5.396  1.00 20.00     0.018 C 
HETATM    7  C8  UNL     1     -33.572  14.590  -4.359  1.00 20.00     0.009 C 
HETATM    8  C9  UNL     1     -34.373  17.003  -3.934  1.00 20.00     0.073 C 
HETATM    9  C10 UNL     1     -34.965  15.686  -6.105  1.00 20.00    -0.010 C 
ENDROOT
BRANCH   8  10
HETATM   10  C3  UNL     1     -35.550  16.909  -3.002  1.00 20.00     0.223 C 
HETATM   11  O11 UNL     1     -36.678  17.241  -3.353  1.00 20.00    -0.279 OA
HETATM   12 CL12 UNL     1     -35.101  16.293  -1.441  1.00 20.00    -0.043 Cl
ENDBRANCH   8  10
TORSDOF 1
ENDMDL
MODEL 9
REMARK VINA RESULT:      -4.4      2.251      3.353
REMARK  1 active torsions:
REMARK  status: ('A' for Active; 'I' for Inactive)
REMARK    1  A    between atoms: C3_3  and  C9_9 
ROOT
HETATM    1  C1  UNL     1     -34.760  16.374  -6.380  1.00 20.00    -0.030 C 
HETATM    2  C2  UNL     1     -35.340  17.164  -5.464  1.00 20.00    -0.026 C 
HETATM    3  C4  UNL     1     -35.068  14.908  -6.501  1.00 20.00     0.031 C 
HETATM    4  C5  UNL     1     -35.719  16.276  -3.149  1.00 20.00     0.022 C 
HETATM    5  C6  UNL     1     -37.075  15.409  -5.071  1.00 20.00     0.013 C 
HETATM    6  C7  UNL     1     -35.289  13.924  -4.120  1.00 20.00     0.018 C 
HETATM    7  C8  UNL     1     -36.370  16.643  -4.494  1.00 20.00     0.009 C 
HETATM    8  C9  UNL     1     -34.787  15.058  -3.220  1.00 20.00     0.073 C 
HETATM    9  C10 UNL     1     -36.016  14.358  -5.410  1.00 20.00    -0.010 C 
ENDROOT
BRANCH   8  10
HETATM   10  C3  UNL     1     -33.386  15.462  -3.586  1.00 20.00     0.223 C 
HETATM   11  O11 UNL     1     -32.655  14.729  -4.247  1.00 20.00    -0.279 OA
HETATM   12 CL12 UNL     1     -32.975  17.034  -2.969  1.00 20.00    -0.043 Cl
ENDBRANCH   8  10
TORSDOF 1
ENDMDL
