MODEL 1
REMARK VINA RESULT:      -4.3      0.000      0.000
REMARK  2 active torsions:
REMARK  status: ('A' for Active; 'I' for Inactive)
REMARK    1  A    between atoms: C1_1  and  C5_5 
REMARK    2  A    between atoms: C5_5  and  C6_6 
ROOT
HETATM    1  C2  UNL     1     -34.807  15.890  -2.321  1.00 20.00     0.003 C 
HETATM    2  C3  UNL     1     -35.846  15.704  -3.441  1.00 20.00     0.026 C 
HETATM    3  C4  UNL     1     -33.708  15.614  -3.361  1.00 20.00     0.026 C 
HETATM    4  C5  UNL     1     -34.778  14.902  -4.249  1.00 20.00     0.110 C 
ENDROOT
BRANCH   4   5
HETATM    5  C1  UNL     1     -34.850  13.389  -4.021  1.00 20.00     0.249 C 
HETATM    6  O7  UNL     1     -35.754  12.683  -4.455  1.00 20.00    -0.306 OA
ENDBRANCH   4   5
BRANCH   4   7
HETATM    7  C6  UNL     1     -34.707  15.234  -5.766  1.00 20.00     0.401 C 
HETATM    8  F8  UNL     1     -33.699  14.557  -6.333  1.00 20.00    -0.170 F 
HETATM    9  F9  UNL     1     -35.857  14.888  -6.360  1.00 20.00    -0.170 F 
HETATM   10  F10 UNL     1     -34.502  16.547  -5.935  1.00 20.00    -0.170 F 
ENDBRANCH   4   7
TORSDOF 2
ENDMDL
MODEL 2
REMARK VINA RESULT:      -4.3      1.829      2.795
REMARK  2 active torsions:
REMARK  status: ('A' for Active; 'I' for Inactive)
REMARK    1  A    between atoms: C1_1  and  C5_5 
REMARK    2  A    between atoms: C5_5  and  C6_6 
ROOT
HETATM    1  C2  UNL     1     -36.094  15.854  -6.740  1.00 20.00     0.003 C 
HETATM    2  C3  UNL     1     -34.912  14.901  -6.486  1.00 20.00     0.026 C 
HETATM    3  C4  UNL     1     -36.042  16.237  -5.252  1.00 20.00     0.026 C 
HETATM    4  C5  UNL     1     -35.287  14.899  -4.971  1.00 20.00     0.110 C 
ENDROOT
BRANCH   4   5
HETATM    5  C1  UNL     1     -36.215  13.748  -4.573  1.00 20.00     0.249 C 
HETATM    6  O7  UNL     1     -35.838  12.587  -4.451  1.00 20.00    -0.306 OA
ENDBRANCH   4   5
BRANCH   4   7
HETATM    7  C6  UNL     1     -34.086  15.010  -3.990  1.00 20.00     0.401 C 
HETATM    8  F8  UNL     1     -33.247  13.981  -4.181  1.00 20.00    -0.170 F 
HETATM    9  F9  UNL     1     -33.428  16.157  -4.205  1.00 20.00    -0.170 F 
HETATM   10  F10 UNL     1     -34.527  14.986  -2.725  1.00 20.00    -0.170 F 
ENDBRANCH   4   7
TORSDOF 2
ENDMDL
MODEL 3
REMARK VINA RESULT:      -4.2      1.476      1.857
REMARK  2 active torsions:
REMARK  status: ('A' for Active; 'I' for Inactive)
REMARK    1  A    between atoms: C1_1  and  C5_5 
REMARK    2  A    between atoms: C5_5  and  C6_6 
ROOT
HETATM    1  C2  UNL     1     -36.050  16.530  -3.103  1.00 20.00     0.003 C 
HETATM    2  C3  UNL     1     -35.350  16.462  -4.471  1.00 20.00     0.026 C 
HETATM    3  C4  UNL     1     -35.161  15.362  -2.644  1.00 20.00     0.026 C 
HETATM    4  C5  UNL     1     -34.934  14.993  -4.144  1.00 20.00     0.110 C 
ENDROOT
BRANCH   4   5
HETATM    5  C1  UNL     1     -35.921  13.947  -4.670  1.00 20.00     0.249 C 
HETATM    6  O7  UNL     1     -35.805  12.744  -4.462  1.00 20.00    -0.306 OA
ENDBRANCH   4   5
BRANCH   4   7
HETATM    7  C6  UNL     1     -33.473  14.618  -4.520  1.00 20.00     0.401 C 
HETATM    8  F8  UNL     1     -33.187  13.390  -4.066  1.00 20.00    -0.170 F 
HETATM    9  F9  UNL     1     -33.327  14.639  -5.852  1.00 20.00    -0.170 F 
HETATM   10  F10 UNL     1     -32.623  15.497  -3.971  1.00 20.00    -0.170 F 
ENDBRANCH   4   7
TORSDOF 2
ENDMDL
MODEL 4
REMARK VINA RESULT:      -4.2     10.979     11.993
REMARK  2 active torsions:
REMARK  status: ('A' for Active; 'I' for Inactive)
REMARK    1  A    between atoms: C1_1  and  C5_5 
REMARK    2  A    between atoms: C5_5  and  C6_6 
ROOT
HETATM    1  C2  UNL     1     -43.049   5.080   1.109  1.00 20.00     0.003 C 
HETATM    2  C3  UNL     1     -43.387   6.562   1.344  1.00 20.00     0.026 C 
HETATM    3  C4  UNL     1     -41.854   5.538   0.255  1.00 20.00     0.026 C 
HETATM    4  C5  UNL     1     -42.565   6.915   0.064  1.00 20.00     0.110 C 
ENDROOT
BRANCH   4   5
HETATM    5  C1  UNL     1     -43.417   6.990  -1.206  1.00 20.00     0.249 C 
HETATM    6  O7  UNL     1     -43.332   7.901  -2.023  1.00 20.00    -0.306 OA
ENDBRANCH   4   5
BRANCH   4   7
HETATM    7  C6  UNL     1     -41.643   8.160   0.191  1.00 20.00     0.401 C 
HETATM    8  F8  UNL     1     -42.388   9.266   0.322  1.00 20.00    -0.170 F 
HETATM    9  F9  UNL     1     -40.853   8.033   1.266  1.00 20.00    -0.170 F 
HETATM   10  F10 UNL     1     -40.879   8.273  -0.904  1.00 20.00    -0.170 F 
ENDBRANCH   4   7
TORSDOF 2
ENDMDL
MODEL 5
REMARK VINA RESULT:      -4.2     11.230     12.337
REMARK  2 active torsions:
REMARK  status: ('A' for Active; 'I' for Inactive)
REMARK    1  A    between atoms: C1_1  and  C5_5 
REMARK    2  A    between atoms: C5_5  and  C6_6 
ROOT
HETATM    1  C2  UNL     1     -42.337   4.741  -1.843  1.00 20.00     0.003 C 
HETATM    2  C3  UNL     1     -41.131   5.304  -1.071  1.00 20.00     0.026 C 
HETATM    3  C4  UNL     1     -43.148   5.958  -1.367  1.00 20.00     0.026 C 
HETATM    4  C5  UNL     1     -42.123   6.140  -0.202  1.00 20.00     0.110 C 
ENDROOT
BRANCH   4   5
HETATM    5  C1  UNL     1     -42.541   5.438   1.093  1.00 20.00     0.249 C 
HETATM    6  O7  UNL     1     -43.409   5.869   1.845  1.00 20.00    -0.306 OA
ENDBRANCH   4   5
BRANCH   4   7
HETATM    7  C6  UNL     1     -41.689   7.606   0.074  1.00 20.00     0.401 C 
HETATM    8  F8  UNL     1     -40.885   7.648   1.146  1.00 20.00    -0.170 F 
HETATM    9  F9  UNL     1     -41.032   8.094  -0.986  1.00 20.00    -0.170 F 
HETATM   10  F10 UNL     1     -42.769   8.365   0.309  1.00 20.00    -0.170 F 
ENDBRANCH   4   7
TORSDOF 2
ENDMDL
MODEL 6
REMARK VINA RESULT:      -4.1      2.078      2.841
REMARK  2 active torsions:
REMARK  status: ('A' for Active; 'I' for Inactive)
REMARK    1  A    between atoms: C1_1  and  C5_5 
REMARK    2  A    between atoms: C5_5  and  C6_6 
ROOT
HETATM    1  C2  UNL     1     -33.301  15.989  -3.046  1.00 20.00     0.003 C 
HETATM    2  C3  UNL     1     -33.421  15.042  -4.253  1.00 20.00     0.026 C 
HETATM    3  C4  UNL     1     -34.778  15.697  -2.731  1.00 20.00     0.026 C 
HETATM    4  C5  UNL     1     -34.969  15.250  -4.215  1.00 20.00     0.110 C 
ENDROOT
BRANCH   4   5
HETATM    5  C1  UNL     1     -35.456  16.375  -5.132  1.00 20.00     0.249 C 
HETATM    6  O7  UNL     1     -36.640  16.583  -5.375  1.00 20.00    -0.306 OA
ENDBRANCH   4   5
BRANCH   4   7
HETATM    7  C6  UNL     1     -35.815  13.962  -4.415  1.00 20.00     0.401 C 
HETATM    8  F8  UNL     1     -37.016  14.112  -3.838  1.00 20.00    -0.170 F 
HETATM    9  F9  UNL     1     -35.984  13.727  -5.723  1.00 20.00    -0.170 F 
HETATM   10  F10 UNL     1     -35.190  12.915  -3.857  1.00 20.00    -0.170 F 
ENDBRANCH   4   7
TORSDOF 2
ENDMDL
MODEL 7
REMARK VINA RESULT:      -4.1      2.081      2.643
REMARK  2 active torsions:
REMARK  status: ('A' for Active; 'I' for Inactive)
REMARK    1  A    between atoms: C1_1  and  C5_5 
REMARK    2  A    between atoms: C5_5  and  C6_6 
ROOT
HETATM    1  C2  UNL     1     -33.645  16.629  -2.278  1.00 20.00     0.003 C 
HETATM    2  C3  UNL     1     -33.358  15.850  -3.573  1.00 20.00     0.026 C 
HETATM    3  C4  UNL     1     -35.030  15.963  -2.240  1.00 20.00     0.026 C 
HETATM    4  C5  UNL     1     -34.898  15.685  -3.771  1.00 20.00     0.110 C 
ENDROOT
BRANCH   4   5
HETATM    5  C1  UNL     1     -35.521  16.777  -4.645  1.00 20.00     0.249 C 
HETATM    6  O7  UNL     1     -36.724  16.858  -4.869  1.00 20.00    -0.306 OA
ENDBRANCH   4   5
BRANCH   4   7
HETATM    7  C6  UNL     1     -35.360  14.273  -4.231  1.00 20.00     0.401 C 
HETATM    8  F8  UNL     1     -34.564  13.337  -3.695  1.00 20.00    -0.170 F 
HETATM    9  F9  UNL     1     -36.621  14.056  -3.834  1.00 20.00    -0.170 F 
HETATM   10  F10 UNL     1     -35.298  14.187  -5.567  1.00 20.00    -0.170 F 
ENDBRANCH   4   7
TORSDOF 2
ENDMDL
MODEL 8
REMARK VINA RESULT:      -4.0      1.944      2.651
REMARK  2 active torsions:
REMARK  status: ('A' for Active; 'I' for Inactive)
REMARK    1  A    between atoms: C1_1  and  C5_5 
REMARK    2  A    between atoms: C5_5  and  C6_6 
ROOT
HETATM    1  C2  UNL     1     -34.028  16.993  -1.935  1.00 20.00     0.003 C 
HETATM    2  C3  UNL     1     -32.976  16.794  -3.040  1.00 20.00     0.026 C 
HETATM    3  C4  UNL     1     -34.731  15.722  -2.442  1.00 20.00     0.026 C 
HETATM    4  C5  UNL     1     -34.008  15.913  -3.813  1.00 20.00     0.110 C 
ENDROOT
BRANCH   4   5
HETATM    5  C1  UNL     1     -34.836  16.698  -4.835  1.00 20.00     0.249 C 
HETATM    6  O7  UNL     1     -35.942  16.340  -5.226  1.00 20.00    -0.306 OA
ENDBRANCH   4   5
BRANCH   4   7
HETATM    7  C6  UNL     1     -33.430  14.616  -4.444  1.00 20.00     0.401 C 
HETATM    8  F8  UNL     1     -34.112  13.551  -4.000  1.00 20.00    -0.170 F 
HETATM    9  F9  UNL     1     -33.530  14.676  -5.779  1.00 20.00    -0.170 F 
HETATM   10  F10 UNL     1     -32.140  14.481  -4.106  1.00 20.00    -0.170 F 
ENDBRANCH   4   7
TORSDOF 2
ENDMDL
MODEL 9
REMARK VINA RESULT:      -4.0      1.466      2.131
REMARK  2 active torsions:
REMARK  status: ('A' for Active; 'I' for Inactive)
REMARK    1  A    between atoms: C1_1  and  C5_5 
REMARK    2  A    between atoms: C5_5  and  C6_6 
ROOT
HETATM    1  C2  UNL     1     -33.605  16.026  -2.915  1.00 20.00     0.003 C 
HETATM    2  C3  UNL     1     -35.026  15.611  -2.497  1.00 20.00     0.026 C 
HETATM    3  C4  UNL     1     -34.064  15.945  -4.381  1.00 20.00     0.026 C 
HETATM    4  C5  UNL     1     -35.232  15.014  -3.925  1.00 20.00     0.110 C 
ENDROOT
BRANCH   4   5
HETATM    5  C1  UNL     1     -34.895  13.523  -4.017  1.00 20.00     0.249 C 
HETATM    6  O7  UNL     1     -35.710  12.664  -4.337  1.00 20.00    -0.306 OA
ENDBRANCH   4   5
BRANCH   4   7
HETATM    7  C6  UNL     1     -36.611  15.313  -4.576  1.00 20.00     0.401 C 
HETATM    8  F8  UNL     1     -37.577  14.653  -3.921  1.00 20.00    -0.170 F 
HETATM    9  F9  UNL     1     -36.864  16.628  -4.520  1.00 20.00    -0.170 F 
HETATM   10  F10 UNL     1     -36.604  14.921  -5.857  1.00 20.00    -0.170 F 
ENDBRANCH   4   7
TORSDOF 2
ENDMDL
