MODEL 1
REMARK VINA RESULT:      -4.6      0.000      0.000
REMARK  1 active torsions:
REMARK  status: ('A' for Active; 'I' for Inactive)
REMARK    1  A    between atoms: C10_10  and  O11_11 
ROOT
HETATM    1  C1  UNL     1     -35.104  16.423  -1.454  1.00 20.00     0.012 C 
HETATM    2  C2  UNL     1     -33.610  18.828  -4.543  1.00 20.00     0.015 C 
HETATM    3  C3  UNL     1     -34.657  15.966  -2.470  1.00 20.00    -0.108 C 
HETATM    4  C4  UNL     1     -33.962  17.695  -4.725  1.00 20.00    -0.078 C 
HETATM    5  C5  UNL     1     -36.123  13.957  -4.340  1.00 20.00     0.002 C 
HETATM    6  C6  UNL     1     -36.396  14.842  -5.552  1.00 20.00     0.004 C 
HETATM    7  C7  UNL     1     -34.647  13.977  -3.939  1.00 20.00     0.021 C 
HETATM    8  C8  UNL     1     -35.882  16.269  -5.345  1.00 20.00     0.053 C 
HETATM    9  C9  UNL     1     -34.107  15.403  -3.723  1.00 20.00     0.111 C 
HETATM   10  C10 UNL     1     -34.395  16.302  -4.952  1.00 20.00     0.134 C 
ENDROOT
BRANCH  10  11
HETATM   11  O11 UNL     1     -33.654  15.790  -6.067  1.00 20.00    -0.376 OA
HETATM   12  H23 UNL     1     -33.536  14.843  -5.902  1.00 20.00     0.211 HD
ENDBRANCH  10  11
TORSDOF 1
ENDMDL
MODEL 2
REMARK VINA RESULT:      -4.5      1.802      2.345
REMARK  1 active torsions:
REMARK  status: ('A' for Active; 'I' for Inactive)
REMARK    1  A    between atoms: C10_10  and  O11_11 
ROOT
HETATM    1  C1  UNL     1     -35.923  17.394  -0.580  1.00 20.00     0.012 C 
HETATM    2  C2  UNL     1     -31.903  18.232  -1.413  1.00 20.00     0.015 C 
HETATM    3  C3  UNL     1     -35.279  16.752  -1.362  1.00 20.00    -0.108 C 
HETATM    4  C4  UNL     1     -32.595  17.601  -2.163  1.00 20.00    -0.078 C 
HETATM    5  C5  UNL     1     -36.079  16.174  -4.313  1.00 20.00     0.002 C 
HETATM    6  C6  UNL     1     -35.049  17.018  -5.058  1.00 20.00     0.004 C 
HETATM    7  C7  UNL     1     -35.421  15.230  -3.305  1.00 20.00     0.021 C 
HETATM    8  C8  UNL     1     -34.121  17.766  -4.099  1.00 20.00     0.053 C 
HETATM    9  C9  UNL     1     -34.483  15.960  -2.327  1.00 20.00     0.111 C 
HETATM   10  C10 UNL     1     -33.446  16.824  -3.087  1.00 20.00     0.134 C 
ENDROOT
BRANCH  10  11
HETATM   11  O11 UNL     1     -32.592  15.948  -3.835  1.00 20.00    -0.376 OA
HETATM   12  H23 UNL     1     -33.166  15.473  -4.454  1.00 20.00     0.211 HD
ENDBRANCH  10  11
TORSDOF 1
ENDMDL
MODEL 3
REMARK VINA RESULT:      -4.4      1.589      2.914
REMARK  1 active torsions:
REMARK  status: ('A' for Active; 'I' for Inactive)
REMARK    1  A    between atoms: C10_10  and  O11_11 
ROOT
HETATM    1  C1  UNL     1     -34.679  18.557  -5.240  1.00 20.00     0.012 C 
HETATM    2  C2  UNL     1     -33.951  15.385  -7.879  1.00 20.00     0.015 C 
HETATM    3  C3  UNL     1     -34.128  17.548  -4.899  1.00 20.00    -0.108 C 
HETATM    4  C4  UNL     1     -33.968  15.237  -6.687  1.00 20.00    -0.078 C 
HETATM    5  C5  UNL     1     -34.976  15.753  -2.503  1.00 20.00     0.002 C 
HETATM    6  C6  UNL     1     -35.497  14.523  -3.239  1.00 20.00     0.004 C 
HETATM    7  C7  UNL     1     -33.563  16.132  -2.953  1.00 20.00     0.021 C 
HETATM    8  C8  UNL     1     -35.408  14.684  -4.758  1.00 20.00     0.053 C 
HETATM    9  C9  UNL     1     -33.449  16.302  -4.479  1.00 20.00     0.111 C 
HETATM   10  C10 UNL     1     -33.989  15.054  -5.222  1.00 20.00     0.134 C 
ENDROOT
BRANCH  10  11
HETATM   11  O11 UNL     1     -33.141  13.941  -4.909  1.00 20.00    -0.376 OA
HETATM   12  H23 UNL     1     -32.231  14.251  -5.030  1.00 20.00     0.211 HD
ENDBRANCH  10  11
TORSDOF 1
ENDMDL
MODEL 4
REMARK VINA RESULT:      -4.3      2.003      3.829
REMARK  1 active torsions:
REMARK  status: ('A' for Active; 'I' for Inactive)
REMARK    1  A    between atoms: C10_10  and  O11_11 
ROOT
HETATM    1  C1  UNL     1     -32.937  14.506  -4.532  1.00 20.00     0.012 C 
HETATM    2  C2  UNL     1     -37.118  14.276  -4.396  1.00 20.00     0.015 C 
HETATM    3  C3  UNL     1     -33.588  15.084  -3.707  1.00 20.00    -0.108 C 
HETATM    4  C4  UNL     1     -36.508  15.171  -3.879  1.00 20.00    -0.078 C 
HETATM    5  C5  UNL     1     -33.439  18.132  -3.102  1.00 20.00     0.002 C 
HETATM    6  C6  UNL     1     -34.789  18.596  -3.640  1.00 20.00     0.004 C 
HETATM    7  C7  UNL     1     -33.585  16.974  -2.113  1.00 20.00     0.021 C 
HETATM    8  C8  UNL     1     -35.596  17.440  -4.234  1.00 20.00     0.053 C 
HETATM    9  C9  UNL     1     -34.393  15.796  -2.689  1.00 20.00     0.111 C 
HETATM   10  C10 UNL     1     -35.759  16.273  -3.243  1.00 20.00     0.134 C 
ENDROOT
BRANCH  10  11
HETATM   11  O11 UNL     1     -36.544  16.760  -2.147  1.00 20.00    -0.376 OA
HETATM   12  H23 UNL     1     -37.339  16.209  -2.118  1.00 20.00     0.211 HD
ENDBRANCH  10  11
TORSDOF 1
ENDMDL
MODEL 5
REMARK VINA RESULT:      -4.3      2.097      4.000
REMARK  1 active torsions:
REMARK  status: ('A' for Active; 'I' for Inactive)
REMARK    1  A    between atoms: C10_10  and  O11_11 
ROOT
HETATM    1  C1  UNL     1     -36.629  17.473  -6.300  1.00 20.00     0.012 C 
HETATM    2  C2  UNL     1     -38.993  14.730  -4.192  1.00 20.00     0.015 C 
HETATM    3  C3  UNL     1     -36.310  16.326  -6.153  1.00 20.00    -0.108 C 
HETATM    4  C4  UNL     1     -37.819  14.556  -4.379  1.00 20.00    -0.078 C 
HETATM    5  C5  UNL     1     -33.600  15.343  -4.985  1.00 20.00     0.002 C 
HETATM    6  C6  UNL     1     -34.057  14.773  -3.646  1.00 20.00     0.004 C 
HETATM    7  C7  UNL     1     -34.397  14.761  -6.154  1.00 20.00     0.021 C 
HETATM    8  C8  UNL     1     -35.565  14.931  -3.441  1.00 20.00     0.053 C 
HETATM    9  C9  UNL     1     -35.918  14.911  -5.973  1.00 20.00     0.111 C 
HETATM   10  C10 UNL     1     -36.377  14.340  -4.607  1.00 20.00     0.134 C 
ENDROOT
BRANCH  10  11
HETATM   11  O11 UNL     1     -36.141  12.926  -4.608  1.00 20.00    -0.376 OA
HETATM   12  H23 UNL     1     -36.393  12.610  -5.488  1.00 20.00     0.211 HD
ENDBRANCH  10  11
TORSDOF 1
ENDMDL
MODEL 6
REMARK VINA RESULT:      -4.3      1.789      2.187
REMARK  1 active torsions:
REMARK  status: ('A' for Active; 'I' for Inactive)
REMARK    1  A    between atoms: C10_10  and  O11_11 
ROOT
HETATM    1  C1  UNL     1     -37.045  16.630  -3.385  1.00 20.00     0.012 C 
HETATM    2  C2  UNL     1     -32.945  16.770  -2.535  1.00 20.00     0.015 C 
HETATM    3  C3  UNL     1     -36.297  15.735  -3.666  1.00 20.00    -0.108 C 
HETATM    4  C4  UNL     1     -33.402  16.040  -3.371  1.00 20.00    -0.078 C 
HETATM    5  C5  UNL     1     -35.972  14.479  -6.494  1.00 20.00     0.002 C 
HETATM    6  C6  UNL     1     -34.578  14.974  -6.867  1.00 20.00     0.004 C 
HETATM    7  C7  UNL     1     -35.982  13.773  -5.136  1.00 20.00     0.021 C 
HETATM    8  C8  UNL     1     -33.967  15.846  -5.768  1.00 20.00     0.053 C 
HETATM    9  C9  UNL     1     -35.374  14.632  -4.013  1.00 20.00     0.111 C 
HETATM   10  C10 UNL     1     -33.963  15.142  -4.400  1.00 20.00     0.134 C 
ENDROOT
BRANCH  10  11
HETATM   11  O11 UNL     1     -33.091  14.009  -4.514  1.00 20.00    -0.376 OA
HETATM   12  H23 UNL     1     -33.641  13.228  -4.359  1.00 20.00     0.211 HD
ENDBRANCH  10  11
TORSDOF 1
ENDMDL
MODEL 7
REMARK VINA RESULT:      -4.2      1.413      3.247
REMARK  1 active torsions:
REMARK  status: ('A' for Active; 'I' for Inactive)
REMARK    1  A    between atoms: C10_10  and  O11_11 
ROOT
HETATM    1  C1  UNL     1     -36.946  14.002  -4.475  1.00 20.00     0.012 C 
HETATM    2  C2  UNL     1     -33.994  15.084  -7.245  1.00 20.00     0.015 C 
HETATM    3  C3  UNL     1     -36.418  15.080  -4.468  1.00 20.00    -0.108 C 
HETATM    4  C4  UNL     1     -34.124  15.648  -6.193  1.00 20.00    -0.078 C 
HETATM    5  C5  UNL     1     -35.017  16.387  -2.017  1.00 20.00     0.002 C 
HETATM    6  C6  UNL     1     -33.558  16.329  -2.458  1.00 20.00     0.004 C 
HETATM    7  C7  UNL     1     -35.906  17.053  -3.069  1.00 20.00     0.021 C 
HETATM    8  C8  UNL     1     -33.402  15.674  -3.832  1.00 20.00     0.053 C 
HETATM    9  C9  UNL     1     -35.767  16.409  -4.461  1.00 20.00     0.111 C 
HETATM   10  C10 UNL     1     -34.283  16.343  -4.901  1.00 20.00     0.134 C 
ENDROOT
BRANCH  10  11
HETATM   11  O11 UNL     1     -33.801  17.684  -5.063  1.00 20.00    -0.376 OA
HETATM   12  H23 UNL     1     -34.378  18.100  -5.720  1.00 20.00     0.211 HD
ENDBRANCH  10  11
TORSDOF 1
ENDMDL
MODEL 8
REMARK VINA RESULT:      -4.2      1.397      2.869
REMARK  1 active torsions:
REMARK  status: ('A' for Active; 'I' for Inactive)
REMARK    1  A    between atoms: C10_10  and  O11_11 
ROOT
HETATM    1  C1  UNL     1     -36.494  13.665  -4.458  1.00 20.00     0.012 C 
HETATM    2  C2  UNL     1     -35.064  16.342  -1.569  1.00 20.00     0.015 C 
HETATM    3  C3  UNL     1     -35.438  14.224  -4.563  1.00 20.00    -0.108 C 
HETATM    4  C4  UNL     1     -34.659  16.341  -2.699  1.00 20.00    -0.078 C 
HETATM    5  C5  UNL     1     -34.528  15.914  -7.011  1.00 20.00     0.002 C 
HETATM    6  C6  UNL     1     -34.544  17.317  -6.411  1.00 20.00     0.004 C 
HETATM    7  C7  UNL     1     -33.701  14.942  -6.168  1.00 20.00     0.021 C 
HETATM    8  C8  UNL     1     -34.992  17.308  -4.948  1.00 20.00     0.053 C 
HETATM    9  C9  UNL     1     -34.135  14.914  -4.691  1.00 20.00     0.111 C 
HETATM   10  C10 UNL     1     -34.159  16.341  -4.088  1.00 20.00     0.134 C 
ENDROOT
BRANCH  10  11
HETATM   11  O11 UNL     1     -32.817  16.845  -4.071  1.00 20.00    -0.376 OA
HETATM   12  H23 UNL     1     -32.274  16.185  -4.526  1.00 20.00     0.211 HD
ENDBRANCH  10  11
TORSDOF 1
ENDMDL
MODEL 9
REMARK VINA RESULT:      -4.2      1.676      2.434
REMARK  1 active torsions:
REMARK  status: ('A' for Active; 'I' for Inactive)
REMARK    1  A    between atoms: C10_10  and  O11_11 
ROOT
HETATM    1  C1  UNL     1     -35.054  16.344  -1.796  1.00 20.00     0.012 C 
HETATM    2  C2  UNL     1     -32.392  14.430  -4.405  1.00 20.00     0.015 C 
HETATM    3  C3  UNL     1     -35.425  15.665  -2.713  1.00 20.00    -0.108 C 
HETATM    4  C4  UNL     1     -33.534  14.651  -4.702  1.00 20.00    -0.078 C 
HETATM    5  C5  UNL     1     -37.420  16.559  -4.926  1.00 20.00     0.002 C 
HETATM    6  C6  UNL     1     -36.489  16.642  -6.132  1.00 20.00     0.004 C 
HETATM    7  C7  UNL     1     -37.325  15.203  -4.224  1.00 20.00     0.021 C 
HETATM    8  C8  UNL     1     -35.046  16.289  -5.766  1.00 20.00     0.053 C 
HETATM    9  C9  UNL     1     -35.882  14.827  -3.844  1.00 20.00     0.111 C 
HETATM   10  C10 UNL     1     -34.938  14.922  -5.069  1.00 20.00     0.134 C 
ENDROOT
BRANCH  10  11
HETATM   11  O11 UNL     1     -35.340  13.931  -6.024  1.00 20.00    -0.376 OA
HETATM   12  H23 UNL     1     -34.878  14.147  -6.848  1.00 20.00     0.211 HD
ENDBRANCH  10  11
TORSDOF 1
ENDMDL
