MODEL 1
REMARK VINA RESULT:      -4.4      0.000      0.000
REMARK  0 active torsions:
REMARK  status: ('A' for Active; 'I' for Inactive)
ROOT
HETATM    1  C1  UNL     1     -25.425  18.888   7.513  1.00 20.00     0.014 C 
HETATM    2  C2  UNL     1     -24.828  18.829   8.553  1.00 20.00    -0.081 C 
HETATM    3  C3  UNL     1     -24.659  16.220  11.209  1.00 20.00     0.035 C 
HETATM    4  C4  UNL     1     -23.116  17.809  12.332  1.00 20.00     0.035 C 
HETATM    5  C5  UNL     1     -25.064  18.659  11.031  1.00 20.00     0.053 C 
HETATM    6  C6  UNL     1     -23.817  16.333   9.928  1.00 20.00     0.274 C 
HETATM    7  C7  UNL     1     -22.270  17.779  11.049  1.00 20.00     0.274 C 
HETATM    8  C8  UNL     1     -24.096  18.756   9.831  1.00 20.00     0.300 C 
HETATM    9  C9  UNL     1     -24.589  17.545  11.980  1.00 20.00    -0.008 C 
HETATM   10  N10 UNL     1     -23.116  17.637   9.840  1.00 20.00     0.104 N 
ENDROOT
TORSDOF 0
ENDMDL
MODEL 2
REMARK VINA RESULT:      -4.3     16.811     18.336
REMARK  0 active torsions:
REMARK  status: ('A' for Active; 'I' for Inactive)
ROOT
HETATM    1  C1  UNL     1     -33.756  15.139  -7.670  1.00 20.00     0.014 C 
HETATM    2  C2  UNL     1     -34.118  15.130  -6.526  1.00 20.00    -0.081 C 
HETATM    3  C3  UNL     1     -33.415  17.393  -3.649  1.00 20.00     0.035 C 
HETATM    4  C4  UNL     1     -34.890  15.846  -2.385  1.00 20.00     0.035 C 
HETATM    5  C5  UNL     1     -33.369  14.966  -4.152  1.00 20.00     0.053 C 
HETATM    6  C6  UNL     1     -34.505  17.528  -4.724  1.00 20.00     0.274 C 
HETATM    7  C7  UNL     1     -35.967  16.123  -3.447  1.00 20.00     0.274 C 
HETATM    8  C8  UNL     1     -34.563  15.120  -5.119  1.00 20.00     0.300 C 
HETATM    9  C9  UNL     1     -33.497  15.997  -3.016  1.00 20.00    -0.008 C 
HETATM   10  N10 UNL     1     -35.370  16.325  -4.789  1.00 20.00     0.104 N 
ENDROOT
TORSDOF 0
ENDMDL
MODEL 3
REMARK VINA RESULT:      -4.2     22.942     24.426
REMARK  0 active torsions:
REMARK  status: ('A' for Active; 'I' for Inactive)
ROOT
HETATM    1  C1  UNL     1     -43.062   3.608  -2.477  1.00 20.00     0.014 C 
HETATM    2  C2  UNL     1     -42.715   4.359  -1.608  1.00 20.00    -0.081 C 
HETATM    3  C3  UNL     1     -42.088   8.033  -1.560  1.00 20.00     0.035 C 
HETATM    4  C4  UNL     1     -41.531   7.662   0.831  1.00 20.00     0.035 C 
HETATM    5  C5  UNL     1     -40.936   5.948  -0.877  1.00 20.00     0.053 C 
HETATM    6  C6  UNL     1     -43.417   7.289  -1.349  1.00 20.00     0.274 C 
HETATM    7  C7  UNL     1     -42.925   7.030   0.982  1.00 20.00     0.274 C 
HETATM    8  C8  UNL     1     -42.289   5.283  -0.539  1.00 20.00     0.300 C 
HETATM    9  C9  UNL     1     -41.030   7.460  -0.608  1.00 20.00    -0.008 C 
HETATM   10  N10 UNL     1     -43.330   6.303  -0.245  1.00 20.00     0.104 N 
ENDROOT
TORSDOF 0
ENDMDL
MODEL 4
REMARK VINA RESULT:      -4.2     15.330     17.314
REMARK  0 active torsions:
REMARK  status: ('A' for Active; 'I' for Inactive)
ROOT
HETATM    1  C1  UNL     1     -32.551  18.715  -1.996  1.00 20.00     0.014 C 
HETATM    2  C2  UNL     1     -32.919  17.615  -2.303  1.00 20.00    -0.081 C 
HETATM    3  C3  UNL     1     -35.757  16.406  -4.395  1.00 20.00     0.035 C 
HETATM    4  C4  UNL     1     -34.885  14.148  -3.841  1.00 20.00     0.035 C 
HETATM    5  C5  UNL     1     -34.794  15.977  -2.151  1.00 20.00     0.053 C 
HETATM    6  C6  UNL     1     -34.347  16.821  -4.847  1.00 20.00     0.274 C 
HETATM    7  C7  UNL     1     -33.535  14.608  -4.415  1.00 20.00     0.274 C 
HETATM    8  C8  UNL     1     -33.372  16.263  -2.681  1.00 20.00     0.300 C 
HETATM    9  C9  UNL     1     -35.643  15.360  -3.277  1.00 20.00    -0.008 C 
HETATM   10  N10 UNL     1     -33.292  16.046  -4.150  1.00 20.00     0.104 N 
ENDROOT
TORSDOF 0
ENDMDL
MODEL 5
REMARK VINA RESULT:      -4.2     22.446     23.900
REMARK  0 active torsions:
REMARK  status: ('A' for Active; 'I' for Inactive)
ROOT
HETATM    1  C1  UNL     1     -41.326   9.706   0.332  1.00 20.00     0.014 C 
HETATM    2  C2  UNL     1     -41.946   8.680   0.277  1.00 20.00    -0.081 C 
HETATM    3  C3  UNL     1     -41.152   5.338  -1.169  1.00 20.00     0.035 C 
HETATM    4  C4  UNL     1     -43.417   4.720  -0.362  1.00 20.00     0.035 C 
HETATM    5  C5  UNL     1     -42.984   7.005  -1.254  1.00 20.00     0.053 C 
HETATM    6  C6  UNL     1     -40.817   5.875   0.232  1.00 20.00     0.274 C 
HETATM    7  C7  UNL     1     -42.964   5.177   1.034  1.00 20.00     0.274 C 
HETATM    8  C8  UNL     1     -42.707   7.418   0.208  1.00 20.00     0.300 C 
HETATM    9  C9  UNL     1     -42.654   5.513  -1.434  1.00 20.00    -0.008 C 
HETATM   10  N10 UNL     1     -42.030   6.325   0.956  1.00 20.00     0.104 N 
ENDROOT
TORSDOF 0
ENDMDL
MODEL 6
REMARK VINA RESULT:      -4.1     16.123     18.114
REMARK  0 active torsions:
REMARK  status: ('A' for Active; 'I' for Inactive)
ROOT
HETATM    1  C1  UNL     1     -35.183  17.026  -0.753  1.00 20.00     0.014 C 
HETATM    2  C2  UNL     1     -34.908  16.850  -1.907  1.00 20.00    -0.081 C 
HETATM    3  C3  UNL     1     -35.025  13.829  -4.087  1.00 20.00     0.035 C 
HETATM    4  C4  UNL     1     -34.171  15.361  -5.844  1.00 20.00     0.035 C 
HETATM    5  C5  UNL     1     -33.417  15.616  -3.483  1.00 20.00     0.053 C 
HETATM    6  C6  UNL     1     -36.151  14.830  -3.784  1.00 20.00     0.274 C 
HETATM    7  C7  UNL     1     -35.389  16.254  -5.554  1.00 20.00     0.274 C 
HETATM    8  C8  UNL     1     -34.570  16.632  -3.327  1.00 20.00     0.300 C 
HETATM    9  C9  UNL     1     -33.784  14.592  -4.571  1.00 20.00    -0.008 C 
HETATM   10  N10 UNL     1     -35.759  16.220  -4.119  1.00 20.00     0.104 N 
ENDROOT
TORSDOF 0
ENDMDL
MODEL 7
REMARK VINA RESULT:      -4.1     15.664     17.519
REMARK  0 active torsions:
REMARK  status: ('A' for Active; 'I' for Inactive)
ROOT
HETATM    1  C1  UNL     1     -36.211  13.675  -4.746  1.00 20.00     0.014 C 
HETATM    2  C2  UNL     1     -35.573  14.335  -3.973  1.00 20.00    -0.081 C 
HETATM    3  C3  UNL     1     -34.252  17.817  -4.134  1.00 20.00     0.035 C 
HETATM    4  C4  UNL     1     -33.350  17.320  -1.875  1.00 20.00     0.035 C 
HETATM    5  C5  UNL     1     -33.418  15.541  -3.618  1.00 20.00     0.053 C 
HETATM    6  C6  UNL     1     -35.638  17.343  -3.667  1.00 20.00     0.274 C 
HETATM    7  C7  UNL     1     -34.788  16.970  -1.458  1.00 20.00     0.274 C 
HETATM    8  C8  UNL     1     -34.788  15.148  -3.024  1.00 20.00     0.300 C 
HETATM    9  C9  UNL     1     -33.168  17.040  -3.375  1.00 20.00    -0.008 C 
HETATM   10  N10 UNL     1     -35.542  16.347  -2.572  1.00 20.00     0.104 N 
ENDROOT
TORSDOF 0
ENDMDL
MODEL 8
REMARK VINA RESULT:      -4.1     16.780     18.204
REMARK  0 active torsions:
REMARK  status: ('A' for Active; 'I' for Inactive)
ROOT
HETATM    1  C1  UNL     1     -37.801  14.484  -4.303  1.00 20.00     0.014 C 
HETATM    2  C2  UNL     1     -36.919  15.266  -4.076  1.00 20.00    -0.081 C 
HETATM    3  C3  UNL     1     -33.205  14.964  -4.174  1.00 20.00     0.035 C 
HETATM    4  C4  UNL     1     -33.236  17.343  -3.463  1.00 20.00     0.035 C 
HETATM    5  C5  UNL     1     -34.959  15.757  -2.612  1.00 20.00     0.053 C 
HETATM    6  C6  UNL     1     -34.165  15.313  -5.324  1.00 20.00     0.274 C 
HETATM    7  C7  UNL     1     -34.104  17.625  -4.701  1.00 20.00     0.274 C 
HETATM    8  C8  UNL     1     -35.834  16.226  -3.796  1.00 20.00     0.300 C 
HETATM    9  C9  UNL     1     -33.474  15.901  -2.988  1.00 20.00    -0.008 C 
HETATM   10  N10 UNL     1     -35.007  16.490  -5.003  1.00 20.00     0.104 N 
ENDROOT
TORSDOF 0
ENDMDL
MODEL 9
REMARK VINA RESULT:      -4.0      1.744      3.179
REMARK  0 active torsions:
REMARK  status: ('A' for Active; 'I' for Inactive)
ROOT
HETATM    1  C1  UNL     1     -28.130  17.439  12.332  1.00 20.00     0.014 C 
HETATM    2  C2  UNL     1     -26.938  17.295  12.322  1.00 20.00    -0.081 C 
HETATM    3  C3  UNL     1     -24.361  17.865   9.690  1.00 20.00     0.035 C 
HETATM    4  C4  UNL     1     -22.767  17.074  11.422  1.00 20.00     0.035 C 
HETATM    5  C5  UNL     1     -25.042  16.071  11.258  1.00 20.00     0.053 C 
HETATM    6  C6  UNL     1     -24.933  18.874  10.700  1.00 20.00     0.274 C 
HETATM    7  C7  UNL     1     -23.320  18.184  12.332  1.00 20.00     0.274 C 
HETATM    8  C8  UNL     1     -25.474  17.120  12.307  1.00 20.00     0.300 C 
HETATM    9  C9  UNL     1     -23.861  16.624  10.441  1.00 20.00    -0.008 C 
HETATM   10  N10 UNL     1     -24.766  18.411  12.098  1.00 20.00     0.104 N 
ENDROOT
TORSDOF 0
ENDMDL
