MODEL 1
REMARK VINA RESULT:      -4.7      0.000      0.000
REMARK  1 active torsions:
REMARK  status: ('A' for Active; 'I' for Inactive)
REMARK    1  A    between atoms: C6_6  and  N10_10 
ROOT
HETATM    1  C1  UNL     1     -32.638   7.785   1.487  1.00 20.00     0.064 C 
HETATM    2  C2  UNL     1     -33.061   5.413   2.089  1.00 20.00     0.021 C 
HETATM    3  C3  UNL     1     -33.930   5.058   3.296  1.00 20.00     0.037 C 
HETATM    4  C4  UNL     1     -32.828   7.086   3.861  1.00 20.00     0.055 C 
HETATM    5  C5  UNL     1     -32.332   6.719   2.455  1.00 20.00     0.095 C 
HETATM    6  C6  UNL     1     -34.189   6.402   3.965  1.00 20.00     0.223 C 
HETATM    7  N9  UNL     1     -32.878   8.626   0.724  1.00 20.00    -0.197 NA
ENDROOT
BRANCH   6   8
HETATM    8  N10 UNL     1     -34.657   6.281   5.336  1.00 20.00     0.084 N 
HETATM    9  C7  UNL     1     -33.769   6.999   6.255  1.00 20.00     0.309 C 
HETATM   10  C8  UNL     1     -34.758   4.874   5.730  1.00 20.00     0.309 C 
ENDBRANCH   6   8
TORSDOF 1
ENDMDL
MODEL 2
REMARK VINA RESULT:      -4.4     11.127     11.764
REMARK  1 active torsions:
REMARK  status: ('A' for Active; 'I' for Inactive)
REMARK    1  A    between atoms: C6_6  and  N10_10 
ROOT
HETATM    1  C1  UNL     1     -35.579  13.966  -4.440  1.00 20.00     0.064 C 
HETATM    2  C2  UNL     1     -33.660  15.468  -3.966  1.00 20.00     0.021 C 
HETATM    3  C3  UNL     1     -33.603  16.274  -2.667  1.00 20.00     0.037 C 
HETATM    4  C4  UNL     1     -35.905  16.108  -3.230  1.00 20.00     0.055 C 
HETATM    5  C5  UNL     1     -35.149  15.370  -4.344  1.00 20.00     0.095 C 
HETATM    6  C6  UNL     1     -34.965  16.032  -2.029  1.00 20.00     0.223 C 
HETATM    7  N9  UNL     1     -35.918  12.859  -4.516  1.00 20.00    -0.197 NA
ENDROOT
BRANCH   6   8
HETATM    8  N10 UNL     1     -35.294  16.997  -0.993  1.00 20.00     0.084 N 
HETATM    9  C7  UNL     1     -36.469  17.788  -1.372  1.00 20.00     0.309 C 
HETATM   10  C8  UNL     1     -34.157  17.882  -0.724  1.00 20.00     0.309 C 
ENDBRANCH   6   8
TORSDOF 1
ENDMDL
MODEL 3
REMARK VINA RESULT:      -4.3     11.265     12.536
REMARK  1 active torsions:
REMARK  status: ('A' for Active; 'I' for Inactive)
REMARK    1  A    between atoms: C6_6  and  N10_10 
ROOT
HETATM    1  C1  UNL     1     -31.727  18.341  -1.032  1.00 20.00     0.064 C 
HETATM    2  C2  UNL     1     -34.080  17.551  -0.967  1.00 20.00     0.021 C 
HETATM    3  C3  UNL     1     -34.565  16.468  -1.932  1.00 20.00     0.037 C 
HETATM    4  C4  UNL     1     -32.914  17.701  -3.115  1.00 20.00     0.055 C 
HETATM    5  C5  UNL     1     -33.020  18.363  -1.734  1.00 20.00     0.095 C 
HETATM    6  C6  UNL     1     -33.388  16.269  -2.877  1.00 20.00     0.223 C 
HETATM    7  N9  UNL     1     -30.707  18.324  -0.478  1.00 20.00    -0.197 NA
ENDROOT
BRANCH   6   8
HETATM    8  N10 UNL     1     -33.747  15.582  -4.107  1.00 20.00     0.084 N 
HETATM    9  C7  UNL     1     -34.412  16.496  -5.040  1.00 20.00     0.309 C 
HETATM   10  C8  UNL     1     -34.611  14.432  -3.828  1.00 20.00     0.309 C 
ENDBRANCH   6   8
TORSDOF 1
ENDMDL
MODEL 4
REMARK VINA RESULT:      -4.2     11.026     11.747
REMARK  1 active torsions:
REMARK  status: ('A' for Active; 'I' for Inactive)
REMARK    1  A    between atoms: C6_6  and  N10_10 
ROOT
HETATM    1  C1  UNL     1     -35.519  13.917  -4.360  1.00 20.00     0.064 C 
HETATM    2  C2  UNL     1     -33.563  15.306  -3.720  1.00 20.00     0.021 C 
HETATM    3  C3  UNL     1     -33.659  16.303  -2.565  1.00 20.00     0.037 C 
HETATM    4  C4  UNL     1     -35.817  16.246  -3.559  1.00 20.00     0.055 C 
HETATM    5  C5  UNL     1     -34.955  15.276  -4.378  1.00 20.00     0.095 C 
HETATM    6  C6  UNL     1     -35.136  16.286  -2.192  1.00 20.00     0.223 C 
HETATM    7  N9  UNL     1     -35.964  12.845  -4.347  1.00 20.00    -0.197 NA
ENDROOT
BRANCH   6   8
HETATM    8  N10 UNL     1     -35.541  17.430  -1.393  1.00 20.00     0.084 N 
HETATM    9  C7  UNL     1     -35.440  17.129   0.038  1.00 20.00     0.309 C 
HETATM   10  C8  UNL     1     -36.908  17.841  -1.725  1.00 20.00     0.309 C 
ENDBRANCH   6   8
TORSDOF 1
ENDMDL
MODEL 5
REMARK VINA RESULT:      -4.1     11.432     12.189
REMARK  1 active torsions:
REMARK  status: ('A' for Active; 'I' for Inactive)
REMARK    1  A    between atoms: C6_6  and  N10_10 
ROOT
HETATM    1  C1  UNL     1     -34.062  14.917  -5.614  1.00 20.00     0.064 C 
HETATM    2  C2  UNL     1     -35.193  14.848  -3.405  1.00 20.00     0.021 C 
HETATM    3  C3  UNL     1     -34.902  15.913  -2.347  1.00 20.00     0.037 C 
HETATM    4  C4  UNL     1     -32.875  15.621  -3.552  1.00 20.00     0.055 C 
HETATM    5  C5  UNL     1     -33.879  14.643  -4.180  1.00 20.00     0.095 C 
HETATM    6  C6  UNL     1     -33.752  16.713  -2.944  1.00 20.00     0.223 C 
HETATM    7  N9  UNL     1     -34.206  15.131  -6.746  1.00 20.00    -0.197 NA
ENDROOT
BRANCH   6   8
HETATM    8  N10 UNL     1     -33.046  17.523  -1.965  1.00 20.00     0.084 N 
HETATM    9  C7  UNL     1     -33.918  17.851  -0.833  1.00 20.00     0.309 C 
HETATM   10  C8  UNL     1     -32.532  18.752  -2.577  1.00 20.00     0.309 C 
ENDBRANCH   6   8
TORSDOF 1
ENDMDL
MODEL 6
REMARK VINA RESULT:      -4.0     11.511     12.039
REMARK  1 active torsions:
REMARK  status: ('A' for Active; 'I' for Inactive)
REMARK    1  A    between atoms: C6_6  and  N10_10 
ROOT
HETATM    1  C1  UNL     1     -36.642  14.496  -4.590  1.00 20.00     0.064 C 
HETATM    2  C2  UNL     1     -34.188  14.741  -4.875  1.00 20.00     0.021 C 
HETATM    3  C3  UNL     1     -33.330  15.344  -3.761  1.00 20.00     0.037 C 
HETATM    4  C4  UNL     1     -35.435  16.439  -3.628  1.00 20.00     0.055 C 
HETATM    5  C5  UNL     1     -35.548  15.458  -4.803  1.00 20.00     0.095 C 
HETATM    6  C6  UNL     1     -34.351  15.832  -2.741  1.00 20.00     0.223 C 
HETATM    7  N9  UNL     1     -37.505  13.738  -4.423  1.00 20.00    -0.197 NA
ENDROOT
BRANCH   6   8
HETATM    8  N10 UNL     1     -33.802  16.784  -1.789  1.00 20.00     0.084 N 
HETATM    9  C7  UNL     1     -34.862  17.357  -0.954  1.00 20.00     0.309 C 
HETATM   10  C8  UNL     1     -33.073  17.851  -2.480  1.00 20.00     0.309 C 
ENDBRANCH   6   8
TORSDOF 1
ENDMDL
MODEL 7
REMARK VINA RESULT:      -4.0     11.108     12.828
REMARK  1 active torsions:
REMARK  status: ('A' for Active; 'I' for Inactive)
REMARK    1  A    between atoms: C6_6  and  N10_10 
ROOT
HETATM    1  C1  UNL     1     -36.924  14.230  -4.599  1.00 20.00     0.064 C 
HETATM    2  C2  UNL     1     -34.563  14.200  -3.834  1.00 20.00     0.021 C 
HETATM    3  C3  UNL     1     -33.852  15.497  -3.445  1.00 20.00     0.037 C 
HETATM    4  C4  UNL     1     -35.374  16.080  -5.175  1.00 20.00     0.055 C 
HETATM    5  C5  UNL     1     -35.540  14.568  -4.965  1.00 20.00     0.095 C 
HETATM    6  C6  UNL     1     -34.845  16.585  -3.834  1.00 20.00     0.223 C 
HETATM    7  N9  UNL     1     -38.017  13.962  -4.311  1.00 20.00    -0.197 NA
ENDROOT
BRANCH   6   8
HETATM    8  N10 UNL     1     -34.244  17.905  -3.926  1.00 20.00     0.084 N 
HETATM    9  C7  UNL     1     -34.119  18.325  -5.325  1.00 20.00     0.309 C 
HETATM   10  C8  UNL     1     -32.931  17.928  -3.275  1.00 20.00     0.309 C 
ENDBRANCH   6   8
TORSDOF 1
ENDMDL
MODEL 8
REMARK VINA RESULT:      -4.0     11.508     12.372
REMARK  1 active torsions:
REMARK  status: ('A' for Active; 'I' for Inactive)
REMARK    1  A    between atoms: C6_6  and  N10_10 
ROOT
HETATM    1  C1  UNL     1     -33.945  14.861  -5.207  1.00 20.00     0.064 C 
HETATM    2  C2  UNL     1     -35.196  15.042  -3.070  1.00 20.00     0.021 C 
HETATM    3  C3  UNL     1     -35.208  16.353  -2.283  1.00 20.00     0.037 C 
HETATM    4  C4  UNL     1     -33.082  16.247  -3.339  1.00 20.00     0.055 C 
HETATM    5  C5  UNL     1     -33.815  14.960  -3.745  1.00 20.00     0.095 C 
HETATM    6  C6  UNL     1     -34.206  17.231  -3.023  1.00 20.00     0.223 C 
HETATM    7  N9  UNL     1     -34.048  14.781  -6.360  1.00 20.00    -0.197 NA
ENDROOT
BRANCH   6   8
HETATM    8  N10 UNL     1     -33.756  18.372  -2.244  1.00 20.00     0.084 N 
HETATM    9  C7  UNL     1     -32.584  18.997  -2.864  1.00 20.00     0.309 C 
HETATM   10  C8  UNL     1     -33.444  17.974  -0.868  1.00 20.00     0.309 C 
ENDBRANCH   6   8
TORSDOF 1
ENDMDL
MODEL 9
REMARK VINA RESULT:      -3.9     11.339     12.132
REMARK  1 active torsions:
REMARK  status: ('A' for Active; 'I' for Inactive)
REMARK    1  A    between atoms: C6_6  and  N10_10 
ROOT
HETATM    1  C1  UNL     1     -33.628  17.994  -2.477  1.00 20.00     0.064 C 
HETATM    2  C2  UNL     1     -33.037  15.815  -3.511  1.00 20.00     0.021 C 
HETATM    3  C3  UNL     1     -34.122  14.911  -4.098  1.00 20.00     0.037 C 
HETATM    4  C4  UNL     1     -35.131  16.032  -2.261  1.00 20.00     0.055 C 
HETATM    5  C5  UNL     1     -33.681  16.533  -2.311  1.00 20.00     0.095 C 
HETATM    6  C6  UNL     1     -35.422  15.596  -3.696  1.00 20.00     0.223 C 
HETATM    7  N9  UNL     1     -33.586  19.147  -2.607  1.00 20.00    -0.197 NA
ENDROOT
BRANCH   6   8
HETATM    8  N10 UNL     1     -36.583  14.728  -3.797  1.00 20.00     0.084 N 
HETATM    9  C7  UNL     1     -36.298  13.572  -4.652  1.00 20.00     0.309 C 
HETATM   10  C8  UNL     1     -37.740  15.464  -4.315  1.00 20.00     0.309 C 
ENDBRANCH   6   8
TORSDOF 1
ENDMDL
