MODEL 1
REMARK VINA RESULT:      -4.7      0.000      0.000
REMARK  1 active torsions:
REMARK  status: ('A' for Active; 'I' for Inactive)
REMARK    1  A    between atoms: C1_1  and  C6_6 
ROOT
HETATM    1  C2  UNL     1     -34.325  16.112  -2.353  1.00 20.00     0.001 C 
HETATM    2  C3  UNL     1     -33.261  15.741  -3.371  1.00 20.00     0.001 C 
HETATM    3  C4  UNL     1     -35.656  15.952  -3.088  1.00 20.00     0.018 C 
HETATM    4  C5  UNL     1     -33.912  14.605  -4.146  1.00 20.00     0.018 C 
HETATM    5  C6  UNL     1     -35.367  15.063  -4.314  1.00 20.00     0.032 C 
HETATM    6  C7  UNL     1     -35.512  15.869  -5.580  1.00 20.00     0.025 C 
ENDROOT
BRANCH   5   7
HETATM    7  C1  UNL     1     -36.328  13.881  -4.417  1.00 20.00     0.227 C 
HETATM    8  O8  UNL     1     -35.923  12.732  -4.569  1.00 20.00    -0.279 OA
HETATM    9 CL9  UNL     1     -37.990  14.375  -4.295  1.00 20.00    -0.043 Cl
ENDBRANCH   5   7
TORSDOF 1
ENDMDL
MODEL 2
REMARK VINA RESULT:      -4.4     12.323     12.825
REMARK  1 active torsions:
REMARK  status: ('A' for Active; 'I' for Inactive)
REMARK    1  A    between atoms: C1_1  and  C6_6 
ROOT
HETATM    1  C2  UNL     1     -32.783   6.051   2.571  1.00 20.00     0.001 C 
HETATM    2  C3  UNL     1     -33.374   4.667   2.364  1.00 20.00     0.001 C 
HETATM    3  C4  UNL     1     -33.722   6.742   3.561  1.00 20.00     0.018 C 
HETATM    4  C5  UNL     1     -33.905   4.312   3.744  1.00 20.00     0.018 C 
HETATM    5  C6  UNL     1     -34.529   5.622   4.246  1.00 20.00     0.032 C 
HETATM    6  C7  UNL     1     -35.975   5.698   3.825  1.00 20.00     0.025 C 
ENDROOT
BRANCH   5   7
HETATM    7  C1  UNL     1     -34.493   5.723   5.769  1.00 20.00     0.227 C 
HETATM    8  O8  UNL     1     -34.931   4.827   6.485  1.00 20.00    -0.279 OA
HETATM    9 CL9  UNL     1     -33.780   7.213   6.309  1.00 20.00    -0.043 Cl
ENDBRANCH   5   7
TORSDOF 1
ENDMDL
MODEL 3
REMARK VINA RESULT:      -4.4      1.314      1.491
REMARK  1 active torsions:
REMARK  status: ('A' for Active; 'I' for Inactive)
REMARK    1  A    between atoms: C1_1  and  C6_6 
ROOT
HETATM    1  C2  UNL     1     -34.492  16.673  -1.618  1.00 20.00     0.001 C 
HETATM    2  C3  UNL     1     -33.275  17.059  -2.440  1.00 20.00     0.001 C 
HETATM    3  C4  UNL     1     -35.421  15.949  -2.593  1.00 20.00     0.018 C 
HETATM    4  C5  UNL     1     -33.108  15.874  -3.380  1.00 20.00     0.018 C 
HETATM    5  C6  UNL     1     -34.546  15.525  -3.790  1.00 20.00     0.032 C 
HETATM    6  C7  UNL     1     -34.937  16.309  -5.017  1.00 20.00     0.025 C 
ENDROOT
BRANCH   5   7
HETATM    7  C1  UNL     1     -34.698  14.044  -4.129  1.00 20.00     0.227 C 
HETATM    8  O8  UNL     1     -33.739  13.278  -4.115  1.00 20.00    -0.279 OA
HETATM    9 CL9  UNL     1     -36.340  13.627  -4.515  1.00 20.00    -0.043 Cl
ENDBRANCH   5   7
TORSDOF 1
ENDMDL
MODEL 4
REMARK VINA RESULT:      -4.4     18.300     18.925
REMARK  1 active torsions:
REMARK  status: ('A' for Active; 'I' for Inactive)
REMARK    1  A    between atoms: C1_1  and  C6_6 
ROOT
HETATM    1  C2  UNL     1     -25.572  17.021  12.064  1.00 20.00     0.001 C 
HETATM    2  C3  UNL     1     -24.712  15.844  11.640  1.00 20.00     0.001 C 
HETATM    3  C4  UNL     1     -24.735  18.262  11.749  1.00 20.00     0.018 C 
HETATM    4  C5  UNL     1     -24.015  16.362  10.391  1.00 20.00     0.018 C 
HETATM    5  C6  UNL     1     -23.655  17.811  10.745  1.00 20.00     0.032 C 
HETATM    6  C7  UNL     1     -22.296  17.861  11.396  1.00 20.00     0.025 C 
ENDROOT
BRANCH   5   7
HETATM    7  C1  UNL     1     -23.598  18.704   9.508  1.00 20.00     0.227 C 
HETATM    8  O8  UNL     1     -22.531  19.084   9.035  1.00 20.00    -0.279 OA
HETATM    9 CL9  UNL     1     -25.182  19.080   8.900  1.00 20.00    -0.043 Cl
ENDBRANCH   5   7
TORSDOF 1
ENDMDL
MODEL 5
REMARK VINA RESULT:      -4.3      1.858      2.502
REMARK  1 active torsions:
REMARK  status: ('A' for Active; 'I' for Inactive)
REMARK    1  A    between atoms: C1_1  and  C6_6 
ROOT
HETATM    1  C2  UNL     1     -33.369  16.141  -2.986  1.00 20.00     0.001 C 
HETATM    2  C3  UNL     1     -34.728  15.983  -2.328  1.00 20.00     0.001 C 
HETATM    3  C4  UNL     1     -33.348  15.107  -4.113  1.00 20.00     0.018 C 
HETATM    4  C5  UNL     1     -35.645  15.679  -3.504  1.00 20.00     0.018 C 
HETATM    5  C6  UNL     1     -34.818  14.724  -4.376  1.00 20.00     0.032 C 
HETATM    6  C7  UNL     1     -35.062  13.298  -3.953  1.00 20.00     0.025 C 
ENDROOT
BRANCH   5   7
HETATM    7  C1  UNL     1     -35.194  14.831  -5.852  1.00 20.00     0.227 C 
HETATM    8  O8  UNL     1     -35.910  13.995  -6.396  1.00 20.00    -0.279 OA
HETATM    9 CL9  UNL     1     -34.498  16.234  -6.605  1.00 20.00    -0.043 Cl
ENDBRANCH   5   7
TORSDOF 1
ENDMDL
MODEL 6
REMARK VINA RESULT:      -4.3     10.368     11.593
REMARK  1 active torsions:
REMARK  status: ('A' for Active; 'I' for Inactive)
REMARK    1  A    between atoms: C1_1  and  C6_6 
ROOT
HETATM    1  C2  UNL     1     -41.645   8.878   0.308  1.00 20.00     0.001 C 
HETATM    2  C3  UNL     1     -43.140   8.773   0.067  1.00 20.00     0.001 C 
HETATM    3  C4  UNL     1     -41.179   7.444   0.565  1.00 20.00     0.018 C 
HETATM    4  C5  UNL     1     -43.272   7.464  -0.697  1.00 20.00     0.018 C 
HETATM    5  C6  UNL     1     -42.286   6.525   0.011  1.00 20.00     0.032 C 
HETATM    6  C7  UNL     1     -42.977   5.811   1.145  1.00 20.00     0.025 C 
ENDROOT
BRANCH   5   7
HETATM    7  C1  UNL     1     -41.739   5.456  -0.933  1.00 20.00     0.227 C 
HETATM    8  O8  UNL     1     -40.536   5.341  -1.148  1.00 20.00    -0.279 OA
HETATM    9 CL9  UNL     1     -43.003   4.480  -1.618  1.00 20.00    -0.043 Cl
ENDBRANCH   5   7
TORSDOF 1
ENDMDL
MODEL 7
REMARK VINA RESULT:      -4.3      0.910      1.684
REMARK  1 active torsions:
REMARK  status: ('A' for Active; 'I' for Inactive)
REMARK    1  A    between atoms: C1_1  and  C6_6 
ROOT
HETATM    1  C2  UNL     1     -34.833  17.267  -4.258  1.00 20.00     0.001 C 
HETATM    2  C3  UNL     1     -34.246  16.823  -2.930  1.00 20.00     0.001 C 
HETATM    3  C4  UNL     1     -34.908  15.997  -5.107  1.00 20.00     0.018 C 
HETATM    4  C5  UNL     1     -34.865  15.448  -2.726  1.00 20.00     0.018 C 
HETATM    5  C6  UNL     1     -34.819  14.813  -4.123  1.00 20.00     0.032 C 
HETATM    6  C7  UNL     1     -33.515  14.081  -4.314  1.00 20.00     0.025 C 
ENDROOT
BRANCH   5   7
HETATM    7  C1  UNL     1     -35.943  13.799  -4.325  1.00 20.00     0.227 C 
HETATM    8  O8  UNL     1     -35.713  12.601  -4.458  1.00 20.00    -0.279 OA
HETATM    9 CL9  UNL     1     -37.509  14.552  -4.338  1.00 20.00    -0.043 Cl
ENDBRANCH   5   7
TORSDOF 1
ENDMDL
MODEL 8
REMARK VINA RESULT:      -4.0      2.386      3.417
REMARK  1 active torsions:
REMARK  status: ('A' for Active; 'I' for Inactive)
REMARK    1  A    between atoms: C1_1  and  C6_6 
ROOT
HETATM    1  C2  UNL     1     -36.188  13.965  -4.902  1.00 20.00     0.001 C 
HETATM    2  C3  UNL     1     -35.519  14.703  -6.049  1.00 20.00     0.001 C 
HETATM    3  C4  UNL     1     -35.147  13.939  -3.782  1.00 20.00     0.018 C 
HETATM    4  C5  UNL     1     -34.703  15.772  -5.337  1.00 20.00     0.018 C 
HETATM    5  C6  UNL     1     -34.122  15.039  -4.120  1.00 20.00     0.032 C 
HETATM    6  C7  UNL     1     -32.796  14.415  -4.477  1.00 20.00     0.025 C 
ENDROOT
BRANCH   5   7
HETATM    7  C1  UNL     1     -33.875  15.988  -2.948  1.00 20.00     0.227 C 
HETATM    8  O8  UNL     1     -32.826  16.616  -2.838  1.00 20.00    -0.279 OA
HETATM    9 CL9  UNL     1     -35.225  16.042  -1.855  1.00 20.00    -0.043 Cl
ENDBRANCH   5   7
TORSDOF 1
ENDMDL
MODEL 9
REMARK VINA RESULT:      -4.0     12.133     12.602
REMARK  1 active torsions:
REMARK  status: ('A' for Active; 'I' for Inactive)
REMARK    1  A    between atoms: C1_1  and  C6_6 
ROOT
HETATM    1  C2  UNL     1     -34.199   4.959   6.276  1.00 20.00     0.001 C 
HETATM    2  C3  UNL     1     -34.379   6.467   6.241  1.00 20.00     0.001 C 
HETATM    3  C4  UNL     1     -34.445   4.494   4.840  1.00 20.00     0.018 C 
HETATM    4  C5  UNL     1     -33.795   6.850   4.889  1.00 20.00     0.018 C 
HETATM    5  C6  UNL     1     -34.291   5.742   3.949  1.00 20.00     0.032 C 
HETATM    6  C7  UNL     1     -35.627   6.123   3.362  1.00 20.00     0.025 C 
ENDROOT
BRANCH   5   7
HETATM    7  C1  UNL     1     -33.332   5.513   2.783  1.00 20.00     0.227 C 
HETATM    8  O8  UNL     1     -33.148   4.395   2.310  1.00 20.00    -0.279 OA
HETATM    9 CL9  UNL     1     -32.581   6.988   2.253  1.00 20.00    -0.043 Cl
ENDBRANCH   5   7
TORSDOF 1
ENDMDL
