MODEL 1
REMARK VINA RESULT:      -4.6      0.000      0.000
REMARK  1 active torsions:
REMARK  status: ('A' for Active; 'I' for Inactive)
REMARK    1  A    between atoms: C2_2  and  C3_3 
ROOT
HETATM    1  C1  UNL     1     -35.724  16.092  -3.612  1.00 20.00    -0.007 C 
HETATM    2  C2  UNL     1     -35.084  15.005  -4.054  1.00 20.00    -0.012 C 
HETATM    3  C4  UNL     1     -33.469  16.285  -2.920  1.00 20.00     0.022 C 
HETATM    4  C5  UNL     1     -33.705  14.873  -3.493  1.00 20.00     0.019 C 
HETATM    5  C6  UNL     1     -34.869  16.888  -2.662  1.00 20.00    -0.029 C 
HETATM    6  C8  UNL     1     -32.632  14.496  -4.508  1.00 20.00     0.015 C 
HETATM    7  C9  UNL     1     -35.323  16.661  -1.216  1.00 20.00     0.019 C 
HETATM    8  C10 UNL     1     -34.896  18.382  -2.996  1.00 20.00     0.019 C 
ENDROOT
BRANCH   2   9
HETATM    9  C3  UNL     1     -35.724  14.044  -4.935  1.00 20.00     0.151 C 
HETATM   10  C7  UNL     1     -35.991  14.446  -6.370  1.00 20.00     0.096 C 
HETATM   11  O11 UNL     1     -36.053  12.921  -4.527  1.00 20.00    -0.293 OA
ENDBRANCH   2   9
TORSDOF 1
ENDMDL
MODEL 2
REMARK VINA RESULT:      -4.3     10.949     12.177
REMARK  1 active torsions:
REMARK  status: ('A' for Active; 'I' for Inactive)
REMARK    1  A    between atoms: C2_2  and  C3_3 
ROOT
HETATM    1  C1  UNL     1     -41.672   7.353  -1.088  1.00 20.00    -0.007 C 
HETATM    2  C2  UNL     1     -42.105   6.130  -0.767  1.00 20.00    -0.012 C 
HETATM    3  C4  UNL     1     -42.963   7.569   0.885  1.00 20.00     0.022 C 
HETATM    4  C5  UNL     1     -43.126   6.142   0.325  1.00 20.00     0.019 C 
HETATM    5  C6  UNL     1     -42.341   8.412  -0.253  1.00 20.00    -0.029 C 
HETATM    6  C8  UNL     1     -42.920   5.091   1.409  1.00 20.00     0.015 C 
HETATM    7  C9  UNL     1     -43.417   9.137  -1.070  1.00 20.00     0.019 C 
HETATM    8  C10 UNL     1     -41.329   9.420   0.298  1.00 20.00     0.019 C 
ENDROOT
BRANCH   2   9
HETATM    9  C3  UNL     1     -41.652   4.945  -1.476  1.00 20.00     0.151 C 
HETATM   10  C7  UNL     1     -42.677   4.110  -2.213  1.00 20.00     0.096 C 
HETATM   11  O11 UNL     1     -40.458   4.617  -1.475  1.00 20.00    -0.293 OA
ENDBRANCH   2   9
TORSDOF 1
ENDMDL
MODEL 3
REMARK VINA RESULT:      -4.3      1.311      2.457
REMARK  1 active torsions:
REMARK  status: ('A' for Active; 'I' for Inactive)
REMARK    1  A    between atoms: C2_2  and  C3_3 
ROOT
HETATM    1  C1  UNL     1     -35.296  15.373  -2.932  1.00 20.00    -0.007 C 
HETATM    2  C2  UNL     1     -35.907  15.578  -4.103  1.00 20.00    -0.012 C 
HETATM    3  C4  UNL     1     -35.560  17.713  -3.178  1.00 20.00     0.022 C 
HETATM    4  C5  UNL     1     -35.932  17.018  -4.503  1.00 20.00     0.019 C 
HETATM    5  C6  UNL     1     -34.796  16.663  -2.337  1.00 20.00    -0.029 C 
HETATM    6  C8  UNL     1     -37.270  17.515  -5.036  1.00 20.00     0.015 C 
HETATM    7  C9  UNL     1     -33.280  16.786  -2.524  1.00 20.00     0.019 C 
HETATM    8  C10 UNL     1     -35.156  16.777  -0.853  1.00 20.00     0.019 C 
ENDROOT
BRANCH   2   9
HETATM    9  C3  UNL     1     -36.422  14.479  -4.902  1.00 20.00     0.151 C 
HETATM   10  C7  UNL     1     -35.860  14.273  -6.292  1.00 20.00     0.096 C 
HETATM   11  O11 UNL     1     -37.306  13.730  -4.464  1.00 20.00    -0.293 OA
ENDBRANCH   2   9
TORSDOF 1
ENDMDL
MODEL 4
REMARK VINA RESULT:      -4.3      1.462      2.461
REMARK  1 active torsions:
REMARK  status: ('A' for Active; 'I' for Inactive)
REMARK    1  A    between atoms: C2_2  and  C3_3 
ROOT
HETATM    1  C1  UNL     1     -34.584  15.652  -2.639  1.00 20.00    -0.007 C 
HETATM    2  C2  UNL     1     -34.950  15.746  -3.921  1.00 20.00    -0.012 C 
HETATM    3  C4  UNL     1     -35.298  17.880  -2.995  1.00 20.00     0.022 C 
HETATM    4  C5  UNL     1     -35.203  17.155  -4.352  1.00 20.00     0.019 C 
HETATM    5  C6  UNL     1     -34.527  17.004  -1.980  1.00 20.00    -0.029 C 
HETATM    6  C8  UNL     1     -36.466  17.357  -5.181  1.00 20.00     0.015 C 
HETATM    7  C9  UNL     1     -33.072  17.464  -1.829  1.00 20.00     0.019 C 
HETATM    8  C10 UNL     1     -35.223  16.998  -0.616  1.00 20.00     0.019 C 
ENDROOT
BRANCH   2   9
HETATM    9  C3  UNL     1     -35.019  14.582  -4.787  1.00 20.00     0.151 C 
HETATM   10  C7  UNL     1     -36.143  13.590  -4.574  1.00 20.00     0.096 C 
HETATM   11  O11 UNL     1     -34.177  14.395  -5.676  1.00 20.00    -0.293 OA
ENDBRANCH   2   9
TORSDOF 1
ENDMDL
MODEL 5
REMARK VINA RESULT:      -4.3      1.798      2.959
REMARK  1 active torsions:
REMARK  status: ('A' for Active; 'I' for Inactive)
REMARK    1  A    between atoms: C2_2  and  C3_3 
ROOT
HETATM    1  C1  UNL     1     -35.291  15.190  -3.468  1.00 20.00    -0.007 C 
HETATM    2  C2  UNL     1     -36.211  15.387  -4.417  1.00 20.00    -0.012 C 
HETATM    3  C4  UNL     1     -34.307  16.583  -5.109  1.00 20.00     0.022 C 
HETATM    4  C5  UNL     1     -35.657  16.056  -5.634  1.00 20.00     0.019 C 
HETATM    5  C6  UNL     1     -33.940  15.701  -3.893  1.00 20.00    -0.029 C 
HETATM    6  C8  UNL     1     -36.516  17.183  -6.195  1.00 20.00     0.015 C 
HETATM    7  C9  UNL     1     -33.031  14.535  -4.297  1.00 20.00     0.019 C 
HETATM    8  C10 UNL     1     -33.277  16.530  -2.790  1.00 20.00     0.019 C 
ENDROOT
BRANCH   2   9
HETATM    9  C3  UNL     1     -37.580  14.925  -4.267  1.00 20.00     0.151 C 
HETATM   10  C7  UNL     1     -38.643  15.931  -3.882  1.00 20.00     0.096 C 
HETATM   11  O11 UNL     1     -37.876  13.735  -4.442  1.00 20.00    -0.293 OA
ENDBRANCH   2   9
TORSDOF 1
ENDMDL
MODEL 6
REMARK VINA RESULT:      -4.2      2.662      4.633
REMARK  1 active torsions:
REMARK  status: ('A' for Active; 'I' for Inactive)
REMARK    1  A    between atoms: C2_2  and  C3_3 
ROOT
HETATM    1  C1  UNL     1     -33.312  16.639  -4.029  1.00 20.00    -0.007 C 
HETATM    2  C2  UNL     1     -33.416  17.087  -2.775  1.00 20.00    -0.012 C 
HETATM    3  C4  UNL     1     -35.100  15.463  -3.017  1.00 20.00     0.022 C 
HETATM    4  C5  UNL     1     -34.350  16.271  -1.940  1.00 20.00     0.019 C 
HETATM    5  C6  UNL     1     -34.173  15.424  -4.254  1.00 20.00    -0.029 C 
HETATM    6  C8  UNL     1     -35.313  17.078  -1.077  1.00 20.00     0.015 C 
HETATM    7  C9  UNL     1     -33.312  14.155  -4.274  1.00 20.00     0.019 C 
HETATM    8  C10 UNL     1     -34.979  15.535  -5.551  1.00 20.00     0.019 C 
ENDROOT
BRANCH   2   9
HETATM    9  C3  UNL     1     -32.635  18.215  -2.296  1.00 20.00     0.151 C 
HETATM   10  C7  UNL     1     -31.922  18.086  -0.966  1.00 20.00     0.096 C 
HETATM   11  O11 UNL     1     -32.555  19.262  -2.953  1.00 20.00    -0.293 OA
ENDBRANCH   2   9
TORSDOF 1
ENDMDL
MODEL 7
REMARK VINA RESULT:      -4.2      2.408      4.272
REMARK  1 active torsions:
REMARK  status: ('A' for Active; 'I' for Inactive)
REMARK    1  A    between atoms: C2_2  and  C3_3 
ROOT
HETATM    1  C1  UNL     1     -35.301  15.935  -2.432  1.00 20.00    -0.007 C 
HETATM    2  C2  UNL     1     -34.893  16.947  -1.660  1.00 20.00    -0.012 C 
HETATM    3  C4  UNL     1     -33.167  16.593  -3.218  1.00 20.00     0.022 C 
HETATM    4  C5  UNL     1     -33.665  17.620  -2.182  1.00 20.00     0.019 C 
HETATM    5  C6  UNL     1     -34.402  15.755  -3.626  1.00 20.00    -0.029 C 
HETATM    6  C8  UNL     1     -32.599  17.916  -1.134  1.00 20.00     0.015 C 
HETATM    7  C9  UNL     1     -35.070  16.313  -4.888  1.00 20.00     0.019 C 
HETATM    8  C10 UNL     1     -34.027  14.285  -3.834  1.00 20.00     0.019 C 
ENDROOT
BRANCH   2   9
HETATM    9  C3  UNL     1     -35.634  17.357  -0.479  1.00 20.00     0.151 C 
HETATM   10  C7  UNL     1     -36.723  18.396  -0.635  1.00 20.00     0.096 C 
HETATM   11  O11 UNL     1     -35.379  16.876   0.634  1.00 20.00    -0.293 OA
ENDBRANCH   2   9
TORSDOF 1
ENDMDL
MODEL 8
REMARK VINA RESULT:      -4.1      1.287      2.648
REMARK  1 active torsions:
REMARK  status: ('A' for Active; 'I' for Inactive)
REMARK    1  A    between atoms: C2_2  and  C3_3 
ROOT
HETATM    1  C1  UNL     1     -34.464  15.972  -2.166  1.00 20.00    -0.007 C 
HETATM    2  C2  UNL     1     -34.984  15.475  -3.292  1.00 20.00    -0.012 C 
HETATM    3  C4  UNL     1     -36.483  17.138  -2.573  1.00 20.00     0.022 C 
HETATM    4  C5  UNL     1     -36.140  16.272  -3.802  1.00 20.00     0.019 C 
HETATM    5  C6  UNL     1     -35.195  17.211  -1.721  1.00 20.00    -0.029 C 
HETATM    6  C8  UNL     1     -37.340  15.448  -4.256  1.00 20.00     0.015 C 
HETATM    7  C9  UNL     1     -34.373  18.463  -2.047  1.00 20.00     0.019 C 
HETATM    8  C10 UNL     1     -35.520  17.168  -0.225  1.00 20.00     0.019 C 
ENDROOT
BRANCH   2   9
HETATM    9  C3  UNL     1     -34.411  14.314  -3.954  1.00 20.00     0.151 C 
HETATM   10  C7  UNL     1     -33.038  14.443  -4.578  1.00 20.00     0.096 C 
HETATM   11  O11 UNL     1     -35.031  13.243  -4.015  1.00 20.00    -0.293 OA
ENDBRANCH   2   9
TORSDOF 1
ENDMDL
MODEL 9
REMARK VINA RESULT:      -4.0      1.694      2.275
REMARK  1 active torsions:
REMARK  status: ('A' for Active; 'I' for Inactive)
REMARK    1  A    between atoms: C2_2  and  C3_3 
ROOT
HETATM    1  C1  UNL     1     -34.318  16.574  -4.806  1.00 20.00    -0.007 C 
HETATM    2  C2  UNL     1     -35.041  15.541  -5.248  1.00 20.00    -0.012 C 
HETATM    3  C4  UNL     1     -34.997  15.337  -2.905  1.00 20.00     0.022 C 
HETATM    4  C5  UNL     1     -35.734  14.802  -4.148  1.00 20.00     0.019 C 
HETATM    5  C6  UNL     1     -34.404  16.708  -3.308  1.00 20.00    -0.029 C 
HETATM    6  C8  UNL     1     -35.645  13.283  -4.238  1.00 20.00     0.015 C 
HETATM    7  C9  UNL     1     -35.340  17.861  -2.928  1.00 20.00     0.019 C 
HETATM    8  C10 UNL     1     -33.024  16.918  -2.679  1.00 20.00     0.019 C 
ENDROOT
BRANCH   2   9
HETATM    9  C3  UNL     1     -35.166  15.242  -6.664  1.00 20.00     0.151 C 
HETATM   10  C7  UNL     1     -33.912  15.235  -7.513  1.00 20.00     0.096 C 
HETATM   11  O11 UNL     1     -36.270  15.004  -7.173  1.00 20.00    -0.293 OA
ENDBRANCH   2   9
TORSDOF 1
ENDMDL
