MODEL 1
REMARK VINA RESULT:      -4.8      0.000      0.000
REMARK  1 active torsions:
REMARK  status: ('A' for Active; 'I' for Inactive)
REMARK    1  A    between atoms: C3_3  and  C7_7 
ROOT
HETATM    1  C1  UNL     1     -25.478  18.823  11.086  1.00 20.00    -0.023 C 
HETATM    2  C2  UNL     1     -24.789  18.331  10.040  1.00 20.00    -0.075 C 
HETATM    3  C4  UNL     1     -25.777  18.043  12.331  1.00 20.00     0.027 C 
HETATM    4  C5  UNL     1     -25.593  16.540  12.143  1.00 20.00     0.005 C 
HETATM    5  C6  UNL     1     -24.279  16.241  11.433  1.00 20.00     0.018 C 
HETATM    6  C7  UNL     1     -24.199  16.935  10.064  1.00 20.00     0.100 C 
HETATM    7  C8  UNL     1     -24.631  19.134   8.778  1.00 20.00     0.044 C 
ENDROOT
BRANCH   6   8
HETATM    8  C3  UNL     1     -22.756  17.017   9.664  1.00 20.00     0.227 C 
HETATM    9  O9  UNL     1     -22.338  16.482   8.642  1.00 20.00    -0.279 OA
HETATM   10 CL10 UNL     1     -21.813  17.933  10.802  1.00 20.00    -0.043 Cl
ENDBRANCH   6   8
TORSDOF 1
ENDMDL
MODEL 2
REMARK VINA RESULT:      -4.4     23.416     23.822
REMARK  1 active torsions:
REMARK  status: ('A' for Active; 'I' for Inactive)
REMARK    1  A    between atoms: C3_3  and  C7_7 
ROOT
HETATM    1  C1  UNL     1     -43.417   7.434   0.925  1.00 20.00    -0.023 C 
HETATM    2  C2  UNL     1     -42.632   6.364   0.703  1.00 20.00    -0.075 C 
HETATM    3  C4  UNL     1     -43.154   8.795   0.352  1.00 20.00     0.027 C 
HETATM    4  C5  UNL     1     -41.723   8.954  -0.155  1.00 20.00     0.005 C 
HETATM    5  C6  UNL     1     -41.311   7.754  -0.997  1.00 20.00     0.018 C 
HETATM    6  C7  UNL     1     -41.425   6.439  -0.209  1.00 20.00     0.100 C 
HETATM    7  C8  UNL     1     -42.895   5.060   1.408  1.00 20.00     0.044 C 
ENDROOT
BRANCH   6   8
HETATM    8  C3  UNL     1     -41.495   5.309  -1.193  1.00 20.00     0.227 C 
HETATM    9  O9  UNL     1     -40.519   4.608  -1.443  1.00 20.00    -0.279 OA
HETATM   10 CL10 UNL     1     -43.079   5.146  -1.889  1.00 20.00    -0.043 Cl
ENDBRANCH   6   8
TORSDOF 1
ENDMDL
MODEL 3
REMARK VINA RESULT:      -4.3     16.444     17.525
REMARK  1 active torsions:
REMARK  status: ('A' for Active; 'I' for Inactive)
REMARK    1  A    between atoms: C3_3  and  C7_7 
ROOT
HETATM    1  C1  UNL     1     -32.977  15.916  -3.455  1.00 20.00    -0.023 C 
HETATM    2  C2  UNL     1     -33.765  16.498  -2.532  1.00 20.00    -0.075 C 
HETATM    3  C4  UNL     1     -33.419  14.789  -4.340  1.00 20.00     0.027 C 
HETATM    4  C5  UNL     1     -34.681  14.099  -3.829  1.00 20.00     0.005 C 
HETATM    5  C6  UNL     1     -35.734  15.124  -3.429  1.00 20.00     0.018 C 
HETATM    6  C7  UNL     1     -35.212  16.087  -2.351  1.00 20.00     0.100 C 
HETATM    7  C8  UNL     1     -33.214  17.543  -1.601  1.00 20.00     0.044 C 
ENDROOT
BRANCH   6   8
HETATM    8  C3  UNL     1     -36.067  17.319  -2.370  1.00 20.00     0.227 C 
HETATM    9  O9  UNL     1     -36.701  17.681  -1.383  1.00 20.00    -0.279 OA
HETATM   10 CL10 UNL     1     -36.030  18.116  -3.914  1.00 20.00    -0.043 Cl
ENDBRANCH   6   8
TORSDOF 1
ENDMDL
MODEL 4
REMARK VINA RESULT:      -4.2     17.715     18.710
REMARK  1 active torsions:
REMARK  status: ('A' for Active; 'I' for Inactive)
REMARK    1  A    between atoms: C3_3  and  C7_7 
ROOT
HETATM    1  C1  UNL     1     -35.440  17.318  -3.888  1.00 20.00    -0.023 C 
HETATM    2  C2  UNL     1     -36.079  16.135  -3.836  1.00 20.00    -0.075 C 
HETATM    3  C4  UNL     1     -33.958  17.474  -3.717  1.00 20.00     0.027 C 
HETATM    4  C5  UNL     1     -33.306  16.250  -3.080  1.00 20.00     0.005 C 
HETATM    5  C6  UNL     1     -33.798  14.970  -3.742  1.00 20.00     0.018 C 
HETATM    6  C7  UNL     1     -35.326  14.833  -3.652  1.00 20.00     0.100 C 
HETATM    7  C8  UNL     1     -37.581  16.070  -3.899  1.00 20.00     0.044 C 
ENDROOT
BRANCH   6   8
HETATM    8  C3  UNL     1     -35.772  13.867  -4.710  1.00 20.00     0.227 C 
HETATM    9  O9  UNL     1     -36.204  12.753  -4.427  1.00 20.00    -0.279 OA
HETATM   10 CL10 UNL     1     -35.598  14.523  -6.310  1.00 20.00    -0.043 Cl
ENDBRANCH   6   8
TORSDOF 1
ENDMDL
MODEL 5
REMARK VINA RESULT:      -4.2     17.250     18.232
REMARK  1 active torsions:
REMARK  status: ('A' for Active; 'I' for Inactive)
REMARK    1  A    between atoms: C3_3  and  C7_7 
ROOT
HETATM    1  C1  UNL     1     -35.535  15.470  -2.630  1.00 20.00    -0.023 C 
HETATM    2  C2  UNL     1     -35.110  14.829  -3.735  1.00 20.00    -0.075 C 
HETATM    3  C4  UNL     1     -34.773  16.572  -1.959  1.00 20.00     0.027 C 
HETATM    4  C5  UNL     1     -33.308  16.621  -2.388  1.00 20.00     0.005 C 
HETATM    5  C6  UNL     1     -33.184  16.512  -3.901  1.00 20.00     0.018 C 
HETATM    6  C7  UNL     1     -33.824  15.219  -4.434  1.00 20.00     0.100 C 
HETATM    7  C8  UNL     1     -35.873  13.653  -4.282  1.00 20.00     0.044 C 
ENDROOT
BRANCH   6   8
HETATM    8  C3  UNL     1     -34.109  15.406  -5.895  1.00 20.00     0.227 C 
HETATM    9  O9  UNL     1     -33.609  14.678  -6.748  1.00 20.00    -0.279 OA
HETATM   10 CL10 UNL     1     -35.194  16.732  -6.185  1.00 20.00    -0.043 Cl
ENDBRANCH   6   8
TORSDOF 1
ENDMDL
MODEL 6
REMARK VINA RESULT:      -4.2     18.490     19.505
REMARK  1 active torsions:
REMARK  status: ('A' for Active; 'I' for Inactive)
REMARK    1  A    between atoms: C3_3  and  C7_7 
ROOT
HETATM    1  C1  UNL     1     -33.957  14.883  -5.499  1.00 20.00    -0.023 C 
HETATM    2  C2  UNL     1     -35.249  15.233  -5.638  1.00 20.00    -0.075 C 
HETATM    3  C4  UNL     1     -33.229  14.881  -4.188  1.00 20.00     0.027 C 
HETATM    4  C5  UNL     1     -33.949  15.690  -3.113  1.00 20.00     0.005 C 
HETATM    5  C6  UNL     1     -35.434  15.350  -3.084  1.00 20.00     0.018 C 
HETATM    6  C7  UNL     1     -36.103  15.607  -4.444  1.00 20.00     0.100 C 
HETATM    7  C8  UNL     1     -35.877  15.324  -7.002  1.00 20.00     0.044 C 
ENDROOT
BRANCH   6   8
HETATM    8  C3  UNL     1     -37.375  14.814  -4.496  1.00 20.00     0.227 C 
HETATM    9  O9  UNL     1     -37.374  13.588  -4.437  1.00 20.00    -0.279 OA
HETATM   10 CL10 UNL     1     -38.775  15.833  -4.645  1.00 20.00    -0.043 Cl
ENDBRANCH   6   8
TORSDOF 1
ENDMDL
MODEL 7
REMARK VINA RESULT:      -4.2     18.442     19.558
REMARK  1 active torsions:
REMARK  status: ('A' for Active; 'I' for Inactive)
REMARK    1  A    between atoms: C3_3  and  C7_7 
ROOT
HETATM    1  C1  UNL     1     -34.949  17.064  -4.652  1.00 20.00    -0.023 C 
HETATM    2  C2  UNL     1     -34.941  15.809  -4.165  1.00 20.00    -0.075 C 
HETATM    3  C4  UNL     1     -35.007  17.391  -6.115  1.00 20.00     0.027 C 
HETATM    4  C5  UNL     1     -34.645  16.201  -6.999  1.00 20.00     0.005 C 
HETATM    5  C6  UNL     1     -35.372  14.944  -6.538  1.00 20.00     0.018 C 
HETATM    6  C7  UNL     1     -35.049  14.603  -5.075  1.00 20.00     0.100 C 
HETATM    7  C8  UNL     1     -34.762  15.559  -2.692  1.00 20.00     0.044 C 
ENDROOT
BRANCH   6   8
HETATM    8  C3  UNL     1     -36.131  13.704  -4.554  1.00 20.00     0.227 C 
HETATM    9  O9  UNL     1     -35.923  12.520  -4.305  1.00 20.00    -0.279 OA
HETATM   10 CL10 UNL     1     -37.642  14.542  -4.365  1.00 20.00    -0.043 Cl
ENDBRANCH   6   8
TORSDOF 1
ENDMDL
MODEL 8
REMARK VINA RESULT:      -4.1     17.682     18.655
REMARK  1 active torsions:
REMARK  status: ('A' for Active; 'I' for Inactive)
REMARK    1  A    between atoms: C3_3  and  C7_7 
ROOT
HETATM    1  C1  UNL     1     -34.347  15.896  -2.341  1.00 20.00    -0.023 C 
HETATM    2  C2  UNL     1     -34.468  15.457  -3.607  1.00 20.00    -0.075 C 
HETATM    3  C4  UNL     1     -35.375  16.740  -1.648  1.00 20.00     0.027 C 
HETATM    4  C5  UNL     1     -36.356  17.390  -2.621  1.00 20.00     0.005 C 
HETATM    5  C6  UNL     1     -36.860  16.375  -3.638  1.00 20.00     0.018 C 
HETATM    6  C7  UNL     1     -35.707  15.742  -4.432  1.00 20.00     0.100 C 
HETATM    7  C8  UNL     1     -33.341  14.714  -4.273  1.00 20.00     0.044 C 
ENDROOT
BRANCH   6   8
HETATM    8  C3  UNL     1     -36.197  14.452  -5.022  1.00 20.00     0.227 C 
HETATM    9  O9  UNL     1     -36.765  13.604  -4.340  1.00 20.00    -0.279 OA
HETATM   10 CL10 UNL     1     -35.861  14.344  -6.724  1.00 20.00    -0.043 Cl
ENDBRANCH   6   8
TORSDOF 1
ENDMDL
MODEL 9
REMARK VINA RESULT:      -4.0     17.730     18.738
REMARK  1 active torsions:
REMARK  status: ('A' for Active; 'I' for Inactive)
REMARK    1  A    between atoms: C3_3  and  C7_7 
ROOT
HETATM    1  C1  UNL     1     -33.764  16.243  -4.740  1.00 20.00    -0.023 C 
HETATM    2  C2  UNL     1     -35.036  15.883  -4.993  1.00 20.00    -0.075 C 
HETATM    3  C4  UNL     1     -33.196  16.388  -3.360  1.00 20.00     0.027 C 
HETATM    4  C5  UNL     1     -34.276  16.493  -2.287  1.00 20.00     0.005 C 
HETATM    5  C6  UNL     1     -35.345  15.428  -2.490  1.00 20.00     0.018 C 
HETATM    6  C7  UNL     1     -35.999  15.535  -3.876  1.00 20.00     0.100 C 
HETATM    7  C8  UNL     1     -35.566  15.874  -6.401  1.00 20.00     0.044 C 
ENDROOT
BRANCH   6   8
HETATM    8  C3  UNL     1     -36.644  14.217  -4.192  1.00 20.00     0.227 C 
HETATM    9  O9  UNL     1     -37.856  14.114  -4.355  1.00 20.00    -0.279 OA
HETATM   10 CL10 UNL     1     -35.481  12.928  -4.289  1.00 20.00    -0.043 Cl
ENDBRANCH   6   8
TORSDOF 1
ENDMDL
