MODEL 1
REMARK VINA RESULT:      -5.1      0.000      0.000
REMARK  1 active torsions:
REMARK  status: ('A' for Active; 'I' for Inactive)
REMARK    1  A    between atoms: C3_3  and  C7_7 
ROOT
HETATM    1  C1  UNL     1     -32.946  17.041  -2.315  1.00 20.00    -0.030 C 
HETATM    2  C2  UNL     1     -33.017  16.376  -3.479  1.00 20.00    -0.025 C 
HETATM    3  C4  UNL     1     -34.173  17.280  -1.479  1.00 20.00     0.027 C 
HETATM    4  C5  UNL     1     -35.246  16.196  -1.657  1.00 20.00     0.010 C 
HETATM    5  C6  UNL     1     -34.275  15.880  -4.048  1.00 20.00     0.025 A 
HETATM    6  C7  UNL     1     -34.827  14.544  -3.630  1.00 20.00     0.085 A 
HETATM    7  C8  UNL     1     -35.452  15.816  -3.099  1.00 20.00     0.007 A 
ENDROOT
BRANCH   6   8
HETATM    8  C3  UNL     1     -35.576  13.742  -4.606  1.00 20.00     0.224 C 
HETATM    9  O9  UNL     1     -36.019  12.633  -4.323  1.00 20.00    -0.279 OA
HETATM   10 CL10 UNL     1     -35.732  14.551  -6.135  1.00 20.00    -0.043 Cl
ENDBRANCH   6   8
TORSDOF 1
ENDMDL
MODEL 2
REMARK VINA RESULT:      -4.8      0.716      1.765
REMARK  1 active torsions:
REMARK  status: ('A' for Active; 'I' for Inactive)
REMARK    1  A    between atoms: C3_3  and  C7_7 
ROOT
HETATM    1  C1  UNL     1     -34.226  17.312  -1.471  1.00 20.00    -0.030 C 
HETATM    2  C2  UNL     1     -35.261  16.482  -1.675  1.00 20.00    -0.025 C 
HETATM    3  C4  UNL     1     -32.935  17.146  -2.223  1.00 20.00     0.027 C 
HETATM    4  C5  UNL     1     -33.120  16.506  -3.607  1.00 20.00     0.010 C 
HETATM    5  C6  UNL     1     -35.206  15.336  -2.590  1.00 20.00     0.025 A 
HETATM    6  C7  UNL     1     -35.489  15.517  -4.056  1.00 20.00     0.085 A 
HETATM    7  C8  UNL     1     -34.064  15.334  -3.582  1.00 20.00     0.007 A 
ENDROOT
BRANCH   6   8
HETATM    8  C3  UNL     1     -36.132  14.427  -4.802  1.00 20.00     0.224 C 
HETATM    9  O9  UNL     1     -36.875  13.620  -4.251  1.00 20.00    -0.279 OA
HETATM   10 CL10 UNL     1     -35.706  14.447  -6.486  1.00 20.00    -0.043 Cl
ENDBRANCH   6   8
TORSDOF 1
ENDMDL
MODEL 3
REMARK VINA RESULT:      -4.8      1.396      2.136
REMARK  1 active torsions:
REMARK  status: ('A' for Active; 'I' for Inactive)
REMARK    1  A    between atoms: C3_3  and  C7_7 
ROOT
HETATM    1  C1  UNL     1     -34.491  17.450  -1.188  1.00 20.00    -0.030 C 
HETATM    2  C2  UNL     1     -35.246  16.456  -1.681  1.00 20.00    -0.025 C 
HETATM    3  C4  UNL     1     -33.070  17.645  -1.637  1.00 20.00     0.027 C 
HETATM    4  C5  UNL     1     -32.816  17.154  -3.069  1.00 20.00     0.010 C 
HETATM    5  C6  UNL     1     -34.746  15.466  -2.641  1.00 20.00     0.025 A 
HETATM    6  C7  UNL     1     -34.755  15.761  -4.117  1.00 20.00     0.085 A 
HETATM    7  C8  UNL     1     -33.454  15.819  -3.345  1.00 20.00     0.007 A 
ENDROOT
BRANCH   6   8
HETATM    8  C3  UNL     1     -34.966  14.661  -5.066  1.00 20.00     0.224 C 
HETATM    9  O9  UNL     1     -34.358  14.603  -6.131  1.00 20.00    -0.279 OA
HETATM   10 CL10 UNL     1     -36.140  13.517  -4.491  1.00 20.00    -0.043 Cl
ENDBRANCH   6   8
TORSDOF 1
ENDMDL
MODEL 4
REMARK VINA RESULT:      -4.7      1.057      1.929
REMARK  1 active torsions:
REMARK  status: ('A' for Active; 'I' for Inactive)
REMARK    1  A    between atoms: C3_3  and  C7_7 
ROOT
HETATM    1  C1  UNL     1     -34.565  17.341  -1.255  1.00 20.00    -0.030 C 
HETATM    2  C2  UNL     1     -35.265  16.335  -1.801  1.00 20.00    -0.025 C 
HETATM    3  C4  UNL     1     -33.145  17.615  -1.667  1.00 20.00     0.027 C 
HETATM    4  C5  UNL     1     -32.842  17.191  -3.111  1.00 20.00     0.010 C 
HETATM    5  C6  UNL     1     -34.704  15.406  -2.787  1.00 20.00     0.025 A 
HETATM    6  C7  UNL     1     -34.698  15.757  -4.250  1.00 20.00     0.085 A 
HETATM    7  C8  UNL     1     -33.415  15.842  -3.450  1.00 20.00     0.007 A 
ENDROOT
BRANCH   6   8
HETATM    8  C3  UNL     1     -34.842  14.686  -5.245  1.00 20.00     0.224 C 
HETATM    9  O9  UNL     1     -35.500  13.677  -5.014  1.00 20.00    -0.279 OA
HETATM   10 CL10 UNL     1     -33.988  15.041  -6.716  1.00 20.00    -0.043 Cl
ENDBRANCH   6   8
TORSDOF 1
ENDMDL
MODEL 5
REMARK VINA RESULT:      -4.7     10.916     11.565
REMARK  1 active torsions:
REMARK  status: ('A' for Active; 'I' for Inactive)
REMARK    1  A    between atoms: C3_3  and  C7_7 
ROOT
HETATM    1  C1  UNL     1     -34.941   4.998   4.879  1.00 20.00    -0.030 C 
HETATM    2  C2  UNL     1     -34.483   4.984   3.617  1.00 20.00    -0.025 C 
HETATM    3  C4  UNL     1     -34.332   5.896   5.918  1.00 20.00     0.027 C 
HETATM    4  C5  UNL     1     -33.725   7.178   5.329  1.00 20.00     0.010 C 
HETATM    5  C6  UNL     1     -33.342   5.787   3.166  1.00 20.00     0.025 A 
HETATM    6  C7  UNL     1     -33.539   7.214   2.729  1.00 20.00     0.085 A 
HETATM    7  C8  UNL     1     -32.926   6.919   4.081  1.00 20.00     0.007 A 
ENDROOT
BRANCH   6   8
HETATM    8  C3  UNL     1     -32.684   7.762   1.668  1.00 20.00     0.224 C 
HETATM    9  O9  UNL     1     -31.743   7.125   1.205  1.00 20.00    -0.279 OA
HETATM   10 CL10 UNL     1     -33.175   9.360   1.194  1.00 20.00    -0.043 Cl
ENDBRANCH   6   8
TORSDOF 1
ENDMDL
MODEL 6
REMARK VINA RESULT:      -4.7     16.145     17.463
REMARK  1 active torsions:
REMARK  status: ('A' for Active; 'I' for Inactive)
REMARK    1  A    between atoms: C3_3  and  C7_7 
ROOT
HETATM    1  C1  UNL     1     -23.815  18.110  12.330  1.00 20.00    -0.030 C 
HETATM    2  C2  UNL     1     -24.778  18.297  11.415  1.00 20.00    -0.025 C 
HETATM    3  C4  UNL     1     -22.473  17.551  11.946  1.00 20.00     0.027 C 
HETATM    4  C5  UNL     1     -22.076  17.875  10.498  1.00 20.00     0.010 C 
HETATM    5  C6  UNL     1     -24.627  17.933  10.002  1.00 20.00     0.025 A 
HETATM    6  C7  UNL     1     -23.981  18.887   9.033  1.00 20.00     0.085 A 
HETATM    7  C8  UNL     1     -23.212  17.681   9.530  1.00 20.00     0.007 A 
ENDROOT
BRANCH   6   8
HETATM    8  C3  UNL     1     -24.437  18.910   7.638  1.00 20.00     0.224 C 
HETATM    9  O9  UNL     1     -23.645  18.870   6.701  1.00 20.00    -0.279 OA
HETATM   10 CL10 UNL     1     -26.168  18.998   7.517  1.00 20.00    -0.043 Cl
ENDBRANCH   6   8
TORSDOF 1
ENDMDL
MODEL 7
REMARK VINA RESULT:      -4.6      1.021      1.172
REMARK  1 active torsions:
REMARK  status: ('A' for Active; 'I' for Inactive)
REMARK    1  A    between atoms: C3_3  and  C7_7 
ROOT
HETATM    1  C1  UNL     1     -33.072  17.822  -1.289  1.00 20.00    -0.030 C 
HETATM    2  C2  UNL     1     -32.777  17.271  -2.477  1.00 20.00    -0.025 C 
HETATM    3  C4  UNL     1     -34.471  17.781  -0.738  1.00 20.00     0.027 C 
HETATM    4  C5  UNL     1     -35.273  16.562  -1.218  1.00 20.00     0.010 C 
HETATM    5  C6  UNL     1     -33.778  16.640  -3.343  1.00 20.00     0.025 A 
HETATM    6  C7  UNL     1     -34.161  15.199  -3.142  1.00 20.00     0.085 A 
HETATM    7  C8  UNL     1     -35.099  16.298  -2.689  1.00 20.00     0.007 A 
ENDROOT
BRANCH   6   8
HETATM    8  C3  UNL     1     -34.533  14.387  -4.307  1.00 20.00     0.224 C 
HETATM    9  O9  UNL     1     -35.074  13.292  -4.184  1.00 20.00    -0.279 OA
HETATM   10 CL10 UNL     1     -34.115  15.163  -5.805  1.00 20.00    -0.043 Cl
ENDBRANCH   6   8
TORSDOF 1
ENDMDL
MODEL 8
REMARK VINA RESULT:      -4.5      1.448      1.907
REMARK  1 active torsions:
REMARK  status: ('A' for Active; 'I' for Inactive)
REMARK    1  A    between atoms: C3_3  and  C7_7 
ROOT
HETATM    1  C1  UNL     1     -34.025  18.061  -4.170  1.00 20.00    -0.030 C 
HETATM    2  C2  UNL     1     -35.208  17.516  -4.492  1.00 20.00    -0.025 C 
HETATM    3  C4  UNL     1     -33.091  17.379  -3.209  1.00 20.00     0.027 C 
HETATM    4  C5  UNL     1     -33.236  15.851  -3.205  1.00 20.00     0.010 C 
HETATM    5  C6  UNL     1     -35.704  16.264  -3.910  1.00 20.00     0.025 A 
HETATM    6  C7  UNL     1     -35.306  14.938  -4.501  1.00 20.00     0.085 A 
HETATM    7  C8  UNL     1     -34.674  15.407  -3.208  1.00 20.00     0.007 A 
ENDROOT
BRANCH   6   8
HETATM    8  C3  UNL     1     -36.258  13.821  -4.459  1.00 20.00     0.224 C 
HETATM    9  O9  UNL     1     -35.887  12.654  -4.541  1.00 20.00    -0.279 OA
HETATM   10 CL10 UNL     1     -37.899  14.366  -4.285  1.00 20.00    -0.043 Cl
ENDBRANCH   6   8
TORSDOF 1
ENDMDL
MODEL 9
REMARK VINA RESULT:      -4.2      1.848      2.628
REMARK  1 active torsions:
REMARK  status: ('A' for Active; 'I' for Inactive)
REMARK    1  A    between atoms: C3_3  and  C7_7 
ROOT
HETATM    1  C1  UNL     1     -33.468  16.039  -2.846  1.00 20.00    -0.030 C 
HETATM    2  C2  UNL     1     -34.757  15.921  -2.491  1.00 20.00    -0.025 C 
HETATM    3  C4  UNL     1     -32.914  15.286  -4.023  1.00 20.00     0.027 C 
HETATM    4  C5  UNL     1     -33.964  14.997  -5.105  1.00 20.00     0.010 C 
HETATM    5  C6  UNL     1     -35.702  15.030  -3.173  1.00 20.00     0.025 A 
HETATM    6  C7  UNL     1     -36.428  15.489  -4.408  1.00 20.00     0.085 A 
HETATM    7  C8  UNL     1     -35.271  14.520  -4.530  1.00 20.00     0.007 A 
ENDROOT
BRANCH   6   8
HETATM    8  C3  UNL     1     -37.789  15.000  -4.663  1.00 20.00     0.224 C 
HETATM    9  O9  UNL     1     -38.142  13.873  -4.331  1.00 20.00    -0.279 OA
HETATM   10 CL10 UNL     1     -38.772  16.190  -5.462  1.00 20.00    -0.043 Cl
ENDBRANCH   6   8
TORSDOF 1
ENDMDL
