MODEL 1
REMARK VINA RESULT:      -4.5      0.000      0.000
REMARK  3 active torsions:
REMARK  status: ('A' for Active; 'I' for Inactive)
REMARK    1  A    between atoms: C3_3  and  C8_8 
REMARK    2  A    between atoms: C6_6  and  C9_9 
REMARK    3  A    between atoms: C7_7  and  C10_10 
ROOT
HETATM    1  C5  UNL     1     -37.354  17.633  -4.431  1.00 20.00     0.019 C 
HETATM    2  C8  UNL     1     -37.197  16.099  -4.873  1.00 20.00     0.078 C 
HETATM    3  C9  UNL     1     -36.962  17.111  -3.016  1.00 20.00    -0.001 C 
HETATM    4  C10 UNL     1     -36.022  16.129  -3.854  1.00 20.00     0.010 C 
ENDROOT
BRANCH   2   5
HETATM    5  C3  UNL     1     -38.364  15.134  -4.638  1.00 20.00     0.223 C 
HETATM    6  O11 UNL     1     -38.180  13.959  -4.335  1.00 20.00    -0.279 OA
HETATM    7 CL12 UNL     1     -39.906  15.908  -4.852  1.00 20.00    -0.043 Cl
ENDBRANCH   2   5
BRANCH   4   8
HETATM    8  C7  UNL     1     -35.177  15.485  -2.757  1.00 20.00     0.014 C 
HETATM    9  C2  UNL     1     -33.943  16.283  -2.431  1.00 20.00    -0.025 C 
HETATM   10  C1  UNL     1     -33.098  16.170  -3.470  1.00 20.00    -0.025 C 
HETATM   11  C6  UNL     1     -33.843  15.418  -4.569  1.00 20.00     0.013 C 
HETATM   12  C4  UNL     1     -34.523  14.399  -3.651  1.00 20.00     0.017 C 
ENDBRANCH   4   8
TORSDOF 3
ENDMDL
MODEL 2
REMARK VINA RESULT:      -4.5      2.466      2.810
REMARK  3 active torsions:
REMARK  status: ('A' for Active; 'I' for Inactive)
REMARK    1  A    between atoms: C3_3  and  C8_8 
REMARK    2  A    between atoms: C6_6  and  C9_9 
REMARK    3  A    between atoms: C7_7  and  C10_10 
ROOT
HETATM    1  C5  UNL     1     -37.234  16.437  -5.250  1.00 20.00     0.019 C 
HETATM    2  C8  UNL     1     -35.715  16.252  -5.731  1.00 20.00     0.078 C 
HETATM    3  C9  UNL     1     -36.885  15.327  -4.213  1.00 20.00    -0.001 C 
HETATM    4  C10 UNL     1     -35.463  16.053  -4.209  1.00 20.00     0.010 C 
ENDROOT
BRANCH   2   5
HETATM    5  C3  UNL     1     -35.374  15.113  -6.699  1.00 20.00     0.223 C 
HETATM    6  O11 UNL     1     -36.248  14.457  -7.257  1.00 20.00    -0.279 OA
HETATM    7 CL12 UNL     1     -33.658  14.900  -6.879  1.00 20.00    -0.043 Cl
ENDBRANCH   2   5
BRANCH   4   8
HETATM    8  C7  UNL     1     -34.758  15.365  -3.042  1.00 20.00     0.014 C 
HETATM    9  C2  UNL     1     -34.870  16.142  -1.757  1.00 20.00    -0.025 C 
HETATM   10  C1  UNL     1     -34.102  17.239  -1.876  1.00 20.00    -0.025 C 
HETATM   11  C6  UNL     1     -33.598  17.275  -3.316  1.00 20.00     0.013 C 
HETATM   12  C4  UNL     1     -33.316  15.776  -3.438  1.00 20.00     0.017 C 
ENDBRANCH   4   8
TORSDOF 3
ENDMDL
MODEL 3
REMARK VINA RESULT:      -4.4      1.988      3.124
REMARK  3 active torsions:
REMARK  status: ('A' for Active; 'I' for Inactive)
REMARK    1  A    between atoms: C3_3  and  C8_8 
REMARK    2  A    between atoms: C6_6  and  C9_9 
REMARK    3  A    between atoms: C7_7  and  C10_10 
ROOT
HETATM    1  C5  UNL     1     -34.412  13.609  -3.860  1.00 20.00     0.019 C 
HETATM    2  C8  UNL     1     -35.627  14.614  -4.159  1.00 20.00     0.078 C 
HETATM    3  C9  UNL     1     -33.510  14.823  -4.237  1.00 20.00    -0.001 C 
HETATM    4  C10 UNL     1     -34.667  15.655  -3.516  1.00 20.00     0.010 C 
ENDROOT
BRANCH   2   5
HETATM    5  C3  UNL     1     -36.085  14.817  -5.608  1.00 20.00     0.223 C 
HETATM    6  O11 UNL     1     -35.993  13.924  -6.445  1.00 20.00    -0.279 OA
HETATM    7 CL12 UNL     1     -36.721  16.413  -5.874  1.00 20.00    -0.043 Cl
ENDBRANCH   2   5
BRANCH   4   8
HETATM    8  C7  UNL     1     -34.054  17.052  -3.440  1.00 20.00     0.014 C 
HETATM    9  C2  UNL     1     -33.174  17.235  -2.233  1.00 20.00    -0.025 C 
HETATM   10  C1  UNL     1     -33.970  17.274  -1.150  1.00 20.00    -0.025 C 
HETATM   11  C6  UNL     1     -35.383  16.953  -1.627  1.00 20.00     0.013 C 
HETATM   12  C4  UNL     1     -35.322  17.775  -2.916  1.00 20.00     0.017 C 
ENDBRANCH   4   8
TORSDOF 3
ENDMDL
MODEL 4
REMARK VINA RESULT:      -4.3      3.419      4.481
REMARK  3 active torsions:
REMARK  status: ('A' for Active; 'I' for Inactive)
REMARK    1  A    between atoms: C3_3  and  C8_8 
REMARK    2  A    between atoms: C6_6  and  C9_9 
REMARK    3  A    between atoms: C7_7  and  C10_10 
ROOT
HETATM    1  C5  UNL     1     -35.165  16.764  -1.124  1.00 20.00     0.019 C 
HETATM    2  C8  UNL     1     -33.931  16.437  -2.096  1.00 20.00     0.078 C 
HETATM    3  C9  UNL     1     -35.889  17.199  -2.433  1.00 20.00    -0.001 C 
HETATM    4  C10 UNL     1     -35.065  15.984  -3.060  1.00 20.00     0.010 C 
ENDROOT
BRANCH   2   5
HETATM    5  C3  UNL     1     -32.998  17.575  -2.524  1.00 20.00     0.223 C 
HETATM    6  O11 UNL     1     -32.892  17.915  -3.698  1.00 20.00    -0.279 OA
HETATM    7 CL12 UNL     1     -32.159  18.275  -1.172  1.00 20.00    -0.043 Cl
ENDBRANCH   2   5
BRANCH   4   8
HETATM    8  C7  UNL     1     -35.678  15.869  -4.454  1.00 20.00     0.014 C 
HETATM    9  C2  UNL     1     -36.768  14.832  -4.524  1.00 20.00    -0.025 C 
HETATM   10  C1  UNL     1     -36.188  13.623  -4.427  1.00 20.00    -0.025 C 
HETATM   11  C6  UNL     1     -34.711  13.862  -4.128  1.00 20.00     0.013 C 
HETATM   12  C4  UNL     1     -34.528  15.041  -5.086  1.00 20.00     0.017 C 
ENDBRANCH   4   8
TORSDOF 3
ENDMDL
MODEL 5
REMARK VINA RESULT:      -4.2      1.988      2.178
REMARK  3 active torsions:
REMARK  status: ('A' for Active; 'I' for Inactive)
REMARK    1  A    between atoms: C3_3  and  C8_8 
REMARK    2  A    between atoms: C6_6  and  C9_9 
REMARK    3  A    between atoms: C7_7  and  C10_10 
ROOT
HETATM    1  C5  UNL     1     -37.064  17.940  -4.847  1.00 20.00     0.019 C 
HETATM    2  C8  UNL     1     -36.043  16.924  -5.552  1.00 20.00     0.078 C 
HETATM    3  C9  UNL     1     -37.210  16.817  -3.776  1.00 20.00    -0.001 C 
HETATM    4  C10 UNL     1     -35.658  16.596  -4.081  1.00 20.00     0.010 C 
ENDROOT
BRANCH   2   5
HETATM    5  C3  UNL     1     -36.600  15.808  -6.444  1.00 20.00     0.223 C 
HETATM    6  O11 UNL     1     -37.585  15.981  -7.155  1.00 20.00    -0.279 OA
HETATM    7 CL12 UNL     1     -35.678  14.341  -6.308  1.00 20.00    -0.043 Cl
ENDBRANCH   2   5
BRANCH   4   8
HETATM    8  C7  UNL     1     -35.256  15.612  -2.984  1.00 20.00     0.014 C 
HETATM    9  C2  UNL     1     -34.977  16.292  -1.670  1.00 20.00    -0.025 C 
HETATM   10  C1  UNL     1     -33.827  16.976  -1.800  1.00 20.00    -0.025 C 
HETATM   11  C6  UNL     1     -33.417  16.880  -3.267  1.00 20.00     0.013 C 
HETATM   12  C4  UNL     1     -33.792  15.409  -3.456  1.00 20.00     0.017 C 
ENDBRANCH   4   8
TORSDOF 3
ENDMDL
MODEL 6
REMARK VINA RESULT:      -4.2      2.130      3.454
REMARK  3 active torsions:
REMARK  status: ('A' for Active; 'I' for Inactive)
REMARK    1  A    between atoms: C3_3  and  C8_8 
REMARK    2  A    between atoms: C6_6  and  C9_9 
REMARK    3  A    between atoms: C7_7  and  C10_10 
ROOT
HETATM    1  C5  UNL     1     -33.437  14.433  -4.348  1.00 20.00     0.019 C 
HETATM    2  C8  UNL     1     -34.949  14.719  -3.898  1.00 20.00     0.078 C 
HETATM    3  C9  UNL     1     -33.877  15.062  -5.704  1.00 20.00    -0.001 C 
HETATM    4  C10 UNL     1     -34.756  16.001  -4.758  1.00 20.00     0.010 C 
ENDROOT
BRANCH   2   5
HETATM    5  C3  UNL     1     -36.044  13.718  -4.286  1.00 20.00     0.223 C 
HETATM    6  O11 UNL     1     -35.792  12.536  -4.495  1.00 20.00    -0.279 OA
HETATM    7 CL12 UNL     1     -37.610  14.467  -4.382  1.00 20.00    -0.043 Cl
ENDBRANCH   2   5
BRANCH   4   8
HETATM    8  C7  UNL     1     -35.270  17.051  -5.741  1.00 20.00     0.014 C 
HETATM    9  C2  UNL     1     -34.291  18.173  -5.956  1.00 20.00    -0.025 C 
HETATM   10  C1  UNL     1     -34.259  18.908  -4.830  1.00 20.00    -0.025 C 
HETATM   11  C6  UNL     1     -35.108  18.173  -3.797  1.00 20.00     0.013 C 
HETATM   12  C4  UNL     1     -36.230  17.765  -4.753  1.00 20.00     0.017 C 
ENDBRANCH   4   8
TORSDOF 3
ENDMDL
MODEL 7
REMARK VINA RESULT:      -4.1      2.267      2.789
REMARK  3 active torsions:
REMARK  status: ('A' for Active; 'I' for Inactive)
REMARK    1  A    between atoms: C3_3  and  C8_8 
REMARK    2  A    between atoms: C6_6  and  C9_9 
REMARK    3  A    between atoms: C7_7  and  C10_10 
ROOT
HETATM    1  C5  UNL     1     -34.459  16.771  -6.663  1.00 20.00     0.019 C 
HETATM    2  C8  UNL     1     -34.594  15.445  -5.770  1.00 20.00     0.078 C 
HETATM    3  C9  UNL     1     -35.541  17.349  -5.702  1.00 20.00    -0.001 C 
HETATM    4  C10 UNL     1     -34.763  16.475  -4.616  1.00 20.00     0.010 C 
ENDROOT
BRANCH   2   5
HETATM    5  C3  UNL     1     -35.732  14.461  -6.065  1.00 20.00     0.223 C 
HETATM    6  O11 UNL     1     -36.208  14.343  -7.190  1.00 20.00    -0.279 OA
HETATM    7 CL12 UNL     1     -36.222  13.584  -4.646  1.00 20.00    -0.043 Cl
ENDBRANCH   2   5
BRANCH   4   8
HETATM    8  C7  UNL     1     -35.409  16.939  -3.312  1.00 20.00     0.014 C 
HETATM    9  C2  UNL     1     -34.725  18.144  -2.723  1.00 20.00    -0.025 C 
HETATM   10  C1  UNL     1     -33.528  17.747  -2.259  1.00 20.00    -0.025 C 
HETATM   11  C6  UNL     1     -33.346  16.294  -2.687  1.00 20.00     0.013 C 
HETATM   12  C4  UNL     1     -34.782  15.848  -2.405  1.00 20.00     0.017 C 
ENDBRANCH   4   8
TORSDOF 3
ENDMDL
MODEL 8
REMARK VINA RESULT:      -4.0      2.439      3.740
REMARK  3 active torsions:
REMARK  status: ('A' for Active; 'I' for Inactive)
REMARK    1  A    between atoms: C3_3  and  C8_8 
REMARK    2  A    between atoms: C6_6  and  C9_9 
REMARK    3  A    between atoms: C7_7  and  C10_10 
ROOT
HETATM    1  C5  UNL     1     -33.404  15.583  -3.393  1.00 20.00     0.019 C 
HETATM    2  C8  UNL     1     -34.855  15.419  -2.731  1.00 20.00     0.078 C 
HETATM    3  C9  UNL     1     -33.811  17.078  -3.557  1.00 20.00    -0.001 C 
HETATM    4  C10 UNL     1     -34.538  16.830  -2.158  1.00 20.00     0.010 C 
ENDROOT
BRANCH   2   5
HETATM    5  C3  UNL     1     -36.074  15.241  -3.643  1.00 20.00     0.223 C 
HETATM    6  O11 UNL     1     -36.958  16.089  -3.713  1.00 20.00    -0.279 OA
HETATM    7 CL12 UNL     1     -36.021  13.740  -4.519  1.00 20.00    -0.043 Cl
ENDBRANCH   2   5
BRANCH   4   8
HETATM    8  C7  UNL     1     -34.955  18.245  -1.761  1.00 20.00     0.014 C 
HETATM    9  C2  UNL     1     -34.076  18.828  -0.688  1.00 20.00    -0.025 C 
HETATM   10  C1  UNL     1     -34.344  18.179   0.458  1.00 20.00    -0.025 C 
HETATM   11  C6  UNL     1     -35.298  17.041   0.110  1.00 20.00     0.013 C 
HETATM   12  C4  UNL     1     -36.161  17.833  -0.875  1.00 20.00     0.017 C 
ENDBRANCH   4   8
TORSDOF 3
ENDMDL
MODEL 9
REMARK VINA RESULT:      -3.9      4.559      6.049
REMARK  3 active torsions:
REMARK  status: ('A' for Active; 'I' for Inactive)
REMARK    1  A    between atoms: C3_3  and  C8_8 
REMARK    2  A    between atoms: C6_6  and  C9_9 
REMARK    3  A    between atoms: C7_7  and  C10_10 
ROOT
HETATM    1  C5  UNL     1     -32.384  18.799  -2.810  1.00 20.00     0.019 C 
HETATM    2  C8  UNL     1     -32.735  18.913  -1.249  1.00 20.00     0.078 C 
HETATM    3  C9  UNL     1     -32.815  17.311  -2.647  1.00 20.00    -0.001 C 
HETATM    4  C10 UNL     1     -33.882  17.935  -1.636  1.00 20.00     0.010 C 
ENDROOT
BRANCH   2   5
HETATM    5  C3  UNL     1     -31.693  18.469  -0.217  1.00 20.00     0.223 C 
HETATM    6  O11 UNL     1     -30.509  18.333  -0.512  1.00 20.00    -0.279 OA
HETATM    7 CL12 UNL     1     -32.397  18.200   1.350  1.00 20.00    -0.043 Cl
ENDBRANCH   2   5
BRANCH   4   8
HETATM    8  C7  UNL     1     -34.783  16.737  -1.344  1.00 20.00     0.014 C 
HETATM    9  C2  UNL     1     -35.824  16.522  -2.409  1.00 20.00    -0.025 C 
HETATM   10  C1  UNL     1     -36.723  17.516  -2.308  1.00 20.00    -0.025 C 
HETATM   11  C6  UNL     1     -36.188  18.494  -1.266  1.00 20.00     0.013 C 
HETATM   12  C4  UNL     1     -35.674  17.438  -0.285  1.00 20.00     0.017 C 
ENDBRANCH   4   8
TORSDOF 3
ENDMDL
