MODEL 1
REMARK VINA RESULT:      -4.8      0.000      0.000
REMARK  4 active torsions:
REMARK  status: ('A' for Active; 'I' for Inactive)
REMARK    1  A    between atoms: C1_1  and  C2_2 
REMARK    2  A    between atoms: C1_1  and  C3_3 
REMARK    3  A    between atoms: C2_2  and  C8_8 
REMARK    4  A    between atoms: C3_3  and  C6_6 
ROOT
HETATM    1  C1  UNL     1     -33.229   6.161   3.139  1.00 20.00     0.125 C 
HETATM    2 CL11 UNL     1     -33.165   4.647   2.298  1.00 20.00    -0.076 Cl
ENDROOT
BRANCH   1   3
HETATM    3  C2  UNL     1     -33.836   6.334   4.341  1.00 20.00     0.174 C 
HETATM    4  O9  UNL     1     -33.632   7.194   5.248  1.00 20.00    -0.291 OA
BRANCH   3   5
HETATM    5  C8  UNL     1     -35.000   5.417   4.748  1.00 20.00     0.080 C 
HETATM    6  C7  UNL     1     -34.893   4.930   6.192  1.00 20.00     0.013 C 
ENDBRANCH   3   5
ENDBRANCH   1   3
BRANCH   1   7
HETATM    7  C3  UNL     1     -32.503   7.296   2.484  1.00 20.00     0.178 C 
HETATM    8  O10 UNL     1     -31.472   7.780   2.934  1.00 20.00    -0.291 OA
BRANCH   7   9
HETATM    9  C6  UNL     1     -33.073   7.824   1.210  1.00 20.00     0.061 A 
HETATM   10  C4  UNL     1     -32.929   9.280   0.914  1.00 20.00     0.013 A 
HETATM   11  C5  UNL     1     -32.132   8.272   0.142  1.00 20.00     0.013 A 
ENDBRANCH   7   9
ENDBRANCH   1   7
TORSDOF 4
ENDMDL
MODEL 2
REMARK VINA RESULT:      -4.6      1.400      4.413
REMARK  4 active torsions:
REMARK  status: ('A' for Active; 'I' for Inactive)
REMARK    1  A    between atoms: C1_1  and  C2_2 
REMARK    2  A    between atoms: C1_1  and  C3_3 
REMARK    3  A    between atoms: C2_2  and  C8_8 
REMARK    4  A    between atoms: C3_3  and  C6_6 
ROOT
HETATM    1  C1  UNL     1     -33.217   5.455   2.728  1.00 20.00     0.125 C 
HETATM    2 CL11 UNL     1     -32.919   4.249   1.520  1.00 20.00    -0.076 Cl
ENDROOT
BRANCH   1   3
HETATM    3  C2  UNL     1     -32.744   6.726   2.662  1.00 20.00     0.174 C 
HETATM    4  O9  UNL     1     -31.801   7.284   3.295  1.00 20.00    -0.291 OA
BRANCH   3   5
HETATM    5  C8  UNL     1     -33.356   7.718   1.659  1.00 20.00     0.080 C 
HETATM    6  C7  UNL     1     -32.330   8.270   0.673  1.00 20.00     0.013 C 
ENDBRANCH   3   5
ENDBRANCH   1   3
BRANCH   1   7
HETATM    7  C3  UNL     1     -34.108   5.033   3.856  1.00 20.00     0.178 C 
HETATM    8  O10 UNL     1     -34.400   3.865   4.077  1.00 20.00    -0.291 OA
BRANCH   7   9
HETATM    9  C6  UNL     1     -34.627   6.108   4.752  1.00 20.00     0.061 A 
HETATM   10  C4  UNL     1     -35.016   5.747   6.147  1.00 20.00     0.013 A 
HETATM   11  C5  UNL     1     -33.777   6.554   5.895  1.00 20.00     0.013 A 
ENDBRANCH   7   9
ENDBRANCH   1   7
TORSDOF 4
ENDMDL
MODEL 3
REMARK VINA RESULT:      -4.6     10.705     11.800
REMARK  4 active torsions:
REMARK  status: ('A' for Active; 'I' for Inactive)
REMARK    1  A    between atoms: C1_1  and  C2_2 
REMARK    2  A    between atoms: C1_1  and  C3_3 
REMARK    3  A    between atoms: C2_2  and  C8_8 
REMARK    4  A    between atoms: C3_3  and  C6_6 
ROOT
HETATM    1  C1  UNL     1     -35.960  14.504  -5.062  1.00 20.00     0.125 C 
HETATM    2 CL11 UNL     1     -35.558  14.793  -6.723  1.00 20.00    -0.076 Cl
ENDROOT
BRANCH   1   3
HETATM    3  C2  UNL     1     -37.206  14.660  -4.547  1.00 20.00     0.174 C 
HETATM    4  O9  UNL     1     -38.135  13.817  -4.374  1.00 20.00    -0.291 OA
BRANCH   3   5
HETATM    5  C8  UNL     1     -37.649  16.035  -4.019  1.00 20.00     0.080 C 
HETATM    6  C7  UNL     1     -37.669  17.107  -5.107  1.00 20.00     0.013 C 
ENDBRANCH   3   5
ENDBRANCH   1   3
BRANCH   1   7
HETATM    7  C3  UNL     1     -34.842  13.994  -4.205  1.00 20.00     0.178 C 
HETATM    8  O10 UNL     1     -34.708  12.813  -3.912  1.00 20.00    -0.291 OA
BRANCH   7   9
HETATM    9  C6  UNL     1     -33.845  14.993  -3.722  1.00 20.00     0.061 A 
HETATM   10  C4  UNL     1     -34.099  16.440  -3.985  1.00 20.00     0.013 A 
HETATM   11  C5  UNL     1     -34.229  15.894  -2.595  1.00 20.00     0.013 A 
ENDBRANCH   7   9
ENDBRANCH   1   7
TORSDOF 4
ENDMDL
MODEL 4
REMARK VINA RESULT:      -4.6     11.120     11.592
REMARK  4 active torsions:
REMARK  status: ('A' for Active; 'I' for Inactive)
REMARK    1  A    between atoms: C1_1  and  C2_2 
REMARK    2  A    between atoms: C1_1  and  C3_3 
REMARK    3  A    between atoms: C2_2  and  C8_8 
REMARK    4  A    between atoms: C3_3  and  C6_6 
ROOT
HETATM    1  C1  UNL     1     -34.951  14.635  -5.221  1.00 20.00     0.125 C 
HETATM    2 CL11 UNL     1     -34.798  15.047  -6.898  1.00 20.00    -0.076 Cl
ENDROOT
BRANCH   1   3
HETATM    3  C2  UNL     1     -35.923  13.827  -4.726  1.00 20.00     0.174 C 
HETATM    4  O9  UNL     1     -35.918  12.581  -4.501  1.00 20.00    -0.291 OA
BRANCH   3   5
HETATM    5  C8  UNL     1     -37.272  14.427  -4.298  1.00 20.00     0.080 C 
HETATM    6  C7  UNL     1     -37.582  15.746  -5.002  1.00 20.00     0.013 C 
ENDBRANCH   3   5
ENDBRANCH   1   3
BRANCH   1   7
HETATM    7  C3  UNL     1     -33.885  15.182  -4.321  1.00 20.00     0.178 C 
HETATM    8  O10 UNL     1     -32.762  14.699  -4.244  1.00 20.00    -0.291 OA
BRANCH   7   9
HETATM    9  C6  UNL     1     -34.230  16.387  -3.512  1.00 20.00     0.061 A 
HETATM   10  C4  UNL     1     -34.679  16.194  -2.102  1.00 20.00     0.013 A 
HETATM   11  C5  UNL     1     -33.326  16.771  -2.388  1.00 20.00     0.013 A 
ENDBRANCH   7   9
ENDBRANCH   1   7
TORSDOF 4
ENDMDL
MODEL 5
REMARK VINA RESULT:      -4.6     10.979     11.920
REMARK  4 active torsions:
REMARK  status: ('A' for Active; 'I' for Inactive)
REMARK    1  A    between atoms: C1_1  and  C2_2 
REMARK    2  A    between atoms: C1_1  and  C3_3 
REMARK    3  A    between atoms: C2_2  and  C8_8 
REMARK    4  A    between atoms: C3_3  and  C6_6 
ROOT
HETATM    1  C1  UNL     1     -36.952  14.838  -4.196  1.00 20.00     0.125 C 
HETATM    2 CL11 UNL     1     -38.682  14.795  -4.099  1.00 20.00    -0.076 Cl
ENDROOT
BRANCH   1   3
HETATM    3  C2  UNL     1     -36.213  13.966  -4.929  1.00 20.00     0.174 C 
HETATM    4  O9  UNL     1     -35.857  12.778  -4.679  1.00 20.00    -0.291 OA
BRANCH   3   5
HETATM    5  C8  UNL     1     -35.712  14.375  -6.324  1.00 20.00     0.080 C 
HETATM    6  C7  UNL     1     -34.287  14.925  -6.303  1.00 20.00     0.013 C 
ENDBRANCH   3   5
ENDBRANCH   1   3
BRANCH   1   7
HETATM    7  C3  UNL     1     -36.290  15.960  -3.456  1.00 20.00     0.178 C 
HETATM    8  O10 UNL     1     -36.643  17.129  -3.559  1.00 20.00    -0.291 OA
BRANCH   7   9
HETATM    9  C6  UNL     1     -35.168  15.604  -2.540  1.00 20.00     0.061 A 
HETATM   10  C4  UNL     1     -33.795  16.085  -2.873  1.00 20.00     0.013 A 
HETATM   11  C5  UNL     1     -34.545  16.687  -1.724  1.00 20.00     0.013 A 
ENDBRANCH   7   9
ENDBRANCH   1   7
TORSDOF 4
ENDMDL
MODEL 6
REMARK VINA RESULT:      -4.5     10.619     12.279
REMARK  4 active torsions:
REMARK  status: ('A' for Active; 'I' for Inactive)
REMARK    1  A    between atoms: C1_1  and  C2_2 
REMARK    2  A    between atoms: C1_1  and  C3_3 
REMARK    3  A    between atoms: C2_2  and  C8_8 
REMARK    4  A    between atoms: C3_3  and  C6_6 
ROOT
HETATM    1  C1  UNL     1     -35.949  14.414  -5.043  1.00 20.00     0.125 C 
HETATM    2 CL11 UNL     1     -37.561  14.536  -4.417  1.00 20.00    -0.076 Cl
ENDROOT
BRANCH   1   3
HETATM    3  C2  UNL     1     -35.630  14.588  -6.351  1.00 20.00     0.174 C 
HETATM    4  O9  UNL     1     -36.296  14.338  -7.399  1.00 20.00    -0.291 OA
BRANCH   3   5
HETATM    5  C8  UNL     1     -34.282  15.220  -6.732  1.00 20.00     0.080 C 
HETATM    6  C7  UNL     1     -34.400  16.702  -7.082  1.00 20.00     0.013 C 
ENDBRANCH   3   5
ENDBRANCH   1   3
BRANCH   1   7
HETATM    7  C3  UNL     1     -34.878  14.163  -4.027  1.00 20.00     0.178 C 
HETATM    8  O10 UNL     1     -34.171  13.163  -4.033  1.00 20.00    -0.291 OA
BRANCH   7   9
HETATM    9  C6  UNL     1     -34.670  15.209  -2.984  1.00 20.00     0.061 A 
HETATM   10  C4  UNL     1     -33.458  16.076  -3.074  1.00 20.00     0.013 A 
HETATM   11  C5  UNL     1     -34.813  16.642  -3.376  1.00 20.00     0.013 A 
ENDBRANCH   7   9
ENDBRANCH   1   7
TORSDOF 4
ENDMDL
MODEL 7
REMARK VINA RESULT:      -4.4     10.743     12.019
REMARK  4 active torsions:
REMARK  status: ('A' for Active; 'I' for Inactive)
REMARK    1  A    between atoms: C1_1  and  C2_2 
REMARK    2  A    between atoms: C1_1  and  C3_3 
REMARK    3  A    between atoms: C2_2  and  C8_8 
REMARK    4  A    between atoms: C3_3  and  C6_6 
ROOT
HETATM    1  C1  UNL     1     -35.967  14.448  -5.111  1.00 20.00     0.125 C 
HETATM    2 CL11 UNL     1     -35.530  14.719  -6.766  1.00 20.00    -0.076 Cl
ENDROOT
BRANCH   1   3
HETATM    3  C2  UNL     1     -35.088  14.072  -4.147  1.00 20.00     0.174 C 
HETATM    4  O9  UNL     1     -34.529  12.956  -3.936  1.00 20.00    -0.291 OA
BRANCH   3   5
HETATM    5  C8  UNL     1     -34.594  15.103  -3.119  1.00 20.00     0.080 C 
HETATM    6  C7  UNL     1     -33.300  15.792  -3.548  1.00 20.00     0.013 C 
ENDBRANCH   3   5
ENDBRANCH   1   3
BRANCH   1   7
HETATM    7  C3  UNL     1     -37.400  14.721  -4.768  1.00 20.00     0.178 C 
HETATM    8  O10 UNL     1     -38.151  13.871  -4.306  1.00 20.00    -0.291 OA
BRANCH   7   9
HETATM    9  C6  UNL     1     -37.900  16.109  -4.988  1.00 20.00     0.061 A 
HETATM   10  C4  UNL     1     -38.163  16.970  -3.798  1.00 20.00     0.013 A 
HETATM   11  C5  UNL     1     -36.988  17.251  -4.685  1.00 20.00     0.013 A 
ENDBRANCH   7   9
ENDBRANCH   1   7
TORSDOF 4
ENDMDL
MODEL 8
REMARK VINA RESULT:      -4.3      1.943      4.741
REMARK  4 active torsions:
REMARK  status: ('A' for Active; 'I' for Inactive)
REMARK    1  A    between atoms: C1_1  and  C2_2 
REMARK    2  A    between atoms: C1_1  and  C3_3 
REMARK    3  A    between atoms: C2_2  and  C8_8 
REMARK    4  A    between atoms: C3_3  and  C6_6 
ROOT
HETATM    1  C1  UNL     1     -32.544   7.204   2.801  1.00 20.00     0.125 C 
HETATM    2 CL11 UNL     1     -31.792   7.866   4.214  1.00 20.00    -0.076 Cl
ENDROOT
BRANCH   1   3
HETATM    3  C2  UNL     1     -32.404   7.723   1.555  1.00 20.00     0.174 C 
HETATM    4  O9  UNL     1     -31.712   7.325   0.572  1.00 20.00    -0.291 OA
BRANCH   3   5
HETATM    5  C8  UNL     1     -33.201   8.975   1.154  1.00 20.00     0.080 C 
HETATM    6  C7  UNL     1     -33.503   9.031  -0.342  1.00 20.00     0.013 C 
ENDBRANCH   3   5
ENDBRANCH   1   3
BRANCH   1   7
HETATM    7  C3  UNL     1     -33.334   5.949   3.016  1.00 20.00     0.178 C 
HETATM    8  O10 UNL     1     -33.038   4.876   2.506  1.00 20.00    -0.291 OA
BRANCH   7   9
HETATM    9  C6  UNL     1     -34.517   6.036   3.921  1.00 20.00     0.061 A 
HETATM   10  C4  UNL     1     -34.926   4.819   4.682  1.00 20.00     0.013 A 
HETATM   11  C5  UNL     1     -34.292   5.975   5.395  1.00 20.00     0.013 A 
ENDBRANCH   7   9
ENDBRANCH   1   7
TORSDOF 4
ENDMDL
MODEL 9
REMARK VINA RESULT:      -4.2     10.824     11.791
REMARK  4 active torsions:
REMARK  status: ('A' for Active; 'I' for Inactive)
REMARK    1  A    between atoms: C1_1  and  C2_2 
REMARK    2  A    between atoms: C1_1  and  C3_3 
REMARK    3  A    between atoms: C2_2  and  C8_8 
REMARK    4  A    between atoms: C3_3  and  C6_6 
ROOT
HETATM    1  C1  UNL     1     -34.766  14.796  -4.145  1.00 20.00     0.125 C 
HETATM    2 CL11 UNL     1     -33.033  14.795  -4.134  1.00 20.00    -0.076 Cl
ENDROOT
BRANCH   1   3
HETATM    3  C2  UNL     1     -35.519  13.931  -4.871  1.00 20.00     0.174 C 
HETATM    4  O9  UNL     1     -35.969  12.786  -4.574  1.00 20.00    -0.291 OA
BRANCH   3   5
HETATM    5  C8  UNL     1     -35.991  14.326  -6.280  1.00 20.00     0.080 C 
HETATM    6  C7  UNL     1     -34.961  15.162  -7.036  1.00 20.00     0.013 C 
ENDBRANCH   3   5
ENDBRANCH   1   3
BRANCH   1   7
HETATM    7  C3  UNL     1     -35.417  15.790  -3.232  1.00 20.00     0.178 C 
HETATM    8  O10 UNL     1     -36.447  16.388  -3.519  1.00 20.00    -0.291 OA
BRANCH   7   9
HETATM    9  C6  UNL     1     -34.771  16.024  -1.908  1.00 20.00     0.061 A 
HETATM   10  C4  UNL     1     -34.083  17.326  -1.669  1.00 20.00     0.013 A 
HETATM   11  C5  UNL     1     -35.382  17.024  -0.984  1.00 20.00     0.013 A 
ENDBRANCH   7   9
ENDBRANCH   1   7
TORSDOF 4
ENDMDL
