MODEL 1
REMARK VINA RESULT:      -4.0      0.000      0.000
REMARK  1 active torsions:
REMARK  status: ('A' for Active; 'I' for Inactive)
REMARK    1  A    between atoms: CA_2  and  C_3 
ROOT
ATOM      1  N   GLY A   1     -23.615  18.576   7.097  1.00 20.00    -0.249 NA
ATOM      2  CA  GLY A   1     -22.941  18.055   8.184  1.00 20.00     0.122 A 
HETATM    3  C1  UNK A   1     -24.710  19.169   7.522  1.00 20.00     0.168 A 
HETATM    4  C2  UNK A   1     -23.531  18.257   9.414  1.00 20.00     0.104 A 
HETATM    5  S3  UNK A   1     -22.905  17.718  10.893  1.00 20.00    -0.070 SA
HETATM    6  S4  UNK A   1     -24.988  19.137   9.214  1.00 20.00    -0.069 SA
ENDROOT
BRANCH   2   7
ATOM      7  C   GLY A   1     -21.702  17.358   7.938  1.00 20.00     0.292 C 
ATOM      8  O   GLY A   1     -21.490  16.673   6.925  1.00 20.00    -0.300 OA
ENDBRANCH   2   7
TORSDOF 1
ENDMDL
MODEL 2
REMARK VINA RESULT:      -3.8     18.496     19.082
REMARK  1 active torsions:
REMARK  status: ('A' for Active; 'I' for Inactive)
REMARK    1  A    between atoms: CA_2  and  C_3 
ROOT
ATOM      1  N   GLY A   1     -38.191  14.020  -4.365  1.00 20.00    -0.249 NA
ATOM      2  CA  GLY A   1     -36.955  14.625  -4.238  1.00 20.00     0.122 A 
HETATM    3  C1  UNK A   1     -39.127  14.933  -4.217  1.00 20.00     0.168 A 
HETATM    4  C2  UNK A   1     -36.970  15.982  -3.996  1.00 20.00     0.104 A 
HETATM    5  S3  UNK A   1     -35.593  16.950  -3.803  1.00 20.00    -0.070 SA
HETATM    6  S4  UNK A   1     -38.591  16.536  -3.925  1.00 20.00    -0.069 SA
ENDROOT
BRANCH   2   7
ATOM      7  C   GLY A   1     -35.782  13.796  -4.368  1.00 20.00     0.292 C 
ATOM      8  O   GLY A   1     -35.825  12.560  -4.476  1.00 20.00    -0.300 OA
ENDBRANCH   2   7
TORSDOF 1
ENDMDL
MODEL 3
REMARK VINA RESULT:      -3.7      3.501      4.444
REMARK  1 active torsions:
REMARK  status: ('A' for Active; 'I' for Inactive)
REMARK    1  A    between atoms: CA_2  and  C_3 
ROOT
ATOM      1  N   GLY A   1     -24.565  19.148   4.585  1.00 20.00    -0.249 NA
ATOM      2  CA  GLY A   1     -25.315  19.178   5.745  1.00 20.00     0.122 A 
HETATM    3  C1  UNK A   1     -25.379  19.170   3.553  1.00 20.00     0.168 A 
HETATM    4  C2  UNK A   1     -26.683  19.220   5.578  1.00 20.00     0.104 A 
HETATM    5  S3  UNK A   1     -27.816  19.263   6.837  1.00 20.00    -0.070 SA
HETATM    6  S4  UNK A   1     -27.058  19.226   3.905  1.00 20.00    -0.069 SA
ENDROOT
BRANCH   2   7
ATOM      7  C   GLY A   1     -24.611  19.162   7.004  1.00 20.00     0.292 C 
ATOM      8  O   GLY A   1     -23.546  18.552   7.187  1.00 20.00    -0.300 OA
ENDBRANCH   2   7
TORSDOF 1
ENDMDL
MODEL 4
REMARK VINA RESULT:      -3.6      1.726      2.798
REMARK  1 active torsions:
REMARK  status: ('A' for Active; 'I' for Inactive)
REMARK    1  A    between atoms: CA_2  and  C_3 
ROOT
ATOM      1  N   GLY A   1     -22.783  18.084   7.416  1.00 20.00    -0.249 NA
ATOM      2  CA  GLY A   1     -23.951  18.613   7.930  1.00 20.00     0.122 A 
HETATM    3  C1  UNK A   1     -22.084  17.563   8.401  1.00 20.00     0.168 A 
HETATM    4  C2  UNK A   1     -24.122  18.488   9.293  1.00 20.00     0.104 A 
HETATM    5  S3  UNK A   1     -25.463  19.051  10.161  1.00 20.00    -0.070 SA
HETATM    6  S4  UNK A   1     -22.773  17.674   9.969  1.00 20.00    -0.069 SA
ENDROOT
BRANCH   2   7
ATOM      7  C   GLY A   1     -24.870  19.238   7.011  1.00 20.00     0.292 C 
ATOM      8  O   GLY A   1     -25.079  18.821   5.861  1.00 20.00    -0.300 OA
ENDBRANCH   2   7
TORSDOF 1
ENDMDL
MODEL 5
REMARK VINA RESULT:      -3.6     16.535     17.395
REMARK  1 active torsions:
REMARK  status: ('A' for Active; 'I' for Inactive)
REMARK    1  A    between atoms: CA_2  and  C_3 
ROOT
ATOM      1  N   GLY A   1     -33.622  14.072  -4.505  1.00 20.00    -0.249 NA
ATOM      2  CA  GLY A   1     -34.859  14.586  -4.168  1.00 20.00     0.122 A 
HETATM    3  C1  UNK A   1     -32.693  14.930  -4.142  1.00 20.00     0.168 A 
HETATM    4  C2  UNK A   1     -34.853  15.822  -3.557  1.00 20.00     0.104 A 
HETATM    5  S3  UNK A   1     -36.234  16.662  -3.049  1.00 20.00    -0.070 SA
HETATM    6  S4  UNK A   1     -33.238  16.373  -3.390  1.00 20.00    -0.069 SA
ENDROOT
BRANCH   2   7
ATOM      7  C   GLY A   1     -36.025  13.796  -4.480  1.00 20.00     0.292 C 
ATOM      8  O   GLY A   1     -36.023  12.556  -4.518  1.00 20.00    -0.300 OA
ENDBRANCH   2   7
TORSDOF 1
ENDMDL
MODEL 6
REMARK VINA RESULT:      -3.6     18.202     19.016
REMARK  1 active torsions:
REMARK  status: ('A' for Active; 'I' for Inactive)
REMARK    1  A    between atoms: CA_2  and  C_3 
ROOT
ATOM      1  N   GLY A   1     -36.251  14.427  -6.885  1.00 20.00    -0.249 NA
ATOM      2  CA  GLY A   1     -35.639  14.454  -5.647  1.00 20.00     0.122 A 
HETATM    3  C1  UNK A   1     -35.608  15.241  -7.694  1.00 20.00     0.168 A 
HETATM    4  C2  UNK A   1     -34.544  15.285  -5.533  1.00 20.00     0.104 A 
HETATM    5  S3  UNK A   1     -33.624  15.495  -4.126  1.00 20.00    -0.070 SA
HETATM    6  S4  UNK A   1     -34.259  16.068  -7.031  1.00 20.00    -0.069 SA
ENDROOT
BRANCH   2   7
ATOM      7  C   GLY A   1     -36.190  13.625  -4.603  1.00 20.00     0.292 C 
ATOM      8  O   GLY A   1     -35.802  12.470  -4.369  1.00 20.00    -0.300 OA
ENDBRANCH   2   7
TORSDOF 1
ENDMDL
MODEL 7
REMARK VINA RESULT:      -3.5     16.684     17.691
REMARK  1 active torsions:
REMARK  status: ('A' for Active; 'I' for Inactive)
REMARK    1  A    between atoms: CA_2  and  C_3 
ROOT
ATOM      1  N   GLY A   1     -35.309  15.172  -2.721  1.00 20.00    -0.249 NA
ATOM      2  CA  GLY A   1     -35.263  14.802  -4.052  1.00 20.00     0.122 A 
HETATM    3  C1  UNK A   1     -34.437  16.135  -2.519  1.00 20.00     0.168 A 
HETATM    4  C2  UNK A   1     -34.359  15.485  -4.837  1.00 20.00     0.104 A 
HETATM    5  S3  UNK A   1     -34.112  15.219  -6.492  1.00 20.00    -0.070 SA
HETATM    6  S4  UNK A   1     -33.529  16.643  -3.883  1.00 20.00    -0.069 SA
ENDROOT
BRANCH   2   7
ATOM      7  C   GLY A   1     -36.149  13.751  -4.491  1.00 20.00     0.292 C 
ATOM      8  O   GLY A   1     -35.838  12.550  -4.496  1.00 20.00    -0.300 OA
ENDBRANCH   2   7
TORSDOF 1
ENDMDL
MODEL 8
REMARK VINA RESULT:      -3.5      1.929      2.700
REMARK  1 active torsions:
REMARK  status: ('A' for Active; 'I' for Inactive)
REMARK    1  A    between atoms: CA_2  and  C_3 
ROOT
ATOM      1  N   GLY A   1     -22.616  17.471  10.809  1.00 20.00    -0.249 NA
ATOM      2  CA  GLY A   1     -23.007  17.880   9.548  1.00 20.00     0.122 A 
HETATM    3  C1  UNK A   1     -23.608  17.675  11.648  1.00 20.00     0.168 A 
HETATM    4  C2  UNK A   1     -24.286  18.387   9.449  1.00 20.00     0.104 A 
HETATM    5  S3  UNK A   1     -24.999  18.953   8.020  1.00 20.00    -0.070 SA
HETATM    6  S4  UNK A   1     -25.039  18.354  10.989  1.00 20.00    -0.069 SA
ENDROOT
BRANCH   2   7
ATOM      7  C   GLY A   1     -22.060  17.741   8.469  1.00 20.00     0.292 C 
ATOM      8  O   GLY A   1     -22.056  16.784   7.679  1.00 20.00    -0.300 OA
ENDBRANCH   2   7
TORSDOF 1
ENDMDL
MODEL 9
REMARK VINA RESULT:      -3.5      2.492      3.069
REMARK  1 active torsions:
REMARK  status: ('A' for Active; 'I' for Inactive)
REMARK    1  A    between atoms: CA_2  and  C_3 
ROOT
ATOM      1  N   GLY A   1     -25.048  18.512  10.513  1.00 20.00    -0.249 NA
ATOM      2  CA  GLY A   1     -23.940  18.566   9.689  1.00 20.00     0.122 A 
HETATM    3  C1  UNK A   1     -24.709  17.932  11.643  1.00 20.00     0.168 A 
HETATM    4  C2  UNK A   1     -22.780  18.026  10.203  1.00 20.00     0.104 A 
HETATM    5  S3  UNK A   1     -21.293  17.968   9.394  1.00 20.00    -0.070 SA
HETATM    6  S4  UNK A   1     -23.075  17.426  11.782  1.00 20.00    -0.069 SA
ENDROOT
BRANCH   2   7
ATOM      7  C   GLY A   1     -24.095  19.171   8.389  1.00 20.00     0.292 C 
ATOM      8  O   GLY A   1     -24.221  18.519   7.340  1.00 20.00    -0.300 OA
ENDBRANCH   2   7
TORSDOF 1
ENDMDL
