MODEL 1
REMARK VINA RESULT:      -4.9      0.000      0.000
REMARK  3 active torsions:
REMARK  status: ('A' for Active; 'I' for Inactive)
REMARK    1  A    between atoms: C3_3  and  C7_7 
REMARK    2  A    between atoms: C4_4  and  C6_6 
REMARK    3  A    between atoms: C4_4  and  O11_11 
ROOT
HETATM    1  C1  UNL     1     -34.901  17.143  -4.820  1.00 20.00     0.074 C 
HETATM    2  C5  UNL     1     -34.235  14.836  -5.561  1.00 20.00     0.046 A 
HETATM    3  C6  UNL     1     -35.711  14.810  -5.293  1.00 20.00     0.114 A 
HETATM    4  C7  UNL     1     -34.809  15.739  -4.482  1.00 20.00     0.079 A 
HETATM    5  N9  UNL     1     -34.973  18.269  -5.092  1.00 20.00    -0.196 NA
ENDROOT
BRANCH   4   6
HETATM    6  C3  UNL     1     -34.499  15.347  -3.098  1.00 20.00    -0.012 C 
HETATM    7  C2  UNL     1     -34.762  16.107  -2.028  1.00 20.00     0.008 C 
ENDBRANCH   4   6
BRANCH   3   8
HETATM    8  C4  UNL     1     -36.313  13.610  -4.691  1.00 20.00     0.264 C 
HETATM    9  O10 UNL     1     -35.677  12.619  -4.359  1.00 20.00    -0.265 OA
BRANCH   8  10
HETATM   10  O11 UNL     1     -37.659  13.787  -4.569  1.00 20.00    -0.326 OA
HETATM   11  C8  UNL     1     -38.077  15.114  -4.235  1.00 20.00     0.213 C 
ENDBRANCH   8  10
ENDBRANCH   3   8
TORSDOF 3
ENDMDL
MODEL 2
REMARK VINA RESULT:      -4.5     17.326     19.021
REMARK  3 active torsions:
REMARK  status: ('A' for Active; 'I' for Inactive)
REMARK    1  A    between atoms: C3_3  and  C7_7 
REMARK    2  A    between atoms: C4_4  and  C6_6 
REMARK    3  A    between atoms: C4_4  and  O11_11 
ROOT
HETATM    1  C1  UNL     1     -22.157  17.361   7.957  1.00 20.00     0.074 C 
HETATM    2  C5  UNL     1     -22.081  18.233  10.313  1.00 20.00     0.046 A 
HETATM    3  C6  UNL     1     -22.930  16.997  10.322  1.00 20.00     0.114 A 
HETATM    4  C7  UNL     1     -22.901  17.888   9.081  1.00 20.00     0.079 A 
HETATM    5  N9  UNL     1     -21.559  16.939   7.056  1.00 20.00    -0.196 NA
ENDROOT
BRANCH   4   6
HETATM    6  C3  UNL     1     -24.068  18.751   8.836  1.00 20.00    -0.012 C 
HETATM    7  C2  UNL     1     -24.652  18.896   7.641  1.00 20.00     0.008 C 
ENDBRANCH   4   6
BRANCH   3   8
HETATM    8  C4  UNL     1     -24.112  16.943  11.196  1.00 20.00     0.264 C 
HETATM    9  O10 UNL     1     -24.962  16.064  11.145  1.00 20.00    -0.265 OA
BRANCH   8  10
HETATM   10  O11 UNL     1     -24.099  18.008  12.048  1.00 20.00    -0.326 OA
HETATM   11  C8  UNL     1     -25.378  18.583  12.332  1.00 20.00     0.213 C 
ENDBRANCH   8  10
ENDBRANCH   3   8
TORSDOF 3
ENDMDL
MODEL 3
REMARK VINA RESULT:      -4.4      2.846      3.896
REMARK  3 active torsions:
REMARK  status: ('A' for Active; 'I' for Inactive)
REMARK    1  A    between atoms: C3_3  and  C7_7 
REMARK    2  A    between atoms: C4_4  and  C6_6 
REMARK    3  A    between atoms: C4_4  and  O11_11 
ROOT
HETATM    1  C1  UNL     1     -36.939  14.374  -4.381  1.00 20.00     0.074 C 
HETATM    2  C5  UNL     1     -34.498  14.042  -3.885  1.00 20.00     0.046 A 
HETATM    3  C6  UNL     1     -34.986  15.149  -2.999  1.00 20.00     0.114 A 
HETATM    4  C7  UNL     1     -35.612  14.950  -4.379  1.00 20.00     0.079 A 
HETATM    5  N9  UNL     1     -38.003  13.912  -4.383  1.00 20.00    -0.196 NA
ENDROOT
BRANCH   4   6
HETATM    6  C3  UNL     1     -35.231  15.897  -5.440  1.00 20.00    -0.012 C 
HETATM    7  C2  UNL     1     -34.657  15.536  -6.593  1.00 20.00     0.008 C 
ENDBRANCH   4   6
BRANCH   3   8
HETATM    8  C4  UNL     1     -34.100  16.289  -2.718  1.00 20.00     0.264 C 
HETATM    9  O10 UNL     1     -32.906  16.310  -2.982  1.00 20.00    -0.265 OA
BRANCH   8  10
HETATM   10  O11 UNL     1     -34.817  17.290  -2.130  1.00 20.00    -0.326 OA
HETATM   11  C8  UNL     1     -35.331  16.993  -0.828  1.00 20.00     0.213 C 
ENDBRANCH   8  10
ENDBRANCH   3   8
TORSDOF 3
ENDMDL
MODEL 4
REMARK VINA RESULT:      -4.4     17.609     19.129
REMARK  3 active torsions:
REMARK  status: ('A' for Active; 'I' for Inactive)
REMARK    1  A    between atoms: C3_3  and  C7_7 
REMARK    2  A    between atoms: C4_4  and  C6_6 
REMARK    3  A    between atoms: C4_4  and  O11_11 
ROOT
HETATM    1  C1  UNL     1     -25.052  18.490  11.277  1.00 20.00     0.074 C 
HETATM    2  C5  UNL     1     -23.961  16.729   9.856  1.00 20.00     0.046 A 
HETATM    3  C6  UNL     1     -22.881  17.662  10.317  1.00 20.00     0.114 A 
HETATM    4  C7  UNL     1     -24.294  18.194  10.081  1.00 20.00     0.079 A 
HETATM    5  N9  UNL     1     -25.662  18.727  12.237  1.00 20.00    -0.196 NA
ENDROOT
BRANCH   4   6
HETATM    6  C3  UNL     1     -24.528  18.985   8.862  1.00 20.00    -0.012 C 
HETATM    7  C2  UNL     1     -25.742  19.263   8.372  1.00 20.00     0.008 C 
ENDBRANCH   4   6
BRANCH   3   8
HETATM    8  C4  UNL     1     -21.777  17.993   9.403  1.00 20.00     0.264 C 
HETATM    9  O10 UNL     1     -21.293  19.111   9.290  1.00 20.00    -0.265 OA
BRANCH   8  10
HETATM   10  O11 UNL     1     -21.397  16.874   8.723  1.00 20.00    -0.326 OA
HETATM   11  C8  UNL     1     -21.315  17.017   7.302  1.00 20.00     0.213 C 
ENDBRANCH   8  10
ENDBRANCH   3   8
TORSDOF 3
ENDMDL
MODEL 5
REMARK VINA RESULT:      -4.3      1.728      2.231
REMARK  3 active torsions:
REMARK  status: ('A' for Active; 'I' for Inactive)
REMARK    1  A    between atoms: C3_3  and  C7_7 
REMARK    2  A    between atoms: C4_4  and  C6_6 
REMARK    3  A    between atoms: C4_4  and  O11_11 
ROOT
HETATM    1  C1  UNL     1     -35.037  16.196  -2.161  1.00 20.00     0.074 C 
HETATM    2  C5  UNL     1     -35.421  16.463  -4.630  1.00 20.00     0.046 A 
HETATM    3  C6  UNL     1     -36.490  15.548  -4.108  1.00 20.00     0.114 A 
HETATM    4  C7  UNL     1     -35.109  15.552  -3.454  1.00 20.00     0.079 A 
HETATM    5  N9  UNL     1     -34.979  16.714  -1.123  1.00 20.00    -0.196 NA
ENDROOT
BRANCH   4   6
HETATM    6  C3  UNL     1     -34.213  14.422  -3.751  1.00 20.00    -0.012 C 
HETATM    7  C2  UNL     1     -33.035  14.545  -4.373  1.00 20.00     0.008 C 
ENDBRANCH   4   6
BRANCH   3   8
HETATM    8  C4  UNL     1     -36.940  14.420  -4.939  1.00 20.00     0.264 C 
HETATM    9  O10 UNL     1     -36.369  14.048  -5.955  1.00 20.00    -0.265 OA
BRANCH   8  10
HETATM   10  O11 UNL     1     -38.068  13.877  -4.398  1.00 20.00    -0.326 OA
HETATM   11  C8  UNL     1     -39.142  14.793  -4.172  1.00 20.00     0.213 C 
ENDBRANCH   8  10
ENDBRANCH   3   8
TORSDOF 3
ENDMDL
MODEL 6
REMARK VINA RESULT:      -4.2      3.150      4.390
REMARK  3 active torsions:
REMARK  status: ('A' for Active; 'I' for Inactive)
REMARK    1  A    between atoms: C3_3  and  C7_7 
REMARK    2  A    between atoms: C4_4  and  C6_6 
REMARK    3  A    between atoms: C4_4  and  O11_11 
ROOT
HETATM    1  C1  UNL     1     -35.470  13.948  -4.370  1.00 20.00     0.074 C 
HETATM    2  C5  UNL     1     -33.352  15.238  -3.963  1.00 20.00     0.046 A 
HETATM    3  C6  UNL     1     -34.251  15.472  -2.784  1.00 20.00     0.114 A 
HETATM    4  C7  UNL     1     -34.858  15.243  -4.168  1.00 20.00     0.079 A 
HETATM    5  N9  UNL     1     -35.960  12.909  -4.534  1.00 20.00    -0.196 NA
ENDROOT
BRANCH   4   6
HETATM    6  C3  UNL     1     -35.395  16.417  -4.876  1.00 20.00    -0.012 C 
HETATM    7  C2  UNL     1     -36.587  16.443  -5.483  1.00 20.00     0.008 C 
ENDBRANCH   4   6
BRANCH   3   8
HETATM    8  C4  UNL     1     -34.273  16.798  -2.149  1.00 20.00     0.264 C 
HETATM    9  O10 UNL     1     -35.212  17.226  -1.491  1.00 20.00    -0.265 OA
BRANCH   8  10
HETATM   10  O11 UNL     1     -33.104  17.450  -2.411  1.00 20.00    -0.326 OA
HETATM   11  C8  UNL     1     -32.468  18.048  -1.278  1.00 20.00     0.213 C 
ENDBRANCH   8  10
ENDBRANCH   3   8
TORSDOF 3
ENDMDL
MODEL 7
REMARK VINA RESULT:      -4.2      1.928      2.974
REMARK  3 active torsions:
REMARK  status: ('A' for Active; 'I' for Inactive)
REMARK    1  A    between atoms: C3_3  and  C7_7 
REMARK    2  A    between atoms: C4_4  and  C6_6 
REMARK    3  A    between atoms: C4_4  and  O11_11 
ROOT
HETATM    1  C1  UNL     1     -32.979  17.945  -3.055  1.00 20.00     0.074 C 
HETATM    2  C5  UNL     1     -34.342  15.930  -2.424  1.00 20.00     0.046 A 
HETATM    3  C6  UNL     1     -33.430  15.519  -3.542  1.00 20.00     0.114 A 
HETATM    4  C7  UNL     1     -33.948  16.955  -3.474  1.00 20.00     0.079 A 
HETATM    5  N9  UNL     1     -32.202  18.739  -2.718  1.00 20.00    -0.196 NA
ENDROOT
BRANCH   4   6
HETATM    6  C3  UNL     1     -35.014  17.338  -4.414  1.00 20.00    -0.012 C 
HETATM    7  C2  UNL     1     -34.916  18.351  -5.283  1.00 20.00     0.008 C 
ENDBRANCH   4   6
BRANCH   3   8
HETATM    8  C4  UNL     1     -33.920  14.577  -4.560  1.00 20.00     0.264 C 
HETATM    9  O10 UNL     1     -33.568  14.591  -5.732  1.00 20.00    -0.265 OA
BRANCH   8  10
HETATM   10  O11 UNL     1     -34.807  13.711  -3.991  1.00 20.00    -0.326 OA
HETATM   11  C8  UNL     1     -36.088  13.641  -4.624  1.00 20.00     0.213 C 
ENDBRANCH   8  10
ENDBRANCH   3   8
TORSDOF 3
ENDMDL
MODEL 8
REMARK VINA RESULT:      -4.2      2.234      2.982
REMARK  3 active torsions:
REMARK  status: ('A' for Active; 'I' for Inactive)
REMARK    1  A    between atoms: C3_3  and  C7_7 
REMARK    2  A    between atoms: C4_4  and  C6_6 
REMARK    3  A    between atoms: C4_4  and  O11_11 
ROOT
HETATM    1  C1  UNL     1     -35.201  16.573  -1.320  1.00 20.00     0.074 C 
HETATM    2  C5  UNL     1     -35.817  16.487  -3.754  1.00 20.00     0.046 A 
HETATM    3  C6  UNL     1     -35.555  15.078  -3.311  1.00 20.00     0.114 A 
HETATM    4  C7  UNL     1     -34.790  16.232  -2.665  1.00 20.00     0.079 A 
HETATM    5  N9  UNL     1     -35.531  16.847  -0.241  1.00 20.00    -0.196 NA
ENDROOT
BRANCH   4   6
HETATM    6  C3  UNL     1     -33.386  16.424  -3.063  1.00 20.00    -0.012 C 
HETATM    7  C2  UNL     1     -32.582  17.358  -2.542  1.00 20.00     0.008 C 
ENDBRANCH   4   6
BRANCH   3   8
HETATM    8  C4  UNL     1     -34.894  14.144  -4.235  1.00 20.00     0.264 C 
HETATM    9  O10 UNL     1     -34.241  13.173  -3.877  1.00 20.00    -0.265 OA
BRANCH   8  10
HETATM   10  O11 UNL     1     -35.125  14.535  -5.521  1.00 20.00    -0.326 OA
HETATM   11  C8  UNL     1     -33.957  14.839  -6.289  1.00 20.00     0.213 C 
ENDBRANCH   8  10
ENDBRANCH   3   8
TORSDOF 3
ENDMDL
MODEL 9
REMARK VINA RESULT:      -4.2      3.082      4.139
REMARK  3 active torsions:
REMARK  status: ('A' for Active; 'I' for Inactive)
REMARK    1  A    between atoms: C3_3  and  C7_7 
REMARK    2  A    between atoms: C4_4  and  C6_6 
REMARK    3  A    between atoms: C4_4  and  O11_11 
ROOT
HETATM    1  C1  UNL     1     -35.506  13.965  -4.321  1.00 20.00     0.074 C 
HETATM    2  C5  UNL     1     -33.486  15.395  -3.884  1.00 20.00     0.046 A 
HETATM    3  C6  UNL     1     -34.369  15.488  -2.675  1.00 20.00     0.114 A 
HETATM    4  C7  UNL     1     -34.992  15.292  -4.056  1.00 20.00     0.079 A 
HETATM    5  N9  UNL     1     -35.917  12.901  -4.535  1.00 20.00    -0.196 NA
ENDROOT
BRANCH   4   6
HETATM    6  C3  UNL     1     -35.638  16.457  -4.682  1.00 20.00    -0.012 C 
HETATM    7  C2  UNL     1     -36.409  16.387  -5.774  1.00 20.00     0.008 C 
ENDBRANCH   4   6
BRANCH   3   8
HETATM    8  C4  UNL     1     -34.478  16.770  -1.962  1.00 20.00     0.264 C 
HETATM    9  O10 UNL     1     -33.717  17.714  -2.128  1.00 20.00    -0.265 OA
BRANCH   8  10
HETATM   10  O11 UNL     1     -35.541  16.728  -1.109  1.00 20.00    -0.326 OA
HETATM   11  C8  UNL     1     -35.316  17.302   0.182  1.00 20.00     0.213 C 
ENDBRANCH   8  10
ENDBRANCH   3   8
TORSDOF 3
ENDMDL
