MODEL 1
REMARK VINA RESULT:      -5.2      0.000      0.000
REMARK  1 active torsions:
REMARK  status: ('A' for Active; 'I' for Inactive)
REMARK    1  A    between atoms: C4_4  and  C5_5 
ROOT
HETATM    1  C1  UNL     1     -35.241  16.347  -2.117  1.00 20.00    -0.021 C 
HETATM    2  C2  UNL     1     -33.910  16.302  -2.256  1.00 20.00    -0.025 C 
HETATM    3  C3  UNL     1     -35.671  13.990  -4.161  1.00 20.00    -0.015 C 
HETATM    4  C4  UNL     1     -36.411  15.092  -3.941  1.00 20.00    -0.009 C 
HETATM    5  C6  UNL     1     -34.190  13.812  -3.945  1.00 20.00     0.028 C 
HETATM    6  C7  UNL     1     -33.223  14.959  -4.293  1.00 20.00     0.012 C 
HETATM    7  C8  UNL     1     -34.781  16.960  -4.330  1.00 20.00     0.022 C 
HETATM    8  C9  UNL     1     -35.923  16.432  -3.456  1.00 20.00     0.045 C 
HETATM    9  C10 UNL     1     -33.524  16.344  -3.707  1.00 20.00     0.009 C 
ENDROOT
BRANCH   4  10
HETATM   10  C5  UNL     1     -37.850  14.961  -4.212  1.00 20.00     0.152 C 
HETATM   11  C11 UNL     1     -38.685  16.213  -4.206  1.00 20.00     0.096 C 
HETATM   12  O12 UNL     1     -38.344  13.855  -4.427  1.00 20.00    -0.293 OA
ENDBRANCH   4  10
TORSDOF 1
ENDMDL
MODEL 2
REMARK VINA RESULT:      -5.1      0.875      2.128
REMARK  1 active torsions:
REMARK  status: ('A' for Active; 'I' for Inactive)
REMARK    1  A    between atoms: C4_4  and  C5_5 
ROOT
HETATM    1  C1  UNL     1     -34.082  14.524  -4.002  1.00 20.00    -0.021 C 
HETATM    2  C2  UNL     1     -33.121  15.439  -3.822  1.00 20.00    -0.025 C 
HETATM    3  C3  UNL     1     -36.163  16.693  -4.941  1.00 20.00    -0.015 C 
HETATM    4  C4  UNL     1     -36.344  15.577  -4.212  1.00 20.00    -0.009 C 
HETATM    5  C6  UNL     1     -34.919  17.538  -5.046  1.00 20.00     0.028 C 
HETATM    6  C7  UNL     1     -34.061  17.794  -3.793  1.00 20.00     0.012 C 
HETATM    7  C8  UNL     1     -34.803  15.915  -2.260  1.00 20.00     0.022 C 
HETATM    8  C9  UNL     1     -35.348  14.921  -3.292  1.00 20.00     0.045 C 
HETATM    9  C10 UNL     1     -33.618  16.574  -2.973  1.00 20.00     0.009 C 
ENDROOT
BRANCH   4  10
HETATM   10  C5  UNL     1     -37.665  14.942  -4.333  1.00 20.00     0.152 C 
HETATM   11  C11 UNL     1     -38.877  15.833  -4.346  1.00 20.00     0.096 C 
HETATM   12  O12 UNL     1     -37.760  13.718  -4.412  1.00 20.00    -0.293 OA
ENDBRANCH   4  10
TORSDOF 1
ENDMDL
MODEL 3
REMARK VINA RESULT:      -5.0      1.232      1.678
REMARK  1 active torsions:
REMARK  status: ('A' for Active; 'I' for Inactive)
REMARK    1  A    between atoms: C4_4  and  C5_5 
ROOT
HETATM    1  C1  UNL     1     -35.368  16.272  -1.582  1.00 20.00    -0.021 C 
HETATM    2  C2  UNL     1     -34.360  17.152  -1.532  1.00 20.00    -0.025 C 
HETATM    3  C3  UNL     1     -34.115  14.770  -4.049  1.00 20.00    -0.015 C 
HETATM    4  C4  UNL     1     -35.402  15.018  -3.750  1.00 20.00    -0.009 C 
HETATM    5  C6  UNL     1     -32.901  15.572  -3.655  1.00 20.00     0.028 C 
HETATM    6  C7  UNL     1     -32.970  17.111  -3.651  1.00 20.00     0.012 C 
HETATM    7  C8  UNL     1     -35.472  17.519  -3.562  1.00 20.00     0.022 C 
HETATM    8  C9  UNL     1     -35.944  16.187  -2.970  1.00 20.00     0.045 C 
HETATM    9  C10 UNL     1     -34.122  17.768  -2.880  1.00 20.00     0.009 C 
ENDROOT
BRANCH   4  10
HETATM   10  C5  UNL     1     -36.376  14.034  -4.246  1.00 20.00     0.152 C 
HETATM   11  C11 UNL     1     -37.815  14.460  -4.352  1.00 20.00     0.096 C 
HETATM   12  O12 UNL     1     -36.011  12.901  -4.554  1.00 20.00    -0.293 OA
ENDBRANCH   4  10
TORSDOF 1
ENDMDL
MODEL 4
REMARK VINA RESULT:      -4.8      1.955      3.288
REMARK  1 active torsions:
REMARK  status: ('A' for Active; 'I' for Inactive)
REMARK    1  A    between atoms: C4_4  and  C5_5 
ROOT
HETATM    1  C1  UNL     1     -33.078  15.902  -3.446  1.00 20.00    -0.021 C 
HETATM    2  C2  UNL     1     -33.420  16.698  -2.425  1.00 20.00    -0.025 C 
HETATM    3  C3  UNL     1     -35.421  16.981  -5.252  1.00 20.00    -0.015 C 
HETATM    4  C4  UNL     1     -34.901  15.745  -5.155  1.00 20.00    -0.009 C 
HETATM    5  C6  UNL     1     -35.464  18.053  -4.192  1.00 20.00     0.028 C 
HETATM    6  C7  UNL     1     -35.743  17.668  -2.727  1.00 20.00     0.012 C 
HETATM    7  C8  UNL     1     -35.191  15.193  -2.724  1.00 20.00     0.022 C 
HETATM    8  C9  UNL     1     -34.264  15.119  -3.942  1.00 20.00     0.045 C 
HETATM    9  C10 UNL     1     -34.881  16.560  -2.107  1.00 20.00     0.009 C 
ENDROOT
BRANCH   4  10
HETATM   10  C5  UNL     1     -34.973  14.924  -6.373  1.00 20.00     0.152 C 
HETATM   11  C11 UNL     1     -33.957  15.176  -7.454  1.00 20.00     0.096 C 
HETATM   12  O12 UNL     1     -35.847  14.067  -6.494  1.00 20.00    -0.293 OA
ENDBRANCH   4  10
TORSDOF 1
ENDMDL
MODEL 5
REMARK VINA RESULT:      -4.8      1.453      2.779
REMARK  1 active torsions:
REMARK  status: ('A' for Active; 'I' for Inactive)
REMARK    1  A    between atoms: C4_4  and  C5_5 
ROOT
HETATM    1  C1  UNL     1     -33.251  15.868  -3.289  1.00 20.00    -0.021 C 
HETATM    2  C2  UNL     1     -33.055  17.026  -2.646  1.00 20.00    -0.025 C 
HETATM    3  C3  UNL     1     -35.906  16.904  -4.627  1.00 20.00    -0.015 C 
HETATM    4  C4  UNL     1     -35.586  15.679  -4.174  1.00 20.00    -0.009 C 
HETATM    5  C6  UNL     1     -35.381  18.234  -4.152  1.00 20.00     0.028 C 
HETATM    6  C7  UNL     1     -35.141  18.467  -2.648  1.00 20.00     0.012 C 
HETATM    7  C8  UNL     1     -35.016  16.093  -1.766  1.00 20.00     0.022 C 
HETATM    8  C9  UNL     1     -34.642  15.345  -3.049  1.00 20.00     0.045 C 
HETATM    9  C10 UNL     1     -34.290  17.435  -1.896  1.00 20.00     0.009 C 
ENDROOT
BRANCH   4  10
HETATM   10  C5  UNL     1     -36.238  14.553  -4.859  1.00 20.00     0.152 C 
HETATM   11  C11 UNL     1     -35.890  14.308  -6.302  1.00 20.00     0.096 C 
HETATM   12  O12 UNL     1     -37.048  13.846  -4.260  1.00 20.00    -0.293 OA
ENDBRANCH   4  10
TORSDOF 1
ENDMDL
MODEL 6
REMARK VINA RESULT:      -4.8      1.293      2.439
REMARK  1 active torsions:
REMARK  status: ('A' for Active; 'I' for Inactive)
REMARK    1  A    between atoms: C4_4  and  C5_5 
ROOT
HETATM    1  C1  UNL     1     -34.333  16.907  -5.088  1.00 20.00    -0.021 C 
HETATM    2  C2  UNL     1     -33.559  17.656  -4.292  1.00 20.00    -0.025 C 
HETATM    3  C3  UNL     1     -35.900  15.685  -2.645  1.00 20.00    -0.015 C 
HETATM    4  C4  UNL     1     -35.531  15.119  -3.809  1.00 20.00    -0.009 C 
HETATM    5  C6  UNL     1     -35.231  16.822  -1.916  1.00 20.00     0.028 C 
HETATM    6  C7  UNL     1     -33.693  16.903  -1.875  1.00 20.00     0.012 C 
HETATM    7  C8  UNL     1     -33.040  15.419  -3.824  1.00 20.00     0.022 C 
HETATM    8  C9  UNL     1     -34.330  15.468  -4.648  1.00 20.00     0.045 C 
HETATM    9  C10 UNL     1     -32.941  16.819  -3.209  1.00 20.00     0.009 C 
ENDROOT
BRANCH   4  10
HETATM   10  C5  UNL     1     -36.402  14.041  -4.300  1.00 20.00     0.152 C 
HETATM   11  C11 UNL     1     -37.867  14.342  -4.468  1.00 20.00     0.096 C 
HETATM   12  O12 UNL     1     -35.936  12.932  -4.553  1.00 20.00    -0.293 OA
ENDBRANCH   4  10
TORSDOF 1
ENDMDL
MODEL 7
REMARK VINA RESULT:      -4.8      0.933      2.426
REMARK  1 active torsions:
REMARK  status: ('A' for Active; 'I' for Inactive)
REMARK    1  A    between atoms: C4_4  and  C5_5 
ROOT
HETATM    1  C1  UNL     1     -35.106  14.796  -5.980  1.00 20.00    -0.021 C 
HETATM    2  C2  UNL     1     -33.854  15.021  -5.561  1.00 20.00    -0.025 C 
HETATM    3  C3  UNL     1     -36.350  16.326  -3.525  1.00 20.00    -0.015 C 
HETATM    4  C4  UNL     1     -36.786  15.232  -4.175  1.00 20.00    -0.009 C 
HETATM    5  C6  UNL     1     -34.930  16.809  -3.374  1.00 20.00     0.028 C 
HETATM    6  C7  UNL     1     -33.798  15.790  -3.146  1.00 20.00     0.012 C 
HETATM    7  C8  UNL     1     -34.861  13.637  -3.960  1.00 20.00     0.022 C 
HETATM    8  C9  UNL     1     -35.946  14.201  -4.882  1.00 20.00     0.045 C 
HETATM    9  C10 UNL     1     -33.692  14.613  -4.125  1.00 20.00     0.009 C 
ENDROOT
BRANCH   4  10
HETATM   10  C5  UNL     1     -38.243  15.032  -4.185  1.00 20.00     0.152 C 
HETATM   11  C11 UNL     1     -39.119  16.219  -3.887  1.00 20.00     0.096 C 
HETATM   12  O12 UNL     1     -38.716  13.922  -4.421  1.00 20.00    -0.293 OA
ENDBRANCH   4  10
TORSDOF 1
ENDMDL
MODEL 8
REMARK VINA RESULT:      -4.7      2.918      4.480
REMARK  1 active torsions:
REMARK  status: ('A' for Active; 'I' for Inactive)
REMARK    1  A    between atoms: C4_4  and  C5_5 
ROOT
HETATM    1  C1  UNL     1     -34.843  15.453  -2.800  1.00 20.00    -0.021 C 
HETATM    2  C2  UNL     1     -35.303  14.774  -3.859  1.00 20.00    -0.025 C 
HETATM    3  C3  UNL     1     -33.977  17.905  -4.576  1.00 20.00    -0.015 C 
HETATM    4  C4  UNL     1     -33.394  17.376  -3.485  1.00 20.00    -0.009 C 
HETATM    5  C6  UNL     1     -34.842  17.206  -5.593  1.00 20.00     0.028 C 
HETATM    6  C7  UNL     1     -34.490  15.775  -6.042  1.00 20.00     0.012 C 
HETATM    7  C8  UNL     1     -32.988  14.992  -4.154  1.00 20.00     0.022 C 
HETATM    8  C9  UNL     1     -33.439  15.939  -3.037  1.00 20.00     0.045 C 
HETATM    9  C10 UNL     1     -34.270  14.721  -4.948  1.00 20.00     0.009 C 
ENDROOT
BRANCH   4  10
HETATM   10  C5  UNL     1     -32.629  18.315  -2.651  1.00 20.00     0.152 C 
HETATM   11  C11 UNL     1     -32.610  18.082  -1.164  1.00 20.00     0.096 C 
HETATM   12  O12 UNL     1     -32.034  19.261  -3.165  1.00 20.00    -0.293 OA
ENDBRANCH   4  10
TORSDOF 1
ENDMDL
MODEL 9
REMARK VINA RESULT:      -4.5      3.148      4.811
REMARK  1 active torsions:
REMARK  status: ('A' for Active; 'I' for Inactive)
REMARK    1  A    between atoms: C4_4  and  C5_5 
ROOT
HETATM    1  C1  UNL     1     -35.387  18.145  -3.027  1.00 20.00    -0.021 C 
HETATM    2  C2  UNL     1     -35.954  17.069  -3.589  1.00 20.00    -0.025 C 
HETATM    3  C3  UNL     1     -32.590  16.719  -2.792  1.00 20.00    -0.015 C 
HETATM    4  C4  UNL     1     -33.190  17.591  -1.962  1.00 20.00    -0.009 C 
HETATM    5  C6  UNL     1     -33.241  15.745  -3.740  1.00 20.00     0.028 C 
HETATM    6  C7  UNL     1     -34.518  14.998  -3.310  1.00 20.00     0.012 C 
HETATM    7  C8  UNL     1     -35.356  16.451  -1.408  1.00 20.00     0.022 C 
HETATM    8  C9  UNL     1     -34.670  17.777  -1.755  1.00 20.00     0.045 C 
HETATM    9  C10 UNL     1     -35.685  15.837  -2.773  1.00 20.00     0.009 C 
ENDROOT
BRANCH   4  10
HETATM   10  C5  UNL     1     -32.291  18.446  -1.173  1.00 20.00     0.152 C 
HETATM   11  C11 UNL     1     -32.487  18.488   0.319  1.00 20.00     0.096 C 
HETATM   12  O12 UNL     1     -31.415  19.107  -1.729  1.00 20.00    -0.293 OA
ENDBRANCH   4  10
TORSDOF 1
ENDMDL
