MODEL 1
REMARK VINA RESULT:      -5.0      0.000      0.000
REMARK  0 active torsions:
REMARK  status: ('A' for Active; 'I' for Inactive)
ROOT
HETATM    1  C1  UNL     1     -33.346   5.635   2.898  1.00 20.00    -0.054 C 
HETATM    2  C2  UNL     1     -33.651   6.871   4.861  1.00 20.00     0.226 C 
HETATM    3  C3  UNL     1     -33.246   4.551   2.117  1.00 20.00     0.017 C 
HETATM    4  C4  UNL     1     -34.365   5.852   3.992  1.00 20.00     0.104 C 
HETATM    5  C5  UNL     1     -32.366   6.773   2.864  1.00 20.00     0.109 C 
HETATM    6  C6  UNL     1     -34.764   4.624   4.796  1.00 20.00     0.025 C 
HETATM    7  C7  UNL     1     -32.662   7.775   1.759  1.00 20.00     0.037 C 
HETATM    8  N8  UNL     1     -32.556   7.360   4.164  1.00 20.00    -0.352 N 
HETATM    9  O9  UNL     1     -34.007   7.217   5.979  1.00 20.00    -0.273 OA
HETATM   10  H20 UNL     1     -31.940   8.074   4.539  1.00 20.00     0.163 HD
ENDROOT
TORSDOF 0
ENDMDL
MODEL 2
REMARK VINA RESULT:      -4.6     16.084     16.947
REMARK  0 active torsions:
REMARK  status: ('A' for Active; 'I' for Inactive)
ROOT
HETATM    1  C1  UNL     1     -23.290  17.919  10.899  1.00 20.00    -0.054 C 
HETATM    2  C2  UNL     1     -23.698  18.286   8.625  1.00 20.00     0.226 C 
HETATM    3  C3  UNL     1     -22.652  17.474  11.990  1.00 20.00     0.017 C 
HETATM    4  C4  UNL     1     -22.645  18.548   9.686  1.00 20.00     0.104 C 
HETATM    5  C5  UNL     1     -24.767  17.757  10.680  1.00 20.00     0.109 C 
HETATM    6  C6  UNL     1     -21.293  17.988   9.273  1.00 20.00     0.025 C 
HETATM    7  C7  UNL     1     -25.589  18.834  11.371  1.00 20.00     0.037 C 
HETATM    8  N8  UNL     1     -24.863  17.866   9.249  1.00 20.00    -0.352 N 
HETATM    9  O9  UNL     1     -23.542  18.448   7.423  1.00 20.00    -0.273 OA
HETATM   10  H20 UNL     1     -25.714  17.652   8.738  1.00 20.00     0.163 HD
ENDROOT
TORSDOF 0
ENDMDL
MODEL 3
REMARK VINA RESULT:      -4.6     15.601     16.425
REMARK  0 active torsions:
REMARK  status: ('A' for Active; 'I' for Inactive)
ROOT
HETATM    1  C1  UNL     1     -24.648  17.949  10.657  1.00 20.00    -0.054 C 
HETATM    2  C2  UNL     1     -22.920  17.110   9.321  1.00 20.00     0.226 C 
HETATM    3  C3  UNL     1     -25.486  18.855  11.177  1.00 20.00     0.017 C 
HETATM    4  C4  UNL     1     -24.245  17.841   9.204  1.00 20.00     0.104 C 
HETATM    5  C5  UNL     1     -23.890  16.951  11.484  1.00 20.00     0.109 C 
HETATM    6  C6  UNL     1     -24.089  19.150   8.448  1.00 20.00     0.025 C 
HETATM    7  C7  UNL     1     -24.714  15.717  11.823  1.00 20.00     0.037 C 
HETATM    8  N8  UNL     1     -22.795  16.621  10.613  1.00 20.00    -0.352 N 
HETATM    9  O9  UNL     1     -22.117  16.958   8.411  1.00 20.00    -0.273 OA
HETATM   10  H20 UNL     1     -21.995  16.076  10.918  1.00 20.00     0.163 HD
ENDROOT
TORSDOF 0
ENDMDL
MODEL 4
REMARK VINA RESULT:      -4.3     16.372     17.209
REMARK  0 active torsions:
REMARK  status: ('A' for Active; 'I' for Inactive)
ROOT
HETATM    1  C1  UNL     1     -24.160  18.141  10.123  1.00 20.00    -0.054 C 
HETATM    2  C2  UNL     1     -22.497  17.896  11.751  1.00 20.00     0.226 C 
HETATM    3  C3  UNL     1     -24.707  18.487   8.950  1.00 20.00     0.017 C 
HETATM    4  C4  UNL     1     -22.805  17.501  10.318  1.00 20.00     0.104 C 
HETATM    5  C5  UNL     1     -24.790  18.445  11.452  1.00 20.00     0.109 C 
HETATM    6  C6  UNL     1     -21.703  17.951   9.372  1.00 20.00     0.025 C 
HETATM    7  C7  UNL     1     -25.842  17.422  11.856  1.00 20.00     0.037 C 
HETATM    8  N8  UNL     1     -23.653  18.397  12.332  1.00 20.00    -0.352 N 
HETATM    9  O9  UNL     1     -21.413  17.763  12.301  1.00 20.00    -0.273 OA
HETATM   10  H20 UNL     1     -23.693  18.704  13.298  1.00 20.00     0.163 HD
ENDROOT
TORSDOF 0
ENDMDL
MODEL 5
REMARK VINA RESULT:      -4.2     16.094     16.664
REMARK  0 active torsions:
REMARK  status: ('A' for Active; 'I' for Inactive)
ROOT
HETATM    1  C1  UNL     1     -23.088  17.654   9.747  1.00 20.00    -0.054 C 
HETATM    2  C2  UNL     1     -25.113  18.659  10.351  1.00 20.00     0.226 C 
HETATM    3  C3  UNL     1     -22.189  17.050   8.959  1.00 20.00     0.017 C 
HETATM    4  C4  UNL     1     -23.976  18.813   9.359  1.00 20.00     0.104 C 
HETATM    5  C5  UNL     1     -23.424  17.182  11.133  1.00 20.00     0.109 C 
HETATM    6  C6  UNL     1     -24.489  18.821   7.927  1.00 20.00     0.025 C 
HETATM    7  C7  UNL     1     -22.444  17.687  12.182  1.00 20.00     0.037 C 
HETATM    8  N8  UNL     1     -24.731  17.749  11.326  1.00 20.00    -0.352 N 
HETATM    9  O9  UNL     1     -26.175  19.263  10.306  1.00 20.00    -0.273 OA
HETATM   10  H20 UNL     1     -25.326  17.503  12.111  1.00 20.00     0.163 HD
ENDROOT
TORSDOF 0
ENDMDL
MODEL 6
REMARK VINA RESULT:      -4.1     11.497     12.198
REMARK  0 active torsions:
REMARK  status: ('A' for Active; 'I' for Inactive)
ROOT
HETATM    1  C1  UNL     1     -35.045  16.266  -3.304  1.00 20.00    -0.054 C 
HETATM    2  C2  UNL     1     -33.537  14.670  -4.113  1.00 20.00     0.226 C 
HETATM    3  C3  UNL     1     -36.197  16.940  -3.191  1.00 20.00     0.017 C 
HETATM    4  C4  UNL     1     -34.900  14.769  -3.452  1.00 20.00     0.104 C 
HETATM    5  C5  UNL     1     -33.703  16.933  -3.407  1.00 20.00     0.109 C 
HETATM    6  C6  UNL     1     -35.966  14.066  -4.277  1.00 20.00     0.025 C 
HETATM    7  C7  UNL     1     -33.128  17.317  -2.052  1.00 20.00     0.037 C 
HETATM    8  N8  UNL     1     -32.914  15.907  -4.035  1.00 20.00    -0.352 N 
HETATM    9  O9  UNL     1     -33.065  13.654  -4.604  1.00 20.00    -0.273 OA
HETATM   10  H20 UNL     1     -31.980  16.075  -4.393  1.00 20.00     0.163 HD
ENDROOT
TORSDOF 0
ENDMDL
MODEL 7
REMARK VINA RESULT:      -4.1     11.587     12.073
REMARK  0 active torsions:
REMARK  status: ('A' for Active; 'I' for Inactive)
ROOT
HETATM    1  C1  UNL     1     -34.950  14.961  -4.005  1.00 20.00    -0.054 C 
HETATM    2  C2  UNL     1     -33.200  16.294  -3.206  1.00 20.00     0.226 C 
HETATM    3  C3  UNL     1     -36.039  14.183  -3.957  1.00 20.00     0.017 C 
HETATM    4  C4  UNL     1     -34.716  16.216  -3.196  1.00 20.00     0.104 C 
HETATM    5  C5  UNL     1     -33.730  14.630  -4.817  1.00 20.00     0.109 C 
HETATM    6  C6  UNL     1     -35.259  16.214  -1.776  1.00 20.00     0.025 C 
HETATM    7  C7  UNL     1     -33.860  15.044  -6.276  1.00 20.00     0.037 C 
HETATM    8  N8  UNL     1     -32.715  15.397  -4.147  1.00 20.00    -0.352 N 
HETATM    9  O9  UNL     1     -32.529  17.047  -2.515  1.00 20.00    -0.273 OA
HETATM   10  H20 UNL     1     -31.726  15.291  -4.346  1.00 20.00     0.163 HD
ENDROOT
TORSDOF 0
ENDMDL
MODEL 8
REMARK VINA RESULT:      -4.0     11.222     12.085
REMARK  0 active torsions:
REMARK  status: ('A' for Active; 'I' for Inactive)
ROOT
HETATM    1  C1  UNL     1     -34.447  15.860  -3.409  1.00 20.00    -0.054 C 
HETATM    2  C2  UNL     1     -35.641  14.010  -4.199  1.00 20.00     0.226 C 
HETATM    3  C3  UNL     1     -33.426  16.541  -2.871  1.00 20.00     0.017 C 
HETATM    4  C4  UNL     1     -34.337  14.751  -4.429  1.00 20.00     0.104 C 
HETATM    5  C5  UNL     1     -35.876  16.038  -2.984  1.00 20.00     0.109 C 
HETATM    6  C6  UNL     1     -33.141  13.821  -4.290  1.00 20.00     0.025 C 
HETATM    7  C7  UNL     1     -36.552  17.219  -3.664  1.00 20.00     0.037 C 
HETATM    8  N8  UNL     1     -36.462  14.793  -3.401  1.00 20.00    -0.352 N 
HETATM    9  O9  UNL     1     -35.922  12.916  -4.668  1.00 20.00    -0.273 OA
HETATM   10  H20 UNL     1     -37.399  14.510  -3.133  1.00 20.00     0.163 HD
ENDROOT
TORSDOF 0
ENDMDL
MODEL 9
REMARK VINA RESULT:      -4.0     11.683     12.933
REMARK  0 active torsions:
REMARK  status: ('A' for Active; 'I' for Inactive)
ROOT
HETATM    1  C1  UNL     1     -34.630  15.997  -5.378  1.00 20.00    -0.054 C 
HETATM    2  C2  UNL     1     -35.536  13.863  -5.065  1.00 20.00     0.226 C 
HETATM    3  C3  UNL     1     -34.370  17.286  -5.120  1.00 20.00     0.017 C 
HETATM    4  C4  UNL     1     -34.639  14.872  -4.371  1.00 20.00     0.104 C 
HETATM    5  C5  UNL     1     -35.062  15.494  -6.726  1.00 20.00     0.109 C 
HETATM    6  C6  UNL     1     -35.161  15.212  -2.983  1.00 20.00     0.025 C 
HETATM    7  C7  UNL     1     -33.893  15.253  -7.670  1.00 20.00     0.037 C 
HETATM    8  N8  UNL     1     -35.715  14.260  -6.382  1.00 20.00    -0.352 N 
HETATM    9  O9  UNL     1     -35.995  12.855  -4.547  1.00 20.00    -0.273 OA
HETATM   10  H20 UNL     1     -36.263  13.724  -7.047  1.00 20.00     0.163 HD
ENDROOT
TORSDOF 0
ENDMDL
