MODEL 1
REMARK VINA RESULT:      -4.5      0.000      0.000
REMARK  0 active torsions:
REMARK  status: ('A' for Active; 'I' for Inactive)
ROOT
HETATM    1  C1  UNL     1     -23.827  18.427   9.635  1.00 20.00     0.036 C 
HETATM    2  C2  UNL     1     -22.746  17.630  12.013  1.00 20.00     0.297 C 
HETATM    3  C3  UNL     1     -22.320  18.204   9.724  1.00 20.00     0.263 C 
HETATM    4  C4  UNL     1     -24.230  17.409  11.752  1.00 20.00     0.132 C 
HETATM    5  C5  UNL     1     -24.362  19.157   8.424  1.00 20.00     0.067 C 
HETATM    6  C6  UNL     1     -21.748  17.624   8.434  1.00 20.00     0.049 C 
HETATM    7  C7  UNL     1     -24.602  15.931  11.637  1.00 20.00     0.036 C 
HETATM    8  N8  UNL     1     -24.683  18.090  10.537  1.00 20.00    -0.290 NA
HETATM    9  N9  UNL     1     -22.002  17.283  10.813  1.00 20.00     0.095 N 
HETATM   10  H23 UNL     1     -21.001  17.314  11.003  1.00 20.00     0.316 HD
ENDROOT
TORSDOF 0
ENDMDL
MODEL 2
REMARK VINA RESULT:      -4.2      0.952      3.595
REMARK  0 active torsions:
REMARK  status: ('A' for Active; 'I' for Inactive)
ROOT
HETATM    1  C1  UNL     1     -22.762  17.873  10.988  1.00 20.00     0.036 C 
HETATM    2  C2  UNL     1     -24.189  18.564   8.764  1.00 20.00     0.297 C 
HETATM    3  C3  UNL     1     -24.234  17.481  10.903  1.00 20.00     0.263 C 
HETATM    4  C4  UNL     1     -22.668  18.508   8.692  1.00 20.00     0.132 C 
HETATM    5  C5  UNL     1     -22.078  17.762  12.332  1.00 20.00     0.067 C 
HETATM    6  C6  UNL     1     -24.507  16.127  11.550  1.00 20.00     0.049 C 
HETATM    7  C7  UNL     1     -22.155  17.387   7.788  1.00 20.00     0.036 C 
HETATM    8  N8  UNL     1     -22.060  18.343  10.014  1.00 20.00    -0.290 NA
HETATM    9  N9  UNL     1     -24.666  17.410   9.509  1.00 20.00     0.095 N 
HETATM   10  H23 UNL     1     -25.684  17.368   9.470  1.00 20.00     0.316 HD
ENDROOT
TORSDOF 0
ENDMDL
MODEL 3
REMARK VINA RESULT:      -3.9     16.749     17.815
REMARK  0 active torsions:
REMARK  status: ('A' for Active; 'I' for Inactive)
ROOT
HETATM    1  C1  UNL     1     -34.557  15.987  -2.507  1.00 20.00     0.036 C 
HETATM    2  C2  UNL     1     -33.272  14.438  -4.354  1.00 20.00     0.297 C 
HETATM    3  C3  UNL     1     -33.157  16.388  -2.963  1.00 20.00     0.263 C 
HETATM    4  C4  UNL     1     -34.788  14.357  -4.231  1.00 20.00     0.132 C 
HETATM    5  C5  UNL     1     -35.119  16.663  -1.278  1.00 20.00     0.067 C 
HETATM    6  C6  UNL     1     -32.990  17.902  -3.042  1.00 20.00     0.049 C 
HETATM    7  C7  UNL     1     -35.516  14.896  -5.463  1.00 20.00     0.036 C 
HETATM    8  N8  UNL     1     -35.284  15.075  -3.055  1.00 20.00    -0.290 NA
HETATM    9  N9  UNL     1     -32.869  15.833  -4.284  1.00 20.00     0.095 N 
HETATM   10  H23 UNL     1     -31.872  15.917  -4.479  1.00 20.00     0.316 HD
ENDROOT
TORSDOF 0
ENDMDL
MODEL 4
REMARK VINA RESULT:      -3.7     23.209     24.337
REMARK  0 active torsions:
REMARK  status: ('A' for Active; 'I' for Inactive)
ROOT
HETATM    1  C1  UNL     1     -42.609   6.287   0.449  1.00 20.00     0.036 C 
HETATM    2  C2  UNL     1     -42.937   8.298  -1.371  1.00 20.00     0.297 C 
HETATM    3  C3  UNL     1     -42.278   6.019  -1.017  1.00 20.00     0.263 C 
HETATM    4  C4  UNL     1     -42.797   8.639   0.107  1.00 20.00     0.132 C 
HETATM    5  C5  UNL     1     -42.721   5.099   1.376  1.00 20.00     0.067 C 
HETATM    6  C6  UNL     1     -41.084   5.084  -1.174  1.00 20.00     0.049 C 
HETATM    7  C7  UNL     1     -41.503   9.389   0.426  1.00 20.00     0.036 C 
HETATM    8  N8  UNL     1     -42.855   7.447   0.955  1.00 20.00    -0.290 NA
HETATM    9  N9  UNL     1     -41.967   7.269  -1.708  1.00 20.00     0.095 N 
HETATM   10  H23 UNL     1     -41.966   7.109  -2.715  1.00 20.00     0.316 HD
ENDROOT
TORSDOF 0
ENDMDL
MODEL 5
REMARK VINA RESULT:      -3.6     18.532     20.109
REMARK  0 active torsions:
REMARK  status: ('A' for Active; 'I' for Inactive)
ROOT
HETATM    1  C1  UNL     1     -34.583  14.927  -6.353  1.00 20.00     0.036 C 
HETATM    2  C2  UNL     1     -36.130  13.869  -4.367  1.00 20.00     0.297 C 
HETATM    3  C3  UNL     1     -36.101  15.038  -6.460  1.00 20.00     0.263 C 
HETATM    4  C4  UNL     1     -34.670  14.198  -4.085  1.00 20.00     0.132 C 
HETATM    5  C5  UNL     1     -33.764  15.233  -7.587  1.00 20.00     0.067 C 
HETATM    6  C6  UNL     1     -36.537  16.352  -7.100  1.00 20.00     0.049 C 
HETATM    7  C7  UNL     1     -34.498  15.344  -3.088  1.00 20.00     0.036 C 
HETATM    8  N8  UNL     1     -33.938  14.541  -5.306  1.00 20.00    -0.290 NA
HETATM    9  N9  UNL     1     -36.715  14.954  -5.137  1.00 20.00     0.095 N 
HETATM   10  H23 UNL     1     -37.719  14.808  -5.237  1.00 20.00     0.316 HD
ENDROOT
TORSDOF 0
ENDMDL
MODEL 6
REMARK VINA RESULT:      -3.6      1.699      3.495
REMARK  0 active torsions:
REMARK  status: ('A' for Active; 'I' for Inactive)
ROOT
HETATM    1  C1  UNL     1     -23.133  17.731   8.776  1.00 20.00     0.036 C 
HETATM    2  C2  UNL     1     -25.293  19.263   9.447  1.00 20.00     0.297 C 
HETATM    3  C3  UNL     1     -23.875  17.434  10.077  1.00 20.00     0.263 C 
HETATM    4  C4  UNL     1     -24.834  19.207   7.995  1.00 20.00     0.132 C 
HETATM    5  C5  UNL     1     -21.778  17.092   8.576  1.00 20.00     0.067 C 
HETATM    6  C6  UNL     1     -23.919  15.941  10.385  1.00 20.00     0.049 C 
HETATM    7  C7  UNL     1     -25.842  18.516   7.077  1.00 20.00     0.036 C 
HETATM    8  N8  UNL     1     -23.544  18.528   7.851  1.00 20.00    -0.290 NA
HETATM    9  N9  UNL     1     -25.251  17.921  10.004  1.00 20.00     0.095 N 
HETATM   10  H23 UNL     1     -25.663  17.918  10.936  1.00 20.00     0.316 HD
ENDROOT
TORSDOF 0
ENDMDL
MODEL 7
REMARK VINA RESULT:      -3.6     18.941     20.610
REMARK  0 active torsions:
REMARK  status: ('A' for Active; 'I' for Inactive)
ROOT
HETATM    1  C1  UNL     1     -35.533  14.424  -5.576  1.00 20.00     0.036 C 
HETATM    2  C2  UNL     1     -33.987  15.316  -7.644  1.00 20.00     0.297 C 
HETATM    3  C3  UNL     1     -34.107  14.884  -5.288  1.00 20.00     0.263 C 
HETATM    4  C4  UNL     1     -35.503  15.303  -7.792  1.00 20.00     0.132 C 
HETATM    5  C5  UNL     1     -36.257  13.654  -4.496  1.00 20.00     0.067 C 
HETATM    6  C6  UNL     1     -33.991  15.586  -3.938  1.00 20.00     0.049 C 
HETATM    7  C7  UNL     1     -36.106  16.705  -7.881  1.00 20.00     0.036 C 
HETATM    8  N8  UNL     1     -36.157  14.593  -6.690  1.00 20.00    -0.290 NA
HETATM    9  N9  UNL     1     -33.649  15.813  -6.320  1.00 20.00     0.095 N 
HETATM   10  H23 UNL     1     -32.641  15.938  -6.242  1.00 20.00     0.316 HD
ENDROOT
TORSDOF 0
ENDMDL
MODEL 8
REMARK VINA RESULT:      -3.6      1.690      2.539
REMARK  0 active torsions:
REMARK  status: ('A' for Active; 'I' for Inactive)
ROOT
HETATM    1  C1  UNL     1     -25.810  18.560  11.420  1.00 20.00     0.036 C 
HETATM    2  C2  UNL     1     -23.213  17.718  11.523  1.00 20.00     0.297 C 
HETATM    3  C3  UNL     1     -24.823  19.078  10.378  1.00 20.00     0.263 C 
HETATM    4  C4  UNL     1     -24.296  16.896  12.211  1.00 20.00     0.132 C 
HETATM    5  C5  UNL     1     -27.143  19.262  11.540  1.00 20.00     0.067 C 
HETATM    6  C6  UNL     1     -25.474  19.260   9.011  1.00 20.00     0.049 C 
HETATM    7  C7  UNL     1     -24.518  15.533  11.554  1.00 20.00     0.036 C 
HETATM    8  N8  UNL     1     -25.580  17.600  12.249  1.00 20.00    -0.290 NA
HETATM    9  N9  UNL     1     -23.705  18.149  10.225  1.00 20.00     0.095 N 
HETATM   10  H23 UNL     1     -22.956  18.601   9.702  1.00 20.00     0.316 HD
ENDROOT
TORSDOF 0
ENDMDL
MODEL 9
REMARK VINA RESULT:      -3.5      1.048      3.166
REMARK  0 active torsions:
REMARK  status: ('A' for Active; 'I' for Inactive)
ROOT
HETATM    1  C1  UNL     1     -23.651  16.874  10.651  1.00 20.00     0.036 C 
HETATM    2  C2  UNL     1     -22.044  17.741   8.619  1.00 20.00     0.297 C 
HETATM    3  C3  UNL     1     -22.201  17.238  10.958  1.00 20.00     0.263 C 
HETATM    4  C4  UNL     1     -23.557  17.823   8.466  1.00 20.00     0.132 C 
HETATM    5  C5  UNL     1     -24.425  16.113  11.702  1.00 20.00     0.067 C 
HETATM    6  C6  UNL     1     -22.050  17.887  12.331  1.00 20.00     0.049 C 
HETATM    7  C7  UNL     1     -24.075  19.261   8.421  1.00 20.00     0.036 C 
HETATM    8  N8  UNL     1     -24.258  17.117   9.540  1.00 20.00    -0.290 NA
HETATM    9  N9  UNL     1     -21.684  18.172   9.960  1.00 20.00     0.095 N 
HETATM   10  H23 UNL     1     -20.670  18.234  10.045  1.00 20.00     0.316 HD
ENDROOT
TORSDOF 0
ENDMDL
