MODEL 1
REMARK VINA RESULT:      -4.8      0.000      0.000
REMARK  1 active torsions:
REMARK  status: ('A' for Active; 'I' for Inactive)
REMARK    1  A    between atoms: C4_4  and  C7_7 
ROOT
HETATM    1  C1  UNL     1     -24.084  16.097  11.635  1.00 20.00    -0.024 C 
HETATM    2  C2  UNL     1     -24.250  16.365  10.329  1.00 20.00    -0.013 C 
HETATM    3  C3  UNL     1     -22.539  18.009  10.420  1.00 20.00     0.140 C 
HETATM    4  C5  UNL     1     -22.289  17.776  11.914  1.00 20.00     0.088 C 
HETATM    5  C6  UNL     1     -23.733  17.402  12.330  1.00 20.00     0.027 C 
HETATM    6  C7  UNL     1     -24.555  18.396  11.485  1.00 20.00     0.074 C 
HETATM    7  C8  UNL     1     -24.040  17.851  10.141  1.00 20.00     0.045 C 
HETATM    8  C9  UNL     1     -24.568  18.498   8.889  1.00 20.00     0.029 C 
HETATM    9  O10 UNL     1     -21.674  18.250   9.592  1.00 20.00    -0.297 OA
ENDROOT
BRANCH   6  10
HETATM   10  C4  UNL     1     -26.036  18.316  11.729  1.00 20.00     0.237 C 
HETATM   11  O11 UNL     1     -26.802  19.256  11.547  1.00 20.00    -0.306 OA
ENDBRANCH   6  10
TORSDOF 1
ENDMDL
MODEL 2
REMARK VINA RESULT:      -4.8     17.373     18.709
REMARK  1 active torsions:
REMARK  status: ('A' for Active; 'I' for Inactive)
REMARK    1  A    between atoms: C4_4  and  C7_7 
ROOT
HETATM    1  C1  UNL     1     -33.923  16.159  -2.590  1.00 20.00    -0.024 C 
HETATM    2  C2  UNL     1     -35.149  15.627  -2.446  1.00 20.00    -0.013 C 
HETATM    3  C3  UNL     1     -34.628  13.930  -4.023  1.00 20.00     0.140 C 
HETATM    4  C5  UNL     1     -33.215  14.475  -4.257  1.00 20.00     0.088 C 
HETATM    5  C6  UNL     1     -33.513  15.979  -4.042  1.00 20.00     0.027 C 
HETATM    6  C7  UNL     1     -34.882  16.115  -4.736  1.00 20.00     0.074 C 
HETATM    7  C8  UNL     1     -35.581  15.112  -3.800  1.00 20.00     0.045 C 
HETATM    8  C9  UNL     1     -37.045  14.856  -4.037  1.00 20.00     0.029 C 
HETATM    9  O10 UNL     1     -34.928  12.747  -3.991  1.00 20.00    -0.297 OA
ENDROOT
BRANCH   6  10
HETATM   10  C4  UNL     1     -35.417  17.520  -4.748  1.00 20.00     0.237 C 
HETATM   11  O11 UNL     1     -34.774  18.484  -5.148  1.00 20.00    -0.306 OA
ENDBRANCH   6  10
TORSDOF 1
ENDMDL
MODEL 3
REMARK VINA RESULT:      -4.6     16.895     18.529
REMARK  1 active torsions:
REMARK  status: ('A' for Active; 'I' for Inactive)
REMARK    1  A    between atoms: C4_4  and  C7_7 
ROOT
HETATM    1  C1  UNL     1     -34.227  15.645  -5.739  1.00 20.00    -0.024 C 
HETATM    2  C2  UNL     1     -34.874  16.502  -4.929  1.00 20.00    -0.013 C 
HETATM    3  C3  UNL     1     -33.266  16.142  -3.219  1.00 20.00     0.140 C 
HETATM    4  C5  UNL     1     -32.471  15.145  -4.069  1.00 20.00     0.088 C 
HETATM    5  C6  UNL     1     -33.651  14.539  -4.870  1.00 20.00     0.027 C 
HETATM    6  C7  UNL     1     -34.737  14.449  -3.779  1.00 20.00     0.074 C 
HETATM    7  C8  UNL     1     -34.760  15.966  -3.519  1.00 20.00     0.045 C 
HETATM    8  C9  UNL     1     -35.725  16.471  -2.480  1.00 20.00     0.029 C 
HETATM    9  O10 UNL     1     -32.776  16.959  -2.455  1.00 20.00    -0.297 OA
ENDROOT
BRANCH   6  10
HETATM   10  C4  UNL     1     -36.018  13.821  -4.253  1.00 20.00     0.237 C 
HETATM   11  O11 UNL     1     -36.096  12.664  -4.652  1.00 20.00    -0.306 OA
ENDBRANCH   6  10
TORSDOF 1
ENDMDL
MODEL 4
REMARK VINA RESULT:      -4.6     17.372     19.035
REMARK  1 active torsions:
REMARK  status: ('A' for Active; 'I' for Inactive)
REMARK    1  A    between atoms: C4_4  and  C7_7 
ROOT
HETATM    1  C1  UNL     1     -33.650  15.075  -5.036  1.00 20.00    -0.024 C 
HETATM    2  C2  UNL     1     -34.509  15.952  -5.583  1.00 20.00    -0.013 C 
HETATM    3  C3  UNL     1     -34.836  16.991  -3.473  1.00 20.00     0.140 C 
HETATM    4  C5  UNL     1     -33.879  16.027  -2.764  1.00 20.00     0.088 C 
HETATM    5  C6  UNL     1     -34.141  14.770  -3.630  1.00 20.00     0.027 C 
HETATM    6  C7  UNL     1     -35.665  14.865  -3.842  1.00 20.00     0.074 C 
HETATM    7  C8  UNL     1     -35.593  16.222  -4.564  1.00 20.00     0.045 C 
HETATM    8  C9  UNL     1     -36.891  16.819  -5.038  1.00 20.00     0.029 C 
HETATM    9  O10 UNL     1     -34.946  18.182  -3.223  1.00 20.00    -0.297 OA
ENDROOT
BRANCH   6  10
HETATM   10  C4  UNL     1     -36.240  13.712  -4.617  1.00 20.00     0.237 C 
HETATM   11  O11 UNL     1     -35.885  12.549  -4.461  1.00 20.00    -0.306 OA
ENDBRANCH   6  10
TORSDOF 1
ENDMDL
MODEL 5
REMARK VINA RESULT:      -4.5     17.613     19.008
REMARK  1 active torsions:
REMARK  status: ('A' for Active; 'I' for Inactive)
REMARK    1  A    between atoms: C4_4  and  C7_7 
ROOT
HETATM    1  C1  UNL     1     -34.036  15.849  -2.679  1.00 20.00    -0.024 C 
HETATM    2  C2  UNL     1     -33.315  15.729  -3.807  1.00 20.00    -0.013 C 
HETATM    3  C3  UNL     1     -34.891  17.057  -4.987  1.00 20.00     0.140 C 
HETATM    4  C5  UNL     1     -35.780  17.237  -3.752  1.00 20.00     0.088 C 
HETATM    5  C6  UNL     1     -35.503  15.872  -3.073  1.00 20.00     0.027 C 
HETATM    6  C7  UNL     1     -35.478  14.931  -4.294  1.00 20.00     0.074 C 
HETATM    7  C8  UNL     1     -34.289  15.646  -4.960  1.00 20.00     0.045 C 
HETATM    8  C9  UNL     1     -33.802  15.092  -6.273  1.00 20.00     0.029 C 
HETATM    9  O10 UNL     1     -34.680  17.915  -5.830  1.00 20.00    -0.297 OA
ENDROOT
BRANCH   6  10
HETATM   10  C4  UNL     1     -35.287  13.483  -3.937  1.00 20.00     0.237 C 
HETATM   11  O11 UNL     1     -35.851  12.564  -4.520  1.00 20.00    -0.306 OA
ENDBRANCH   6  10
TORSDOF 1
ENDMDL
MODEL 6
REMARK VINA RESULT:      -4.4     17.643     18.951
REMARK  1 active torsions:
REMARK  status: ('A' for Active; 'I' for Inactive)
REMARK    1  A    between atoms: C4_4  and  C7_7 
ROOT
HETATM    1  C1  UNL     1     -33.606  16.159  -3.741  1.00 20.00    -0.024 C 
HETATM    2  C2  UNL     1     -34.399  16.502  -4.771  1.00 20.00    -0.013 C 
HETATM    3  C3  UNL     1     -36.118  17.149  -3.267  1.00 20.00     0.140 C 
HETATM    4  C5  UNL     1     -35.288  16.775  -2.035  1.00 20.00     0.088 C 
HETATM    5  C6  UNL     1     -34.495  15.593  -2.647  1.00 20.00     0.027 C 
HETATM    6  C7  UNL     1     -35.584  14.912  -3.499  1.00 20.00     0.074 C 
HETATM    7  C8  UNL     1     -35.818  16.147  -4.389  1.00 20.00     0.045 C 
HETATM    8  C9  UNL     1     -36.846  16.023  -5.481  1.00 20.00     0.029 C 
HETATM    9  O10 UNL     1     -36.869  18.110  -3.341  1.00 20.00    -0.297 OA
ENDROOT
BRANCH   6  10
HETATM   10  C4  UNL     1     -35.119  13.658  -4.186  1.00 20.00     0.237 C 
HETATM   11  O11 UNL     1     -35.868  12.735  -4.487  1.00 20.00    -0.306 OA
ENDBRANCH   6  10
TORSDOF 1
ENDMDL
MODEL 7
REMARK VINA RESULT:      -4.4     17.052     18.774
REMARK  1 active torsions:
REMARK  status: ('A' for Active; 'I' for Inactive)
REMARK    1  A    between atoms: C4_4  and  C7_7 
ROOT
HETATM    1  C1  UNL     1     -35.628  16.664  -4.755  1.00 20.00    -0.024 C 
HETATM    2  C2  UNL     1     -34.655  15.869  -5.230  1.00 20.00    -0.013 C 
HETATM    3  C3  UNL     1     -35.756  13.954  -4.359  1.00 20.00     0.140 C 
HETATM    4  C5  UNL     1     -36.903  14.785  -3.773  1.00 20.00     0.088 C 
HETATM    5  C6  UNL     1     -36.104  16.070  -3.440  1.00 20.00     0.027 C 
HETATM    6  C7  UNL     1     -34.785  15.473  -2.911  1.00 20.00     0.074 C 
HETATM    7  C8  UNL     1     -34.452  14.753  -4.230  1.00 20.00     0.045 C 
HETATM    8  C9  UNL     1     -33.168  13.968  -4.281  1.00 20.00     0.029 C 
HETATM    9  O10 UNL     1     -35.878  12.851  -4.869  1.00 20.00    -0.297 OA
ENDROOT
BRANCH   6  10
HETATM   10  C4  UNL     1     -33.803  16.506  -2.434  1.00 20.00     0.237 C 
HETATM   11  O11 UNL     1     -34.004  17.235  -1.469  1.00 20.00    -0.306 OA
ENDBRANCH   6  10
TORSDOF 1
ENDMDL
MODEL 8
REMARK VINA RESULT:      -4.3     17.916     19.429
REMARK  1 active torsions:
REMARK  status: ('A' for Active; 'I' for Inactive)
REMARK    1  A    between atoms: C4_4  and  C7_7 
ROOT
HETATM    1  C1  UNL     1     -34.814  15.701  -2.565  1.00 20.00    -0.024 C 
HETATM    2  C2  UNL     1     -36.028  16.187  -2.876  1.00 20.00    -0.013 C 
HETATM    3  C3  UNL     1     -36.446  14.320  -4.282  1.00 20.00     0.140 C 
HETATM    4  C5  UNL     1     -35.077  13.697  -3.991  1.00 20.00     0.088 C 
HETATM    5  C6  UNL     1     -34.269  15.005  -3.801  1.00 20.00     0.027 C 
HETATM    6  C7  UNL     1     -34.872  15.892  -4.908  1.00 20.00     0.074 C 
HETATM    7  C8  UNL     1     -36.295  15.846  -4.325  1.00 20.00     0.045 C 
HETATM    8  C9  UNL     1     -37.364  16.612  -5.058  1.00 20.00     0.029 C 
HETATM    9  O10 UNL     1     -37.486  13.694  -4.422  1.00 20.00    -0.297 OA
ENDROOT
BRANCH   6  10
HETATM   10  C4  UNL     1     -34.226  17.245  -5.017  1.00 20.00     0.237 C 
HETATM   11  O11 UNL     1     -34.199  17.900  -6.054  1.00 20.00    -0.306 OA
ENDBRANCH   6  10
TORSDOF 1
ENDMDL
MODEL 9
REMARK VINA RESULT:      -4.3     16.606     18.212
REMARK  1 active torsions:
REMARK  status: ('A' for Active; 'I' for Inactive)
REMARK    1  A    between atoms: C4_4  and  C7_7 
ROOT
HETATM    1  C1  UNL     1     -36.051  16.247  -4.714  1.00 20.00    -0.024 C 
HETATM    2  C2  UNL     1     -34.778  16.677  -4.694  1.00 20.00    -0.013 C 
HETATM    3  C3  UNL     1     -34.020  14.493  -4.153  1.00 20.00     0.140 C 
HETATM    4  C5  UNL     1     -35.441  13.919  -4.144  1.00 20.00     0.088 C 
HETATM    5  C6  UNL     1     -36.191  15.178  -3.643  1.00 20.00     0.027 C 
HETATM    6  C7  UNL     1     -35.204  15.713  -2.586  1.00 20.00     0.074 C 
HETATM    7  C8  UNL     1     -34.062  15.922  -3.597  1.00 20.00     0.045 C 
HETATM    8  C9  UNL     1     -32.768  16.481  -3.067  1.00 20.00     0.029 C 
HETATM    9  O10 UNL     1     -33.030  13.909  -4.567  1.00 20.00    -0.297 OA
ENDROOT
BRANCH   6  10
HETATM   10  C4  UNL     1     -35.699  16.931  -1.859  1.00 20.00     0.237 C 
HETATM   11  O11 UNL     1     -35.524  17.120  -0.660  1.00 20.00    -0.306 OA
ENDBRANCH   6  10
TORSDOF 1
ENDMDL
