MODEL 1
REMARK VINA RESULT:      -4.4      0.000      0.000
REMARK  3 active torsions:
REMARK  status: ('A' for Active; 'I' for Inactive)
REMARK    1  A    between atoms: C3_3  and  C8_8 
REMARK    2  A    between atoms: C7_7  and  C8_8 
REMARK    3  A    between atoms: C8_8  and  C9_9 
ROOT
HETATM    1  C1  UNL     1     -34.455  16.525  -7.806  1.00 20.00     0.012 C 
HETATM    2  C2  UNL     1     -34.302  15.731  -6.918  1.00 20.00    -0.117 C 
HETATM    3  C7  UNL     1     -34.112  14.755  -5.831  1.00 20.00     0.105 C 
ENDROOT
BRANCH   3   4
HETATM    4  C8  UNL     1     -35.048  15.042  -4.643  1.00 20.00     0.069 C 
BRANCH   4   5
HETATM    5  C3  UNL     1     -36.121  13.952  -4.510  1.00 20.00     0.128 C 
HETATM    6  C4  UNL     1     -37.552  14.418  -4.407  1.00 20.00     0.091 C 
HETATM    7  O10 UNL     1     -35.844  12.753  -4.474  1.00 20.00    -0.298 OA
ENDBRANCH   4   5
BRANCH   4   8
HETATM    8  C9  UNL     1     -34.320  15.214  -3.284  1.00 20.00    -0.011 C 
HETATM    9  C5  UNL     1     -32.969  15.927  -3.398  1.00 20.00     0.010 C 
HETATM   10  C6  UNL     1     -35.204  15.941  -2.266  1.00 20.00     0.010 C 
ENDBRANCH   4   8
ENDBRANCH   3   4
TORSDOF 3
ENDMDL
MODEL 2
REMARK VINA RESULT:      -4.4      1.164      3.109
REMARK  3 active torsions:
REMARK  status: ('A' for Active; 'I' for Inactive)
REMARK    1  A    between atoms: C3_3  and  C8_8 
REMARK    2  A    between atoms: C7_7  and  C8_8 
REMARK    3  A    between atoms: C8_8  and  C9_9 
ROOT
HETATM    1  C1  UNL     1     -33.267  17.378  -1.896  1.00 20.00     0.012 C 
HETATM    2  C2  UNL     1     -34.163  16.654  -2.239  1.00 20.00    -0.117 C 
HETATM    3  C7  UNL     1     -35.263  15.769  -2.658  1.00 20.00     0.105 C 
ENDROOT
BRANCH   3   4
HETATM    4  C8  UNL     1     -34.752  14.605  -3.529  1.00 20.00     0.069 C 
BRANCH   4   5
HETATM    5  C3  UNL     1     -35.917  13.880  -4.218  1.00 20.00     0.128 C 
HETATM    6  C4  UNL     1     -37.195  14.663  -4.393  1.00 20.00     0.091 C 
HETATM    7  O10 UNL     1     -35.835  12.714  -4.601  1.00 20.00    -0.298 OA
ENDBRANCH   4   5
BRANCH   4   8
HETATM    8  C9  UNL     1     -33.701  15.017  -4.593  1.00 20.00    -0.011 C 
HETATM    9  C5  UNL     1     -32.399  14.215  -4.511  1.00 20.00     0.010 C 
HETATM   10  C6  UNL     1     -34.277  14.926  -6.009  1.00 20.00     0.010 C 
ENDBRANCH   4   8
ENDBRANCH   3   4
TORSDOF 3
ENDMDL
MODEL 3
REMARK VINA RESULT:      -4.2     11.498     12.473
REMARK  3 active torsions:
REMARK  status: ('A' for Active; 'I' for Inactive)
REMARK    1  A    between atoms: C3_3  and  C8_8 
REMARK    2  A    between atoms: C7_7  and  C8_8 
REMARK    3  A    between atoms: C8_8  and  C9_9 
ROOT
HETATM    1  C1  UNL     1     -32.618   8.283   1.030  1.00 20.00     0.012 C 
HETATM    2  C2  UNL     1     -32.589   7.659   2.055  1.00 20.00    -0.117 C 
HETATM    3  C7  UNL     1     -32.551   6.894   3.314  1.00 20.00     0.105 C 
ENDROOT
BRANCH   3   4
HETATM    4  C8  UNL     1     -33.917   6.254   3.628  1.00 20.00     0.069 C 
BRANCH   4   5
HETATM    5  C3  UNL     1     -33.899   4.747   3.340  1.00 20.00     0.128 C 
HETATM    6  C4  UNL     1     -33.072   4.291   2.162  1.00 20.00     0.091 C 
HETATM    7  O10 UNL     1     -34.533   3.936   4.015  1.00 20.00    -0.298 OA
ENDBRANCH   4   5
BRANCH   4   8
HETATM    8  C9  UNL     1     -34.415   6.494   5.078  1.00 20.00    -0.011 C 
HETATM    9  C5  UNL     1     -34.813   5.209   5.810  1.00 20.00     0.010 C 
HETATM   10  C6  UNL     1     -33.378   7.260   5.904  1.00 20.00     0.010 C 
ENDBRANCH   4   8
ENDBRANCH   3   4
TORSDOF 3
ENDMDL
MODEL 4
REMARK VINA RESULT:      -4.2      1.029      3.143
REMARK  3 active torsions:
REMARK  status: ('A' for Active; 'I' for Inactive)
REMARK    1  A    between atoms: C3_3  and  C8_8 
REMARK    2  A    between atoms: C7_7  and  C8_8 
REMARK    3  A    between atoms: C8_8  and  C9_9 
ROOT
HETATM    1  C1  UNL     1     -35.041  16.149  -1.868  1.00 20.00     0.012 C 
HETATM    2  C2  UNL     1     -34.516  15.620  -2.810  1.00 20.00    -0.117 C 
HETATM    3  C7  UNL     1     -33.871  14.971  -3.965  1.00 20.00     0.105 C 
ENDROOT
BRANCH   3   4
HETATM    4  C8  UNL     1     -34.879  14.697  -5.097  1.00 20.00     0.069 C 
BRANCH   4   5
HETATM    5  C3  UNL     1     -36.016  13.787  -4.614  1.00 20.00     0.128 C 
HETATM    6  C4  UNL     1     -37.344  14.449  -4.337  1.00 20.00     0.091 C 
HETATM    7  O10 UNL     1     -35.867  12.578  -4.440  1.00 20.00    -0.298 OA
ENDBRANCH   4   5
BRANCH   4   8
HETATM    8  C9  UNL     1     -35.480  15.975  -5.739  1.00 20.00    -0.011 C 
HETATM    9  C5  UNL     1     -34.519  17.167  -5.749  1.00 20.00     0.010 C 
HETATM   10  C6  UNL     1     -35.981  15.702  -7.161  1.00 20.00     0.010 C 
ENDBRANCH   4   8
ENDBRANCH   3   4
TORSDOF 3
ENDMDL
MODEL 5
REMARK VINA RESULT:      -4.1     18.066     19.028
REMARK  3 active torsions:
REMARK  status: ('A' for Active; 'I' for Inactive)
REMARK    1  A    between atoms: C3_3  and  C8_8 
REMARK    2  A    between atoms: C7_7  and  C8_8 
REMARK    3  A    between atoms: C8_8  and  C9_9 
ROOT
HETATM    1  C1  UNL     1     -21.406  17.430   8.333  1.00 20.00     0.012 C 
HETATM    2  C2  UNL     1     -22.533  17.370   8.746  1.00 20.00    -0.117 C 
HETATM    3  C7  UNL     1     -23.914  17.296   9.251  1.00 20.00     0.105 C 
ENDROOT
BRANCH   3   4
HETATM    4  C8  UNL     1     -24.151  18.293  10.402  1.00 20.00     0.069 C 
BRANCH   4   5
HETATM    5  C3  UNL     1     -25.520  18.972  10.269  1.00 20.00     0.128 C 
HETATM    6  C4  UNL     1     -26.261  19.263  11.552  1.00 20.00     0.091 C 
HETATM    7  O10 UNL     1     -26.013  19.260   9.179  1.00 20.00    -0.298 OA
ENDBRANCH   4   5
BRANCH   4   8
HETATM    8  C9  UNL     1     -24.018  17.674  11.818  1.00 20.00    -0.011 C 
HETATM    9  C5  UNL     1     -24.513  16.227  11.905  1.00 20.00     0.010 C 
HETATM   10  C6  UNL     1     -22.578  17.761  12.332  1.00 20.00     0.010 C 
ENDBRANCH   4   8
ENDBRANCH   3   4
TORSDOF 3
ENDMDL
MODEL 6
REMARK VINA RESULT:      -4.1      1.697      2.821
REMARK  3 active torsions:
REMARK  status: ('A' for Active; 'I' for Inactive)
REMARK    1  A    between atoms: C3_3  and  C8_8 
REMARK    2  A    between atoms: C7_7  and  C8_8 
REMARK    3  A    between atoms: C8_8  and  C9_9 
ROOT
HETATM    1  C1  UNL     1     -38.730  17.457  -3.506  1.00 20.00     0.012 C 
HETATM    2  C2  UNL     1     -37.711  17.004  -3.951  1.00 20.00    -0.117 C 
HETATM    3  C7  UNL     1     -36.460  16.451  -4.499  1.00 20.00     0.105 C 
ENDROOT
BRANCH   3   4
HETATM    4  C8  UNL     1     -36.075  15.129  -3.807  1.00 20.00     0.069 C 
BRANCH   4   5
HETATM    5  C3  UNL     1     -35.928  13.994  -4.829  1.00 20.00     0.128 C 
HETATM    6  C4  UNL     1     -35.816  14.398  -6.279  1.00 20.00     0.091 C 
HETATM    7  O10 UNL     1     -35.917  12.808  -4.503  1.00 20.00    -0.298 OA
ENDBRANCH   4   5
BRANCH   4   8
HETATM    8  C9  UNL     1     -34.789  15.213  -2.943  1.00 20.00    -0.011 C 
HETATM    9  C5  UNL     1     -33.524  15.510  -3.754  1.00 20.00     0.010 C 
HETATM   10  C6  UNL     1     -34.938  16.243  -1.820  1.00 20.00     0.010 C 
ENDBRANCH   4   8
ENDBRANCH   3   4
TORSDOF 3
ENDMDL
MODEL 7
REMARK VINA RESULT:      -4.0      1.503      2.967
REMARK  3 active torsions:
REMARK  status: ('A' for Active; 'I' for Inactive)
REMARK    1  A    between atoms: C3_3  and  C8_8 
REMARK    2  A    between atoms: C7_7  and  C8_8 
REMARK    3  A    between atoms: C8_8  and  C9_9 
ROOT
HETATM    1  C1  UNL     1     -38.427  14.763  -4.254  1.00 20.00     0.012 C 
HETATM    2  C2  UNL     1     -37.357  15.307  -4.300  1.00 20.00    -0.117 C 
HETATM    3  C7  UNL     1     -36.045  15.975  -4.359  1.00 20.00     0.105 C 
ENDROOT
BRANCH   3   4
HETATM    4  C8  UNL     1     -34.946  15.127  -3.692  1.00 20.00     0.069 C 
BRANCH   4   5
HETATM    5  C3  UNL     1     -33.963  14.580  -4.735  1.00 20.00     0.128 C 
HETATM    6  C4  UNL     1     -34.137  15.068  -6.153  1.00 20.00     0.091 C 
HETATM    7  O10 UNL     1     -33.080  13.771  -4.452  1.00 20.00    -0.298 OA
ENDBRANCH   4   5
BRANCH   4   8
HETATM    8  C9  UNL     1     -34.157  15.865  -2.579  1.00 20.00    -0.011 C 
HETATM    9  C5  UNL     1     -33.198  16.933  -3.113  1.00 20.00     0.010 C 
HETATM   10  C6  UNL     1     -35.101  16.487  -1.545  1.00 20.00     0.010 C 
ENDBRANCH   4   8
ENDBRANCH   3   4
TORSDOF 3
ENDMDL
MODEL 8
REMARK VINA RESULT:      -3.9      1.756      3.876
REMARK  3 active torsions:
REMARK  status: ('A' for Active; 'I' for Inactive)
REMARK    1  A    between atoms: C3_3  and  C8_8 
REMARK    2  A    between atoms: C7_7  and  C8_8 
REMARK    3  A    between atoms: C8_8  and  C9_9 
ROOT
HETATM    1  C1  UNL     1     -33.100  17.760  -1.696  1.00 20.00     0.012 C 
HETATM    2  C2  UNL     1     -33.946  16.941  -1.933  1.00 20.00    -0.117 C 
HETATM    3  C7  UNL     1     -34.984  15.936  -2.221  1.00 20.00     0.105 C 
ENDROOT
BRANCH   3   4
HETATM    4  C8  UNL     1     -35.076  15.633  -3.729  1.00 20.00     0.069 C 
BRANCH   4   5
HETATM    5  C3  UNL     1     -34.392  14.302  -4.067  1.00 20.00     0.128 C 
HETATM    6  C4  UNL     1     -32.936  14.367  -4.456  1.00 20.00     0.091 C 
HETATM    7  O10 UNL     1     -34.990  13.227  -4.042  1.00 20.00    -0.298 OA
ENDBRANCH   4   5
BRANCH   4   8
HETATM    8  C9  UNL     1     -36.523  15.626  -4.290  1.00 20.00    -0.011 C 
HETATM    9  C5  UNL     1     -37.449  16.640  -3.612  1.00 20.00     0.010 C 
HETATM   10  C6  UNL     1     -36.534  15.847  -5.806  1.00 20.00     0.010 C 
ENDBRANCH   4   8
ENDBRANCH   3   4
TORSDOF 3
ENDMDL
MODEL 9
REMARK VINA RESULT:      -3.9      1.670      3.549
REMARK  3 active torsions:
REMARK  status: ('A' for Active; 'I' for Inactive)
REMARK    1  A    between atoms: C3_3  and  C8_8 
REMARK    2  A    between atoms: C7_7  and  C8_8 
REMARK    3  A    between atoms: C8_8  and  C9_9 
ROOT
HETATM    1  C1  UNL     1     -33.302  17.656  -1.412  1.00 20.00     0.012 C 
HETATM    2  C2  UNL     1     -34.070  16.836  -1.837  1.00 20.00    -0.117 C 
HETATM    3  C7  UNL     1     -35.013  15.831  -2.356  1.00 20.00     0.105 C 
ENDROOT
BRANCH   3   4
HETATM    4  C8  UNL     1     -34.715  15.480  -3.827  1.00 20.00     0.069 C 
BRANCH   4   5
HETATM    5  C3  UNL     1     -35.025  14.005  -4.115  1.00 20.00     0.128 C 
HETATM    6  C4  UNL     1     -36.432  13.681  -4.552  1.00 20.00     0.091 C 
HETATM    7  O10 UNL     1     -34.184  13.116  -3.988  1.00 20.00    -0.298 OA
ENDBRANCH   4   5
BRANCH   4   8
HETATM    8  C9  UNL     1     -35.455  16.373  -4.858  1.00 20.00    -0.011 C 
HETATM    9  C5  UNL     1     -36.577  17.215  -4.246  1.00 20.00     0.010 C 
HETATM   10  C6  UNL     1     -34.478  17.281  -5.612  1.00 20.00     0.010 C 
ENDBRANCH   4   8
ENDBRANCH   3   4
TORSDOF 3
ENDMDL
