MODEL 1
REMARK VINA RESULT:      -4.9      0.000      0.000
REMARK  0 active torsions:
REMARK  status: ('A' for Active; 'I' for Inactive)
ROOT
HETATM    1  C1  UNL     1     -32.746   8.455   0.720  1.00 20.00     0.017 C 
HETATM    2  C2  UNL     1     -32.610   7.662   1.611  1.00 20.00    -0.057 C 
HETATM    3  C3  UNL     1     -32.445   6.694   2.697  1.00 20.00     0.342 C 
HETATM    4  C4  UNL     1     -33.741   6.920   4.549  1.00 20.00     0.150 C 
HETATM    5  C5  UNL     1     -33.906   5.527   3.974  1.00 20.00     0.150 C 
HETATM    6  C6  UNL     1     -33.654   6.967   6.061  1.00 20.00     0.042 C 
HETATM    7  C7  UNL     1     -35.327   5.001   4.005  1.00 20.00     0.042 C 
HETATM    8  O8  UNL     1     -32.508   7.359   3.969  1.00 20.00    -0.343 OA
HETATM    9  O9  UNL     1     -33.469   5.692   2.621  1.00 20.00    -0.343 OA
ENDROOT
TORSDOF 0
ENDMDL
MODEL 2
REMARK VINA RESULT:      -4.2     15.259     16.229
REMARK  0 active torsions:
REMARK  status: ('A' for Active; 'I' for Inactive)
ROOT
HETATM    1  C1  UNL     1     -25.971  19.038   6.715  1.00 20.00     0.017 C 
HETATM    2  C2  UNL     1     -25.255  19.140   7.673  1.00 20.00    -0.057 C 
HETATM    3  C3  UNL     1     -24.381  19.263   8.841  1.00 20.00     0.342 C 
HETATM    4  C4  UNL     1     -23.695  17.362   9.880  1.00 20.00     0.150 C 
HETATM    5  C5  UNL     1     -22.491  18.195   9.487  1.00 20.00     0.150 C 
HETATM    6  C6  UNL     1     -23.596  16.728  11.253  1.00 20.00     0.042 C 
HETATM    7  C7  UNL     1     -21.320  17.392   8.958  1.00 20.00     0.042 C 
HETATM    8  O8  UNL     1     -24.763  18.315   9.851  1.00 20.00    -0.343 OA
HETATM    9  O9  UNL     1     -23.016  19.040   8.458  1.00 20.00    -0.343 OA
ENDROOT
TORSDOF 0
ENDMDL
MODEL 3
REMARK VINA RESULT:      -4.0     15.612     16.312
REMARK  0 active torsions:
REMARK  status: ('A' for Active; 'I' for Inactive)
ROOT
HETATM    1  C1  UNL     1     -21.679  17.351   7.656  1.00 20.00     0.017 C 
HETATM    2  C2  UNL     1     -22.066  17.673   8.745  1.00 20.00    -0.057 C 
HETATM    3  C3  UNL     1     -22.539  18.066  10.074  1.00 20.00     0.342 C 
HETATM    4  C4  UNL     1     -24.776  18.053  10.471  1.00 20.00     0.150 C 
HETATM    5  C5  UNL     1     -24.068  17.194  11.500  1.00 20.00     0.150 C 
HETATM    6  C6  UNL     1     -25.888  18.916  11.033  1.00 20.00     0.042 C 
HETATM    7  C7  UNL     1     -24.794  15.911  11.851  1.00 20.00     0.042 C 
HETATM    8  O8  UNL     1     -23.720  18.876   9.963  1.00 20.00    -0.343 OA
HETATM    9  O9  UNL     1     -22.823  16.898  10.858  1.00 20.00    -0.343 OA
ENDROOT
TORSDOF 0
ENDMDL
MODEL 4
REMARK VINA RESULT:      -4.0     11.116     12.194
REMARK  0 active torsions:
REMARK  status: ('A' for Active; 'I' for Inactive)
ROOT
HETATM    1  C1  UNL     1     -38.646  14.846  -4.175  1.00 20.00     0.017 C 
HETATM    2  C2  UNL     1     -37.573  14.365  -4.412  1.00 20.00    -0.057 C 
HETATM    3  C3  UNL     1     -36.263  13.778  -4.701  1.00 20.00     0.342 C 
HETATM    4  C4  UNL     1     -34.739  15.040  -5.818  1.00 20.00     0.150 C 
HETATM    5  C5  UNL     1     -34.141  14.547  -4.516  1.00 20.00     0.150 C 
HETATM    6  C6  UNL     1     -33.792  14.988  -7.001  1.00 20.00     0.042 C 
HETATM    7  C7  UNL     1     -33.289  15.570  -3.792  1.00 20.00     0.042 C 
HETATM    8  O8  UNL     1     -35.835  14.142  -6.023  1.00 20.00    -0.343 OA
HETATM    9  O9  UNL     1     -35.300  14.230  -3.738  1.00 20.00    -0.343 OA
ENDROOT
TORSDOF 0
ENDMDL
MODEL 5
REMARK VINA RESULT:      -3.8     15.355     16.163
REMARK  0 active torsions:
REMARK  status: ('A' for Active; 'I' for Inactive)
ROOT
HETATM    1  C1  UNL     1     -27.862  17.470  12.332  1.00 20.00     0.017 C 
HETATM    2  C2  UNL     1     -26.834  17.972  11.969  1.00 20.00    -0.057 C 
HETATM    3  C3  UNL     1     -25.581  18.585  11.526  1.00 20.00     0.342 C 
HETATM    4  C4  UNL     1     -24.324  17.481   9.988  1.00 20.00     0.150 C 
HETATM    5  C5  UNL     1     -24.629  18.881   9.492  1.00 20.00     0.150 C 
HETATM    6  C6  UNL     1     -22.906  17.018   9.725  1.00 20.00     0.042 C 
HETATM    7  C7  UNL     1     -24.948  18.965   8.013  1.00 20.00     0.042 C 
HETATM    8  O8  UNL     1     -24.556  17.586  11.397  1.00 20.00    -0.343 OA
HETATM    9  O9  UNL     1     -25.775  19.245  10.267  1.00 20.00    -0.343 OA
ENDROOT
TORSDOF 0
ENDMDL
MODEL 6
REMARK VINA RESULT:      -3.7     15.019     15.612
REMARK  0 active torsions:
REMARK  status: ('A' for Active; 'I' for Inactive)
ROOT
HETATM    1  C1  UNL     1     -25.966  18.978   6.756  1.00 20.00     0.017 C 
HETATM    2  C2  UNL     1     -25.386  18.988   7.806  1.00 20.00    -0.057 C 
HETATM    3  C3  UNL     1     -24.679  19.000   9.087  1.00 20.00     0.342 C 
HETATM    4  C4  UNL     1     -25.679  18.028  10.881  1.00 20.00     0.150 C 
HETATM    5  C5  UNL     1     -24.304  17.425  10.671  1.00 20.00     0.150 C 
HETATM    6  C6  UNL     1     -26.033  18.291  12.331  1.00 20.00     0.042 C 
HETATM    7  C7  UNL     1     -24.239  15.927  10.888  1.00 20.00     0.042 C 
HETATM    8  O8  UNL     1     -25.597  19.263  10.161  1.00 20.00    -0.343 OA
HETATM    9  O9  UNL     1     -24.030  17.738   9.302  1.00 20.00    -0.343 OA
ENDROOT
TORSDOF 0
ENDMDL
MODEL 7
REMARK VINA RESULT:      -3.7      9.039      9.639
REMARK  0 active torsions:
REMARK  status: ('A' for Active; 'I' for Inactive)
ROOT
HETATM    1  C1  UNL     1     -41.120   9.941   0.534  1.00 20.00     0.017 C 
HETATM    2  C2  UNL     1     -41.660   9.019  -0.014  1.00 20.00    -0.057 C 
HETATM    3  C3  UNL     1     -42.319   7.896  -0.681  1.00 20.00     0.342 C 
HETATM    4  C4  UNL     1     -41.361   5.840  -0.531  1.00 20.00     0.150 C 
HETATM    5  C5  UNL     1     -42.796   5.774  -0.047  1.00 20.00     0.150 C 
HETATM    6  C6  UNL     1     -40.933   4.664  -1.385  1.00 20.00     0.042 C 
HETATM    7  C7  UNL     1     -43.006   4.900   1.173  1.00 20.00     0.042 C 
HETATM    8  O8  UNL     1     -41.342   7.045  -1.304  1.00 20.00    -0.343 OA
HETATM    9  O9  UNL     1     -43.084   7.140   0.269  1.00 20.00    -0.343 OA
ENDROOT
TORSDOF 0
ENDMDL
MODEL 8
REMARK VINA RESULT:      -3.6     11.074     12.005
REMARK  0 active torsions:
REMARK  status: ('A' for Active; 'I' for Inactive)
ROOT
HETATM    1  C1  UNL     1     -32.907  17.248  -2.398  1.00 20.00     0.017 C 
HETATM    2  C2  UNL     1     -33.338  16.277  -2.956  1.00 20.00    -0.057 C 
HETATM    3  C3  UNL     1     -33.863  15.094  -3.638  1.00 20.00     0.342 C 
HETATM    4  C4  UNL     1     -36.001  15.151  -4.406  1.00 20.00     0.150 C 
HETATM    5  C5  UNL     1     -35.059  14.798  -5.539  1.00 20.00     0.150 C 
HETATM    6  C6  UNL     1     -37.290  14.354  -4.392  1.00 20.00     0.042 C 
HETATM    7  C7  UNL     1     -35.398  15.452  -6.863  1.00 20.00     0.042 C 
HETATM    8  O8  UNL     1     -35.223  14.853  -3.242  1.00 20.00    -0.343 OA
HETATM    9  O9  UNL     1     -33.798  15.277  -5.060  1.00 20.00    -0.343 OA
ENDROOT
TORSDOF 0
ENDMDL
MODEL 9
REMARK VINA RESULT:      -3.6      9.062      9.788
REMARK  0 active torsions:
REMARK  status: ('A' for Active; 'I' for Inactive)
ROOT
HETATM    1  C1  UNL     1     -42.262   3.637  -2.834  1.00 20.00     0.017 C 
HETATM    2  C2  UNL     1     -41.796   4.294  -1.945  1.00 20.00    -0.057 C 
HETATM    3  C3  UNL     1     -41.228   5.096  -0.861  1.00 20.00     0.342 C 
HETATM    4  C4  UNL     1     -41.833   7.281  -0.704  1.00 20.00     0.150 C 
HETATM    5  C5  UNL     1     -42.115   6.575   0.608  1.00 20.00     0.150 C 
HETATM    6  C6  UNL     1     -41.243   8.669  -0.553  1.00 20.00     0.042 C 
HETATM    7  C7  UNL     1     -43.416   6.983   1.270  1.00 20.00     0.042 C 
HETATM    8  O8  UNL     1     -40.890   6.409  -1.336  1.00 20.00    -0.343 OA
HETATM    9  O9  UNL     1     -42.169   5.199   0.218  1.00 20.00    -0.343 OA
ENDROOT
TORSDOF 0
ENDMDL
