MODEL 1
REMARK VINA RESULT:      -5.4      0.000      0.000
REMARK  1 active torsions:
REMARK  status: ('A' for Active; 'I' for Inactive)
REMARK    1  A    between atoms: C5_5  and  C8_8 
ROOT
HETATM    1  C1  UNL     1     -25.588  17.348  12.323  1.00 20.00    -0.027 C 
HETATM    2  C2  UNL     1     -24.763  16.483  11.714  1.00 20.00    -0.029 C 
HETATM    3  C3  UNL     1     -25.859  19.130  10.507  1.00 20.00    -0.020 C 
HETATM    4  C4  UNL     1     -24.842  18.872   9.665  1.00 20.00    -0.076 C 
HETATM    5  C6  UNL     1     -25.922  18.768  11.963  1.00 20.00     0.054 C 
HETATM    6  C7  UNL     1     -23.867  16.711  10.530  1.00 20.00     0.043 C 
HETATM    7  C8  UNL     1     -23.598  18.174  10.168  1.00 20.00     0.086 C 
HETATM    8  C9  UNL     1     -24.946  19.262   8.215  1.00 20.00     0.044 C 
ENDROOT
BRANCH   7   9
HETATM    9  C5  UNL     1     -22.483  18.238   9.160  1.00 20.00     0.131 C 
HETATM   10  C10 UNL     1     -22.216  16.988   8.366  1.00 20.00     0.091 C 
HETATM   11  O11 UNL     1     -21.824  19.263   8.991  1.00 20.00    -0.298 OA
ENDBRANCH   7   9
TORSDOF 1
ENDMDL
MODEL 2
REMARK VINA RESULT:      -5.1     16.717     18.268
REMARK  1 active torsions:
REMARK  status: ('A' for Active; 'I' for Inactive)
REMARK    1  A    between atoms: C5_5  and  C8_8 
ROOT
HETATM    1  C1  UNL     1     -36.268  17.464  -2.025  1.00 20.00    -0.027 C 
HETATM    2  C2  UNL     1     -36.848  17.281  -3.220  1.00 20.00    -0.029 C 
HETATM    3  C3  UNL     1     -34.126  16.092  -2.301  1.00 20.00    -0.020 C 
HETATM    4  C4  UNL     1     -34.387  15.323  -3.375  1.00 20.00    -0.076 C 
HETATM    5  C6  UNL     1     -35.141  16.707  -1.381  1.00 20.00     0.054 C 
HETATM    6  C7  UNL     1     -36.587  16.208  -4.239  1.00 20.00     0.043 C 
HETATM    7  C8  UNL     1     -35.815  14.984  -3.737  1.00 20.00     0.086 C 
HETATM    8  C9  UNL     1     -33.257  14.813  -4.228  1.00 20.00     0.044 C 
ENDROOT
BRANCH   7   9
HETATM    9  C5  UNL     1     -35.879  13.898  -4.776  1.00 20.00     0.131 C 
HETATM   10  C10 UNL     1     -35.931  14.340  -6.214  1.00 20.00     0.091 C 
HETATM   11  O11 UNL     1     -35.885  12.708  -4.467  1.00 20.00    -0.298 OA
ENDBRANCH   7   9
TORSDOF 1
ENDMDL
MODEL 3
REMARK VINA RESULT:      -4.9     15.958     16.542
REMARK  1 active torsions:
REMARK  status: ('A' for Active; 'I' for Inactive)
REMARK    1  A    between atoms: C5_5  and  C8_8 
ROOT
HETATM    1  C1  UNL     1     -34.977   5.808   5.980  1.00 20.00    -0.027 C 
HETATM    2  C2  UNL     1     -33.900   6.605   6.040  1.00 20.00    -0.029 C 
HETATM    3  C3  UNL     1     -34.536   4.548   3.798  1.00 20.00    -0.020 C 
HETATM    4  C4  UNL     1     -33.591   5.294   3.195  1.00 20.00    -0.076 C 
HETATM    5  C6  UNL     1     -35.526   5.025   4.821  1.00 20.00     0.054 C 
HETATM    6  C7  UNL     1     -32.966   7.010   4.936  1.00 20.00     0.043 C 
HETATM    7  C8  UNL     1     -33.471   6.768   3.510  1.00 20.00     0.086 C 
HETATM    8  C9  UNL     1     -32.641   4.659   2.216  1.00 20.00     0.044 C 
ENDROOT
BRANCH   7   9
HETATM    9  C5  UNL     1     -32.563   7.469   2.537  1.00 20.00     0.131 C 
HETATM   10  C10 UNL     1     -33.186   7.938   1.249  1.00 20.00     0.091 C 
HETATM   11  O11 UNL     1     -31.372   7.653   2.782  1.00 20.00    -0.298 OA
ENDBRANCH   7   9
TORSDOF 1
ENDMDL
MODEL 4
REMARK VINA RESULT:      -4.8     15.490     17.089
REMARK  1 active torsions:
REMARK  status: ('A' for Active; 'I' for Inactive)
REMARK    1  A    between atoms: C5_5  and  C8_8 
ROOT
HETATM    1  C1  UNL     1     -33.800  17.679  -1.068  1.00 20.00    -0.027 C 
HETATM    2  C2  UNL     1     -34.931  16.958  -1.092  1.00 20.00    -0.029 C 
HETATM    3  C3  UNL     1     -33.073  17.537  -3.517  1.00 20.00    -0.020 C 
HETATM    4  C4  UNL     1     -33.804  16.514  -3.998  1.00 20.00    -0.076 C 
HETATM    5  C6  UNL     1     -32.693  17.760  -2.081  1.00 20.00     0.054 C 
HETATM    6  C7  UNL     1     -35.386  15.954  -2.113  1.00 20.00     0.043 C 
HETATM    7  C8  UNL     1     -34.306  15.434  -3.067  1.00 20.00     0.086 C 
HETATM    8  C9  UNL     1     -34.139  16.452  -5.464  1.00 20.00     0.044 C 
ENDROOT
BRANCH   7   9
HETATM    9  C5  UNL     1     -34.843  14.253  -3.828  1.00 20.00     0.131 C 
HETATM   10  C10 UNL     1     -36.315  14.265  -4.144  1.00 20.00     0.091 C 
HETATM   11  O11 UNL     1     -34.116  13.325  -4.178  1.00 20.00    -0.298 OA
ENDBRANCH   7   9
TORSDOF 1
ENDMDL
MODEL 5
REMARK VINA RESULT:      -4.7     17.346     19.001
REMARK  1 active torsions:
REMARK  status: ('A' for Active; 'I' for Inactive)
REMARK    1  A    between atoms: C5_5  and  C8_8 
ROOT
HETATM    1  C1  UNL     1     -33.278  15.899  -3.064  1.00 20.00    -0.027 C 
HETATM    2  C2  UNL     1     -34.419  16.484  -2.671  1.00 20.00    -0.029 C 
HETATM    3  C3  UNL     1     -33.951  15.002  -5.363  1.00 20.00    -0.020 C 
HETATM    4  C4  UNL     1     -35.296  15.051  -5.334  1.00 20.00    -0.076 C 
HETATM    5  C6  UNL     1     -33.038  14.915  -4.174  1.00 20.00     0.054 C 
HETATM    6  C7  UNL     1     -35.815  16.263  -3.182  1.00 20.00     0.043 C 
HETATM    7  C8  UNL     1     -36.030  14.994  -4.013  1.00 20.00     0.086 C 
HETATM    8  C9  UNL     1     -36.073  15.180  -6.616  1.00 20.00     0.044 C 
ENDROOT
BRANCH   7   9
HETATM    9  C5  UNL     1     -37.504  14.774  -4.209  1.00 20.00     0.131 C 
HETATM   10  C10 UNL     1     -38.387  15.989  -4.122  1.00 20.00     0.091 C 
HETATM   11  O11 UNL     1     -37.966  13.656  -4.432  1.00 20.00    -0.298 OA
ENDBRANCH   7   9
TORSDOF 1
ENDMDL
MODEL 6
REMARK VINA RESULT:      -4.7     16.530     18.130
REMARK  1 active torsions:
REMARK  status: ('A' for Active; 'I' for Inactive)
REMARK    1  A    between atoms: C5_5  and  C8_8 
ROOT
HETATM    1  C1  UNL     1     -34.062  17.047  -1.854  1.00 20.00    -0.027 C 
HETATM    2  C2  UNL     1     -35.383  16.858  -1.984  1.00 20.00    -0.029 C 
HETATM    3  C3  UNL     1     -33.211  16.129  -4.085  1.00 20.00    -0.020 C 
HETATM    4  C4  UNL     1     -34.255  15.417  -4.547  1.00 20.00    -0.076 C 
HETATM    5  C6  UNL     1     -32.927  16.465  -2.649  1.00 20.00     0.054 C 
HETATM    6  C7  UNL     1     -36.115  15.941  -2.923  1.00 20.00     0.043 C 
HETATM    7  C8  UNL     1     -35.271  14.846  -3.582  1.00 20.00     0.086 C 
HETATM    8  C9  UNL     1     -34.425  15.201  -6.026  1.00 20.00     0.044 C 
ENDROOT
BRANCH   7   9
HETATM    9  C5  UNL     1     -36.181  13.858  -4.259  1.00 20.00     0.131 C 
HETATM   10  C10 UNL     1     -37.571  14.334  -4.587  1.00 20.00     0.091 C 
HETATM   11  O11 UNL     1     -35.807  12.719  -4.533  1.00 20.00    -0.298 OA
ENDBRANCH   7   9
TORSDOF 1
ENDMDL
MODEL 7
REMARK VINA RESULT:      -4.5     15.350     17.041
REMARK  1 active torsions:
REMARK  status: ('A' for Active; 'I' for Inactive)
REMARK    1  A    between atoms: C5_5  and  C8_8 
ROOT
HETATM    1  C1  UNL     1     -33.675  14.494  -4.273  1.00 20.00    -0.027 C 
HETATM    2  C2  UNL     1     -32.963  15.500  -3.743  1.00 20.00    -0.029 C 
HETATM    3  C3  UNL     1     -36.064  15.285  -3.812  1.00 20.00    -0.020 C 
HETATM    4  C4  UNL     1     -35.899  16.245  -2.883  1.00 20.00    -0.076 C 
HETATM    5  C6  UNL     1     -35.125  14.146  -4.091  1.00 20.00     0.054 C 
HETATM    6  C7  UNL     1     -33.396  16.535  -2.743  1.00 20.00     0.043 C 
HETATM    7  C8  UNL     1     -34.687  16.227  -1.979  1.00 20.00     0.086 C 
HETATM    8  C9  UNL     1     -36.913  17.349  -2.753  1.00 20.00     0.044 C 
ENDROOT
BRANCH   7   9
HETATM    9  C5  UNL     1     -34.833  17.199  -0.840  1.00 20.00     0.131 C 
HETATM   10  C10 UNL     1     -34.068  18.490  -0.951  1.00 20.00     0.091 C 
HETATM   11  O11 UNL     1     -35.545  16.952   0.132  1.00 20.00    -0.298 OA
ENDBRANCH   7   9
TORSDOF 1
ENDMDL
MODEL 8
REMARK VINA RESULT:      -4.3     14.817     16.412
REMARK  1 active torsions:
REMARK  status: ('A' for Active; 'I' for Inactive)
REMARK    1  A    between atoms: C5_5  and  C8_8 
ROOT
HETATM    1  C1  UNL     1     -33.307  18.102  -0.288  1.00 20.00    -0.027 C 
HETATM    2  C2  UNL     1     -34.539  17.571  -0.294  1.00 20.00    -0.029 C 
HETATM    3  C3  UNL     1     -32.769  18.126  -2.789  1.00 20.00    -0.020 C 
HETATM    4  C4  UNL     1     -33.685  17.289  -3.311  1.00 20.00    -0.076 C 
HETATM    5  C6  UNL     1     -32.268  18.125  -1.373  1.00 20.00     0.054 C 
HETATM    6  C7  UNL     1     -35.214  16.771  -1.371  1.00 20.00     0.043 C 
HETATM    7  C8  UNL     1     -34.294  16.201  -2.456  1.00 20.00     0.086 C 
HETATM    8  C9  UNL     1     -34.117  17.444  -4.744  1.00 20.00     0.044 C 
ENDROOT
BRANCH   7   9
HETATM    9  C5  UNL     1     -35.063  15.210  -3.287  1.00 20.00     0.131 C 
HETATM   10  C10 UNL     1     -34.269  14.103  -3.926  1.00 20.00     0.091 C 
HETATM   11  O11 UNL     1     -36.280  15.299  -3.435  1.00 20.00    -0.298 OA
ENDBRANCH   7   9
TORSDOF 1
ENDMDL
MODEL 9
REMARK VINA RESULT:      -4.3     16.178     17.743
REMARK  1 active torsions:
REMARK  status: ('A' for Active; 'I' for Inactive)
REMARK    1  A    between atoms: C5_5  and  C8_8 
ROOT
HETATM    1  C1  UNL     1     -35.946  13.724  -4.460  1.00 20.00    -0.027 C 
HETATM    2  C2  UNL     1     -34.709  14.064  -4.065  1.00 20.00    -0.029 C 
HETATM    3  C3  UNL     1     -37.194  15.932  -4.127  1.00 20.00    -0.020 C 
HETATM    4  C4  UNL     1     -36.367  16.640  -3.335  1.00 20.00    -0.076 C 
HETATM    5  C6  UNL     1     -37.251  14.436  -4.243  1.00 20.00     0.054 C 
HETATM    6  C7  UNL     1     -34.279  15.228  -3.218  1.00 20.00     0.043 C 
HETATM    7  C8  UNL     1     -35.389  15.927  -2.428  1.00 20.00     0.086 C 
HETATM    8  C9  UNL     1     -36.402  18.144  -3.362  1.00 20.00     0.044 C 
ENDROOT
BRANCH   7   9
HETATM    9  C5  UNL     1     -34.772  16.869  -1.432  1.00 20.00     0.131 C 
HETATM   10  C10 UNL     1     -33.409  17.413  -1.770  1.00 20.00     0.091 C 
HETATM   11  O11 UNL     1     -35.351  17.183  -0.394  1.00 20.00    -0.298 OA
ENDBRANCH   7   9
TORSDOF 1
ENDMDL
