MODEL 1
REMARK VINA RESULT:      -4.8      0.000      0.000
REMARK  0 active torsions:
REMARK  status: ('A' for Active; 'I' for Inactive)
ROOT
HETATM    1  C1  UNL     1     -35.324  13.669  -4.125  1.00 20.00     0.066 C 
HETATM    2  C2  UNL     1     -33.328  17.099  -2.179  1.00 20.00     0.031 C 
HETATM    3  C3  UNL     1     -34.673  16.524  -1.728  1.00 20.00     0.009 C 
HETATM    4  C4  UNL     1     -33.403  17.714  -3.583  1.00 20.00     0.272 C 
HETATM    5  C5  UNL     1     -33.777  15.544  -4.656  1.00 20.00     0.292 C 
HETATM    6  C6  UNL     1     -35.596  16.835  -4.017  1.00 20.00     0.278 C 
HETATM    7  C7  UNL     1     -34.520  14.763  -3.554  1.00 20.00     0.127 C 
HETATM    8  C8  UNL     1     -35.411  15.827  -2.888  1.00 20.00     0.033 C 
HETATM    9  N9  UNL     1     -35.957  12.807  -4.574  1.00 20.00    -0.197 NA
HETATM   10  N10 UNL     1     -34.225  16.952  -4.548  1.00 20.00     0.090 N 
ENDROOT
TORSDOF 0
ENDMDL
MODEL 2
REMARK VINA RESULT:      -4.6     16.263     17.917
REMARK  0 active torsions:
REMARK  status: ('A' for Active; 'I' for Inactive)
ROOT
HETATM    1  C1  UNL     1     -23.781  18.806   8.048  1.00 20.00     0.066 C 
HETATM    2  C2  UNL     1     -22.919  18.140  12.332  1.00 20.00     0.031 C 
HETATM    3  C3  UNL     1     -22.014  17.664  11.193  1.00 20.00     0.009 C 
HETATM    4  C4  UNL     1     -24.284  17.439  12.317  1.00 20.00     0.272 C 
HETATM    5  C5  UNL     1     -24.958  18.511  10.221  1.00 20.00     0.292 C 
HETATM    6  C6  UNL     1     -23.919  16.437  10.165  1.00 20.00     0.278 C 
HETATM    7  C7  UNL     1     -23.606  18.703   9.507  1.00 20.00     0.127 C 
HETATM    8  C8  UNL     1     -22.807  17.444   9.891  1.00 20.00     0.033 C 
HETATM    9  N9  UNL     1     -23.919  18.887   6.900  1.00 20.00    -0.197 NA
HETATM   10  N10 UNL     1     -24.861  17.237  10.971  1.00 20.00     0.090 N 
ENDROOT
TORSDOF 0
ENDMDL
MODEL 3
REMARK VINA RESULT:      -4.5     17.766     18.556
REMARK  0 active torsions:
REMARK  status: ('A' for Active; 'I' for Inactive)
ROOT
HETATM    1  C1  UNL     1     -22.594  18.481   9.534  1.00 20.00     0.066 C 
HETATM    2  C2  UNL     1     -26.063  17.398  12.050  1.00 20.00     0.031 C 
HETATM    3  C3  UNL     1     -25.141  18.588  12.330  1.00 20.00     0.009 C 
HETATM    4  C4  UNL     1     -25.330  16.056  12.176  1.00 20.00     0.272 C 
HETATM    5  C5  UNL     1     -23.922  16.492  10.219  1.00 20.00     0.292 C 
HETATM    6  C6  UNL     1     -23.163  17.080  12.332  1.00 20.00     0.278 C 
HETATM    7  C7  UNL     1     -23.802  18.029  10.244  1.00 20.00     0.127 C 
HETATM    8  C8  UNL     1     -23.734  18.367  11.745  1.00 20.00     0.033 C 
HETATM    9  N9  UNL     1     -21.642  18.839   8.976  1.00 20.00    -0.197 NA
HETATM   10  N10 UNL     1     -23.954  16.050  11.633  1.00 20.00     0.090 N 
ENDROOT
TORSDOF 0
ENDMDL
MODEL 4
REMARK VINA RESULT:      -4.4      1.122      1.701
REMARK  0 active torsions:
REMARK  status: ('A' for Active; 'I' for Inactive)
ROOT
HETATM    1  C1  UNL     1     -35.502  13.936  -4.407  1.00 20.00     0.066 C 
HETATM    2  C2  UNL     1     -33.539  17.836  -3.716  1.00 20.00     0.031 C 
HETATM    3  C3  UNL     1     -33.024  16.508  -3.155  1.00 20.00     0.009 C 
HETATM    4  C4  UNL     1     -34.904  18.221  -3.130  1.00 20.00     0.272 C 
HETATM    5  C5  UNL     1     -36.049  16.357  -4.232  1.00 20.00     0.292 C 
HETATM    6  C6  UNL     1     -35.227  16.085  -2.079  1.00 20.00     0.278 C 
HETATM    7  C7  UNL     1     -34.937  15.293  -4.305  1.00 20.00     0.127 C 
HETATM    8  C8  UNL     1     -34.162  15.482  -2.988  1.00 20.00     0.033 C 
HETATM    9  N9  UNL     1     -35.946  12.868  -4.487  1.00 20.00    -0.197 NA
HETATM   10  N10 UNL     1     -35.845  17.092  -2.962  1.00 20.00     0.090 N 
ENDROOT
TORSDOF 0
ENDMDL
MODEL 5
REMARK VINA RESULT:      -4.3     10.505     12.676
REMARK  0 active torsions:
REMARK  status: ('A' for Active; 'I' for Inactive)
ROOT
HETATM    1  C1  UNL     1     -41.728   9.138   0.333  1.00 20.00     0.066 C 
HETATM    2  C2  UNL     1     -43.417   5.055   0.457  1.00 20.00     0.031 C 
HETATM    3  C3  UNL     1     -42.079   5.447   1.090  1.00 20.00     0.009 C 
HETATM    4  C4  UNL     1     -43.394   5.189  -1.072  1.00 20.00     0.272 C 
HETATM    5  C5  UNL     1     -43.202   7.629  -0.986  1.00 20.00     0.292 C 
HETATM    6  C6  UNL     1     -41.282   6.331  -1.094  1.00 20.00     0.278 C 
HETATM    7  C7  UNL     1     -42.436   7.846   0.333  1.00 20.00     0.127 C 
HETATM    8  C8  UNL     1     -41.452   6.664   0.384  1.00 20.00     0.033 C 
HETATM    9  N9  UNL     1     -41.169  10.154   0.333  1.00 20.00    -0.197 NA
HETATM   10  N10 UNL     1     -42.675   6.378  -1.578  1.00 20.00     0.090 N 
ENDROOT
TORSDOF 0
ENDMDL
MODEL 6
REMARK VINA RESULT:      -4.3     16.994     18.077
REMARK  0 active torsions:
REMARK  status: ('A' for Active; 'I' for Inactive)
ROOT
HETATM    1  C1  UNL     1     -22.168  17.278   8.056  1.00 20.00     0.066 C 
HETATM    2  C2  UNL     1     -23.757  16.169  12.029  1.00 20.00     0.031 C 
HETATM    3  C3  UNL     1     -24.506  15.941  10.713  1.00 20.00     0.009 C 
HETATM    4  C4  UNL     1     -23.558  17.660  12.330  1.00 20.00     0.272 C 
HETATM    5  C5  UNL     1     -22.030  17.972  10.442  1.00 20.00     0.292 C 
HETATM    6  C6  UNL     1     -24.301  18.356  10.154  1.00 20.00     0.278 C 
HETATM    7  C7  UNL     1     -22.541  16.923   9.436  1.00 20.00     0.127 C 
HETATM    8  C8  UNL     1     -24.069  16.944   9.629  1.00 20.00     0.033 C 
HETATM    9  N9  UNL     1     -21.874  17.558   6.970  1.00 20.00    -0.197 NA
HETATM   10  N10 UNL     1     -23.223  18.489  11.153  1.00 20.00     0.090 N 
ENDROOT
TORSDOF 0
ENDMDL
MODEL 7
REMARK VINA RESULT:      -4.3      1.530      1.892
REMARK  0 active torsions:
REMARK  status: ('A' for Active; 'I' for Inactive)
ROOT
HETATM    1  C1  UNL     1     -37.270  14.429  -4.115  1.00 20.00     0.066 C 
HETATM    2  C2  UNL     1     -33.544  16.360  -2.727  1.00 20.00     0.031 C 
HETATM    3  C3  UNL     1     -34.778  17.128  -3.208  1.00 20.00     0.009 C 
HETATM    4  C4  UNL     1     -32.905  15.532  -3.850  1.00 20.00     0.272 C 
HETATM    5  C5  UNL     1     -34.820  14.013  -3.999  1.00 20.00     0.292 C 
HETATM    6  C6  UNL     1     -34.735  15.888  -5.364  1.00 20.00     0.278 C 
HETATM    7  C7  UNL     1     -35.990  14.926  -3.584  1.00 20.00     0.127 C 
HETATM    8  C8  UNL     1     -35.621  16.293  -4.190  1.00 20.00     0.033 C 
HETATM    9  N9  UNL     1     -38.279  14.038  -4.533  1.00 20.00    -0.197 NA
HETATM   10  N10 UNL     1     -33.868  14.864  -4.751  1.00 20.00     0.090 N 
ENDROOT
TORSDOF 0
ENDMDL
MODEL 8
REMARK VINA RESULT:      -4.1      2.535      4.321
REMARK  0 active torsions:
REMARK  status: ('A' for Active; 'I' for Inactive)
ROOT
HETATM    1  C1  UNL     1     -31.766  18.198  -0.884  1.00 20.00     0.066 C 
HETATM    2  C2  UNL     1     -35.589  16.619  -2.443  1.00 20.00     0.031 C 
HETATM    3  C3  UNL     1     -34.248  15.891  -2.568  1.00 20.00     0.009 C 
HETATM    4  C4  UNL     1     -35.608  17.935  -3.233  1.00 20.00     0.272 C 
HETATM    5  C5  UNL     1     -33.953  18.990  -1.768  1.00 20.00     0.292 C 
HETATM    6  C6  UNL     1     -33.248  17.879  -3.680  1.00 20.00     0.278 C 
HETATM    7  C7  UNL     1     -33.115  17.782  -1.305  1.00 20.00     0.127 C 
HETATM    8  C8  UNL     1     -33.063  16.874  -2.547  1.00 20.00     0.033 C 
HETATM    9  N9  UNL     1     -30.703  18.524  -0.553  1.00 20.00    -0.197 NA
HETATM   10  N10 UNL     1     -34.352  18.713  -3.167  1.00 20.00     0.090 N 
ENDROOT
TORSDOF 0
ENDMDL
MODEL 9
REMARK VINA RESULT:      -4.1      1.911      2.716
REMARK  0 active torsions:
REMARK  status: ('A' for Active; 'I' for Inactive)
ROOT
HETATM    1  C1  UNL     1     -35.592  15.197  -6.759  1.00 20.00     0.066 C 
HETATM    2  C2  UNL     1     -33.440  16.258  -3.047  1.00 20.00     0.031 C 
HETATM    3  C3  UNL     1     -32.969  15.185  -4.032  1.00 20.00     0.009 C 
HETATM    4  C4  UNL     1     -34.770  15.885  -2.378  1.00 20.00     0.272 C 
HETATM    5  C5  UNL     1     -36.027  16.074  -4.472  1.00 20.00     0.292 C 
HETATM    6  C6  UNL     1     -35.158  14.018  -3.838  1.00 20.00     0.278 C 
HETATM    7  C7  UNL     1     -34.965  15.690  -5.521  1.00 20.00     0.127 C 
HETATM    8  C8  UNL     1     -34.146  14.587  -4.827  1.00 20.00     0.033 C 
HETATM    9  N9  UNL     1     -36.085  14.809  -7.734  1.00 20.00    -0.197 NA
HETATM   10  N10 UNL     1     -35.755  15.244  -3.275  1.00 20.00     0.090 N 
ENDROOT
TORSDOF 0
ENDMDL
