MODEL 1
REMARK VINA RESULT:      -5.9      0.000      0.000
REMARK  1 active torsions:
REMARK  status: ('A' for Active; 'I' for Inactive)
REMARK    1  A    between atoms: C7_7  and  C9_9 
ROOT
HETATM    1  C1  UNL     1     -34.734   5.354   5.959  1.00 20.00    -0.004 A 
HETATM    2  C2  UNL     1     -33.931   6.529   6.167  1.00 20.00    -0.004 A 
HETATM    3  C3  UNL     1     -35.047   4.926   4.728  1.00 20.00    -0.017 A 
HETATM    4  C4  UNL     1     -33.502   7.279   5.145  1.00 20.00    -0.020 A 
HETATM    5  C5  UNL     1     -33.652   4.796   2.676  1.00 20.00    -0.021 C 
HETATM    6  C6  UNL     1     -32.537   5.452   2.349  1.00 20.00    -0.017 C 
HETATM    7  C8  UNL     1     -34.603   5.633   3.476  1.00 20.00     0.039 A 
HETATM    8  C9  UNL     1     -32.527   6.852   2.860  1.00 20.00     0.086 C 
HETATM    9  C10 UNL     1     -33.818   6.967   3.700  1.00 20.00     0.034 A 
ENDROOT
BRANCH   8  10
HETATM   10  C7  UNL     1     -32.555   7.756   1.666  1.00 20.00     0.131 C 
HETATM   11  C11 UNL     1     -33.473   8.946   1.740  1.00 20.00     0.091 C 
HETATM   12  O12 UNL     1     -31.860   7.537   0.675  1.00 20.00    -0.298 OA
ENDBRANCH   8  10
TORSDOF 1
ENDMDL
MODEL 2
REMARK VINA RESULT:      -5.3     11.460     12.228
REMARK  1 active torsions:
REMARK  status: ('A' for Active; 'I' for Inactive)
REMARK    1  A    between atoms: C7_7  and  C9_9 
ROOT
HETATM    1  C1  UNL     1     -32.973  16.634  -2.650  1.00 20.00    -0.004 A 
HETATM    2  C2  UNL     1     -34.141  16.937  -1.867  1.00 20.00    -0.004 A 
HETATM    3  C3  UNL     1     -33.022  15.787  -3.687  1.00 20.00    -0.017 A 
HETATM    4  C4  UNL     1     -35.320  16.348  -2.105  1.00 20.00    -0.020 A 
HETATM    5  C5  UNL     1     -34.741  15.533  -5.464  1.00 20.00    -0.021 C 
HETATM    6  C6  UNL     1     -36.025  15.895  -5.479  1.00 20.00    -0.017 C 
HETATM    7  C8  UNL     1     -34.282  15.082  -4.110  1.00 20.00     0.039 A 
HETATM    8  C9  UNL     1     -36.675  15.751  -4.145  1.00 20.00     0.086 C 
HETATM    9  C10 UNL     1     -35.528  15.328  -3.200  1.00 20.00     0.034 A 
ENDROOT
BRANCH   8  10
HETATM   10  C7  UNL     1     -37.716  14.683  -4.275  1.00 20.00     0.131 C 
HETATM   11  C11 UNL     1     -39.151  15.119  -4.156  1.00 20.00     0.091 C 
HETATM   12  O12 UNL     1     -37.412  13.507  -4.473  1.00 20.00    -0.298 OA
ENDBRANCH   8  10
TORSDOF 1
ENDMDL
MODEL 3
REMARK VINA RESULT:      -5.3     10.912     12.139
REMARK  1 active torsions:
REMARK  status: ('A' for Active; 'I' for Inactive)
REMARK    1  A    between atoms: C7_7  and  C9_9 
ROOT
HETATM    1  C1  UNL     1     -33.193  17.547  -1.927  1.00 20.00    -0.004 A 
HETATM    2  C2  UNL     1     -34.392  17.221  -1.201  1.00 20.00    -0.004 A 
HETATM    3  C3  UNL     1     -32.894  16.956  -3.091  1.00 20.00    -0.017 A 
HETATM    4  C4  UNL     1     -35.238  16.276  -1.628  1.00 20.00    -0.020 A 
HETATM    5  C5  UNL     1     -34.356  16.386  -5.018  1.00 20.00    -0.021 C 
HETATM    6  C6  UNL     1     -35.678  16.215  -5.076  1.00 20.00    -0.017 C 
HETATM    7  C8  UNL     1     -33.767  15.907  -3.726  1.00 20.00     0.039 A 
HETATM    8  C9  UNL     1     -36.228  15.587  -3.841  1.00 20.00     0.086 C 
HETATM    9  C10 UNL     1     -35.015  15.476  -2.890  1.00 20.00     0.034 A 
ENDROOT
BRANCH   8  10
HETATM   10  C7  UNL     1     -36.758  14.241  -4.231  1.00 20.00     0.131 C 
HETATM   11  C11 UNL     1     -35.742  13.158  -4.469  1.00 20.00     0.091 C 
HETATM   12  O12 UNL     1     -37.964  14.033  -4.349  1.00 20.00    -0.298 OA
ENDBRANCH   8  10
TORSDOF 1
ENDMDL
MODEL 4
REMARK VINA RESULT:      -5.0     11.135     12.023
REMARK  1 active torsions:
REMARK  status: ('A' for Active; 'I' for Inactive)
REMARK    1  A    between atoms: C7_7  and  C9_9 
ROOT
HETATM    1  C1  UNL     1     -33.438  18.236  -0.829  1.00 20.00    -0.004 A 
HETATM    2  C2  UNL     1     -34.726  17.692  -0.490  1.00 20.00    -0.004 A 
HETATM    3  C3  UNL     1     -32.711  17.740  -1.839  1.00 20.00    -0.017 A 
HETATM    4  C4  UNL     1     -35.235  16.634  -1.131  1.00 20.00    -0.020 A 
HETATM    5  C5  UNL     1     -33.415  16.997  -4.104  1.00 20.00    -0.021 C 
HETATM    6  C6  UNL     1     -34.611  16.611  -4.551  1.00 20.00    -0.017 C 
HETATM    7  C8  UNL     1     -33.166  16.581  -2.686  1.00 20.00     0.039 A 
HETATM    8  C9  UNL     1     -35.390  15.861  -3.525  1.00 20.00     0.086 C 
HETATM    9  C10 UNL     1     -34.516  15.923  -2.254  1.00 20.00     0.034 A 
ENDROOT
BRANCH   8  10
HETATM   10  C7  UNL     1     -35.546  14.460  -4.030  1.00 20.00     0.131 C 
HETATM   11  C11 UNL     1     -36.909  14.070  -4.535  1.00 20.00     0.091 C 
HETATM   12  O12 UNL     1     -34.606  13.667  -4.033  1.00 20.00    -0.298 OA
ENDBRANCH   8  10
TORSDOF 1
ENDMDL
MODEL 5
REMARK VINA RESULT:      -4.9     11.331     12.323
REMARK  1 active torsions:
REMARK  status: ('A' for Active; 'I' for Inactive)
REMARK    1  A    between atoms: C7_7  and  C9_9 
ROOT
HETATM    1  C1  UNL     1     -33.529  18.217  -2.738  1.00 20.00    -0.004 A 
HETATM    2  C2  UNL     1     -34.829  18.485  -3.293  1.00 20.00    -0.004 A 
HETATM    3  C3  UNL     1     -33.088  16.965  -2.554  1.00 20.00    -0.017 A 
HETATM    4  C4  UNL     1     -35.679  17.498  -3.602  1.00 20.00    -0.020 A 
HETATM    5  C5  UNL     1     -33.292  14.966  -4.016  1.00 20.00    -0.021 C 
HETATM    6  C6  UNL     1     -34.160  14.698  -4.993  1.00 20.00    -0.017 C 
HETATM    7  C8  UNL     1     -33.906  15.749  -2.895  1.00 20.00     0.039 A 
HETATM    8  C9  UNL     1     -35.520  15.243  -4.715  1.00 20.00     0.086 C 
HETATM    9  C10 UNL     1     -35.357  16.036  -3.400  1.00 20.00     0.034 A 
ENDROOT
BRANCH   8  10
HETATM   10  C7  UNL     1     -36.438  14.071  -4.553  1.00 20.00     0.131 C 
HETATM   11  C11 UNL     1     -37.886  14.379  -4.283  1.00 20.00     0.091 C 
HETATM   12  O12 UNL     1     -36.029  12.914  -4.638  1.00 20.00    -0.298 OA
ENDBRANCH   8  10
TORSDOF 1
ENDMDL
MODEL 6
REMARK VINA RESULT:      -4.7     11.624     12.359
REMARK  1 active torsions:
REMARK  status: ('A' for Active; 'I' for Inactive)
REMARK    1  A    between atoms: C7_7  and  C9_9 
ROOT
HETATM    1  C1  UNL     1     -34.485  16.691  -1.750  1.00 20.00    -0.004 A 
HETATM    2  C2  UNL     1     -33.307  16.496  -2.553  1.00 20.00    -0.004 A 
HETATM    3  C3  UNL     1     -35.715  16.542  -2.260  1.00 20.00    -0.017 A 
HETATM    4  C4  UNL     1     -33.385  16.209  -3.858  1.00 20.00    -0.020 A 
HETATM    5  C5  UNL     1     -36.604  14.825  -3.820  1.00 20.00    -0.021 C 
HETATM    6  C6  UNL     1     -35.966  14.031  -4.683  1.00 20.00    -0.017 C 
HETATM    7  C8  UNL     1     -35.968  16.176  -3.698  1.00 20.00     0.039 A 
HETATM    8  C9  UNL     1     -34.787  14.697  -5.307  1.00 20.00     0.086 C 
HETATM    9  C10 UNL     1     -34.695  16.066  -4.597  1.00 20.00     0.034 A 
ENDROOT
BRANCH   8  10
HETATM   10  C7  UNL     1     -35.087  14.843  -6.767  1.00 20.00     0.131 C 
HETATM   11  C11 UNL     1     -34.003  15.436  -7.624  1.00 20.00     0.091 C 
HETATM   12  O12 UNL     1     -36.167  14.493  -7.242  1.00 20.00    -0.298 OA
ENDBRANCH   8  10
TORSDOF 1
ENDMDL
MODEL 7
REMARK VINA RESULT:      -4.6     11.441     12.365
REMARK  1 active torsions:
REMARK  status: ('A' for Active; 'I' for Inactive)
REMARK    1  A    between atoms: C7_7  and  C9_9 
ROOT
HETATM    1  C1  UNL     1     -35.077  14.381  -4.245  1.00 20.00    -0.004 A 
HETATM    2  C2  UNL     1     -33.686  14.626  -4.518  1.00 20.00    -0.004 A 
HETATM    3  C3  UNL     1     -35.726  15.028  -3.268  1.00 20.00    -0.017 A 
HETATM    4  C4  UNL     1     -32.962  15.473  -3.776  1.00 20.00    -0.020 A 
HETATM    5  C5  UNL     1     -35.626  17.417  -2.591  1.00 20.00    -0.021 C 
HETATM    6  C6  UNL     1     -34.681  18.334  -2.803  1.00 20.00    -0.017 C 
HETATM    7  C8  UNL     1     -35.064  16.044  -2.377  1.00 20.00     0.039 A 
HETATM    8  C9  UNL     1     -33.306  17.757  -2.767  1.00 20.00     0.086 C 
HETATM    9  C10 UNL     1     -33.529  16.237  -2.603  1.00 20.00     0.034 A 
ENDROOT
BRANCH   8  10
HETATM   10  C7  UNL     1     -32.611  18.352  -1.582  1.00 20.00     0.131 C 
HETATM   11  C11 UNL     1     -33.316  18.241  -0.258  1.00 20.00     0.091 C 
HETATM   12  O12 UNL     1     -31.515  18.902  -1.686  1.00 20.00    -0.298 OA
ENDBRANCH   8  10
TORSDOF 1
ENDMDL
MODEL 8
REMARK VINA RESULT:      -4.6     11.262     12.194
REMARK  1 active torsions:
REMARK  status: ('A' for Active; 'I' for Inactive)
REMARK    1  A    between atoms: C7_7  and  C9_9 
ROOT
HETATM    1  C1  UNL     1     -36.122  17.950  -1.030  1.00 20.00    -0.004 A 
HETATM    2  C2  UNL     1     -37.005  18.016  -2.165  1.00 20.00    -0.004 A 
HETATM    3  C3  UNL     1     -35.154  17.028  -0.946  1.00 20.00    -0.017 A 
HETATM    4  C4  UNL     1     -36.934  17.129  -3.164  1.00 20.00    -0.020 A 
HETATM    5  C5  UNL     1     -33.593  16.185  -2.686  1.00 20.00    -0.021 C 
HETATM    6  C6  UNL     1     -33.692  16.205  -4.016  1.00 20.00    -0.017 C 
HETATM    7  C8  UNL     1     -34.916  15.990  -2.010  1.00 20.00     0.039 A 
HETATM    8  C9  UNL     1     -35.095  16.024  -4.488  1.00 20.00     0.086 C 
HETATM    9  C10 UNL     1     -35.937  15.993  -3.193  1.00 20.00     0.034 A 
ENDROOT
BRANCH   8  10
HETATM   10  C7  UNL     1     -35.147  14.719  -5.220  1.00 20.00     0.131 C 
HETATM   11  C11 UNL     1     -36.176  13.724  -4.756  1.00 20.00     0.091 C 
HETATM   12  O12 UNL     1     -34.387  14.473  -6.156  1.00 20.00    -0.298 OA
ENDBRANCH   8  10
TORSDOF 1
ENDMDL
MODEL 9
REMARK VINA RESULT:      -4.6     11.373     12.475
REMARK  1 active torsions:
REMARK  status: ('A' for Active; 'I' for Inactive)
REMARK    1  A    between atoms: C7_7  and  C9_9 
ROOT
HETATM    1  C1  UNL     1     -32.934  18.415   0.701  1.00 20.00    -0.004 A 
HETATM    2  C2  UNL     1     -31.830  18.360  -0.220  1.00 20.00    -0.004 A 
HETATM    3  C3  UNL     1     -34.198  18.227   0.295  1.00 20.00    -0.017 A 
HETATM    4  C4  UNL     1     -32.016  18.171  -1.532  1.00 20.00    -0.020 A 
HETATM    5  C5  UNL     1     -35.132  16.582  -1.315  1.00 20.00    -0.021 C 
HETATM    6  C6  UNL     1     -34.536  15.901  -2.296  1.00 20.00    -0.017 C 
HETATM    7  C8  UNL     1     -34.566  17.958  -1.139  1.00 20.00     0.039 A 
HETATM    8  C9  UNL     1     -33.463  16.689  -2.968  1.00 20.00     0.086 C 
HETATM    9  C10 UNL     1     -33.381  18.001  -2.157  1.00 20.00     0.034 A 
ENDROOT
BRANCH   8  10
HETATM   10  C7  UNL     1     -33.910  16.928  -4.377  1.00 20.00     0.131 C 
HETATM   11  C11 UNL     1     -33.975  18.361  -4.831  1.00 20.00     0.091 C 
HETATM   12  O12 UNL     1     -34.207  15.999  -5.126  1.00 20.00    -0.298 OA
ENDBRANCH   8  10
TORSDOF 1
ENDMDL
