MODEL 1
REMARK VINA RESULT:      -5.1      0.000      0.000
REMARK  1 active torsions:
REMARK  status: ('A' for Active; 'I' for Inactive)
REMARK    1  A    between atoms: C3_3  and  C8_8 
ROOT
HETATM    1  C1  UNL     1     -34.445  17.144  -4.385  1.00 20.00    -0.079 C 
HETATM    2  C2  UNL     1     -34.120  18.091  -5.270  1.00 20.00    -0.028 C 
HETATM    3  C4  UNL     1     -35.814  16.901  -3.803  1.00 20.00     0.039 C 
HETATM    4  C5  UNL     1     -33.804  14.768  -4.363  1.00 20.00     0.023 C 
HETATM    5  C6  UNL     1     -34.140  16.024  -2.362  1.00 20.00     0.014 C 
HETATM    6  C7  UNL     1     -33.503  16.147  -3.748  1.00 20.00     0.015 C 
HETATM    7  C8  UNL     1     -35.179  14.415  -3.760  1.00 20.00     0.077 C 
HETATM    8  C9  UNL     1     -35.525  15.668  -2.919  1.00 20.00     0.003 C 
HETATM    9  C10 UNL     1     -35.095  19.057  -5.858  1.00 20.00     0.036 C 
ENDROOT
BRANCH   7  10
HETATM   10  C3  UNL     1     -36.210  14.081  -4.791  1.00 20.00     0.223 C 
HETATM   11  O11 UNL     1     -37.297  13.603  -4.483  1.00 20.00    -0.279 OA
HETATM   12 CL12 UNL     1     -35.667  14.447  -6.401  1.00 20.00    -0.043 Cl
ENDBRANCH   7  10
TORSDOF 1
ENDMDL
MODEL 2
REMARK VINA RESULT:      -4.8      2.086      2.761
REMARK  1 active torsions:
REMARK  status: ('A' for Active; 'I' for Inactive)
REMARK    1  A    between atoms: C3_3  and  C8_8 
ROOT
HETATM    1  C1  UNL     1     -34.584  15.404  -3.221  1.00 20.00    -0.079 C 
HETATM    2  C2  UNL     1     -33.985  16.267  -2.397  1.00 20.00    -0.028 C 
HETATM    3  C4  UNL     1     -36.070  15.214  -3.384  1.00 20.00     0.039 C 
HETATM    4  C5  UNL     1     -34.069  14.908  -5.576  1.00 20.00     0.023 C 
HETATM    5  C6  UNL     1     -34.910  13.257  -4.072  1.00 20.00     0.014 C 
HETATM    6  C7  UNL     1     -33.902  14.407  -4.130  1.00 20.00     0.015 C 
HETATM    7  C8  UNL     1     -35.571  14.686  -5.845  1.00 20.00     0.077 C 
HETATM    8  C9  UNL     1     -36.093  14.139  -4.494  1.00 20.00     0.003 C 
HETATM    9  C10 UNL     1     -34.714  17.224  -1.513  1.00 20.00     0.036 C 
ENDROOT
BRANCH   7  10
HETATM   10  C3  UNL     1     -36.279  15.920  -6.308  1.00 20.00     0.223 C 
HETATM   11  O11 UNL     1     -37.451  15.893  -6.668  1.00 20.00    -0.279 OA
HETATM   12 CL12 UNL     1     -35.250  17.320  -6.262  1.00 20.00    -0.043 Cl
ENDBRANCH   7  10
TORSDOF 1
ENDMDL
MODEL 3
REMARK VINA RESULT:      -4.7      1.703      2.370
REMARK  1 active torsions:
REMARK  status: ('A' for Active; 'I' for Inactive)
REMARK    1  A    between atoms: C3_3  and  C8_8 
ROOT
HETATM    1  C1  UNL     1     -34.202  16.332  -3.309  1.00 20.00    -0.079 C 
HETATM    2  C2  UNL     1     -34.045  17.511  -2.701  1.00 20.00    -0.028 C 
HETATM    3  C4  UNL     1     -34.833  15.100  -2.714  1.00 20.00     0.039 C 
HETATM    4  C5  UNL     1     -34.994  15.868  -5.593  1.00 20.00     0.023 C 
HETATM    5  C6  UNL     1     -33.376  14.500  -4.494  1.00 20.00     0.014 C 
HETATM    6  C7  UNL     1     -33.741  15.972  -4.704  1.00 20.00     0.015 C 
HETATM    7  C8  UNL     1     -35.671  14.580  -5.083  1.00 20.00     0.077 C 
HETATM    8  C9  UNL     1     -34.752  14.136  -3.920  1.00 20.00     0.003 C 
HETATM    9  C10 UNL     1     -34.514  17.806  -1.314  1.00 20.00     0.036 C 
ENDROOT
BRANCH   7  10
HETATM   10  C3  UNL     1     -37.097  14.781  -4.679  1.00 20.00     0.223 C 
HETATM   11  O11 UNL     1     -37.820  13.837  -4.372  1.00 20.00    -0.279 OA
HETATM   12 CL12 UNL     1     -37.555  16.457  -4.707  1.00 20.00    -0.043 Cl
ENDBRANCH   7  10
TORSDOF 1
ENDMDL
MODEL 4
REMARK VINA RESULT:      -4.7      1.446      2.274
REMARK  1 active torsions:
REMARK  status: ('A' for Active; 'I' for Inactive)
REMARK    1  A    between atoms: C3_3  and  C8_8 
ROOT
HETATM    1  C1  UNL     1     -35.294  17.087  -3.059  1.00 20.00    -0.079 C 
HETATM    2  C2  UNL     1     -36.116  18.068  -2.678  1.00 20.00    -0.028 C 
HETATM    3  C4  UNL     1     -35.097  15.767  -2.358  1.00 20.00     0.039 C 
HETATM    4  C5  UNL     1     -34.935  16.163  -5.312  1.00 20.00     0.023 C 
HETATM    5  C6  UNL     1     -33.194  16.287  -3.683  1.00 20.00     0.014 C 
HETATM    6  C7  UNL     1     -34.356  17.110  -4.245  1.00 20.00     0.015 C 
HETATM    7  C8  UNL     1     -34.711  14.769  -4.690  1.00 20.00     0.077 C 
HETATM    8  C9  UNL     1     -34.085  15.095  -3.313  1.00 20.00     0.003 C 
HETATM    9  C10 UNL     1     -37.015  17.992  -1.488  1.00 20.00     0.036 C 
ENDROOT
BRANCH   7  10
HETATM   10  C3  UNL     1     -35.961  13.952  -4.604  1.00 20.00     0.223 C 
HETATM   11  O11 UNL     1     -35.927  12.738  -4.430  1.00 20.00    -0.279 OA
HETATM   12 CL12 UNL     1     -37.391  14.924  -4.779  1.00 20.00    -0.043 Cl
ENDBRANCH   7  10
TORSDOF 1
ENDMDL
MODEL 5
REMARK VINA RESULT:      -4.6      1.727      2.858
REMARK  1 active torsions:
REMARK  status: ('A' for Active; 'I' for Inactive)
REMARK    1  A    between atoms: C3_3  and  C8_8 
ROOT
HETATM    1  C1  UNL     1     -34.325  16.346  -2.583  1.00 20.00    -0.079 C 
HETATM    2  C2  UNL     1     -34.363  17.153  -1.519  1.00 20.00    -0.028 C 
HETATM    3  C4  UNL     1     -35.197  15.139  -2.817  1.00 20.00     0.039 C 
HETATM    4  C5  UNL     1     -34.178  16.940  -4.967  1.00 20.00     0.023 C 
HETATM    5  C6  UNL     1     -33.189  14.959  -4.075  1.00 20.00     0.014 C 
HETATM    6  C7  UNL     1     -33.371  16.444  -3.752  1.00 20.00     0.015 C 
HETATM    7  C8  UNL     1     -35.062  15.724  -5.312  1.00 20.00     0.077 C 
HETATM    8  C9  UNL     1     -34.695  14.700  -4.211  1.00 20.00     0.003 C 
HETATM    9  C10 UNL     1     -35.324  16.999  -0.387  1.00 20.00     0.036 C 
ENDROOT
BRANCH   7  10
HETATM   10  C3  UNL     1     -36.520  16.050  -5.368  1.00 20.00     0.223 C 
HETATM   11  O11 UNL     1     -37.352  15.224  -5.733  1.00 20.00    -0.279 OA
HETATM   12 CL12 UNL     1     -36.846  17.682  -4.866  1.00 20.00    -0.043 Cl
ENDBRANCH   7  10
TORSDOF 1
ENDMDL
MODEL 6
REMARK VINA RESULT:      -4.6      2.148      2.775
REMARK  1 active torsions:
REMARK  status: ('A' for Active; 'I' for Inactive)
REMARK    1  A    between atoms: C3_3  and  C8_8 
ROOT
HETATM    1  C1  UNL     1     -33.920  15.816  -3.244  1.00 20.00    -0.079 C 
HETATM    2  C2  UNL     1     -33.060  16.660  -2.669  1.00 20.00    -0.028 C 
HETATM    3  C4  UNL     1     -35.378  15.654  -2.896  1.00 20.00     0.039 C 
HETATM    4  C5  UNL     1     -34.240  15.331  -5.636  1.00 20.00     0.023 C 
HETATM    5  C6  UNL     1     -34.559  13.682  -3.940  1.00 20.00     0.014 C 
HETATM    6  C7  UNL     1     -33.605  14.814  -4.333  1.00 20.00     0.015 C 
HETATM    7  C8  UNL     1     -35.750  15.139  -5.383  1.00 20.00     0.077 C 
HETATM    8  C9  UNL     1     -35.796  14.590  -3.936  1.00 20.00     0.003 C 
HETATM    9  C10 UNL     1     -33.429  17.622  -1.588  1.00 20.00     0.036 C 
ENDROOT
BRANCH   7  10
HETATM   10  C3  UNL     1     -36.547  16.390  -5.576  1.00 20.00     0.223 C 
HETATM   11  O11 UNL     1     -36.022  17.439  -5.937  1.00 20.00    -0.279 OA
HETATM   12 CL12 UNL     1     -38.234  16.151  -5.234  1.00 20.00    -0.043 Cl
ENDBRANCH   7  10
TORSDOF 1
ENDMDL
MODEL 7
REMARK VINA RESULT:      -4.4      1.932      2.306
REMARK  1 active torsions:
REMARK  status: ('A' for Active; 'I' for Inactive)
REMARK    1  A    between atoms: C3_3  and  C8_8 
ROOT
HETATM    1  C1  UNL     1     -34.208  15.290  -5.487  1.00 20.00    -0.079 C 
HETATM    2  C2  UNL     1     -33.778  15.050  -6.729  1.00 20.00    -0.028 C 
HETATM    3  C4  UNL     1     -35.092  16.433  -5.056  1.00 20.00     0.039 C 
HETATM    4  C5  UNL     1     -35.121  13.709  -3.837  1.00 20.00     0.023 C 
HETATM    5  C6  UNL     1     -33.837  15.620  -3.208  1.00 20.00     0.014 C 
HETATM    6  C7  UNL     1     -33.863  14.497  -4.247  1.00 20.00     0.015 C 
HETATM    7  C8  UNL     1     -36.064  14.813  -3.319  1.00 20.00     0.077 C 
HETATM    8  C9  UNL     1     -35.250  16.109  -3.553  1.00 20.00     0.003 C 
HETATM    9  C10 UNL     1     -34.145  15.878  -7.916  1.00 20.00     0.036 C 
ENDROOT
BRANCH   7  10
HETATM   10  C3  UNL     1     -37.401  14.814  -3.990  1.00 20.00     0.223 C 
HETATM   11  O11 UNL     1     -37.754  13.895  -4.724  1.00 20.00    -0.279 OA
HETATM   12 CL12 UNL     1     -38.329  16.230  -3.599  1.00 20.00    -0.043 Cl
ENDBRANCH   7  10
TORSDOF 1
ENDMDL
MODEL 8
REMARK VINA RESULT:      -4.4      2.329      3.283
REMARK  1 active torsions:
REMARK  status: ('A' for Active; 'I' for Inactive)
REMARK    1  A    between atoms: C3_3  and  C8_8 
ROOT
HETATM    1  C1  UNL     1     -33.697  16.829  -2.339  1.00 20.00    -0.079 C 
HETATM    2  C2  UNL     1     -32.906  17.657  -1.651  1.00 20.00    -0.028 C 
HETATM    3  C4  UNL     1     -35.025  16.281  -1.884  1.00 20.00     0.039 C 
HETATM    4  C5  UNL     1     -34.333  16.922  -4.715  1.00 20.00     0.023 C 
HETATM    5  C6  UNL     1     -34.075  14.862  -3.537  1.00 20.00     0.014 C 
HETATM    6  C7  UNL     1     -33.407  16.231  -3.698  1.00 20.00     0.015 C 
HETATM    7  C8  UNL     1     -35.723  16.359  -4.352  1.00 20.00     0.077 C 
HETATM    8  C9  UNL     1     -35.428  15.458  -3.128  1.00 20.00     0.003 C 
HETATM    9  C10 UNL     1     -33.242  18.208  -0.305  1.00 20.00     0.036 C 
ENDROOT
BRANCH   7  10
HETATM   10  C3  UNL     1     -36.741  17.422  -4.085  1.00 20.00     0.223 C 
HETATM   11  O11 UNL     1     -36.476  18.614  -4.209  1.00 20.00    -0.279 OA
HETATM   12 CL12 UNL     1     -38.271  16.755  -3.599  1.00 20.00    -0.043 Cl
ENDBRANCH   7  10
TORSDOF 1
ENDMDL
MODEL 9
REMARK VINA RESULT:      -4.4      2.069      2.937
REMARK  1 active torsions:
REMARK  status: ('A' for Active; 'I' for Inactive)
REMARK    1  A    between atoms: C3_3  and  C8_8 
ROOT
HETATM    1  C1  UNL     1     -34.234  17.055  -2.678  1.00 20.00    -0.079 C 
HETATM    2  C2  UNL     1     -33.383  17.440  -1.723  1.00 20.00    -0.028 C 
HETATM    3  C4  UNL     1     -34.221  17.505  -4.117  1.00 20.00     0.039 C 
HETATM    4  C5  UNL     1     -35.055  14.792  -3.192  1.00 20.00     0.023 C 
HETATM    5  C6  UNL     1     -36.390  16.745  -3.512  1.00 20.00     0.014 C 
HETATM    6  C7  UNL     1     -35.414  16.125  -2.509  1.00 20.00     0.015 C 
HETATM    7  C8  UNL     1     -35.083  15.157  -4.691  1.00 20.00     0.077 C 
HETATM    8  C9  UNL     1     -35.396  16.672  -4.678  1.00 20.00     0.003 C 
HETATM    9  C10 UNL     1     -32.239  18.372  -1.949  1.00 20.00     0.036 C 
ENDROOT
BRANCH   7  10
HETATM   10  C3  UNL     1     -33.816  14.811  -5.408  1.00 20.00     0.223 C 
HETATM   11  O11 UNL     1     -33.759  14.773  -6.633  1.00 20.00    -0.279 OA
HETATM   12 CL12 UNL     1     -32.510  14.486  -4.308  1.00 20.00    -0.043 Cl
ENDBRANCH   7  10
TORSDOF 1
ENDMDL
