MODEL 1
REMARK VINA RESULT:      -5.1      0.000      0.000
REMARK  0 active torsions:
REMARK  status: ('A' for Active; 'I' for Inactive)
ROOT
HETATM    1  C1  UNL     1     -35.779  14.482  -5.949  1.00 20.00     0.053 A 
HETATM    2  C2  UNL     1     -35.737  15.799  -5.679  1.00 20.00    -0.070 A 
HETATM    3  C3  UNL     1     -35.849  13.791  -4.644  1.00 20.00     0.155 A 
HETATM    4  C4  UNL     1     -35.895  14.798  -3.550  1.00 20.00     0.082 A 
HETATM    5  C5  UNL     1     -35.845  16.168  -4.237  1.00 20.00    -0.002 A 
HETATM    6  C6  UNL     1     -34.749  15.748  -3.247  1.00 20.00    -0.024 A 
HETATM    7  C7  UNL     1     -35.567  16.860  -6.714  1.00 20.00     0.044 C 
HETATM    8  C8  UNL     1     -36.868  17.207  -3.871  1.00 20.00     0.021 C 
HETATM    9  C9  UNL     1     -34.722  16.368  -1.867  1.00 20.00     0.016 C 
HETATM   10  C10 UNL     1     -33.355  15.449  -3.755  1.00 20.00     0.016 C 
HETATM   11  O11 UNL     1     -35.869  12.585  -4.472  1.00 20.00    -0.293 OA
ENDROOT
TORSDOF 0
ENDMDL
MODEL 2
REMARK VINA RESULT:      -5.1      1.136      2.034
REMARK  0 active torsions:
REMARK  status: ('A' for Active; 'I' for Inactive)
ROOT
HETATM    1  C1  UNL     1     -37.188  14.589  -4.318  1.00 20.00     0.053 A 
HETATM    2  C2  UNL     1     -36.842  15.758  -3.750  1.00 20.00    -0.070 A 
HETATM    3  C3  UNL     1     -35.996  13.717  -4.239  1.00 20.00     0.155 A 
HETATM    4  C4  UNL     1     -34.902  14.435  -3.530  1.00 20.00     0.082 A 
HETATM    5  C5  UNL     1     -35.468  15.813  -3.170  1.00 20.00    -0.002 A 
HETATM    6  C6  UNL     1     -34.238  15.685  -4.080  1.00 20.00    -0.024 A 
HETATM    7  C7  UNL     1     -37.725  16.958  -3.703  1.00 20.00     0.044 C 
HETATM    8  C8  UNL     1     -35.342  16.308  -1.756  1.00 20.00     0.021 C 
HETATM    9  C9  UNL     1     -32.872  16.031  -3.528  1.00 20.00     0.016 C 
HETATM   10  C10 UNL     1     -34.354  16.029  -5.549  1.00 20.00     0.016 C 
HETATM   11  O11 UNL     1     -35.906  12.584  -4.677  1.00 20.00    -0.293 OA
ENDROOT
TORSDOF 0
ENDMDL
MODEL 3
REMARK VINA RESULT:      -4.9      1.289      3.351
REMARK  0 active torsions:
REMARK  status: ('A' for Active; 'I' for Inactive)
ROOT
HETATM    1  C1  UNL     1     -36.052  15.096  -3.092  1.00 20.00     0.053 A 
HETATM    2  C2  UNL     1     -34.786  15.496  -3.311  1.00 20.00    -0.070 A 
HETATM    3  C3  UNL     1     -36.457  14.319  -4.283  1.00 20.00     0.155 A 
HETATM    4  C4  UNL     1     -35.314  14.235  -5.233  1.00 20.00     0.082 A 
HETATM    5  C5  UNL     1     -34.164  15.008  -4.578  1.00 20.00    -0.002 A 
HETATM    6  C6  UNL     1     -34.729  15.447  -5.936  1.00 20.00    -0.024 A 
HETATM    7  C7  UNL     1     -34.021  16.391  -2.396  1.00 20.00     0.044 C 
HETATM    8  C8  UNL     1     -32.813  14.357  -4.470  1.00 20.00     0.021 C 
HETATM    9  C9  UNL     1     -33.924  15.186  -7.190  1.00 20.00     0.016 C 
HETATM   10  C10 UNL     1     -35.525  16.730  -6.037  1.00 20.00     0.016 C 
HETATM   11  O11 UNL     1     -37.549  13.816  -4.473  1.00 20.00    -0.293 OA
ENDROOT
TORSDOF 0
ENDMDL
MODEL 4
REMARK VINA RESULT:      -4.9      1.262      2.388
REMARK  0 active torsions:
REMARK  status: ('A' for Active; 'I' for Inactive)
ROOT
HETATM    1  C1  UNL     1     -37.242  15.985  -4.212  1.00 20.00     0.053 A 
HETATM    2  C2  UNL     1     -36.140  16.687  -3.897  1.00 20.00    -0.070 A 
HETATM    3  C3  UNL     1     -36.847  14.560  -4.203  1.00 20.00     0.155 A 
HETATM    4  C4  UNL     1     -35.417  14.444  -3.808  1.00 20.00     0.082 A 
HETATM    5  C5  UNL     1     -34.928  15.878  -3.573  1.00 20.00    -0.002 A 
HETATM    6  C6  UNL     1     -34.277  14.995  -4.647  1.00 20.00    -0.024 A 
HETATM    7  C7  UNL     1     -36.072  18.177  -3.885  1.00 20.00     0.044 C 
HETATM    8  C8  UNL     1     -34.210  16.204  -2.293  1.00 20.00     0.021 C 
HETATM    9  C9  UNL     1     -32.902  14.417  -4.394  1.00 20.00     0.016 C 
HETATM   10  C10 UNL     1     -34.491  15.316  -6.110  1.00 20.00     0.016 C 
HETATM   11  O11 UNL     1     -37.566  13.615  -4.472  1.00 20.00    -0.293 OA
ENDROOT
TORSDOF 0
ENDMDL
MODEL 5
REMARK VINA RESULT:      -4.6      1.307      1.477
REMARK  0 active torsions:
REMARK  status: ('A' for Active; 'I' for Inactive)
ROOT
HETATM    1  C1  UNL     1     -35.886  14.473  -6.410  1.00 20.00     0.053 A 
HETATM    2  C2  UNL     1     -34.951  15.438  -6.469  1.00 20.00    -0.070 A 
HETATM    3  C3  UNL     1     -36.337  14.413  -5.003  1.00 20.00     0.155 A 
HETATM    4  C4  UNL     1     -35.632  15.457  -4.211  1.00 20.00     0.082 A 
HETATM    5  C5  UNL     1     -34.705  16.179  -5.196  1.00 20.00    -0.002 A 
HETATM    6  C6  UNL     1     -34.131  15.448  -3.974  1.00 20.00    -0.024 A 
HETATM    7  C7  UNL     1     -34.164  15.766  -7.692  1.00 20.00     0.044 C 
HETATM    8  C8  UNL     1     -34.735  17.681  -5.262  1.00 20.00     0.021 C 
HETATM    9  C9  UNL     1     -33.620  16.257  -2.802  1.00 20.00     0.016 C 
HETATM   10  C10 UNL     1     -33.336  14.176  -4.168  1.00 20.00     0.016 C 
HETATM   11  O11 UNL     1     -37.157  13.638  -4.545  1.00 20.00    -0.293 OA
ENDROOT
TORSDOF 0
ENDMDL
MODEL 6
REMARK VINA RESULT:      -4.6      1.461      3.206
REMARK  0 active torsions:
REMARK  status: ('A' for Active; 'I' for Inactive)
ROOT
HETATM    1  C1  UNL     1     -35.204  13.906  -4.035  1.00 20.00     0.053 A 
HETATM    2  C2  UNL     1     -34.273  14.628  -4.682  1.00 20.00    -0.070 A 
HETATM    3  C3  UNL     1     -36.477  14.124  -4.755  1.00 20.00     0.155 A 
HETATM    4  C4  UNL     1     -36.238  15.007  -5.929  1.00 20.00     0.082 A 
HETATM    5  C5  UNL     1     -34.741  15.338  -5.908  1.00 20.00    -0.002 A 
HETATM    6  C6  UNL     1     -35.792  16.453  -5.804  1.00 20.00    -0.024 A 
HETATM    7  C7  UNL     1     -32.858  14.767  -4.229  1.00 20.00     0.044 C 
HETATM    8  C8  UNL     1     -33.932  15.146  -7.161  1.00 20.00     0.021 C 
HETATM    9  C9  UNL     1     -36.039  17.350  -6.997  1.00 20.00     0.016 C 
HETATM   10  C10 UNL     1     -35.968  17.196  -4.497  1.00 20.00     0.016 C 
HETATM   11  O11 UNL     1     -37.562  13.662  -4.450  1.00 20.00    -0.293 OA
ENDROOT
TORSDOF 0
ENDMDL
MODEL 7
REMARK VINA RESULT:      -4.4      1.667      2.562
REMARK  0 active torsions:
REMARK  status: ('A' for Active; 'I' for Inactive)
ROOT
HETATM    1  C1  UNL     1     -35.494  15.029  -4.297  1.00 20.00     0.053 A 
HETATM    2  C2  UNL     1     -35.880  16.038  -3.495  1.00 20.00    -0.070 A 
HETATM    3  C3  UNL     1     -34.057  14.807  -4.028  1.00 20.00     0.155 A 
HETATM    4  C4  UNL     1     -33.604  15.735  -2.957  1.00 20.00     0.082 A 
HETATM    5  C5  UNL     1     -34.835  16.562  -2.567  1.00 20.00    -0.002 A 
HETATM    6  C6  UNL     1     -33.577  17.245  -3.123  1.00 20.00    -0.024 A 
HETATM    7  C7  UNL     1     -37.241  16.648  -3.514  1.00 20.00     0.044 C 
HETATM    8  C8  UNL     1     -35.207  16.678  -1.114  1.00 20.00     0.021 C 
HETATM    9  C9  UNL     1     -32.680  18.020  -2.182  1.00 20.00     0.016 C 
HETATM   10  C10 UNL     1     -33.609  17.862  -4.504  1.00 20.00     0.016 C 
HETATM   11  O11 UNL     1     -33.341  13.995  -4.585  1.00 20.00    -0.293 OA
ENDROOT
TORSDOF 0
ENDMDL
MODEL 8
REMARK VINA RESULT:      -4.4      2.131      3.803
REMARK  0 active torsions:
REMARK  status: ('A' for Active; 'I' for Inactive)
ROOT
HETATM    1  C1  UNL     1     -34.816  15.336  -2.650  1.00 20.00     0.053 A 
HETATM    2  C2  UNL     1     -34.604  16.482  -1.979  1.00 20.00    -0.070 A 
HETATM    3  C3  UNL     1     -33.896  15.353  -3.807  1.00 20.00     0.155 A 
HETATM    4  C4  UNL     1     -33.066  16.587  -3.763  1.00 20.00     0.082 A 
HETATM    5  C5  UNL     1     -33.516  17.354  -2.514  1.00 20.00    -0.002 A 
HETATM    6  C6  UNL     1     -33.646  17.984  -3.909  1.00 20.00    -0.024 A 
HETATM    7  C7  UNL     1     -35.394  16.914  -0.789  1.00 20.00     0.044 C 
HETATM    8  C8  UNL     1     -32.479  17.833  -1.537  1.00 20.00     0.021 C 
HETATM    9  C9  UNL     1     -32.688  19.082  -4.315  1.00 20.00     0.016 C 
HETATM   10  C10 UNL     1     -35.017  18.181  -4.517  1.00 20.00     0.016 C 
HETATM   11  O11 UNL     1     -33.815  14.498  -4.671  1.00 20.00    -0.293 OA
ENDROOT
TORSDOF 0
ENDMDL
MODEL 9
REMARK VINA RESULT:      -4.3      2.588      4.030
REMARK  0 active torsions:
REMARK  status: ('A' for Active; 'I' for Inactive)
ROOT
HETATM    1  C1  UNL     1     -32.959  18.477  -3.647  1.00 20.00     0.053 A 
HETATM    2  C2  UNL     1     -33.108  17.715  -2.549  1.00 20.00    -0.070 A 
HETATM    3  C3  UNL     1     -33.931  17.973  -4.640  1.00 20.00     0.155 A 
HETATM    4  C4  UNL     1     -34.725  16.866  -4.041  1.00 20.00     0.082 A 
HETATM    5  C5  UNL     1     -34.196  16.694  -2.613  1.00 20.00    -0.002 A 
HETATM    6  C6  UNL     1     -34.115  15.540  -3.622  1.00 20.00    -0.024 A 
HETATM    7  C7  UNL     1     -32.252  17.823  -1.332  1.00 20.00     0.044 C 
HETATM    8  C8  UNL     1     -35.172  16.662  -1.470  1.00 20.00     0.021 C 
HETATM    9  C9  UNL     1     -35.061  14.368  -3.481  1.00 20.00     0.016 C 
HETATM   10  C10 UNL     1     -32.769  15.113  -4.166  1.00 20.00     0.016 C 
HETATM   11  O11 UNL     1     -34.076  18.389  -5.776  1.00 20.00    -0.293 OA
ENDROOT
TORSDOF 0
ENDMDL
