MODEL 1
REMARK VINA RESULT:      -5.3      0.000      0.000
REMARK  5 active torsions:
REMARK  status: ('A' for Active; 'I' for Inactive)
REMARK    1  A    between atoms: C1_1  and  C3_3 
REMARK    2  A    between atoms: C1_1  and  O11_11 
REMARK    3  A    between atoms: C4_4  and  C7_7 
REMARK    4  A    between atoms: C7_7  and  C8_8 
REMARK    5  A    between atoms: C9_9  and  O11_11 
ROOT
HETATM    1  C2  UNL     1     -33.855   5.102   2.171  1.00 20.00     0.020 A 
HETATM    2  C3  UNL     1     -32.809   5.692   3.079  1.00 20.00     0.090 A 
HETATM    3  C4  UNL     1     -34.247   5.582   3.543  1.00 20.00    -0.000 A 
ENDROOT
BRANCH   2   4
HETATM    4  C1  UNL     1     -32.258   7.017   2.774  1.00 20.00     0.263 C 
HETATM    5  O10 UNL     1     -31.739   7.751   3.605  1.00 20.00    -0.265 OA
BRANCH   4   6
HETATM    6  O11 UNL     1     -32.420   7.284   1.448  1.00 20.00    -0.322 OA
BRANCH   6   7
HETATM    7  C9  UNL     1     -32.808   8.625   1.134  1.00 20.00     0.174 C 
HETATM    8  C6  UNL     1     -33.334   8.667  -0.285  1.00 20.00     0.034 C 
ENDBRANCH   6   7
ENDBRANCH   4   6
ENDBRANCH   2   4
BRANCH   3   9
HETATM    9  C7  UNL     1     -34.619   4.604   4.603  1.00 20.00     0.005 C 
BRANCH   9  10
HETATM   10  C8  UNL     1     -34.794   5.266   5.981  1.00 20.00    -0.004 C 
HETATM   11  C5  UNL     1     -34.139   6.635   6.057  1.00 20.00     0.005 C 
ENDBRANCH   9  10
ENDBRANCH   3   9
TORSDOF 5
ENDMDL
MODEL 2
REMARK VINA RESULT:      -5.2      2.091      4.693
REMARK  5 active torsions:
REMARK  status: ('A' for Active; 'I' for Inactive)
REMARK    1  A    between atoms: C1_1  and  C3_3 
REMARK    2  A    between atoms: C1_1  and  O11_11 
REMARK    3  A    between atoms: C4_4  and  C7_7 
REMARK    4  A    between atoms: C7_7  and  C8_8 
REMARK    5  A    between atoms: C9_9  and  O11_11 
ROOT
HETATM    1  C2  UNL     1     -33.088   5.124   1.922  1.00 20.00     0.020 A 
HETATM    2  C3  UNL     1     -34.127   5.598   2.903  1.00 20.00     0.090 A 
HETATM    3  C4  UNL     1     -32.736   6.201   2.913  1.00 20.00    -0.000 A 
ENDROOT
BRANCH   2   4
HETATM    4  C1  UNL     1     -34.529   4.718   4.006  1.00 20.00     0.263 C 
HETATM    5  O10 UNL     1     -34.217   3.537   4.088  1.00 20.00    -0.265 OA
BRANCH   4   6
HETATM    6  O11 UNL     1     -35.288   5.419   4.895  1.00 20.00    -0.322 OA
BRANCH   6   7
HETATM    7  C9  UNL     1     -34.684   5.649   6.171  1.00 20.00     0.174 C 
HETATM    8  C6  UNL     1     -33.933   6.964   6.132  1.00 20.00     0.034 C 
ENDBRANCH   6   7
ENDBRANCH   4   6
ENDBRANCH   2   4
BRANCH   3   9
HETATM    9  C7  UNL     1     -32.525   7.603   2.455  1.00 20.00     0.005 C 
BRANCH   9  10
HETATM   10  C8  UNL     1     -32.307   7.699   0.935  1.00 20.00    -0.004 C 
HETATM   11  C5  UNL     1     -33.011   8.897   0.320  1.00 20.00     0.005 C 
ENDBRANCH   9  10
ENDBRANCH   3   9
TORSDOF 5
ENDMDL
MODEL 3
REMARK VINA RESULT:      -4.9     10.799     11.785
REMARK  5 active torsions:
REMARK  status: ('A' for Active; 'I' for Inactive)
REMARK    1  A    between atoms: C1_1  and  C3_3 
REMARK    2  A    between atoms: C1_1  and  O11_11 
REMARK    3  A    between atoms: C4_4  and  C7_7 
REMARK    4  A    between atoms: C7_7  and  C8_8 
REMARK    5  A    between atoms: C9_9  and  O11_11 
ROOT
HETATM    1  C2  UNL     1     -34.193  14.989  -4.626  1.00 20.00     0.020 A 
HETATM    2  C3  UNL     1     -35.651  14.894  -4.265  1.00 20.00     0.090 A 
HETATM    3  C4  UNL     1     -34.603  15.031  -3.179  1.00 20.00    -0.000 A 
ENDROOT
BRANCH   2   4
HETATM    4  C1  UNL     1     -36.350  13.615  -4.424  1.00 20.00     0.263 C 
HETATM    5  O10 UNL     1     -35.786  12.531  -4.498  1.00 20.00    -0.265 OA
BRANCH   4   6
HETATM    6  O11 UNL     1     -37.694  13.832  -4.476  1.00 20.00    -0.322 OA
BRANCH   6   7
HETATM    7  C9  UNL     1     -38.098  15.204  -4.423  1.00 20.00     0.174 C 
HETATM    8  C6  UNL     1     -39.546  15.276  -3.988  1.00 20.00     0.034 C 
ENDBRANCH   6   7
ENDBRANCH   4   6
ENDBRANCH   2   4
BRANCH   3   9
HETATM    9  C7  UNL     1     -34.490  16.297  -2.403  1.00 20.00     0.005 C 
BRANCH   9  10
HETATM   10  C8  UNL     1     -33.105  16.953  -2.543  1.00 20.00    -0.004 C 
HETATM   11  C5  UNL     1     -32.778  17.879  -1.384  1.00 20.00     0.005 C 
ENDBRANCH   9  10
ENDBRANCH   3   9
TORSDOF 5
ENDMDL
MODEL 4
REMARK VINA RESULT:      -4.3     10.792     11.344
REMARK  5 active torsions:
REMARK  status: ('A' for Active; 'I' for Inactive)
REMARK    1  A    between atoms: C1_1  and  C3_3 
REMARK    2  A    between atoms: C1_1  and  O11_11 
REMARK    3  A    between atoms: C4_4  and  C7_7 
REMARK    4  A    between atoms: C7_7  and  C8_8 
REMARK    5  A    between atoms: C9_9  and  O11_11 
ROOT
HETATM    1  C2  UNL     1     -33.212  16.362  -3.077  1.00 20.00     0.020 A 
HETATM    2  C3  UNL     1     -34.308  15.606  -3.778  1.00 20.00     0.090 A 
HETATM    3  C4  UNL     1     -34.417  15.911  -2.298  1.00 20.00    -0.000 A 
ENDROOT
BRANCH   2   4
HETATM    4  C1  UNL     1     -34.068  14.223  -4.205  1.00 20.00     0.263 C 
HETATM    5  O10 UNL     1     -32.965  13.774  -4.485  1.00 20.00    -0.265 OA
BRANCH   4   6
HETATM    6  O11 UNL     1     -35.249  13.544  -4.236  1.00 20.00    -0.322 OA
BRANCH   6   7
HETATM    7  C9  UNL     1     -36.247  14.084  -5.108  1.00 20.00     0.174 C 
HETATM    8  C6  UNL     1     -37.501  14.366  -4.309  1.00 20.00     0.034 C 
ENDBRANCH   6   7
ENDBRANCH   4   6
ENDBRANCH   2   4
BRANCH   3   9
HETATM    9  C7  UNL     1     -35.412  16.907  -1.810  1.00 20.00     0.005 C 
BRANCH   9  10
HETATM   10  C8  UNL     1     -35.334  17.122  -0.289  1.00 20.00    -0.004 C 
HETATM   11  C5  UNL     1     -34.207  18.061   0.110  1.00 20.00     0.005 C 
ENDBRANCH   9  10
ENDBRANCH   3   9
TORSDOF 5
ENDMDL
MODEL 5
REMARK VINA RESULT:      -4.3     10.863     11.916
REMARK  5 active torsions:
REMARK  status: ('A' for Active; 'I' for Inactive)
REMARK    1  A    between atoms: C1_1  and  C3_3 
REMARK    2  A    between atoms: C1_1  and  O11_11 
REMARK    3  A    between atoms: C4_4  and  C7_7 
REMARK    4  A    between atoms: C7_7  and  C8_8 
REMARK    5  A    between atoms: C9_9  and  O11_11 
ROOT
HETATM    1  C2  UNL     1     -33.347  14.128  -4.396  1.00 20.00     0.020 A 
HETATM    2  C3  UNL     1     -34.628  14.784  -4.835  1.00 20.00     0.090 A 
HETATM    3  C4  UNL     1     -34.031  15.107  -3.480  1.00 20.00    -0.000 A 
ENDROOT
BRANCH   2   4
HETATM    4  C1  UNL     1     -35.859  13.988  -4.899  1.00 20.00     0.263 C 
HETATM    5  O10 UNL     1     -35.938  12.820  -4.539  1.00 20.00    -0.265 OA
BRANCH   4   6
HETATM    6  O11 UNL     1     -36.867  14.747  -5.412  1.00 20.00    -0.322 OA
BRANCH   6   7
HETATM    7  C9  UNL     1     -36.480  16.034  -5.901  1.00 20.00     0.174 C 
HETATM    8  C6  UNL     1     -36.868  16.145  -7.360  1.00 20.00     0.034 C 
ENDBRANCH   6   7
ENDBRANCH   4   6
ENDBRANCH   2   4
BRANCH   3   9
HETATM    9  C7  UNL     1     -33.428  16.446  -3.228  1.00 20.00     0.005 C 
BRANCH   9  10
HETATM   10  C8  UNL     1     -33.876  17.052  -1.887  1.00 20.00    -0.004 C 
HETATM   11  C5  UNL     1     -35.220  16.513  -1.424  1.00 20.00     0.005 C 
ENDBRANCH   9  10
ENDBRANCH   3   9
TORSDOF 5
ENDMDL
MODEL 6
REMARK VINA RESULT:      -4.3     10.999     12.081
REMARK  5 active torsions:
REMARK  status: ('A' for Active; 'I' for Inactive)
REMARK    1  A    between atoms: C1_1  and  C3_3 
REMARK    2  A    between atoms: C1_1  and  O11_11 
REMARK    3  A    between atoms: C4_4  and  C7_7 
REMARK    4  A    between atoms: C7_7  and  C8_8 
REMARK    5  A    between atoms: C9_9  and  O11_11 
ROOT
HETATM    1  C2  UNL     1     -35.171  15.860  -2.218  1.00 20.00     0.020 A 
HETATM    2  C3  UNL     1     -34.794  14.869  -3.287  1.00 20.00     0.090 A 
HETATM    3  C4  UNL     1     -34.377  16.321  -3.411  1.00 20.00    -0.000 A 
ENDROOT
BRANCH   2   4
HETATM    4  C1  UNL     1     -35.832  14.348  -4.183  1.00 20.00     0.263 C 
HETATM    5  O10 UNL     1     -37.026  14.335  -3.914  1.00 20.00    -0.265 OA
BRANCH   4   6
HETATM    6  O11 UNL     1     -35.257  13.893  -5.331  1.00 20.00    -0.322 OA
BRANCH   6   7
HETATM    7  C9  UNL     1     -35.469  14.705  -6.490  1.00 20.00     0.174 C 
HETATM    8  C6  UNL     1     -34.131  15.190  -7.005  1.00 20.00     0.034 C 
ENDBRANCH   6   7
ENDBRANCH   4   6
ENDBRANCH   2   4
BRANCH   3   9
HETATM    9  C7  UNL     1     -32.946  16.705  -3.257  1.00 20.00     0.005 C 
BRANCH   9  10
HETATM   10  C8  UNL     1     -32.773  18.122  -2.683  1.00 20.00    -0.004 C 
HETATM   11  C5  UNL     1     -32.137  18.119  -1.303  1.00 20.00     0.005 C 
ENDBRANCH   9  10
ENDBRANCH   3   9
TORSDOF 5
ENDMDL
MODEL 7
REMARK VINA RESULT:      -4.2      1.742      4.776
REMARK  5 active torsions:
REMARK  status: ('A' for Active; 'I' for Inactive)
REMARK    1  A    between atoms: C1_1  and  C3_3 
REMARK    2  A    between atoms: C1_1  and  O11_11 
REMARK    3  A    between atoms: C4_4  and  C7_7 
REMARK    4  A    between atoms: C7_7  and  C8_8 
REMARK    5  A    between atoms: C9_9  and  O11_11 
ROOT
HETATM    1  C2  UNL     1     -32.177   7.234   3.282  1.00 20.00     0.020 A 
HETATM    2  C3  UNL     1     -32.627   5.944   2.649  1.00 20.00     0.090 A 
HETATM    3  C4  UNL     1     -32.918   7.269   1.972  1.00 20.00    -0.000 A 
ENDROOT
BRANCH   2   4
HETATM    4  C1  UNL     1     -33.735   5.195   3.253  1.00 20.00     0.263 C 
HETATM    5  O10 UNL     1     -33.901   3.990   3.118  1.00 20.00    -0.265 OA
BRANCH   4   6
HETATM    6  O11 UNL     1     -34.524   6.046   3.968  1.00 20.00    -0.322 OA
BRANCH   6   7
HETATM    7  C9  UNL     1     -34.851   5.615   5.292  1.00 20.00     0.174 C 
HETATM    8  C6  UNL     1     -34.138   6.502   6.290  1.00 20.00     0.034 C 
ENDBRANCH   6   7
ENDBRANCH   4   6
ENDBRANCH   2   4
BRANCH   3   9
HETATM    9  C7  UNL     1     -32.206   7.639   0.717  1.00 20.00     0.005 C 
BRANCH   9  10
HETATM   10  C8  UNL     1     -32.799   8.893   0.051  1.00 20.00    -0.004 C 
HETATM   11  C5  UNL     1     -33.308   9.906   1.063  1.00 20.00     0.005 C 
ENDBRANCH   9  10
ENDBRANCH   3   9
TORSDOF 5
ENDMDL
MODEL 8
REMARK VINA RESULT:      -4.1     11.283     12.569
REMARK  5 active torsions:
REMARK  status: ('A' for Active; 'I' for Inactive)
REMARK    1  A    between atoms: C1_1  and  C3_3 
REMARK    2  A    between atoms: C1_1  and  O11_11 
REMARK    3  A    between atoms: C4_4  and  C7_7 
REMARK    4  A    between atoms: C7_7  and  C8_8 
REMARK    5  A    between atoms: C9_9  and  O11_11 
ROOT
HETATM    1  C2  UNL     1     -33.836  18.503  -1.444  1.00 20.00     0.020 A 
HETATM    2  C3  UNL     1     -32.341  18.582  -1.604  1.00 20.00     0.090 A 
HETATM    3  C4  UNL     1     -33.075  17.290  -1.908  1.00 20.00    -0.000 A 
ENDROOT
BRANCH   2   4
HETATM    4  C1  UNL     1     -31.493  18.655  -0.410  1.00 20.00     0.263 C 
HETATM    5  O10 UNL     1     -30.320  18.304  -0.381  1.00 20.00    -0.265 OA
BRANCH   4   6
HETATM    6  O11 UNL     1     -32.211  19.164   0.629  1.00 20.00    -0.322 OA
BRANCH   6   7
HETATM    7  C9  UNL     1     -32.083  18.460   1.869  1.00 20.00     0.174 C 
HETATM    8  C6  UNL     1     -33.454  18.005   2.322  1.00 20.00     0.034 C 
ENDBRANCH   6   7
ENDBRANCH   4   6
ENDBRANCH   2   4
BRANCH   3   9
HETATM    9  C7  UNL     1     -33.205  16.816  -3.314  1.00 20.00     0.005 C 
BRANCH   9  10
HETATM   10  C8  UNL     1     -33.896  15.445  -3.412  1.00 20.00    -0.004 C 
HETATM   11  C5  UNL     1     -33.234  14.528  -4.428  1.00 20.00     0.005 C 
ENDBRANCH   9  10
ENDBRANCH   3   9
TORSDOF 5
ENDMDL
MODEL 9
REMARK VINA RESULT:      -4.1     11.007     12.153
REMARK  5 active torsions:
REMARK  status: ('A' for Active; 'I' for Inactive)
REMARK    1  A    between atoms: C1_1  and  C3_3 
REMARK    2  A    between atoms: C1_1  and  O11_11 
REMARK    3  A    between atoms: C4_4  and  C7_7 
REMARK    4  A    between atoms: C7_7  and  C8_8 
REMARK    5  A    between atoms: C9_9  and  O11_11 
ROOT
HETATM    1  C2  UNL     1     -35.345  13.739  -4.245  1.00 20.00     0.020 A 
HETATM    2  C3  UNL     1     -36.134  15.006  -4.440  1.00 20.00     0.090 A 
HETATM    3  C4  UNL     1     -35.206  14.861  -3.251  1.00 20.00    -0.000 A 
ENDROOT
BRANCH   2   4
HETATM    4  C1  UNL     1     -37.584  14.992  -4.217  1.00 20.00     0.263 C 
HETATM    5  O10 UNL     1     -38.279  13.987  -4.290  1.00 20.00    -0.265 OA
BRANCH   4   6
HETATM    6  O11 UNL     1     -38.013  16.252  -3.925  1.00 20.00    -0.322 OA
BRANCH   6   7
HETATM    7  C9  UNL     1     -37.497  17.288  -4.767  1.00 20.00     0.174 C 
HETATM    8  C6  UNL     1     -37.232  18.520  -3.927  1.00 20.00     0.034 C 
ENDBRANCH   6   7
ENDBRANCH   4   6
ENDBRANCH   2   4
BRANCH   3   9
HETATM    9  C7  UNL     1     -33.945  15.652  -3.184  1.00 20.00     0.005 C 
BRANCH   9  10
HETATM   10  C8  UNL     1     -33.988  16.738  -2.095  1.00 20.00    -0.004 C 
HETATM   11  C5  UNL     1     -35.261  16.684  -1.266  1.00 20.00     0.005 C 
ENDBRANCH   9  10
ENDBRANCH   3   9
TORSDOF 5
ENDMDL
