MODEL 1
REMARK VINA RESULT:      -5.1      0.000      0.000
REMARK  0 active torsions:
REMARK  status: ('A' for Active; 'I' for Inactive)
ROOT
HETATM    1  C1  UNL     1     -36.768  14.344  -4.145  1.00 20.00     0.100 C 
HETATM    2  C2  UNL     1     -34.389  14.183  -4.688  1.00 20.00     0.042 A 
HETATM    3  C3  UNL     1     -33.081  14.619  -4.471  1.00 20.00     0.118 A 
HETATM    4  C4  UNL     1     -35.417  14.754  -3.941  1.00 20.00     0.054 A 
HETATM    5  C5  UNL     1     -35.082  15.720  -3.013  1.00 20.00    -0.013 A 
HETATM    6  C6  UNL     1     -33.749  16.090  -2.872  1.00 20.00     0.042 A 
HETATM    7  C7  UNL     1     -35.965  16.514  -2.111  1.00 20.00     0.042 C 
HETATM    8  C8  UNL     1     -33.607  17.186  -1.857  1.00 20.00     0.060 C 
HETATM    9  C9  UNL     1     -34.941  17.063  -1.106  1.00 20.00     0.011 C 
HETATM   10  N10 UNL     1     -37.867  14.010  -4.312  1.00 20.00    -0.191 NA
HETATM   11  N11 UNL     1     -32.728  15.573  -3.576  1.00 20.00    -0.265 NA
ENDROOT
TORSDOF 0
ENDMDL
MODEL 2
REMARK VINA RESULT:      -5.1     15.976     17.604
REMARK  0 active torsions:
REMARK  status: ('A' for Active; 'I' for Inactive)
ROOT
HETATM    1  C1  UNL     1     -22.549  17.765   7.882  1.00 20.00     0.100 C 
HETATM    2  C2  UNL     1     -24.726  18.847   8.145  1.00 20.00     0.042 A 
HETATM    3  C3  UNL     1     -25.761  19.263   8.984  1.00 20.00     0.118 A 
HETATM    4  C4  UNL     1     -23.620  18.217   8.710  1.00 20.00     0.054 A 
HETATM    5  C5  UNL     1     -23.603  18.046  10.080  1.00 20.00    -0.013 A 
HETATM    6  C6  UNL     1     -24.685  18.493  10.831  1.00 20.00     0.042 A 
HETATM    7  C7  UNL     1     -22.579  17.385  10.940  1.00 20.00     0.042 C 
HETATM    8  C8  UNL     1     -24.494  18.164  12.283  1.00 20.00     0.060 C 
HETATM    9  C9  UNL     1     -22.981  17.907  12.329  1.00 20.00     0.011 C 
HETATM   10  N10 UNL     1     -21.678  17.397   7.209  1.00 20.00    -0.191 NA
HETATM   11  N11 UNL     1     -25.774  19.097  10.329  1.00 20.00    -0.265 NA
ENDROOT
TORSDOF 0
ENDMDL
MODEL 3
REMARK VINA RESULT:      -4.9      2.477      5.227
REMARK  0 active torsions:
REMARK  status: ('A' for Active; 'I' for Inactive)
ROOT
HETATM    1  C1  UNL     1     -31.847  18.289  -0.665  1.00 20.00     0.100 C 
HETATM    2  C2  UNL     1     -34.083  18.465   0.310  1.00 20.00     0.042 A 
HETATM    3  C3  UNL     1     -35.438  18.133   0.262  1.00 20.00     0.118 A 
HETATM    4  C4  UNL     1     -33.235  17.958  -0.673  1.00 20.00     0.054 A 
HETATM    5  C5  UNL     1     -33.783  17.142  -1.641  1.00 20.00    -0.013 A 
HETATM    6  C6  UNL     1     -35.147  16.871  -1.606  1.00 20.00     0.042 A 
HETATM    7  C7  UNL     1     -33.131  16.496  -2.817  1.00 20.00     0.042 C 
HETATM    8  C8  UNL     1     -35.548  16.014  -2.772  1.00 20.00     0.060 C 
HETATM    9  C9  UNL     1     -34.187  15.447  -3.199  1.00 20.00     0.011 C 
HETATM   10  N10 UNL     1     -30.718  18.557  -0.658  1.00 20.00    -0.191 NA
HETATM   11  N11 UNL     1     -36.002  17.343  -0.684  1.00 20.00    -0.265 NA
ENDROOT
TORSDOF 0
ENDMDL
MODEL 4
REMARK VINA RESULT:      -4.6     12.010     12.330
REMARK  0 active torsions:
REMARK  status: ('A' for Active; 'I' for Inactive)
ROOT
HETATM    1  C1  UNL     1     -32.542   7.241   2.196  1.00 20.00     0.100 C 
HETATM    2  C2  UNL     1     -33.351   4.933   2.132  1.00 20.00     0.042 A 
HETATM    3  C3  UNL     1     -33.943   3.856   2.792  1.00 20.00     0.118 A 
HETATM    4  C4  UNL     1     -33.159   6.122   2.833  1.00 20.00     0.054 A 
HETATM    5  C5  UNL     1     -33.578   6.173   4.147  1.00 20.00    -0.013 A 
HETATM    6  C6  UNL     1     -34.155   5.044   4.717  1.00 20.00     0.042 A 
HETATM    7  C7  UNL     1     -33.470   7.286   5.134  1.00 20.00     0.042 C 
HETATM    8  C8  UNL     1     -34.488   5.289   6.160  1.00 20.00     0.060 C 
HETATM    9  C9  UNL     1     -34.468   6.824   6.208  1.00 20.00     0.011 C 
HETATM   10  N10 UNL     1     -32.041   8.150   1.678  1.00 20.00    -0.191 NA
HETATM   11  N11 UNL     1     -34.352   3.876   4.083  1.00 20.00    -0.265 NA
ENDROOT
TORSDOF 0
ENDMDL
MODEL 5
REMARK VINA RESULT:      -4.6      1.412      1.695
REMARK  0 active torsions:
REMARK  status: ('A' for Active; 'I' for Inactive)
ROOT
HETATM    1  C1  UNL     1     -37.488  14.436  -4.570  1.00 20.00     0.100 C 
HETATM    2  C2  UNL     1     -35.741  14.555  -6.278  1.00 20.00     0.042 A 
HETATM    3  C3  UNL     1     -34.459  14.960  -6.650  1.00 20.00     0.118 A 
HETATM    4  C4  UNL     1     -36.177  14.822  -4.982  1.00 20.00     0.054 A 
HETATM    5  C5  UNL     1     -35.307  15.469  -4.128  1.00 20.00    -0.013 A 
HETATM    6  C6  UNL     1     -34.049  15.835  -4.594  1.00 20.00     0.042 A 
HETATM    7  C7  UNL     1     -35.514  15.906  -2.717  1.00 20.00     0.042 C 
HETATM    8  C8  UNL     1     -33.283  16.571  -3.532  1.00 20.00     0.060 C 
HETATM    9  C9  UNL     1     -34.065  16.164  -2.274  1.00 20.00     0.011 C 
HETATM   10  N10 UNL     1     -38.554  14.122  -4.235  1.00 20.00    -0.191 NA
HETATM   11  N11 UNL     1     -33.590  15.606  -5.835  1.00 20.00    -0.265 NA
ENDROOT
TORSDOF 0
ENDMDL
MODEL 6
REMARK VINA RESULT:      -4.5      1.568      2.836
REMARK  0 active torsions:
REMARK  status: ('A' for Active; 'I' for Inactive)
ROOT
HETATM    1  C1  UNL     1     -37.631  14.832  -4.146  1.00 20.00     0.100 C 
HETATM    2  C2  UNL     1     -37.190  17.154  -3.515  1.00 20.00     0.042 A 
HETATM    3  C3  UNL     1     -36.270  18.142  -3.160  1.00 20.00     0.118 A 
HETATM    4  C4  UNL     1     -36.719  15.873  -3.794  1.00 20.00     0.054 A 
HETATM    5  C5  UNL     1     -35.359  15.651  -3.713  1.00 20.00    -0.013 A 
HETATM    6  C6  UNL     1     -34.523  16.701  -3.347  1.00 20.00     0.042 A 
HETATM    7  C7  UNL     1     -34.590  14.391  -3.921  1.00 20.00     0.042 C 
HETATM    8  C8  UNL     1     -33.097  16.240  -3.266  1.00 20.00     0.060 C 
HETATM    9  C9  UNL     1     -33.163  14.940  -4.080  1.00 20.00     0.011 C 
HETATM   10  N10 UNL     1     -38.372  13.987  -4.431  1.00 20.00    -0.191 NA
HETATM   11  N11 UNL     1     -34.933  17.948  -3.062  1.00 20.00    -0.265 NA
ENDROOT
TORSDOF 0
ENDMDL
MODEL 7
REMARK VINA RESULT:      -4.4      1.880      2.928
REMARK  0 active torsions:
REMARK  status: ('A' for Active; 'I' for Inactive)
ROOT
HETATM    1  C1  UNL     1     -36.181  13.874  -4.315  1.00 20.00     0.100 C 
HETATM    2  C2  UNL     1     -37.771  15.727  -4.165  1.00 20.00     0.042 A 
HETATM    3  C3  UNL     1     -38.074  17.007  -3.699  1.00 20.00     0.118 A 
HETATM    4  C4  UNL     1     -36.521  15.186  -3.869  1.00 20.00     0.054 A 
HETATM    5  C5  UNL     1     -35.641  15.955  -3.135  1.00 20.00    -0.013 A 
HETATM    6  C6  UNL     1     -36.037  17.220  -2.714  1.00 20.00     0.042 A 
HETATM    7  C7  UNL     1     -34.270  15.625  -2.651  1.00 20.00     0.042 C 
HETATM    8  C8  UNL     1     -34.961  17.866  -1.889  1.00 20.00     0.060 C 
HETATM    9  C9  UNL     1     -33.741  17.022  -2.289  1.00 20.00     0.011 C 
HETATM   10  N10 UNL     1     -35.905  12.807  -4.678  1.00 20.00    -0.191 NA
HETATM   11  N11 UNL     1     -37.232  17.778  -2.968  1.00 20.00    -0.265 NA
ENDROOT
TORSDOF 0
ENDMDL
MODEL 8
REMARK VINA RESULT:      -4.4      1.577      3.733
REMARK  0 active torsions:
REMARK  status: ('A' for Active; 'I' for Inactive)
ROOT
HETATM    1  C1  UNL     1     -34.099  16.154  -2.799  1.00 20.00     0.100 C 
HETATM    2  C2  UNL     1     -34.828  14.076  -3.863  1.00 20.00     0.042 A 
HETATM    3  C3  UNL     1     -35.853  13.323  -4.436  1.00 20.00     0.118 A 
HETATM    4  C4  UNL     1     -35.117  15.360  -3.406  1.00 20.00     0.054 A 
HETATM    5  C5  UNL     1     -36.409  15.823  -3.555  1.00 20.00    -0.013 A 
HETATM    6  C6  UNL     1     -37.362  14.995  -4.137  1.00 20.00     0.042 A 
HETATM    7  C7  UNL     1     -37.004  17.124  -3.134  1.00 20.00     0.042 C 
HETATM    8  C8  UNL     1     -38.706  15.664  -4.157  1.00 20.00     0.060 C 
HETATM    9  C9  UNL     1     -38.305  17.132  -3.952  1.00 20.00     0.011 C 
HETATM   10  N10 UNL     1     -33.270  16.800  -2.306  1.00 20.00    -0.191 NA
HETATM   11  N11 UNL     1     -37.130  13.749  -4.585  1.00 20.00    -0.265 NA
ENDROOT
TORSDOF 0
ENDMDL
MODEL 9
REMARK VINA RESULT:      -4.3      2.286      3.573
REMARK  0 active torsions:
REMARK  status: ('A' for Active; 'I' for Inactive)
ROOT
HETATM    1  C1  UNL     1     -37.436  14.375  -4.436  1.00 20.00     0.100 C 
HETATM    2  C2  UNL     1     -35.095  14.040  -3.811  1.00 20.00     0.042 A 
HETATM    3  C3  UNL     1     -33.744  14.122  -4.150  1.00 20.00     0.118 A 
HETATM    4  C4  UNL     1     -36.044  14.458  -4.741  1.00 20.00     0.054 A 
HETATM    5  C5  UNL     1     -35.593  14.943  -5.952  1.00 20.00    -0.013 A 
HETATM    6  C6  UNL     1     -34.225  14.982  -6.198  1.00 20.00     0.042 A 
HETATM    7  C7  UNL     1     -36.371  15.420  -7.132  1.00 20.00     0.042 C 
HETATM    8  C8  UNL     1     -33.948  15.488  -7.585  1.00 20.00     0.060 C 
HETATM    9  C9  UNL     1     -35.283  16.170  -7.918  1.00 20.00     0.011 C 
HETATM   10  N10 UNL     1     -38.567  14.308  -4.188  1.00 20.00    -0.191 NA
HETATM   11  N11 UNL     1     -33.275  14.583  -5.336  1.00 20.00    -0.265 NA
ENDROOT
TORSDOF 0
ENDMDL
