MODEL 1
REMARK VINA RESULT:      -4.4      0.000      0.000
REMARK  2 active torsions:
REMARK  status: ('A' for Active; 'I' for Inactive)
REMARK    1  A    between atoms: C1_1  and  C3_3 
REMARK    2  A    between atoms: C2_2  and  C7_7 
ROOT
HETATM    1  C4  UNL     1     -34.644  14.409  -4.242  1.00 20.00     0.002 C 
HETATM    2  C5  UNL     1     -33.243  15.016  -4.049  1.00 20.00     0.013 C 
HETATM    3  C6  UNL     1     -35.151  15.349  -3.136  1.00 20.00     0.013 C 
HETATM    4  C7  UNL     1     -33.915  16.267  -3.399  1.00 20.00    -0.026 C 
HETATM    5  C9  UNL     1     -34.193  17.396  -4.394  1.00 20.00     0.019 C 
ENDROOT
BRANCH   4   6
HETATM    6  C2  UNL     1     -33.210  16.810  -2.124  1.00 20.00    -0.014 C 
HETATM    7  C1  UNL     1     -32.503  17.947  -2.102  1.00 20.00     0.046 C 
BRANCH   7   8
HETATM    8  C3  UNL     1     -31.851  18.411  -0.845  1.00 20.00     0.145 C 
HETATM    9  C8  UNL     1     -32.762  18.861   0.266  1.00 20.00     0.096 C 
HETATM   10  O10 UNL     1     -30.630  18.442  -0.714  1.00 20.00    -0.294 OA
ENDBRANCH   7   8
ENDBRANCH   4   6
TORSDOF 2
ENDMDL
MODEL 2
REMARK VINA RESULT:      -4.3      3.169      5.235
REMARK  2 active torsions:
REMARK  status: ('A' for Active; 'I' for Inactive)
REMARK    1  A    between atoms: C1_1  and  C3_3 
REMARK    2  A    between atoms: C2_2  and  C7_7 
ROOT
HETATM    1  C4  UNL     1     -34.236  18.607  -1.348  1.00 20.00     0.002 C 
HETATM    2  C5  UNL     1     -34.703  18.317  -2.785  1.00 20.00     0.013 C 
HETATM    3  C6  UNL     1     -34.446  17.117  -1.031  1.00 20.00     0.013 C 
HETATM    4  C7  UNL     1     -34.344  16.815  -2.560  1.00 20.00    -0.026 C 
HETATM    5  C9  UNL     1     -32.930  16.450  -3.017  1.00 20.00     0.019 C 
ENDROOT
BRANCH   4   6
HETATM    6  C2  UNL     1     -35.384  15.796  -3.104  1.00 20.00    -0.014 C 
HETATM    7  C1  UNL     1     -35.051  14.713  -3.818  1.00 20.00     0.046 C 
BRANCH   7   8
HETATM    8  C3  UNL     1     -36.098  13.776  -4.311  1.00 20.00     0.145 C 
HETATM    9  C8  UNL     1     -37.495  14.326  -4.443  1.00 20.00     0.096 C 
HETATM   10  O10 UNL     1     -35.852  12.604  -4.586  1.00 20.00    -0.294 OA
ENDBRANCH   7   8
ENDBRANCH   4   6
TORSDOF 2
ENDMDL
MODEL 3
REMARK VINA RESULT:      -4.3      2.895      5.013
REMARK  2 active torsions:
REMARK  status: ('A' for Active; 'I' for Inactive)
REMARK    1  A    between atoms: C1_1  and  C3_3 
REMARK    2  A    between atoms: C2_2  and  C7_7 
ROOT
HETATM    1  C4  UNL     1     -35.099  18.822  -0.527  1.00 20.00     0.002 C 
HETATM    2  C5  UNL     1     -35.338  18.412  -1.991  1.00 20.00     0.013 C 
HETATM    3  C6  UNL     1     -34.786  17.349  -0.216  1.00 20.00     0.013 C 
HETATM    4  C7  UNL     1     -34.485  17.129  -1.733  1.00 20.00    -0.026 C 
HETATM    5  C9  UNL     1     -33.007  17.298  -2.092  1.00 20.00     0.019 C 
ENDROOT
BRANCH   4   6
HETATM    6  C2  UNL     1     -35.059  15.818  -2.339  1.00 20.00    -0.014 C 
HETATM    7  C1  UNL     1     -34.534  15.211  -3.411  1.00 20.00     0.046 C 
BRANCH   7   8
HETATM    8  C3  UNL     1     -35.134  13.956  -3.942  1.00 20.00     0.145 C 
HETATM    9  C8  UNL     1     -36.530  14.053  -4.501  1.00 20.00     0.096 C 
HETATM   10  O10 UNL     1     -34.535  12.883  -3.920  1.00 20.00    -0.294 OA
ENDBRANCH   7   8
ENDBRANCH   4   6
TORSDOF 2
ENDMDL
MODEL 4
REMARK VINA RESULT:      -4.3      3.061      5.231
REMARK  2 active torsions:
REMARK  status: ('A' for Active; 'I' for Inactive)
REMARK    1  A    between atoms: C1_1  and  C3_3 
REMARK    2  A    between atoms: C2_2  and  C7_7 
ROOT
HETATM    1  C4  UNL     1     -32.998  18.574  -2.227  1.00 20.00     0.002 C 
HETATM    2  C5  UNL     1     -32.749  17.058  -2.302  1.00 20.00     0.013 C 
HETATM    3  C6  UNL     1     -34.283  18.355  -3.042  1.00 20.00     0.013 C 
HETATM    4  C7  UNL     1     -34.270  16.859  -2.591  1.00 20.00    -0.026 C 
HETATM    5  C9  UNL     1     -35.101  16.593  -1.334  1.00 20.00     0.019 C 
ENDROOT
BRANCH   4   6
HETATM    6  C2  UNL     1     -34.604  15.829  -3.707  1.00 20.00    -0.014 C 
HETATM    7  C1  UNL     1     -35.471  14.821  -3.543  1.00 20.00     0.046 C 
BRANCH   7   8
HETATM    8  C3  UNL     1     -35.745  13.868  -4.654  1.00 20.00     0.145 C 
HETATM    9  C8  UNL     1     -35.858  14.452  -6.038  1.00 20.00     0.096 C 
HETATM   10  O10 UNL     1     -35.887  12.663  -4.462  1.00 20.00    -0.294 OA
ENDBRANCH   7   8
ENDBRANCH   4   6
TORSDOF 2
ENDMDL
MODEL 5
REMARK VINA RESULT:      -4.1      1.196      1.867
REMARK  2 active torsions:
REMARK  status: ('A' for Active; 'I' for Inactive)
REMARK    1  A    between atoms: C1_1  and  C3_3 
REMARK    2  A    between atoms: C2_2  and  C7_7 
ROOT
HETATM    1  C4  UNL     1     -35.857  14.330  -5.256  1.00 20.00     0.002 C 
HETATM    2  C5  UNL     1     -35.437  14.138  -3.788  1.00 20.00     0.013 C 
HETATM    3  C6  UNL     1     -35.074  15.654  -5.257  1.00 20.00     0.013 C 
HETATM    4  C7  UNL     1     -34.254  15.128  -4.035  1.00 20.00    -0.026 C 
HETATM    5  C9  UNL     1     -32.950  14.432  -4.429  1.00 20.00     0.019 C 
ENDROOT
BRANCH   4   6
HETATM    6  C2  UNL     1     -34.012  16.166  -2.904  1.00 20.00    -0.014 C 
HETATM    7  C1  UNL     1     -32.886  16.884  -2.793  1.00 20.00     0.046 C 
BRANCH   7   8
HETATM    8  C3  UNL     1     -32.718  17.863  -1.683  1.00 20.00     0.145 C 
HETATM    9  C8  UNL     1     -33.867  18.002  -0.719  1.00 20.00     0.096 C 
HETATM   10  O10 UNL     1     -31.701  18.541  -1.558  1.00 20.00    -0.294 OA
ENDBRANCH   7   8
ENDBRANCH   4   6
TORSDOF 2
ENDMDL
MODEL 6
REMARK VINA RESULT:      -4.0      2.654      4.971
REMARK  2 active torsions:
REMARK  status: ('A' for Active; 'I' for Inactive)
REMARK    1  A    between atoms: C1_1  and  C3_3 
REMARK    2  A    between atoms: C2_2  and  C7_7 
ROOT
HETATM    1  C4  UNL     1     -33.999  18.286   0.129  1.00 20.00     0.002 C 
HETATM    2  C5  UNL     1     -35.103  17.258  -0.174  1.00 20.00     0.013 C 
HETATM    3  C6  UNL     1     -33.282  17.822  -1.150  1.00 20.00     0.013 C 
HETATM    4  C7  UNL     1     -34.645  17.261  -1.667  1.00 20.00    -0.026 C 
HETATM    5  C9  UNL     1     -35.420  18.249  -2.541  1.00 20.00     0.019 C 
ENDROOT
BRANCH   4   6
HETATM    6  C2  UNL     1     -34.572  15.861  -2.340  1.00 20.00    -0.014 C 
HETATM    7  C1  UNL     1     -35.097  15.595  -3.543  1.00 20.00     0.046 C 
BRANCH   7   8
HETATM    8  C3  UNL     1     -34.993  14.231  -4.132  1.00 20.00     0.145 C 
HETATM    9  C8  UNL     1     -36.276  13.589  -4.592  1.00 20.00     0.096 C 
HETATM   10  O10 UNL     1     -33.919  13.641  -4.230  1.00 20.00    -0.294 OA
ENDBRANCH   7   8
ENDBRANCH   4   6
TORSDOF 2
ENDMDL
MODEL 7
REMARK VINA RESULT:      -4.0      1.550      2.202
REMARK  2 active torsions:
REMARK  status: ('A' for Active; 'I' for Inactive)
REMARK    1  A    between atoms: C1_1  and  C3_3 
REMARK    2  A    between atoms: C2_2  and  C7_7 
ROOT
HETATM    1  C4  UNL     1     -35.815  14.353  -5.514  1.00 20.00     0.002 C 
HETATM    2  C5  UNL     1     -35.522  14.046  -4.034  1.00 20.00     0.013 C 
HETATM    3  C6  UNL     1     -35.091  15.697  -5.327  1.00 20.00     0.013 C 
HETATM    4  C7  UNL     1     -34.364  15.093  -4.084  1.00 20.00    -0.026 C 
HETATM    5  C9  UNL     1     -33.001  14.480  -4.411  1.00 20.00     0.019 C 
ENDROOT
BRANCH   4   6
HETATM    6  C2  UNL     1     -34.269  16.035  -2.851  1.00 20.00    -0.014 C 
HETATM    7  C1  UNL     1     -33.192  16.781  -2.575  1.00 20.00     0.046 C 
BRANCH   7   8
HETATM    8  C3  UNL     1     -33.165  17.663  -1.376  1.00 20.00     0.145 C 
HETATM    9  C8  UNL     1     -31.870  18.375  -1.083  1.00 20.00     0.096 C 
HETATM   10  O10 UNL     1     -34.142  17.801  -0.643  1.00 20.00    -0.294 OA
ENDBRANCH   7   8
ENDBRANCH   4   6
TORSDOF 2
ENDMDL
MODEL 8
REMARK VINA RESULT:      -4.0      3.283      5.204
REMARK  2 active torsions:
REMARK  status: ('A' for Active; 'I' for Inactive)
REMARK    1  A    between atoms: C1_1  and  C3_3 
REMARK    2  A    between atoms: C2_2  and  C7_7 
ROOT
HETATM    1  C4  UNL     1     -32.670  18.123  -2.402  1.00 20.00     0.002 C 
HETATM    2  C5  UNL     1     -33.470  17.969  -3.707  1.00 20.00     0.013 C 
HETATM    3  C6  UNL     1     -33.565  17.036  -1.782  1.00 20.00     0.013 C 
HETATM    4  C7  UNL     1     -33.913  16.551  -3.226  1.00 20.00    -0.026 C 
HETATM    5  C9  UNL     1     -33.007  15.425  -3.727  1.00 20.00     0.019 C 
ENDROOT
BRANCH   4   6
HETATM    6  C2  UNL     1     -35.411  16.208  -3.465  1.00 20.00    -0.014 C 
HETATM    7  C1  UNL     1     -35.825  15.053  -4.002  1.00 20.00     0.046 C 
BRANCH   7   8
HETATM    8  C3  UNL     1     -37.276  14.788  -4.205  1.00 20.00     0.145 C 
HETATM    9  C8  UNL     1     -38.202  15.973  -4.120  1.00 20.00     0.096 C 
HETATM   10  O10 UNL     1     -37.712  13.659  -4.417  1.00 20.00    -0.294 OA
ENDBRANCH   7   8
ENDBRANCH   4   6
TORSDOF 2
ENDMDL
MODEL 9
REMARK VINA RESULT:      -3.9     11.124     12.113
REMARK  2 active torsions:
REMARK  status: ('A' for Active; 'I' for Inactive)
REMARK    1  A    between atoms: C1_1  and  C3_3 
REMARK    2  A    between atoms: C2_2  and  C7_7 
ROOT
HETATM    1  C4  UNL     1     -34.991   5.423   5.742  1.00 20.00     0.002 C 
HETATM    2  C5  UNL     1     -33.676   6.119   5.349  1.00 20.00     0.013 C 
HETATM    3  C6  UNL     1     -35.470   5.617   4.294  1.00 20.00     0.013 C 
HETATM    4  C7  UNL     1     -33.978   5.767   3.858  1.00 20.00    -0.026 C 
HETATM    5  C9  UNL     1     -33.341   4.453   3.401  1.00 20.00     0.019 C 
ENDROOT
BRANCH   4   6
HETATM    6  C2  UNL     1     -33.697   6.905   2.837  1.00 20.00    -0.014 C 
HETATM    7  C1  UNL     1     -32.626   6.927   2.034  1.00 20.00     0.046 C 
BRANCH   7   8
HETATM    8  C3  UNL     1     -32.416   8.050   1.079  1.00 20.00     0.145 C 
HETATM    9  C8  UNL     1     -33.236   9.294   1.301  1.00 20.00     0.096 C 
HETATM   10  O10 UNL     1     -31.625   7.972   0.141  1.00 20.00    -0.294 OA
ENDBRANCH   7   8
ENDBRANCH   4   6
TORSDOF 2
ENDMDL
