MODEL 1
REMARK VINA RESULT:      -4.2      0.000      0.000
REMARK  0 active torsions:
REMARK  status: ('A' for Active; 'I' for Inactive)
ROOT
HETATM    1  C1  UNL     1     -23.242  17.126   9.640  1.00 20.00     0.169 C 
HETATM    2  C2  UNL     1     -24.687  18.301  10.682  1.00 20.00     0.062 C 
HETATM    3  C3  UNL     1     -24.384  18.049   9.181  1.00 20.00     0.058 C 
HETATM    4  C4  UNL     1     -23.708  17.174  11.126  1.00 20.00     0.174 C 
HETATM    5  C5  UNL     1     -23.966  19.260   8.374  1.00 20.00     0.018 C 
HETATM    6  O6  UNL     1     -22.335  16.570   9.057  1.00 20.00    -0.294 OA
HETATM    7 CL7  UNL     1     -24.456  15.619  11.622  1.00 20.00    -0.093 Cl
HETATM    8 CL8  UNL     1     -22.386  17.673  12.228  1.00 20.00    -0.093 Cl
ENDROOT
TORSDOF 0
ENDMDL
MODEL 2
REMARK VINA RESULT:      -4.1      1.961      2.161
REMARK  0 active torsions:
REMARK  status: ('A' for Active; 'I' for Inactive)
ROOT
HETATM    1  C1  UNL     1     -22.793  17.518  11.413  1.00 20.00     0.169 C 
HETATM    2  C2  UNL     1     -24.140  17.332   9.768  1.00 20.00     0.062 C 
HETATM    3  C3  UNL     1     -22.593  17.364   9.895  1.00 20.00     0.058 C 
HETATM    4  C4  UNL     1     -24.320  17.226  11.311  1.00 20.00     0.174 C 
HETATM    5  C5  UNL     1     -21.891  18.515   9.205  1.00 20.00     0.018 C 
HETATM    6  O6  UNL     1     -22.039  17.763  12.332  1.00 20.00    -0.294 OA
HETATM    7 CL7  UNL     1     -24.713  15.598  11.958  1.00 20.00    -0.093 Cl
HETATM    8 CL8  UNL     1     -25.301  18.516  12.076  1.00 20.00    -0.093 Cl
ENDROOT
TORSDOF 0
ENDMDL
MODEL 3
REMARK VINA RESULT:      -4.0     23.147     23.833
REMARK  0 active torsions:
REMARK  status: ('A' for Active; 'I' for Inactive)
ROOT
HETATM    1  C1  UNL     1     -42.586   7.393  -0.856  1.00 20.00     0.169 C 
HETATM    2  C2  UNL     1     -41.504   6.966   0.933  1.00 20.00     0.062 C 
HETATM    3  C3  UNL     1     -42.255   8.215   0.401  1.00 20.00     0.058 C 
HETATM    4  C4  UNL     1     -42.061   6.074  -0.215  1.00 20.00     0.174 C 
HETATM    5  C5  UNL     1     -41.413   9.454   0.175  1.00 20.00     0.018 C 
HETATM    6  O6  UNL     1     -43.077   7.674  -1.930  1.00 20.00    -0.294 OA
HETATM    7 CL7  UNL     1     -43.417   4.978   0.214  1.00 20.00    -0.093 Cl
HETATM    8 CL8  UNL     1     -40.838   5.267  -1.246  1.00 20.00    -0.093 Cl
ENDROOT
TORSDOF 0
ENDMDL
MODEL 4
REMARK VINA RESULT:      -3.9      1.712      2.499
REMARK  0 active torsions:
REMARK  status: ('A' for Active; 'I' for Inactive)
ROOT
HETATM    1  C1  UNL     1     -24.717  18.513  10.463  1.00 20.00     0.169 C 
HETATM    2  C2  UNL     1     -23.081  17.510   9.529  1.00 20.00     0.062 C 
HETATM    3  C3  UNL     1     -23.892  18.791   9.195  1.00 20.00     0.058 C 
HETATM    4  C4  UNL     1     -23.747  17.388  10.932  1.00 20.00     0.174 C 
HETATM    5  C5  UNL     1     -24.662  18.771   7.891  1.00 20.00     0.018 C 
HETATM    6  O6  UNL     1     -25.732  18.997  10.920  1.00 20.00    -0.294 OA
HETATM    7 CL7  UNL     1     -22.759  17.926  12.332  1.00 20.00    -0.093 Cl
HETATM    8 CL8  UNL     1     -24.608  15.852  11.260  1.00 20.00    -0.093 Cl
ENDROOT
TORSDOF 0
ENDMDL
MODEL 5
REMARK VINA RESULT:      -3.8     18.829     19.563
REMARK  0 active torsions:
REMARK  status: ('A' for Active; 'I' for Inactive)
ROOT
HETATM    1  C1  UNL     1     -35.862  13.860  -4.467  1.00 20.00     0.169 C 
HETATM    2  C2  UNL     1     -36.038  15.986  -4.538  1.00 20.00     0.062 C 
HETATM    3  C3  UNL     1     -36.864  14.858  -3.863  1.00 20.00     0.058 C 
HETATM    4  C4  UNL     1     -34.897  14.996  -4.921  1.00 20.00     0.174 C 
HETATM    5  C5  UNL     1     -38.298  14.713  -4.328  1.00 20.00     0.018 C 
HETATM    6  O6  UNL     1     -35.837  12.649  -4.546  1.00 20.00    -0.294 OA
HETATM    7 CL7  UNL     1     -33.424  15.043  -3.895  1.00 20.00    -0.093 Cl
HETATM    8 CL8  UNL     1     -34.506  14.887  -6.666  1.00 20.00    -0.093 Cl
ENDROOT
TORSDOF 0
ENDMDL
MODEL 6
REMARK VINA RESULT:      -3.8      1.768      2.441
REMARK  0 active torsions:
REMARK  status: ('A' for Active; 'I' for Inactive)
ROOT
HETATM    1  C1  UNL     1     -23.948  18.022   9.815  1.00 20.00     0.169 C 
HETATM    2  C2  UNL     1     -22.525  17.648  11.362  1.00 20.00     0.062 C 
HETATM    3  C3  UNL     1     -22.466  18.391  10.000  1.00 20.00     0.058 C 
HETATM    4  C4  UNL     1     -24.074  17.508  11.281  1.00 20.00     0.174 C 
HETATM    5  C5  UNL     1     -21.513  17.821   8.970  1.00 20.00     0.018 C 
HETATM    6  O6  UNL     1     -24.719  18.110   8.882  1.00 20.00    -0.294 OA
HETATM    7 CL7  UNL     1     -25.030  18.648  12.287  1.00 20.00    -0.093 Cl
HETATM    8 CL8  UNL     1     -24.716  15.837  11.353  1.00 20.00    -0.093 Cl
ENDROOT
TORSDOF 0
ENDMDL
MODEL 7
REMARK VINA RESULT:      -3.8     23.197     23.909
REMARK  0 active torsions:
REMARK  status: ('A' for Active; 'I' for Inactive)
ROOT
HETATM    1  C1  UNL     1     -42.375   6.867  -1.108  1.00 20.00     0.169 C 
HETATM    2  C2  UNL     1     -40.880   6.383   0.337  1.00 20.00     0.062 C 
HETATM    3  C3  UNL     1     -41.048   6.092  -1.178  1.00 20.00     0.058 C 
HETATM    4  C4  UNL     1     -42.082   7.374   0.335  1.00 20.00     0.174 C 
HETATM    5  C5  UNL     1     -41.158   4.633  -1.569  1.00 20.00     0.018 C 
HETATM    6  O6  UNL     1     -43.290   7.024  -1.889  1.00 20.00    -0.294 OA
HETATM    7 CL7  UNL     1     -41.671   9.123   0.337  1.00 20.00    -0.093 Cl
HETATM    8 CL8  UNL     1     -43.417   6.990   1.466  1.00 20.00    -0.093 Cl
ENDROOT
TORSDOF 0
ENDMDL
MODEL 8
REMARK VINA RESULT:      -3.6     18.197     19.019
REMARK  0 active torsions:
REMARK  status: ('A' for Active; 'I' for Inactive)
ROOT
HETATM    1  C1  UNL     1     -34.745  14.523  -4.361  1.00 20.00     0.169 C 
HETATM    2  C2  UNL     1     -34.384  16.601  -4.686  1.00 20.00     0.062 C 
HETATM    3  C3  UNL     1     -34.061  15.620  -3.528  1.00 20.00     0.058 C 
HETATM    4  C4  UNL     1     -34.836  15.438  -5.618  1.00 20.00     0.174 C 
HETATM    5  C5  UNL     1     -34.705  15.929  -2.193  1.00 20.00     0.018 C 
HETATM    6  O6  UNL     1     -35.076  13.379  -4.123  1.00 20.00    -0.294 OA
HETATM    7 CL7  UNL     1     -33.664  14.926  -6.879  1.00 20.00    -0.093 Cl
HETATM    8 CL8  UNL     1     -36.509  15.546  -6.251  1.00 20.00    -0.093 Cl
ENDROOT
TORSDOF 0
ENDMDL
MODEL 9
REMARK VINA RESULT:      -3.6     23.066     23.799
REMARK  0 active torsions:
REMARK  status: ('A' for Active; 'I' for Inactive)
ROOT
HETATM    1  C1  UNL     1     -42.033   6.782   0.308  1.00 20.00     0.169 C 
HETATM    2  C2  UNL     1     -41.206   7.606  -1.478  1.00 20.00     0.062 C 
HETATM    3  C3  UNL     1     -41.178   8.026   0.016  1.00 20.00     0.058 C 
HETATM    4  C4  UNL     1     -41.843   6.227  -1.135  1.00 20.00     0.174 C 
HETATM    5  C5  UNL     1     -41.821   9.358   0.346  1.00 20.00     0.018 C 
HETATM    6  O6  UNL     1     -42.620   6.387   1.295  1.00 20.00    -0.294 OA
HETATM    7 CL7  UNL     1     -40.736   4.813  -1.145  1.00 20.00    -0.093 Cl
HETATM    8 CL8  UNL     1     -43.409   5.867  -1.928  1.00 20.00    -0.093 Cl
ENDROOT
TORSDOF 0
ENDMDL
