MODEL 1
REMARK VINA RESULT:      -5.6      0.000      0.000
REMARK  1 active torsions:
REMARK  status: ('A' for Active; 'I' for Inactive)
REMARK    1  A    between atoms: C10_10  and  O13_13 
ROOT
HETATM    1  C1  UNL     1     -32.053  18.274  -1.299  1.00 20.00     0.099 C 
HETATM    2  C2  UNL     1     -34.326  17.367  -1.199  1.00 20.00     0.023 A 
HETATM    3  C3  UNL     1     -35.323  16.511  -1.670  1.00 20.00     0.012 A 
HETATM    4  C4  UNL     1     -32.771  16.562  -2.889  1.00 20.00     0.030 A 
HETATM    5  C5  UNL     1     -33.060  17.393  -1.804  1.00 20.00     0.045 A 
HETATM    6  C6  UNL     1     -35.027  15.685  -2.741  1.00 20.00    -0.023 A 
HETATM    7  C7  UNL     1     -33.763  15.708  -3.342  1.00 20.00    -0.048 A 
HETATM    8  C8  UNL     1     -33.703  14.761  -4.499  1.00 20.00     0.042 C 
HETATM    9  C9  UNL     1     -34.910  13.852  -4.204  1.00 20.00     0.041 C 
HETATM   10  C10 UNL     1     -35.929  14.711  -3.435  1.00 20.00     0.154 C 
HETATM   11  N12 UNL     1     -31.236  18.990  -0.889  1.00 20.00    -0.191 NA
ENDROOT
BRANCH  10  12
HETATM   12  O13 UNL     1     -36.781  15.382  -4.348  1.00 20.00    -0.386 OA
HETATM   13  C11 UNL     1     -38.112  14.879  -4.297  1.00 20.00     0.202 C 
ENDBRANCH  10  12
TORSDOF 1
ENDMDL
MODEL 2
REMARK VINA RESULT:      -5.4      3.033      5.097
REMARK  1 active torsions:
REMARK  status: ('A' for Active; 'I' for Inactive)
REMARK    1  A    between atoms: C10_10  and  O13_13 
ROOT
HETATM    1  C1  UNL     1     -34.016  15.058  -4.297  1.00 20.00     0.099 C 
HETATM    2  C2  UNL     1     -35.174  15.904  -2.311  1.00 20.00     0.023 A 
HETATM    3  C3  UNL     1     -35.218  16.710  -1.171  1.00 20.00     0.012 A 
HETATM    4  C4  UNL     1     -32.924  16.676  -2.827  1.00 20.00     0.030 A 
HETATM    5  C5  UNL     1     -34.035  15.886  -3.132  1.00 20.00     0.045 A 
HETATM    6  C6  UNL     1     -34.115  17.495  -0.880  1.00 20.00    -0.023 A 
HETATM    7  C7  UNL     1     -32.982  17.480  -1.701  1.00 20.00    -0.048 A 
HETATM    8  C8  UNL     1     -31.914  18.376  -1.155  1.00 20.00     0.042 C 
HETATM    9  C9  UNL     1     -32.730  19.263  -0.196  1.00 20.00     0.041 C 
HETATM   10  C10 UNL     1     -33.915  18.411   0.288  1.00 20.00     0.154 C 
HETATM   11  N12 UNL     1     -34.002  14.384  -5.243  1.00 20.00    -0.191 NA
ENDROOT
BRANCH  10  12
HETATM   12  O13 UNL     1     -33.542  17.676   1.442  1.00 20.00    -0.386 OA
HETATM   13  C11 UNL     1     -33.018  18.520   2.462  1.00 20.00     0.202 C 
ENDBRANCH  10  12
TORSDOF 1
ENDMDL
MODEL 3
REMARK VINA RESULT:      -4.9      2.096      3.980
REMARK  1 active torsions:
REMARK  status: ('A' for Active; 'I' for Inactive)
REMARK    1  A    between atoms: C10_10  and  O13_13 
ROOT
HETATM    1  C1  UNL     1     -30.349  18.941   1.276  1.00 20.00     0.099 C 
HETATM    2  C2  UNL     1     -31.408  18.312  -0.842  1.00 20.00     0.023 A 
HETATM    3  C3  UNL     1     -32.528  17.929  -1.583  1.00 20.00     0.012 A 
HETATM    4  C4  UNL     1     -32.730  18.400   1.199  1.00 20.00     0.030 A 
HETATM    5  C5  UNL     1     -31.508  18.544   0.540  1.00 20.00     0.045 A 
HETATM    6  C6  UNL     1     -33.737  17.796  -0.923  1.00 20.00    -0.023 A 
HETATM    7  C7  UNL     1     -33.838  18.032   0.453  1.00 20.00    -0.048 A 
HETATM    8  C8  UNL     1     -35.232  17.781   0.938  1.00 20.00     0.042 C 
HETATM    9  C9  UNL     1     -36.022  17.836  -0.382  1.00 20.00     0.041 C 
HETATM   10  C10 UNL     1     -35.058  17.375  -1.489  1.00 20.00     0.154 C 
HETATM   11  N12 UNL     1     -29.407  19.263   1.873  1.00 20.00    -0.191 NA
ENDROOT
BRANCH  10  12
HETATM   12  O13 UNL     1     -35.118  15.964  -1.624  1.00 20.00    -0.386 OA
HETATM   13  C11 UNL     1     -34.965  15.556  -2.980  1.00 20.00     0.202 C 
ENDBRANCH  10  12
TORSDOF 1
ENDMDL
MODEL 4
REMARK VINA RESULT:      -4.8      3.111      5.126
REMARK  1 active torsions:
REMARK  status: ('A' for Active; 'I' for Inactive)
REMARK    1  A    between atoms: C10_10  and  O13_13 
ROOT
HETATM    1  C1  UNL     1     -35.523  14.592  -5.382  1.00 20.00     0.099 C 
HETATM    2  C2  UNL     1     -33.628  15.490  -4.116  1.00 20.00     0.023 A 
HETATM    3  C3  UNL     1     -33.108  16.208  -3.037  1.00 20.00     0.012 A 
HETATM    4  C4  UNL     1     -35.901  15.898  -3.351  1.00 20.00     0.030 A 
HETATM    5  C5  UNL     1     -35.015  15.337  -4.272  1.00 20.00     0.045 A 
HETATM    6  C6  UNL     1     -33.993  16.754  -2.124  1.00 20.00    -0.023 A 
HETATM    7  C7  UNL     1     -35.376  16.598  -2.278  1.00 20.00    -0.048 A 
HETATM    8  C8  UNL     1     -36.119  17.312  -1.193  1.00 20.00     0.042 C 
HETATM    9  C9  UNL     1     -35.009  17.495  -0.141  1.00 20.00     0.041 C 
HETATM   10  C10 UNL     1     -33.682  17.580  -0.914  1.00 20.00     0.154 C 
HETATM   11  N12 UNL     1     -35.935  13.988  -6.283  1.00 20.00    -0.191 NA
ENDROOT
BRANCH  10  12
HETATM   12  O13 UNL     1     -33.422  18.925  -1.280  1.00 20.00    -0.386 OA
HETATM   13  C11 UNL     1     -32.049  19.263  -1.116  1.00 20.00     0.202 C 
ENDBRANCH  10  12
TORSDOF 1
ENDMDL
MODEL 5
REMARK VINA RESULT:      -4.7      2.240      3.367
REMARK  1 active torsions:
REMARK  status: ('A' for Active; 'I' for Inactive)
REMARK    1  A    between atoms: C10_10  and  O13_13 
ROOT
HETATM    1  C1  UNL     1     -34.641  18.207   1.638  1.00 20.00     0.099 C 
HETATM    2  C2  UNL     1     -33.078  18.235  -0.248  1.00 20.00     0.023 A 
HETATM    3  C3  UNL     1     -32.725  17.872  -1.549  1.00 20.00     0.012 A 
HETATM    4  C4  UNL     1     -35.184  17.030  -0.434  1.00 20.00     0.030 A 
HETATM    5  C5  UNL     1     -34.299  17.816   0.306  1.00 20.00     0.045 A 
HETATM    6  C6  UNL     1     -33.611  17.098  -2.279  1.00 20.00    -0.023 A 
HETATM    7  C7  UNL     1     -34.830  16.685  -1.728  1.00 20.00    -0.048 A 
HETATM    8  C8  UNL     1     -35.589  15.828  -2.692  1.00 20.00     0.042 C 
HETATM    9  C9  UNL     1     -34.895  16.184  -4.019  1.00 20.00     0.041 C 
HETATM   10  C10 UNL     1     -33.446  16.565  -3.668  1.00 20.00     0.154 C 
HETATM   11  N12 UNL     1     -34.919  18.524   2.719  1.00 20.00    -0.191 NA
ENDROOT
BRANCH  10  12
HETATM   12  O13 UNL     1     -32.630  15.405  -3.665  1.00 20.00    -0.386 OA
HETATM   13  C11 UNL     1     -33.093  14.428  -4.591  1.00 20.00     0.202 C 
ENDBRANCH  10  12
TORSDOF 1
ENDMDL
MODEL 6
REMARK VINA RESULT:      -4.6      2.028      2.752
REMARK  1 active torsions:
REMARK  status: ('A' for Active; 'I' for Inactive)
REMARK    1  A    between atoms: C10_10  and  O13_13 
ROOT
HETATM    1  C1  UNL     1     -33.772  17.744  -1.010  1.00 20.00     0.099 C 
HETATM    2  C2  UNL     1     -33.863  17.922  -3.451  1.00 20.00     0.023 A 
HETATM    3  C3  UNL     1     -34.162  17.387  -4.706  1.00 20.00     0.012 A 
HETATM    4  C4  UNL     1     -34.599  15.878  -2.354  1.00 20.00     0.030 A 
HETATM    5  C5  UNL     1     -34.080  17.172  -2.283  1.00 20.00     0.045 A 
HETATM    6  C6  UNL     1     -34.683  16.106  -4.767  1.00 20.00    -0.023 A 
HETATM    7  C7  UNL     1     -34.903  15.361  -3.602  1.00 20.00    -0.048 A 
HETATM    8  C8  UNL     1     -35.429  13.999  -3.930  1.00 20.00     0.042 C 
HETATM    9  C9  UNL     1     -35.932  14.211  -5.370  1.00 20.00     0.041 C 
HETATM   10  C10 UNL     1     -35.053  15.314  -5.983  1.00 20.00     0.154 C 
HETATM   11  N12 UNL     1     -33.522  18.209   0.025  1.00 20.00    -0.191 NA
ENDROOT
BRANCH  10  12
HETATM   12  O13 UNL     1     -33.899  14.739  -6.575  1.00 20.00    -0.386 OA
HETATM   13  C11 UNL     1     -33.716  15.182  -7.916  1.00 20.00     0.202 C 
ENDBRANCH  10  12
TORSDOF 1
ENDMDL
MODEL 7
REMARK VINA RESULT:      -4.6      3.106      4.917
REMARK  1 active torsions:
REMARK  status: ('A' for Active; 'I' for Inactive)
REMARK    1  A    between atoms: C10_10  and  O13_13 
ROOT
HETATM    1  C1  UNL     1     -35.686  13.909  -4.154  1.00 20.00     0.099 C 
HETATM    2  C2  UNL     1     -36.449  16.066  -3.278  1.00 20.00     0.023 A 
HETATM    3  C3  UNL     1     -36.197  17.296  -2.667  1.00 20.00     0.012 A 
HETATM    4  C4  UNL     1     -34.092  15.472  -3.159  1.00 20.00     0.030 A 
HETATM    5  C5  UNL     1     -35.404  15.160  -3.521  1.00 20.00     0.045 A 
HETATM    6  C6  UNL     1     -34.892  17.601  -2.318  1.00 20.00    -0.023 A 
HETATM    7  C7  UNL     1     -33.850  16.699  -2.565  1.00 20.00    -0.048 A 
HETATM    8  C8  UNL     1     -32.548  17.237  -2.061  1.00 20.00     0.042 C 
HETATM    9  C9  UNL     1     -32.874  18.735  -1.928  1.00 20.00     0.041 C 
HETATM   10  C10 UNL     1     -34.381  18.832  -1.635  1.00 20.00     0.154 C 
HETATM   11  N12 UNL     1     -35.916  12.893  -4.667  1.00 20.00    -0.191 NA
ENDROOT
BRANCH  10  12
HETATM   12  O13 UNL     1     -34.607  18.758  -0.237  1.00 20.00    -0.386 OA
HETATM   13  C11 UNL     1     -33.502  19.263   0.506  1.00 20.00     0.202 C 
ENDBRANCH  10  12
TORSDOF 1
ENDMDL
MODEL 8
REMARK VINA RESULT:      -4.5      2.791      4.556
REMARK  1 active torsions:
REMARK  status: ('A' for Active; 'I' for Inactive)
REMARK    1  A    between atoms: C10_10  and  O13_13 
ROOT
HETATM    1  C1  UNL     1     -31.855  18.561   3.233  1.00 20.00     0.099 C 
HETATM    2  C2  UNL     1     -30.992  18.394   0.946  1.00 20.00     0.023 A 
HETATM    3  C3  UNL     1     -31.190  18.257  -0.429  1.00 20.00     0.012 A 
HETATM    4  C4  UNL     1     -33.389  18.297   1.349  1.00 20.00     0.030 A 
HETATM    5  C5  UNL     1     -32.084  18.413   1.829  1.00 20.00     0.045 A 
HETATM    6  C6  UNL     1     -32.489  18.150  -0.897  1.00 20.00    -0.023 A 
HETATM    7  C7  UNL     1     -33.577  18.173  -0.017  1.00 20.00    -0.048 A 
HETATM    8  C8  UNL     1     -34.866  17.998  -0.757  1.00 20.00     0.042 C 
HETATM    9  C9  UNL     1     -34.436  18.347  -2.194  1.00 20.00     0.041 C 
HETATM   10  C10 UNL     1     -32.950  17.968  -2.311  1.00 20.00     0.154 C 
HETATM   11  N12 UNL     1     -31.669  18.681   4.372  1.00 20.00    -0.191 NA
ENDROOT
BRANCH  10  12
HETATM   12  O13 UNL     1     -32.827  16.612  -2.706  1.00 20.00    -0.386 OA
HETATM   13  C11 UNL     1     -33.637  16.315  -3.839  1.00 20.00     0.202 C 
ENDBRANCH  10  12
TORSDOF 1
ENDMDL
MODEL 9
REMARK VINA RESULT:      -4.5      1.719      2.370
REMARK  1 active torsions:
REMARK  status: ('A' for Active; 'I' for Inactive)
REMARK    1  A    between atoms: C10_10  and  O13_13 
ROOT
HETATM    1  C1  UNL     1     -31.119  18.842   0.605  1.00 20.00     0.099 C 
HETATM    2  C2  UNL     1     -33.500  18.271   0.676  1.00 20.00     0.023 A 
HETATM    3  C3  UNL     1     -34.655  17.765   0.076  1.00 20.00     0.012 A 
HETATM    4  C4  UNL     1     -32.216  17.874  -1.353  1.00 20.00     0.030 A 
HETATM    5  C5  UNL     1     -32.290  18.326  -0.034  1.00 20.00     0.045 A 
HETATM    6  C6  UNL     1     -34.572  17.312  -1.230  1.00 20.00    -0.023 A 
HETATM    7  C7  UNL     1     -33.364  17.363  -1.935  1.00 20.00    -0.048 A 
HETATM    8  C8  UNL     1     -33.540  16.858  -3.333  1.00 20.00     0.042 C 
HETATM    9  C9  UNL     1     -34.859  16.075  -3.205  1.00 20.00     0.041 C 
HETATM   10  C10 UNL     1     -35.667  16.757  -2.088  1.00 20.00     0.154 C 
HETATM   11  N12 UNL     1     -30.169  19.262   1.123  1.00 20.00    -0.191 NA
ENDROOT
BRANCH  10  12
HETATM   12  O13 UNL     1     -36.454  17.804  -2.632  1.00 20.00    -0.386 OA
HETATM   13  C11 UNL     1     -37.279  17.347  -3.698  1.00 20.00     0.202 C 
ENDBRANCH  10  12
TORSDOF 1
ENDMDL
