MODEL 1
REMARK VINA RESULT:      -5.1      0.000      0.000
REMARK  2 active torsions:
REMARK  status: ('A' for Active; 'I' for Inactive)
REMARK    1  A    between atoms: C1_1  and  C6_6 
REMARK    2  A    between atoms: C7_7  and  C8_8 
ROOT
HETATM    1  C2  UNL     1     -33.642  15.158  -4.330  1.00 20.00     0.014 C 
HETATM    2  C3  UNL     1     -35.622  15.626  -2.837  1.00 20.00     0.014 C 
HETATM    3  C4  UNL     1     -32.748  15.986  -3.408  1.00 20.00     0.008 C 
HETATM    4  C5  UNL     1     -34.732  16.455  -1.913  1.00 20.00     0.008 C 
HETATM    5  C6  UNL     1     -34.816  14.558  -3.566  1.00 20.00     0.072 C 
HETATM    6  C7  UNL     1     -33.546  17.069  -2.670  1.00 20.00     0.014 C 
ENDROOT
BRANCH   5   7
HETATM    7  C1  UNL     1     -35.736  13.900  -4.578  1.00 20.00     0.223 C 
HETATM    8  O9  UNL     1     -35.949  12.692  -4.565  1.00 20.00    -0.279 OA
HETATM    9 CL11 UNL     1     -36.407  15.049  -5.696  1.00 20.00    -0.043 Cl
ENDBRANCH   5   7
BRANCH   6  10
HETATM   10  C8  UNL     1     -32.643  17.849  -1.716  1.00 20.00     0.226 C 
HETATM   11  F10 UNL     1     -33.191  17.793  -0.479  1.00 20.00    -0.255 F 
ENDBRANCH   6  10
TORSDOF 2
ENDMDL
MODEL 2
REMARK VINA RESULT:      -4.9      0.953      1.738
REMARK  2 active torsions:
REMARK  status: ('A' for Active; 'I' for Inactive)
REMARK    1  A    between atoms: C1_1  and  C6_6 
REMARK    2  A    between atoms: C7_7  and  C8_8 
ROOT
HETATM    1  C2  UNL     1     -35.993  15.917  -3.060  1.00 20.00     0.014 C 
HETATM    2  C3  UNL     1     -34.069  14.555  -3.962  1.00 20.00     0.014 C 
HETATM    3  C4  UNL     1     -35.028  17.044  -2.697  1.00 20.00     0.008 C 
HETATM    4  C5  UNL     1     -33.100  15.679  -3.600  1.00 20.00     0.008 C 
HETATM    5  C6  UNL     1     -35.467  15.097  -4.232  1.00 20.00     0.072 C 
HETATM    6  C7  UNL     1     -33.616  16.511  -2.418  1.00 20.00     0.014 C 
ENDROOT
BRANCH   5   7
HETATM    7  C1  UNL     1     -36.393  13.909  -4.415  1.00 20.00     0.223 C 
HETATM    8  O9  UNL     1     -35.961  12.778  -4.610  1.00 20.00    -0.279 OA
HETATM    9 CL11 UNL     1     -38.068  14.364  -4.312  1.00 20.00    -0.043 Cl
ENDBRANCH   5   7
BRANCH   6  10
HETATM   10  C8  UNL     1     -32.657  17.660  -2.109  1.00 20.00     0.226 C 
HETATM   11  F10 UNL     1     -32.626  17.832  -0.766  1.00 20.00    -0.255 F 
ENDBRANCH   6  10
TORSDOF 2
ENDMDL
MODEL 3
REMARK VINA RESULT:      -4.8     15.180     16.833
REMARK  2 active torsions:
REMARK  status: ('A' for Active; 'I' for Inactive)
REMARK    1  A    between atoms: C1_1  and  C6_6 
REMARK    2  A    between atoms: C7_7  and  C8_8 
ROOT
HETATM    1  C2  UNL     1     -25.201  18.751   9.246  1.00 20.00     0.014 C 
HETATM    2  C3  UNL     1     -22.910  18.133   8.388  1.00 20.00     0.014 C 
HETATM    3  C4  UNL     1     -24.704  18.609  10.684  1.00 20.00     0.008 C 
HETATM    4  C5  UNL     1     -22.408  17.989   9.823  1.00 20.00     0.008 C 
HETATM    5  C6  UNL     1     -24.064  19.124   8.304  1.00 20.00     0.072 C 
HETATM    6  C7  UNL     1     -23.543  17.609  10.784  1.00 20.00     0.014 C 
ENDROOT
BRANCH   5   7
HETATM    7  C1  UNL     1     -24.606  19.080   6.887  1.00 20.00     0.223 C 
HETATM    8  O9  UNL     1     -23.883  19.263   5.913  1.00 20.00    -0.279 OA
HETATM    9 CL11 UNL     1     -26.312  18.746   6.851  1.00 20.00    -0.043 Cl
ENDBRANCH   5   7
BRANCH   6  10
HETATM   10  C8  UNL     1     -23.028  17.522  12.220  1.00 20.00     0.226 C 
HETATM   11  F10 UNL     1     -21.685  17.697  12.195  1.00 20.00    -0.255 F 
ENDBRANCH   6  10
TORSDOF 2
ENDMDL
MODEL 4
REMARK VINA RESULT:      -4.7      1.367      1.478
REMARK  2 active torsions:
REMARK  status: ('A' for Active; 'I' for Inactive)
REMARK    1  A    between atoms: C1_1  and  C6_6 
REMARK    2  A    between atoms: C7_7  and  C8_8 
ROOT
HETATM    1  C2  UNL     1     -33.184  16.179  -3.610  1.00 20.00     0.014 C 
HETATM    2  C3  UNL     1     -35.480  15.704  -2.677  1.00 20.00     0.014 C 
HETATM    3  C4  UNL     1     -32.848  17.005  -2.368  1.00 20.00     0.008 C 
HETATM    4  C5  UNL     1     -35.149  16.529  -1.434  1.00 20.00     0.008 C 
HETATM    5  C6  UNL     1     -34.221  15.109  -3.296  1.00 20.00     0.072 C 
HETATM    6  C7  UNL     1     -34.107  17.615  -1.737  1.00 20.00     0.014 C 
ENDROOT
BRANCH   5   7
HETATM    7  C1  UNL     1     -34.618  14.454  -4.606  1.00 20.00     0.223 C 
HETATM    8  O9  UNL     1     -33.908  14.524  -5.603  1.00 20.00    -0.279 OA
HETATM    9 CL11 UNL     1     -36.145  13.631  -4.489  1.00 20.00    -0.043 Cl
ENDBRANCH   5   7
BRANCH   6  10
HETATM   10  C8  UNL     1     -33.754  18.391  -0.469  1.00 20.00     0.226 C 
HETATM   11  F10 UNL     1     -32.490  18.060  -0.113  1.00 20.00    -0.255 F 
ENDBRANCH   6  10
TORSDOF 2
ENDMDL
MODEL 5
REMARK VINA RESULT:      -4.5      1.451      2.205
REMARK  2 active torsions:
REMARK  status: ('A' for Active; 'I' for Inactive)
REMARK    1  A    between atoms: C1_1  and  C6_6 
REMARK    2  A    between atoms: C7_7  and  C8_8 
ROOT
HETATM    1  C2  UNL     1     -35.215  15.681  -2.297  1.00 20.00     0.014 C 
HETATM    2  C3  UNL     1     -32.961  16.177  -3.320  1.00 20.00     0.014 C 
HETATM    3  C4  UNL     1     -35.164  17.007  -1.539  1.00 20.00     0.008 C 
HETATM    4  C5  UNL     1     -32.906  17.503  -2.563  1.00 20.00     0.008 C 
HETATM    5  C6  UNL     1     -34.400  15.751  -3.583  1.00 20.00     0.072 C 
HETATM    6  C7  UNL     1     -33.720  17.445  -1.262  1.00 20.00     0.014 C 
ENDROOT
BRANCH   5   7
HETATM    7  C1  UNL     1     -34.365  14.357  -4.182  1.00 20.00     0.223 C 
HETATM    8  O9  UNL     1     -33.311  13.818  -4.500  1.00 20.00    -0.279 OA
HETATM    9 CL11 UNL     1     -35.956  13.673  -4.340  1.00 20.00    -0.043 Cl
ENDBRANCH   5   7
BRANCH   6  10
HETATM   10  C8  UNL     1     -33.693  18.797  -0.551  1.00 20.00     0.226 C 
HETATM   11  F10 UNL     1     -33.443  18.576   0.762  1.00 20.00    -0.255 F 
ENDBRANCH   6  10
TORSDOF 2
ENDMDL
MODEL 6
REMARK VINA RESULT:      -4.4      4.060      5.032
REMARK  2 active torsions:
REMARK  status: ('A' for Active; 'I' for Inactive)
REMARK    1  A    between atoms: C1_1  and  C6_6 
REMARK    2  A    between atoms: C7_7  and  C8_8 
ROOT
HETATM    1  C2  UNL     1     -32.668  17.243  -2.317  1.00 20.00     0.014 C 
HETATM    2  C3  UNL     1     -34.798  17.046  -0.978  1.00 20.00     0.014 C 
HETATM    3  C4  UNL     1     -33.282  16.389  -3.425  1.00 20.00     0.008 C 
HETATM    4  C5  UNL     1     -35.416  16.191  -2.083  1.00 20.00     0.008 C 
HETATM    5  C6  UNL     1     -33.742  17.991  -1.537  1.00 20.00     0.072 C 
HETATM    6  C7  UNL     1     -34.345  15.428  -2.875  1.00 20.00     0.014 C 
ENDROOT
BRANCH   5   7
HETATM    7  C1  UNL     1     -33.066  18.673  -0.362  1.00 20.00     0.223 C 
HETATM    8  O9  UNL     1     -33.711  19.263   0.499  1.00 20.00    -0.279 OA
HETATM    9 CL11 UNL     1     -31.337  18.502  -0.412  1.00 20.00    -0.043 Cl
ENDBRANCH   5   7
BRANCH   6  10
HETATM   10  C8  UNL     1     -34.983  14.624  -4.007  1.00 20.00     0.226 C 
HETATM   11  F10 UNL     1     -34.756  13.310  -3.768  1.00 20.00    -0.255 F 
ENDBRANCH   6  10
TORSDOF 2
ENDMDL
MODEL 7
REMARK VINA RESULT:      -4.3      1.241      1.707
REMARK  2 active torsions:
REMARK  status: ('A' for Active; 'I' for Inactive)
REMARK    1  A    between atoms: C1_1  and  C6_6 
REMARK    2  A    between atoms: C7_7  and  C8_8 
ROOT
HETATM    1  C2  UNL     1     -35.149  15.076  -2.996  1.00 20.00     0.014 C 
HETATM    2  C3  UNL     1     -34.833  16.328  -5.165  1.00 20.00     0.014 C 
HETATM    3  C4  UNL     1     -34.400  16.178  -2.248  1.00 20.00     0.008 C 
HETATM    4  C5  UNL     1     -34.083  17.431  -4.421  1.00 20.00     0.008 C 
HETATM    5  C6  UNL     1     -35.824  15.620  -4.249  1.00 20.00     0.072 C 
HETATM    6  C7  UNL     1     -33.394  16.896  -3.158  1.00 20.00     0.014 C 
ENDROOT
BRANCH   5   7
HETATM    7  C1  UNL     1     -36.396  14.441  -5.013  1.00 20.00     0.223 C 
HETATM    8  O9  UNL     1     -37.187  13.659  -4.495  1.00 20.00    -0.279 OA
HETATM    9 CL11 UNL     1     -35.799  14.368  -6.644  1.00 20.00    -0.043 Cl
ENDBRANCH   5   7
BRANCH   6  10
HETATM   10  C8  UNL     1     -32.696  18.027  -2.405  1.00 20.00     0.226 C 
HETATM   11  F10 UNL     1     -32.385  17.577  -1.166  1.00 20.00    -0.255 F 
ENDBRANCH   6  10
TORSDOF 2
ENDMDL
MODEL 8
REMARK VINA RESULT:      -4.3      3.817      5.008
REMARK  2 active torsions:
REMARK  status: ('A' for Active; 'I' for Inactive)
REMARK    1  A    between atoms: C1_1  and  C6_6 
REMARK    2  A    between atoms: C7_7  and  C8_8 
ROOT
HETATM    1  C2  UNL     1     -34.667  17.183  -1.658  1.00 20.00     0.014 C 
HETATM    2  C3  UNL     1     -32.822  16.954  -3.364  1.00 20.00     0.014 C 
HETATM    3  C4  UNL     1     -35.265  15.856  -2.123  1.00 20.00     0.008 C 
HETATM    4  C5  UNL     1     -33.417  15.627  -3.833  1.00 20.00     0.008 C 
HETATM    5  C6  UNL     1     -33.164  17.227  -1.905  1.00 20.00     0.072 C 
HETATM    6  C7  UNL     1     -34.932  15.571  -3.594  1.00 20.00     0.014 C 
ENDROOT
BRANCH   5   7
HETATM    7  C1  UNL     1     -32.684  18.628  -1.574  1.00 20.00     0.223 C 
HETATM    8  O9  UNL     1     -31.851  19.204  -2.265  1.00 20.00    -0.279 OA
HETATM    9 CL11 UNL     1     -33.450  19.261  -0.148  1.00 20.00    -0.043 Cl
ENDBRANCH   5   7
BRANCH   6  10
HETATM   10  C8  UNL     1     -35.495  14.216  -4.022  1.00 20.00     0.226 C 
HETATM   11  F10 UNL     1     -34.580  13.265  -3.714  1.00 20.00    -0.255 F 
ENDBRANCH   6  10
TORSDOF 2
ENDMDL
MODEL 9
REMARK VINA RESULT:      -4.3      1.750      2.369
REMARK  2 active torsions:
REMARK  status: ('A' for Active; 'I' for Inactive)
REMARK    1  A    between atoms: C1_1  and  C6_6 
REMARK    2  A    between atoms: C7_7  and  C8_8 
ROOT
HETATM    1  C2  UNL     1     -36.158  15.902  -4.154  1.00 20.00     0.014 C 
HETATM    2  C3  UNL     1     -33.720  15.322  -3.856  1.00 20.00     0.014 C 
HETATM    3  C4  UNL     1     -36.101  16.792  -2.913  1.00 20.00     0.008 C 
HETATM    4  C5  UNL     1     -33.658  16.210  -2.614  1.00 20.00     0.008 C 
HETATM    5  C6  UNL     1     -34.794  15.802  -4.824  1.00 20.00     0.072 C 
HETATM    6  C7  UNL     1     -35.026  16.317  -1.926  1.00 20.00     0.014 C 
ENDROOT
BRANCH   5   7
HETATM    7  C1  UNL     1     -34.902  14.776  -5.937  1.00 20.00     0.223 C 
HETATM    8  O9  UNL     1     -35.702  13.848  -5.883  1.00 20.00    -0.279 OA
HETATM    9 CL11 UNL     1     -33.784  15.094  -7.230  1.00 20.00    -0.043 Cl
ENDBRANCH   5   7
BRANCH   6  10
HETATM   10  C8  UNL     1     -34.950  17.251  -0.719  1.00 20.00     0.226 C 
HETATM   11  F10 UNL     1     -35.505  16.616   0.340  1.00 20.00    -0.255 F 
ENDBRANCH   6  10
TORSDOF 2
ENDMDL
