MODEL 1
REMARK VINA RESULT:      -4.6      0.000      0.000
REMARK  3 active torsions:
REMARK  status: ('A' for Active; 'I' for Inactive)
REMARK    1  A    between atoms: C1_1  and  C10_10 
REMARK    2  A    between atoms: C7_7  and  C8_8 
REMARK    3  A    between atoms: C9_9  and  C10_10 
ROOT
HETATM    1  C2  UNL     1     -32.670  15.270  -3.804  1.00 20.00     0.006 C 
HETATM    2  C3  UNL     1     -34.396  16.176  -2.252  1.00 20.00     0.006 C 
HETATM    3  C4  UNL     1     -33.759  14.452  -4.536  1.00 20.00     0.019 C 
HETATM    4  C5  UNL     1     -35.484  15.366  -2.984  1.00 20.00     0.019 C 
HETATM    5  C7  UNL     1     -33.280  16.575  -3.237  1.00 20.00    -0.010 C 
HETATM    6  C10 UNL     1     -35.115  15.203  -4.477  1.00 20.00     0.040 C 
ENDROOT
BRANCH   6   7
HETATM    7  C1  UNL     1     -36.188  14.418  -5.168  1.00 20.00     0.228 C 
HETATM    8  O11 UNL     1     -35.978  13.831  -6.225  1.00 20.00    -0.279 OA
HETATM    9 CL12 UNL     1     -37.691  14.457  -4.298  1.00 20.00    -0.043 Cl
ENDBRANCH   6   7
BRANCH   6  10
HETATM   10  C9  UNL     1     -34.896  16.558  -5.142  1.00 20.00     0.007 A 
HETATM   11  C6  UNL     1     -35.330  16.924  -6.540  1.00 20.00     0.011 A 
HETATM   12  C8  UNL     1     -36.207  17.272  -5.363  1.00 20.00    -0.005 A 
ENDBRANCH   6  10
TORSDOF 3
ENDMDL
MODEL 2
REMARK VINA RESULT:      -4.5      1.221      1.550
REMARK  3 active torsions:
REMARK  status: ('A' for Active; 'I' for Inactive)
REMARK    1  A    between atoms: C1_1  and  C10_10 
REMARK    2  A    between atoms: C7_7  and  C8_8 
REMARK    3  A    between atoms: C9_9  and  C10_10 
ROOT
HETATM    1  C2  UNL     1     -32.864  17.133  -2.418  1.00 20.00     0.006 C 
HETATM    2  C3  UNL     1     -35.136  16.615  -1.535  1.00 20.00     0.006 C 
HETATM    3  C4  UNL     1     -32.988  15.963  -3.421  1.00 20.00     0.019 C 
HETATM    4  C5  UNL     1     -35.263  15.452  -2.538  1.00 20.00     0.019 C 
HETATM    5  C7  UNL     1     -34.261  17.735  -2.132  1.00 20.00    -0.010 C 
HETATM    6  C10 UNL     1     -34.473  15.770  -3.828  1.00 20.00     0.040 C 
ENDROOT
BRANCH   6   7
HETATM    7  C1  UNL     1     -34.616  14.628  -4.789  1.00 20.00     0.228 C 
HETATM    8  O11 UNL     1     -33.820  14.456  -5.708  1.00 20.00    -0.279 OA
HETATM    9 CL12 UNL     1     -35.997  13.639  -4.429  1.00 20.00    -0.043 Cl
ENDBRANCH   6   7
BRANCH   6  10
HETATM   10  C9  UNL     1     -34.933  17.085  -4.448  1.00 20.00     0.007 A 
HETATM   11  C6  UNL     1     -35.080  17.348  -5.927  1.00 20.00     0.011 A 
HETATM   12  C8  UNL     1     -36.279  16.930  -5.112  1.00 20.00    -0.005 A 
ENDBRANCH   6  10
TORSDOF 3
ENDMDL
MODEL 3
REMARK VINA RESULT:      -4.5      1.338      1.419
REMARK  3 active torsions:
REMARK  status: ('A' for Active; 'I' for Inactive)
REMARK    1  A    between atoms: C1_1  and  C10_10 
REMARK    2  A    between atoms: C7_7  and  C8_8 
REMARK    3  A    between atoms: C9_9  and  C10_10 
ROOT
HETATM    1  C2  UNL     1     -33.392  16.082  -3.312  1.00 20.00     0.006 C 
HETATM    2  C3  UNL     1     -35.418  17.532  -3.333  1.00 20.00     0.006 C 
HETATM    3  C4  UNL     1     -34.288  14.830  -3.464  1.00 20.00     0.019 C 
HETATM    4  C5  UNL     1     -36.312  16.286  -3.489  1.00 20.00     0.019 C 
HETATM    5  C7  UNL     1     -34.055  17.294  -4.011  1.00 20.00    -0.010 C 
HETATM    6  C10 UNL     1     -35.562  15.185  -4.274  1.00 20.00     0.040 C 
ENDROOT
BRANCH   6   7
HETATM    7  C1  UNL     1     -36.451  13.988  -4.417  1.00 20.00     0.228 C 
HETATM    8  O11 UNL     1     -35.994  12.862  -4.587  1.00 20.00    -0.279 OA
HETATM    9 CL12 UNL     1     -38.134  14.406  -4.312  1.00 20.00    -0.043 Cl
ENDBRANCH   6   7
BRANCH   6  10
HETATM   10  C9  UNL     1     -35.090  15.698  -5.631  1.00 20.00     0.007 A 
HETATM   11  C6  UNL     1     -35.124  14.915  -6.920  1.00 20.00     0.011 A 
HETATM   12  C8  UNL     1     -36.250  15.860  -6.582  1.00 20.00    -0.005 A 
ENDBRANCH   6  10
TORSDOF 3
ENDMDL
MODEL 4
REMARK VINA RESULT:      -4.4      1.384      1.486
REMARK  3 active torsions:
REMARK  status: ('A' for Active; 'I' for Inactive)
REMARK    1  A    between atoms: C1_1  and  C10_10 
REMARK    2  A    between atoms: C7_7  and  C8_8 
REMARK    3  A    between atoms: C9_9  and  C10_10 
ROOT
HETATM    1  C2  UNL     1     -33.637  14.025  -3.992  1.00 20.00     0.006 C 
HETATM    2  C3  UNL     1     -34.042  16.132  -2.725  1.00 20.00     0.006 C 
HETATM    3  C4  UNL     1     -35.162  13.773  -4.056  1.00 20.00     0.019 C 
HETATM    4  C5  UNL     1     -35.561  15.885  -2.793  1.00 20.00     0.019 C 
HETATM    5  C7  UNL     1     -33.354  15.547  -3.973  1.00 20.00    -0.010 C 
HETATM    6  C10 UNL     1     -35.921  15.125  -4.090  1.00 20.00     0.040 C 
ENDROOT
BRANCH   6   7
HETATM    7  C1  UNL     1     -37.402  14.900  -4.137  1.00 20.00     0.228 C 
HETATM    8  O11 UNL     1     -37.881  13.823  -4.479  1.00 20.00    -0.279 OA
HETATM    9 CL12 UNL     1     -38.293  16.313  -3.659  1.00 20.00    -0.043 Cl
ENDBRANCH   6   7
BRANCH   6  10
HETATM   10  C9  UNL     1     -35.430  15.874  -5.324  1.00 20.00     0.007 A 
HETATM   11  C6  UNL     1     -35.640  15.436  -6.752  1.00 20.00     0.011 A 
HETATM   12  C8  UNL     1     -36.586  16.427  -6.120  1.00 20.00    -0.005 A 
ENDBRANCH   6  10
TORSDOF 3
ENDMDL
MODEL 5
REMARK VINA RESULT:      -4.4      1.158      3.187
REMARK  3 active torsions:
REMARK  status: ('A' for Active; 'I' for Inactive)
REMARK    1  A    between atoms: C1_1  and  C10_10 
REMARK    2  A    between atoms: C7_7  and  C8_8 
REMARK    3  A    between atoms: C9_9  and  C10_10 
ROOT
HETATM    1  C2  UNL     1     -36.112  17.411  -6.485  1.00 20.00     0.006 C 
HETATM    2  C3  UNL     1     -34.220  15.911  -7.099  1.00 20.00     0.006 C 
HETATM    3  C4  UNL     1     -36.866  16.209  -5.872  1.00 20.00     0.019 C 
HETATM    4  C5  UNL     1     -34.968  14.712  -6.484  1.00 20.00     0.019 C 
HETATM    5  C7  UNL     1     -34.584  17.205  -6.346  1.00 20.00    -0.010 C 
HETATM    6  C10 UNL     1     -35.852  15.181  -5.305  1.00 20.00     0.040 C 
ENDROOT
BRANCH   6   7
HETATM    7  C1  UNL     1     -36.564  13.999  -4.720  1.00 20.00     0.228 C 
HETATM    8  O11 UNL     1     -36.039  12.891  -4.670  1.00 20.00    -0.279 OA
HETATM    9 CL12 UNL     1     -38.154  14.408  -4.154  1.00 20.00    -0.043 Cl
ENDBRANCH   6   7
BRANCH   6  10
HETATM   10  C9  UNL     1     -35.026  15.914  -4.253  1.00 20.00     0.007 A 
HETATM   11  C6  UNL     1     -35.089  15.667  -2.766  1.00 20.00     0.011 A 
HETATM   12  C8  UNL     1     -34.033  14.985  -3.599  1.00 20.00    -0.005 A 
ENDBRANCH   6  10
TORSDOF 3
ENDMDL
MODEL 6
REMARK VINA RESULT:      -4.2      1.715      2.871
REMARK  3 active torsions:
REMARK  status: ('A' for Active; 'I' for Inactive)
REMARK    1  A    between atoms: C1_1  and  C10_10 
REMARK    2  A    between atoms: C7_7  and  C8_8 
REMARK    3  A    between atoms: C9_9  and  C10_10 
ROOT
HETATM    1  C2  UNL     1     -35.677  17.652  -3.029  1.00 20.00     0.006 C 
HETATM    2  C3  UNL     1     -33.651  16.370  -2.351  1.00 20.00     0.006 C 
HETATM    3  C4  UNL     1     -35.456  17.224  -4.498  1.00 20.00     0.019 C 
HETATM    4  C5  UNL     1     -33.432  15.938  -3.815  1.00 20.00     0.019 C 
HETATM    5  C7  UNL     1     -35.156  16.552  -2.073  1.00 20.00    -0.010 C 
HETATM    6  C10 UNL     1     -34.789  15.825  -4.547  1.00 20.00     0.040 C 
ENDROOT
BRANCH   6   7
HETATM    7  C1  UNL     1     -34.551  15.399  -5.964  1.00 20.00     0.228 C 
HETATM    8  O11 UNL     1     -33.625  14.652  -6.266  1.00 20.00    -0.279 OA
HETATM    9 CL12 UNL     1     -35.718  16.080  -7.056  1.00 20.00    -0.043 Cl
ENDBRANCH   6   7
BRANCH   6  10
HETATM   10  C9  UNL     1     -35.728  14.865  -3.824  1.00 20.00     0.007 A 
HETATM   11  C6  UNL     1     -36.738  13.964  -4.492  1.00 20.00     0.011 A 
HETATM   12  C8  UNL     1     -35.375  13.430  -4.126  1.00 20.00    -0.005 A 
ENDBRANCH   6  10
TORSDOF 3
ENDMDL
MODEL 7
REMARK VINA RESULT:      -4.0      2.641      3.603
REMARK  3 active torsions:
REMARK  status: ('A' for Active; 'I' for Inactive)
REMARK    1  A    between atoms: C1_1  and  C10_10 
REMARK    2  A    between atoms: C7_7  and  C8_8 
REMARK    3  A    between atoms: C9_9  and  C10_10 
ROOT
HETATM    1  C2  UNL     1     -35.710  14.375  -4.103  1.00 20.00     0.006 C 
HETATM    2  C3  UNL     1     -33.424  14.656  -5.051  1.00 20.00     0.006 C 
HETATM    3  C4  UNL     1     -35.283  15.161  -2.841  1.00 20.00     0.019 C 
HETATM    4  C5  UNL     1     -32.998  15.444  -3.797  1.00 20.00     0.019 C 
HETATM    5  C7  UNL     1     -34.921  14.881  -5.334  1.00 20.00    -0.010 C 
HETATM    6  C10 UNL     1     -34.205  16.212  -3.213  1.00 20.00     0.040 C 
ENDROOT
BRANCH   6   7
HETATM    7  C1  UNL     1     -33.766  16.974  -1.999  1.00 20.00     0.228 C 
HETATM    8  O11 UNL     1     -32.639  17.451  -1.910  1.00 20.00    -0.279 OA
HETATM    9 CL12 UNL     1     -35.021  17.078  -0.802  1.00 20.00    -0.043 Cl
ENDBRANCH   6   7
BRANCH   6  10
HETATM   10  C9  UNL     1     -34.831  17.133  -4.255  1.00 20.00     0.007 A 
HETATM   11  C6  UNL     1     -35.276  18.553  -4.010  1.00 20.00     0.011 A 
HETATM   12  C8  UNL     1     -33.910  18.281  -4.588  1.00 20.00    -0.005 A 
ENDBRANCH   6  10
TORSDOF 3
ENDMDL
MODEL 8
REMARK VINA RESULT:      -4.0      2.166      3.309
REMARK  3 active torsions:
REMARK  status: ('A' for Active; 'I' for Inactive)
REMARK    1  A    between atoms: C1_1  and  C10_10 
REMARK    2  A    between atoms: C7_7  and  C8_8 
REMARK    3  A    between atoms: C9_9  and  C10_10 
ROOT
HETATM    1  C2  UNL     1     -33.776  14.904  -5.174  1.00 20.00     0.006 C 
HETATM    2  C3  UNL     1     -35.788  13.812  -4.192  1.00 20.00     0.006 C 
HETATM    3  C4  UNL     1     -34.468  16.282  -5.055  1.00 20.00     0.019 C 
HETATM    4  C5  UNL     1     -36.477  15.185  -4.068  1.00 20.00     0.019 C 
HETATM    5  C7  UNL     1     -34.263  13.969  -4.041  1.00 20.00    -0.010 C 
HETATM    6  C10 UNL     1     -35.423  16.291  -3.833  1.00 20.00     0.040 C 
ENDROOT
BRANCH   6   7
HETATM    7  C1  UNL     1     -36.116  17.615  -3.710  1.00 20.00     0.228 C 
HETATM    8  O11 UNL     1     -35.545  18.668  -3.978  1.00 20.00    -0.279 OA
HETATM    9 CL12 UNL     1     -37.756  17.446  -3.165  1.00 20.00    -0.043 Cl
ENDBRANCH   6   7
BRANCH   6  10
HETATM   10  C9  UNL     1     -34.570  15.990  -2.606  1.00 20.00     0.007 A 
HETATM   11  C6  UNL     1     -33.824  17.016  -1.789  1.00 20.00     0.011 A 
HETATM   12  C8  UNL     1     -35.195  16.560  -1.357  1.00 20.00    -0.005 A 
ENDBRANCH   6  10
TORSDOF 3
ENDMDL
MODEL 9
REMARK VINA RESULT:      -4.0      3.025      4.203
REMARK  3 active torsions:
REMARK  status: ('A' for Active; 'I' for Inactive)
REMARK    1  A    between atoms: C1_1  and  C10_10 
REMARK    2  A    between atoms: C7_7  and  C8_8 
REMARK    3  A    between atoms: C9_9  and  C10_10 
ROOT
HETATM    1  C2  UNL     1     -34.106  14.486  -3.837  1.00 20.00     0.006 C 
HETATM    2  C3  UNL     1     -35.879  15.910  -4.854  1.00 20.00     0.006 C 
HETATM    3  C4  UNL     1     -33.329  15.755  -3.417  1.00 20.00     0.019 C 
HETATM    4  C5  UNL     1     -35.108  17.176  -4.432  1.00 20.00     0.019 C 
HETATM    5  C7  UNL     1     -35.627  14.775  -3.844  1.00 20.00    -0.010 C 
HETATM    6  C10 UNL     1     -34.320  16.912  -3.128  1.00 20.00     0.040 C 
ENDROOT
BRANCH   6   7
HETATM    7  C1  UNL     1     -33.584  18.156  -2.735  1.00 20.00     0.228 C 
HETATM    8  O11 UNL     1     -33.925  19.263  -3.142  1.00 20.00    -0.279 OA
HETATM    9 CL12 UNL     1     -32.250  17.819  -1.674  1.00 20.00    -0.043 Cl
ENDBRANCH   6   7
BRANCH   6  10
HETATM   10  C9  UNL     1     -35.243  16.431  -2.013  1.00 20.00     0.007 A 
HETATM   11  C6  UNL     1     -35.242  16.948  -0.596  1.00 20.00     0.011 A 
HETATM   12  C8  UNL     1     -36.210  17.514  -1.604  1.00 20.00    -0.005 A 
ENDBRANCH   6  10
TORSDOF 3
ENDMDL
