MODEL 1
REMARK VINA RESULT:      -4.8      0.000      0.000
REMARK  1 active torsions:
REMARK  status: ('A' for Active; 'I' for Inactive)
REMARK    1  A    between atoms: C1_1  and  C5_5 
ROOT
HETATM    1  C2  UNL     1     -33.627  14.415  -4.204  1.00 20.00     0.013 C 
HETATM    2  C3  UNL     1     -33.111  15.716  -3.596  1.00 20.00     0.009 C 
HETATM    3  C4  UNL     1     -35.260  16.224  -4.507  1.00 20.00     0.021 C 
HETATM    4  C5  UNL     1     -34.931  14.784  -4.920  1.00 20.00     0.055 C 
HETATM    5  C6  UNL     1     -34.375  16.527  -3.286  1.00 20.00    -0.047 C 
HETATM    6  C8  UNL     1     -34.066  18.022  -3.173  1.00 20.00     0.015 C 
HETATM    7  C9  UNL     1     -35.040  16.054  -1.984  1.00 20.00     0.015 C 
ENDROOT
BRANCH   4   8
HETATM    8  C1  UNL     1     -36.036  13.837  -4.562  1.00 20.00     0.127 C 
HETATM    9  C7  UNL     1     -37.397  14.439  -4.336  1.00 20.00     0.091 C 
HETATM   10  O10 UNL     1     -35.842  12.627  -4.459  1.00 20.00    -0.298 OA
ENDBRANCH   4   8
TORSDOF 1
ENDMDL
MODEL 2
REMARK VINA RESULT:      -4.7      1.566      2.207
REMARK  1 active torsions:
REMARK  status: ('A' for Active; 'I' for Inactive)
REMARK    1  A    between atoms: C1_1  and  C5_5 
ROOT
HETATM    1  C2  UNL     1     -35.429  15.033  -3.126  1.00 20.00     0.013 C 
HETATM    2  C3  UNL     1     -34.918  16.059  -2.119  1.00 20.00     0.009 C 
HETATM    3  C4  UNL     1     -33.112  15.672  -3.635  1.00 20.00     0.021 C 
HETATM    4  C5  UNL     1     -34.221  14.676  -3.999  1.00 20.00     0.055 C 
HETATM    5  C6  UNL     1     -33.802  16.807  -2.858  1.00 20.00    -0.047 C 
HETATM    6  C8  UNL     1     -32.839  17.485  -1.881  1.00 20.00     0.015 C 
HETATM    7  C9  UNL     1     -34.375  17.867  -3.813  1.00 20.00     0.015 C 
ENDROOT
BRANCH   4   8
HETATM    8  C1  UNL     1     -34.564  14.735  -5.456  1.00 20.00     0.127 C 
HETATM    9  C7  UNL     1     -36.015  14.930  -5.804  1.00 20.00     0.091 C 
HETATM   10  O10 UNL     1     -33.701  14.631  -6.327  1.00 20.00    -0.298 OA
ENDBRANCH   4   8
TORSDOF 1
ENDMDL
MODEL 3
REMARK VINA RESULT:      -4.5     17.393     18.469
REMARK  1 active torsions:
REMARK  status: ('A' for Active; 'I' for Inactive)
REMARK    1  A    between atoms: C1_1  and  C5_5 
ROOT
HETATM    1  C2  UNL     1     -21.756  18.034  10.363  1.00 20.00     0.013 C 
HETATM    2  C3  UNL     1     -22.594  17.798  11.616  1.00 20.00     0.009 C 
HETATM    3  C4  UNL     1     -24.099  18.658   9.972  1.00 20.00     0.021 C 
HETATM    4  C5  UNL     1     -22.691  18.727   9.367  1.00 20.00     0.055 C 
HETATM    5  C6  UNL     1     -24.025  17.611  11.097  1.00 20.00    -0.047 C 
HETATM    6  C8  UNL     1     -25.058  17.887  12.192  1.00 20.00     0.015 C 
HETATM    7  C9  UNL     1     -24.242  16.190  10.551  1.00 20.00     0.015 C 
ENDROOT
BRANCH   4   8
HETATM    8  C1  UNL     1     -22.634  18.075   8.019  1.00 20.00     0.127 C 
HETATM    9  C7  UNL     1     -21.516  17.094   7.788  1.00 20.00     0.091 C 
HETATM   10  O10 UNL     1     -23.461  18.327   7.144  1.00 20.00    -0.298 OA
ENDBRANCH   4   8
TORSDOF 1
ENDMDL
MODEL 4
REMARK VINA RESULT:      -4.2      1.071      2.083
REMARK  1 active torsions:
REMARK  status: ('A' for Active; 'I' for Inactive)
REMARK    1  A    between atoms: C1_1  and  C5_5 
ROOT
HETATM    1  C2  UNL     1     -36.151  16.531  -4.700  1.00 20.00     0.013 C 
HETATM    2  C3  UNL     1     -35.324  17.386  -3.744  1.00 20.00     0.009 C 
HETATM    3  C4  UNL     1     -35.391  15.201  -2.780  1.00 20.00     0.021 C 
HETATM    4  C5  UNL     1     -36.320  15.177  -4.001  1.00 20.00     0.055 C 
HETATM    5  C6  UNL     1     -34.433  16.384  -3.000  1.00 20.00    -0.047 C 
HETATM    6  C8  UNL     1     -33.934  16.959  -1.672  1.00 20.00     0.015 C 
HETATM    7  C9  UNL     1     -33.222  15.970  -3.852  1.00 20.00     0.015 C 
ENDROOT
BRANCH   4   8
HETATM    8  C1  UNL     1     -35.994  14.042  -4.924  1.00 20.00     0.127 C 
HETATM    9  C7  UNL     1     -35.669  14.399  -6.349  1.00 20.00     0.091 C 
HETATM   10  O10 UNL     1     -35.990  12.875  -4.535  1.00 20.00    -0.298 OA
ENDBRANCH   4   8
TORSDOF 1
ENDMDL
MODEL 5
REMARK VINA RESULT:      -4.2      1.277      1.277
REMARK  1 active torsions:
REMARK  status: ('A' for Active; 'I' for Inactive)
REMARK    1  A    between atoms: C1_1  and  C5_5 
ROOT
HETATM    1  C2  UNL     1     -33.519  14.601  -4.897  1.00 20.00     0.013 C 
HETATM    2  C3  UNL     1     -32.872  15.353  -3.738  1.00 20.00     0.009 C 
HETATM    3  C4  UNL     1     -34.502  16.840  -4.655  1.00 20.00     0.021 C 
HETATM    4  C5  UNL     1     -34.450  15.613  -5.575  1.00 20.00     0.055 C 
HETATM    5  C6  UNL     1     -33.924  16.380  -3.305  1.00 20.00    -0.047 C 
HETATM    6  C8  UNL     1     -33.289  17.544  -2.540  1.00 20.00     0.015 C 
HETATM    7  C9  UNL     1     -35.008  15.736  -2.425  1.00 20.00     0.015 C 
ENDROOT
BRANCH   4   8
HETATM    8  C1  UNL     1     -35.813  15.033  -5.803  1.00 20.00     0.127 C 
HETATM    9  C7  UNL     1     -36.980  15.976  -5.685  1.00 20.00     0.091 C 
HETATM   10  O10 UNL     1     -35.971  13.844  -6.075  1.00 20.00    -0.298 OA
ENDBRANCH   4   8
TORSDOF 1
ENDMDL
MODEL 6
REMARK VINA RESULT:      -4.2     11.454     12.255
REMARK  1 active torsions:
REMARK  status: ('A' for Active; 'I' for Inactive)
REMARK    1  A    between atoms: C1_1  and  C5_5 
ROOT
HETATM    1  C2  UNL     1     -33.644   4.688   3.358  1.00 20.00     0.013 C 
HETATM    2  C3  UNL     1     -32.978   5.427   2.201  1.00 20.00     0.009 C 
HETATM    3  C4  UNL     1     -34.264   7.065   3.371  1.00 20.00     0.021 C 
HETATM    4  C5  UNL     1     -34.585   5.707   4.009  1.00 20.00     0.055 C 
HETATM    5  C6  UNL     1     -32.911   6.888   2.660  1.00 20.00    -0.047 C 
HETATM    6  C8  UNL     1     -32.773   7.843   1.471  1.00 20.00     0.015 C 
HETATM    7  C9  UNL     1     -31.739   7.119   3.627  1.00 20.00     0.015 C 
ENDROOT
BRANCH   4   8
HETATM    8  C1  UNL     1     -34.411   5.738   5.498  1.00 20.00     0.127 C 
HETATM    9  C7  UNL     1     -33.993   7.050   6.104  1.00 20.00     0.091 C 
HETATM   10  O10 UNL     1     -34.602   4.739   6.190  1.00 20.00    -0.298 OA
ENDBRANCH   4   8
TORSDOF 1
ENDMDL
MODEL 7
REMARK VINA RESULT:      -4.1      1.607      2.568
REMARK  1 active torsions:
REMARK  status: ('A' for Active; 'I' for Inactive)
REMARK    1  A    between atoms: C1_1  and  C5_5 
ROOT
HETATM    1  C2  UNL     1     -35.281  16.888  -4.776  1.00 20.00     0.013 C 
HETATM    2  C3  UNL     1     -35.404  17.564  -3.414  1.00 20.00     0.009 C 
HETATM    3  C4  UNL     1     -35.037  15.245  -2.967  1.00 20.00     0.021 C 
HETATM    4  C5  UNL     1     -35.202  15.386  -4.486  1.00 20.00     0.055 C 
HETATM    5  C6  UNL     1     -34.643  16.641  -2.453  1.00 20.00    -0.047 C 
HETATM    6  C8  UNL     1     -35.088  16.853  -1.004  1.00 20.00     0.015 C 
HETATM    7  C9  UNL     1     -33.125  16.862  -2.549  1.00 20.00     0.015 C 
ENDROOT
BRANCH   4   8
HETATM    8  C1  UNL     1     -34.068  14.745  -5.228  1.00 20.00     0.127 C 
HETATM    9  C7  UNL     1     -33.951  15.065  -6.694  1.00 20.00     0.091 C 
HETATM   10  O10 UNL     1     -33.270  13.997  -4.666  1.00 20.00    -0.298 OA
ENDBRANCH   4   8
TORSDOF 1
ENDMDL
MODEL 8
REMARK VINA RESULT:      -4.1      1.696      2.733
REMARK  1 active torsions:
REMARK  status: ('A' for Active; 'I' for Inactive)
REMARK    1  A    between atoms: C1_1  and  C5_5 
ROOT
HETATM    1  C2  UNL     1     -35.315  15.953  -2.279  1.00 20.00     0.013 C 
HETATM    2  C3  UNL     1     -34.541  16.935  -1.405  1.00 20.00     0.009 C 
HETATM    3  C4  UNL     1     -33.034  16.264  -3.133  1.00 20.00     0.021 C 
HETATM    4  C5  UNL     1     -34.299  15.411  -3.290  1.00 20.00     0.055 C 
HETATM    5  C6  UNL     1     -33.457  17.505  -2.328  1.00 20.00    -0.047 C 
HETATM    6  C8  UNL     1     -32.287  18.082  -1.528  1.00 20.00     0.015 C 
HETATM    7  C9  UNL     1     -34.024  18.599  -3.247  1.00 20.00     0.015 C 
ENDROOT
BRANCH   4   8
HETATM    8  C1  UNL     1     -34.837  15.467  -4.688  1.00 20.00     0.127 C 
HETATM    9  C7  UNL     1     -33.942  14.945  -5.779  1.00 20.00     0.091 C 
HETATM   10  O10 UNL     1     -35.956  15.916  -4.931  1.00 20.00    -0.298 OA
ENDBRANCH   4   8
TORSDOF 1
ENDMDL
MODEL 9
REMARK VINA RESULT:      -4.1     10.129     11.911
REMARK  1 active torsions:
REMARK  status: ('A' for Active; 'I' for Inactive)
REMARK    1  A    between atoms: C1_1  and  C5_5 
ROOT
HETATM    1  C2  UNL     1     -42.915   5.918   0.662  1.00 20.00     0.013 C 
HETATM    2  C3  UNL     1     -42.939   7.413   0.969  1.00 20.00     0.009 C 
HETATM    3  C4  UNL     1     -40.918   7.023  -0.245  1.00 20.00     0.021 C 
HETATM    4  C5  UNL     1     -41.549   5.650   0.022  1.00 20.00     0.055 C 
HETATM    5  C6  UNL     1     -42.060   8.046  -0.117  1.00 20.00    -0.047 C 
HETATM    6  C8  UNL     1     -41.540   9.419   0.314  1.00 20.00     0.015 C 
HETATM    7  C9  UNL     1     -42.826   8.194  -1.442  1.00 20.00     0.015 C 
ENDROOT
BRANCH   4   8
HETATM    8  C1  UNL     1     -41.683   4.847  -1.236  1.00 20.00     0.127 C 
HETATM    9  C7  UNL     1     -43.082   4.547  -1.703  1.00 20.00     0.091 C 
HETATM   10  O10 UNL     1     -40.697   4.454  -1.859  1.00 20.00    -0.298 OA
ENDBRANCH   4   8
TORSDOF 1
ENDMDL
