MODEL 1
REMARK VINA RESULT:      -4.2      0.000      0.000
REMARK  1 active torsions:
REMARK  status: ('A' for Active; 'I' for Inactive)
REMARK    1  A    between atoms: C1_1  and  C7_7 
ROOT
HETATM    1  C2  UNL     1     -22.386  17.851  11.294  1.00 20.00     0.048 C 
HETATM    2  C3  UNL     1     -23.785  18.738   9.432  1.00 20.00     0.048 C 
HETATM    3  C4  UNL     1     -23.659  17.709  12.130  1.00 20.00     0.273 C 
HETATM    4  C5  UNL     1     -25.014  18.569  10.327  1.00 20.00     0.273 C 
HETATM    5  C6  UNL     1     -23.967  16.510  10.175  1.00 20.00     0.288 C 
HETATM    6  C7  UNL     1     -22.915  17.566   9.888  1.00 20.00     0.042 C 
HETATM    7  N8  UNL     1     -24.716  17.355  11.140  1.00 20.00     0.089 N 
ENDROOT
BRANCH   6   8
HETATM    8  C1  UNL     1     -21.875  17.158   8.901  1.00 20.00     0.242 C 
HETATM    9  O9  UNL     1     -22.135  16.761   7.771  1.00 20.00    -0.306 OA
ENDBRANCH   6   8
TORSDOF 1
ENDMDL
MODEL 2
REMARK VINA RESULT:      -4.1     17.867     18.594
REMARK  1 active torsions:
REMARK  status: ('A' for Active; 'I' for Inactive)
REMARK    1  A    between atoms: C1_1  and  C7_7 
ROOT
HETATM    1  C2  UNL     1     -35.186  15.686  -2.464  1.00 20.00     0.048 C 
HETATM    2  C3  UNL     1     -34.637  13.854  -4.061  1.00 20.00     0.048 C 
HETATM    3  C4  UNL     1     -33.813  16.296  -2.753  1.00 20.00     0.273 C 
HETATM    4  C5  UNL     1     -33.280  14.521  -4.299  1.00 20.00     0.273 C 
HETATM    5  C6  UNL     1     -34.925  16.082  -4.772  1.00 20.00     0.288 C 
HETATM    6  C7  UNL     1     -35.533  15.069  -3.818  1.00 20.00     0.042 C 
HETATM    7  N8  UNL     1     -33.562  15.981  -4.188  1.00 20.00     0.089 N 
ENDROOT
BRANCH   6   8
HETATM    8  C1  UNL     1     -36.986  14.808  -4.031  1.00 20.00     0.242 C 
HETATM    9  O9  UNL     1     -37.429  13.734  -4.421  1.00 20.00    -0.306 OA
ENDBRANCH   6   8
TORSDOF 1
ENDMDL
MODEL 3
REMARK VINA RESULT:      -4.1     17.810     18.542
REMARK  1 active torsions:
REMARK  status: ('A' for Active; 'I' for Inactive)
REMARK    1  A    between atoms: C1_1  and  C7_7 
ROOT
HETATM    1  C2  UNL     1     -35.433  16.147  -5.038  1.00 20.00     0.048 C 
HETATM    2  C3  UNL     1     -35.275  15.375  -2.674  1.00 20.00     0.048 C 
HETATM    3  C4  UNL     1     -34.097  16.869  -4.850  1.00 20.00     0.273 C 
HETATM    4  C5  UNL     1     -33.944  16.123  -2.560  1.00 20.00     0.273 C 
HETATM    5  C6  UNL     1     -33.768  14.638  -4.329  1.00 20.00     0.288 C 
HETATM    6  C7  UNL     1     -35.246  14.928  -4.136  1.00 20.00     0.042 C 
HETATM    7  N8  UNL     1     -33.332  15.996  -3.915  1.00 20.00     0.089 N 
ENDROOT
BRANCH   6   8
HETATM    8  C1  UNL     1     -36.150  13.782  -4.441  1.00 20.00     0.242 C 
HETATM    9  O9  UNL     1     -35.775  12.615  -4.474  1.00 20.00    -0.306 OA
ENDBRANCH   6   8
TORSDOF 1
ENDMDL
MODEL 4
REMARK VINA RESULT:      -4.0     17.916     18.586
REMARK  1 active torsions:
REMARK  status: ('A' for Active; 'I' for Inactive)
REMARK    1  A    between atoms: C1_1  and  C7_7 
ROOT
HETATM    1  C2  UNL     1     -33.751  14.538  -4.189  1.00 20.00     0.048 C 
HETATM    2  C3  UNL     1     -35.417  16.025  -5.295  1.00 20.00     0.048 C 
HETATM    3  C4  UNL     1     -33.167  15.772  -3.498  1.00 20.00     0.273 C 
HETATM    4  C5  UNL     1     -34.780  17.213  -4.570  1.00 20.00     0.273 C 
HETATM    5  C6  UNL     1     -35.418  15.669  -2.966  1.00 20.00     0.288 C 
HETATM    6  C7  UNL     1     -35.232  14.908  -4.267  1.00 20.00     0.042 C 
HETATM    7  N8  UNL     1     -34.345  16.654  -3.257  1.00 20.00     0.089 N 
ENDROOT
BRANCH   6   8
HETATM    8  C1  UNL     1     -36.155  13.752  -4.450  1.00 20.00     0.242 C 
HETATM    9  O9  UNL     1     -35.778  12.587  -4.501  1.00 20.00    -0.306 OA
ENDBRANCH   6   8
TORSDOF 1
ENDMDL
MODEL 5
REMARK VINA RESULT:      -3.9     23.316     24.145
REMARK  1 active torsions:
REMARK  status: ('A' for Active; 'I' for Inactive)
REMARK    1  A    between atoms: C1_1  and  C7_7 
ROOT
HETATM    1  C2  UNL     1     -42.486   6.874   0.991  1.00 20.00     0.048 C 
HETATM    2  C3  UNL     1     -43.206   7.545  -1.298  1.00 20.00     0.048 C 
HETATM    3  C4  UNL     1     -42.718   5.415   0.594  1.00 20.00     0.273 C 
HETATM    4  C5  UNL     1     -43.417   6.064  -1.623  1.00 20.00     0.273 C 
HETATM    5  C6  UNL     1     -41.225   6.326  -0.922  1.00 20.00     0.288 C 
HETATM    6  C7  UNL     1     -42.021   7.478  -0.334  1.00 20.00     0.042 C 
HETATM    7  N8  UNL     1     -42.353   5.361  -0.850  1.00 20.00     0.089 N 
ENDROOT
BRANCH   6   8
HETATM    8  C1  UNL     1     -41.265   8.756  -0.207  1.00 20.00     0.242 C 
HETATM    9  O9  UNL     1     -41.737   9.774   0.286  1.00 20.00    -0.306 OA
ENDBRANCH   6   8
TORSDOF 1
ENDMDL
MODEL 6
REMARK VINA RESULT:      -3.8     18.429     19.167
REMARK  1 active torsions:
REMARK  status: ('A' for Active; 'I' for Inactive)
REMARK    1  A    between atoms: C1_1  and  C7_7 
ROOT
HETATM    1  C2  UNL     1     -35.398  15.337  -5.667  1.00 20.00     0.048 C 
HETATM    2  C3  UNL     1     -35.231  15.982  -3.266  1.00 20.00     0.048 C 
HETATM    3  C4  UNL     1     -33.909  14.988  -5.636  1.00 20.00     0.273 C 
HETATM    4  C5  UNL     1     -33.746  15.614  -3.311  1.00 20.00     0.273 C 
HETATM    5  C6  UNL     1     -34.953  13.754  -3.979  1.00 20.00     0.288 C 
HETATM    6  C7  UNL     1     -35.824  14.969  -4.245  1.00 20.00     0.042 C 
HETATM    7  N8  UNL     1     -33.679  14.465  -4.259  1.00 20.00     0.089 N 
ENDROOT
BRANCH   6   8
HETATM    8  C1  UNL     1     -37.287  14.737  -4.072  1.00 20.00     0.242 C 
HETATM    9  O9  UNL     1     -37.853  13.707  -4.418  1.00 20.00    -0.306 OA
ENDBRANCH   6   8
TORSDOF 1
ENDMDL
MODEL 7
REMARK VINA RESULT:      -3.7     18.526     19.201
REMARK  1 active torsions:
REMARK  status: ('A' for Active; 'I' for Inactive)
REMARK    1  A    between atoms: C1_1  and  C7_7 
ROOT
HETATM    1  C2  UNL     1     -34.073  14.709  -3.903  1.00 20.00     0.048 C 
HETATM    2  C3  UNL     1     -34.900  15.069  -6.226  1.00 20.00     0.048 C 
HETATM    3  C4  UNL     1     -33.588  16.160  -3.893  1.00 20.00     0.273 C 
HETATM    4  C5  UNL     1     -34.388  16.509  -6.144  1.00 20.00     0.273 C 
HETATM    5  C6  UNL     1     -35.851  16.180  -4.379  1.00 20.00     0.288 C 
HETATM    6  C7  UNL     1     -35.322  14.814  -4.779  1.00 20.00     0.042 C 
HETATM    7  N8  UNL     1     -34.592  16.893  -4.717  1.00 20.00     0.089 N 
ENDROOT
BRANCH   6   8
HETATM    8  C1  UNL     1     -36.295  13.696  -4.614  1.00 20.00     0.242 C 
HETATM    9  O9  UNL     1     -35.965  12.549  -4.339  1.00 20.00    -0.306 OA
ENDBRANCH   6   8
TORSDOF 1
ENDMDL
MODEL 8
REMARK VINA RESULT:      -3.7      1.290      2.142
REMARK  1 active torsions:
REMARK  status: ('A' for Active; 'I' for Inactive)
REMARK    1  A    between atoms: C1_1  and  C7_7 
ROOT
HETATM    1  C2  UNL     1     -24.726  18.683  10.094  1.00 20.00     0.048 C 
HETATM    2  C3  UNL     1     -23.912  16.331  10.220  1.00 20.00     0.048 C 
HETATM    3  C4  UNL     1     -25.384  18.487  11.461  1.00 20.00     0.273 C 
HETATM    4  C5  UNL     1     -24.597  16.208  11.583  1.00 20.00     0.273 C 
HETATM    5  C6  UNL     1     -23.133  17.999  11.690  1.00 20.00     0.288 C 
HETATM    6  C7  UNL     1     -23.485  17.799  10.226  1.00 20.00     0.042 C 
HETATM    7  N8  UNL     1     -24.464  17.565  12.187  1.00 20.00     0.089 N 
ENDROOT
BRANCH   6   8
HETATM    8  C1  UNL     1     -22.386  18.120   9.272  1.00 20.00     0.242 C 
HETATM    9  O9  UNL     1     -22.075  19.263   8.958  1.00 20.00    -0.306 OA
ENDBRANCH   6   8
TORSDOF 1
ENDMDL
MODEL 9
REMARK VINA RESULT:      -3.7     17.076     17.654
REMARK  1 active torsions:
REMARK  status: ('A' for Active; 'I' for Inactive)
REMARK    1  A    between atoms: C1_1  and  C7_7 
ROOT
HETATM    1  C2  UNL     1     -35.130  15.915  -2.092  1.00 20.00     0.048 C 
HETATM    2  C3  UNL     1     -33.074  15.828  -3.498  1.00 20.00     0.048 C 
HETATM    3  C4  UNL     1     -35.069  17.442  -2.167  1.00 20.00     0.273 C 
HETATM    4  C5  UNL     1     -33.077  17.358  -3.528  1.00 20.00     0.273 C 
HETATM    5  C6  UNL     1     -35.123  16.634  -4.336  1.00 20.00     0.288 C 
HETATM    6  C7  UNL     1     -34.572  15.523  -3.460  1.00 20.00     0.042 C 
HETATM    7  N8  UNL     1     -34.523  17.725  -3.526  1.00 20.00     0.089 N 
ENDROOT
BRANCH   6   8
HETATM    8  C1  UNL     1     -34.926  14.145  -3.907  1.00 20.00     0.242 C 
HETATM    9  O9  UNL     1     -34.096  13.265  -4.106  1.00 20.00    -0.306 OA
ENDBRANCH   6   8
TORSDOF 1
ENDMDL
