MODEL 1
REMARK VINA RESULT:      -3.5      0.000      0.000
REMARK  2 active torsions:
REMARK  status: ('A' for Active; 'I' for Inactive)
REMARK    1  A    between atoms: C6_6  and  C7_7 
REMARK    2  A    between atoms: C6_6  and  N8_8 
ROOT
HETATM    1  C1  UNL     1     -34.847  13.992  -3.965  1.00 20.00     0.283 C 
HETATM    2  C2  UNL     1     -36.190  14.056  -4.683  1.00 20.00     0.105 C 
HETATM    3  C3  UNL     1     -34.114  15.150  -5.880  1.00 20.00     0.346 C 
HETATM    4  N8  UNL     1     -33.981  15.094  -4.417  1.00 20.00     0.098 N 
HETATM    5  S9  UNL     1     -35.763  14.565  -6.363  1.00 20.00    -0.138 SA
ENDROOT
BRANCH   4   6
HETATM    6  C6  UNL     1     -34.347  16.365  -3.792  1.00 20.00     0.277 C 
BRANCH   6   7
HETATM    7  C7  UNL     1     -33.938  16.410  -2.315  1.00 20.00     0.006 C 
HETATM    8  C4  UNL     1     -32.846  17.447  -2.045  1.00 20.00     0.011 C 
HETATM    9  C5  UNL     1     -35.136  16.638  -1.393  1.00 20.00     0.011 C 
ENDBRANCH   6   7
ENDBRANCH   4   6
TORSDOF 2
ENDMDL
MODEL 2
REMARK VINA RESULT:      -3.5     17.185     18.014
REMARK  2 active torsions:
REMARK  status: ('A' for Active; 'I' for Inactive)
REMARK    1  A    between atoms: C6_6  and  C7_7 
REMARK    2  A    between atoms: C6_6  and  N8_8 
ROOT
HETATM    1  C1  UNL     1     -24.357  18.594   9.111  1.00 20.00     0.283 C 
HETATM    2  C2  UNL     1     -22.897  18.968   8.887  1.00 20.00     0.105 C 
HETATM    3  C3  UNL     1     -23.402  16.608   9.942  1.00 20.00     0.346 C 
HETATM    4  N8  UNL     1     -24.461  17.597  10.190  1.00 20.00     0.098 N 
HETATM    5  S9  UNL     1     -22.009  17.409   9.098  1.00 20.00    -0.138 SA
ENDROOT
BRANCH   4   6
HETATM    6  C6  UNL     1     -24.330  18.210  11.512  1.00 20.00     0.277 C 
BRANCH   6   7
HETATM    7  C7  UNL     1     -25.662  18.211  12.272  1.00 20.00     0.006 C 
HETATM    8  C4  UNL     1     -26.653  19.231  11.708  1.00 20.00     0.011 C 
HETATM    9  C5  UNL     1     -26.294  16.820  12.326  1.00 20.00     0.011 C 
ENDBRANCH   6   7
ENDBRANCH   4   6
TORSDOF 2
ENDMDL
MODEL 3
REMARK VINA RESULT:      -3.3      1.383      1.751
REMARK  2 active torsions:
REMARK  status: ('A' for Active; 'I' for Inactive)
REMARK    1  A    between atoms: C6_6  and  C7_7 
REMARK    2  A    between atoms: C6_6  and  N8_8 
ROOT
HETATM    1  C1  UNL     1     -34.242  15.192  -6.228  1.00 20.00     0.283 C 
HETATM    2  C2  UNL     1     -35.546  14.773  -6.897  1.00 20.00     0.105 C 
HETATM    3  C3  UNL     1     -35.542  17.032  -5.541  1.00 20.00     0.346 C 
HETATM    4  N8  UNL     1     -34.525  16.075  -5.084  1.00 20.00     0.098 N 
HETATM    5  S9  UNL     1     -36.573  16.256  -6.818  1.00 20.00    -0.138 SA
ENDROOT
BRANCH   4   6
HETATM    6  C6  UNL     1     -34.977  15.322  -3.914  1.00 20.00     0.277 C 
BRANCH   6   7
HETATM    7  C7  UNL     1     -34.247  15.759  -2.639  1.00 20.00     0.006 C 
HETATM    8  C4  UNL     1     -33.024  16.629  -2.938  1.00 20.00     0.011 C 
HETATM    9  C5  UNL     1     -35.181  16.465  -1.655  1.00 20.00     0.011 C 
ENDBRANCH   6   7
ENDBRANCH   4   6
TORSDOF 2
ENDMDL
MODEL 4
REMARK VINA RESULT:      -3.2      1.921      2.333
REMARK  2 active torsions:
REMARK  status: ('A' for Active; 'I' for Inactive)
REMARK    1  A    between atoms: C6_6  and  C7_7 
REMARK    2  A    between atoms: C6_6  and  N8_8 
ROOT
HETATM    1  C1  UNL     1     -36.930  14.225  -4.497  1.00 20.00     0.283 C 
HETATM    2  C2  UNL     1     -38.333  14.778  -4.273  1.00 20.00     0.105 C 
HETATM    3  C3  UNL     1     -36.543  16.391  -5.338  1.00 20.00     0.346 C 
HETATM    4  N8  UNL     1     -35.953  15.327  -4.514  1.00 20.00     0.098 N 
HETATM    5  S9  UNL     1     -38.353  16.316  -5.221  1.00 20.00    -0.138 SA
ENDROOT
BRANCH   4   6
HETATM    6  C6  UNL     1     -35.639  15.797  -3.165  1.00 20.00     0.277 C 
BRANCH   6   7
HETATM    7  C7  UNL     1     -34.150  15.636  -2.838  1.00 20.00     0.006 C 
HETATM    8  C4  UNL     1     -33.342  15.136  -4.037  1.00 20.00     0.011 C 
HETATM    9  C5  UNL     1     -33.542  16.923  -2.278  1.00 20.00     0.011 C 
ENDBRANCH   6   7
ENDBRANCH   4   6
TORSDOF 2
ENDMDL
MODEL 5
REMARK VINA RESULT:      -3.2      1.385      2.178
REMARK  2 active torsions:
REMARK  status: ('A' for Active; 'I' for Inactive)
REMARK    1  A    between atoms: C6_6  and  C7_7 
REMARK    2  A    between atoms: C6_6  and  N8_8 
ROOT
HETATM    1  C1  UNL     1     -36.443  16.373  -4.482  1.00 20.00     0.283 C 
HETATM    2  C2  UNL     1     -35.678  16.312  -5.799  1.00 20.00     0.105 C 
HETATM    3  C3  UNL     1     -36.247  14.029  -4.612  1.00 20.00     0.346 C 
HETATM    4  N8  UNL     1     -36.167  15.166  -3.684  1.00 20.00     0.098 N 
HETATM    5  S9  UNL     1     -35.773  14.573  -6.278  1.00 20.00    -0.138 SA
ENDROOT
BRANCH   4   6
HETATM    6  C6  UNL     1     -34.863  15.236  -3.024  1.00 20.00     0.277 C 
BRANCH   6   7
HETATM    7  C7  UNL     1     -34.604  16.622  -2.423  1.00 20.00     0.006 C 
HETATM    8  C4  UNL     1     -35.166  16.757  -1.006  1.00 20.00     0.011 C 
HETATM    9  C5  UNL     1     -33.120  16.992  -2.451  1.00 20.00     0.011 C 
ENDBRANCH   6   7
ENDBRANCH   4   6
TORSDOF 2
ENDMDL
MODEL 6
REMARK VINA RESULT:      -3.2      1.474      1.939
REMARK  2 active torsions:
REMARK  status: ('A' for Active; 'I' for Inactive)
REMARK    1  A    between atoms: C6_6  and  C7_7 
REMARK    2  A    between atoms: C6_6  and  N8_8 
ROOT
HETATM    1  C1  UNL     1     -35.876  14.141  -4.943  1.00 20.00     0.283 C 
HETATM    2  C2  UNL     1     -37.276  14.343  -4.374  1.00 20.00     0.105 C 
HETATM    3  C3  UNL     1     -35.819  16.492  -4.818  1.00 20.00     0.346 C 
HETATM    4  N8  UNL     1     -35.018  15.283  -4.584  1.00 20.00     0.098 N 
HETATM    5  S9  UNL     1     -37.577  16.113  -4.573  1.00 20.00    -0.138 SA
ENDROOT
BRANCH   4   6
HETATM    6  C6  UNL     1     -34.554  15.200  -3.199  1.00 20.00     0.277 C 
BRANCH   6   7
HETATM    7  C7  UNL     1     -34.444  16.586  -2.552  1.00 20.00     0.006 C 
HETATM    8  C4  UNL     1     -35.149  16.653  -1.196  1.00 20.00     0.011 C 
HETATM    9  C5  UNL     1     -32.992  17.048  -2.427  1.00 20.00     0.011 C 
ENDBRANCH   6   7
ENDBRANCH   4   6
TORSDOF 2
ENDMDL
MODEL 7
REMARK VINA RESULT:      -3.2      1.435      2.070
REMARK  2 active torsions:
REMARK  status: ('A' for Active; 'I' for Inactive)
REMARK    1  A    between atoms: C6_6  and  C7_7 
REMARK    2  A    between atoms: C6_6  and  N8_8 
ROOT
HETATM    1  C1  UNL     1     -35.302  17.159  -5.654  1.00 20.00     0.283 C 
HETATM    2  C2  UNL     1     -34.808  16.837  -7.059  1.00 20.00     0.105 C 
HETATM    3  C3  UNL     1     -35.833  14.865  -5.645  1.00 20.00     0.346 C 
HETATM    4  N8  UNL     1     -35.274  15.945  -4.821  1.00 20.00     0.098 N 
HETATM    5  S9  UNL     1     -35.489  15.198  -7.396  1.00 20.00    -0.138 SA
ENDROOT
BRANCH   4   6
HETATM    6  C6  UNL     1     -33.921  15.631  -4.361  1.00 20.00     0.277 C 
BRANCH   6   7
HETATM    7  C7  UNL     1     -33.738  15.950  -2.872  1.00 20.00     0.006 C 
HETATM    8  C4  UNL     1     -32.966  17.251  -2.647  1.00 20.00     0.011 C 
HETATM    9  C5  UNL     1     -35.070  15.978  -2.122  1.00 20.00     0.011 C 
ENDBRANCH   6   7
ENDBRANCH   4   6
TORSDOF 2
ENDMDL
MODEL 8
REMARK VINA RESULT:      -3.1      1.575      1.964
REMARK  2 active torsions:
REMARK  status: ('A' for Active; 'I' for Inactive)
REMARK    1  A    between atoms: C6_6  and  C7_7 
REMARK    2  A    between atoms: C6_6  and  N8_8 
ROOT
HETATM    1  C1  UNL     1     -37.585  15.676  -4.846  1.00 20.00     0.283 C 
HETATM    2  C2  UNL     1     -36.923  15.915  -6.198  1.00 20.00     0.105 C 
HETATM    3  C3  UNL     1     -35.675  14.345  -4.490  1.00 20.00     0.346 C 
HETATM    4  N8  UNL     1     -36.567  15.318  -3.844  1.00 20.00     0.098 N 
HETATM    5  S9  UNL     1     -35.626  14.660  -6.277  1.00 20.00    -0.138 SA
ENDROOT
BRANCH   4   6
HETATM    6  C6  UNL     1     -35.835  16.493  -3.369  1.00 20.00     0.277 C 
BRANCH   6   7
HETATM    7  C7  UNL     1     -34.853  16.135  -2.247  1.00 20.00     0.006 C 
HETATM    8  C4  UNL     1     -33.405  16.463  -2.616  1.00 20.00     0.011 C 
HETATM    9  C5  UNL     1     -35.232  16.792  -0.920  1.00 20.00     0.011 C 
ENDBRANCH   6   7
ENDBRANCH   4   6
TORSDOF 2
ENDMDL
MODEL 9
REMARK VINA RESULT:      -3.1      2.251      4.123
REMARK  2 active torsions:
REMARK  status: ('A' for Active; 'I' for Inactive)
REMARK    1  A    between atoms: C6_6  and  C7_7 
REMARK    2  A    between atoms: C6_6  and  N8_8 
ROOT
HETATM    1  C1  UNL     1     -33.268  15.826  -3.469  1.00 20.00     0.283 C 
HETATM    2  C2  UNL     1     -32.976  17.270  -3.075  1.00 20.00     0.105 C 
HETATM    3  C3  UNL     1     -35.047  16.094  -1.949  1.00 20.00     0.346 C 
HETATM    4  N8  UNL     1     -34.694  15.527  -3.258  1.00 20.00     0.098 N 
HETATM    5  S9  UNL     1     -34.002  17.539  -1.612  1.00 20.00    -0.138 SA
ENDROOT
BRANCH   4   6
HETATM    6  C6  UNL     1     -35.529  16.073  -4.328  1.00 20.00     0.277 C 
BRANCH   6   7
HETATM    7  C7  UNL     1     -36.079  14.970  -5.240  1.00 20.00     0.006 C 
HETATM    8  C4  UNL     1     -35.280  14.836  -6.538  1.00 20.00     0.011 C 
HETATM    9  C5  UNL     1     -36.171  13.623  -4.522  1.00 20.00     0.011 C 
ENDBRANCH   6   7
ENDBRANCH   4   6
TORSDOF 2
ENDMDL
