MODEL 1
REMARK VINA RESULT:      -4.6      0.000      0.000
REMARK  2 active torsions:
REMARK  status: ('A' for Active; 'I' for Inactive)
REMARK    1  A    between atoms: C2_2  and  C3_3 
REMARK    2  A    between atoms: C3_3  and  C6_6 
ROOT
HETATM    1  C3  UNL     1     -34.155   4.930   3.893  1.00 20.00     0.170 C 
HETATM    2  O7  UNL     1     -34.433   3.768   4.167  1.00 20.00    -0.291 OA
ENDROOT
BRANCH   1   3
HETATM    3  C2  UNL     1     -33.328   5.294   2.702  1.00 20.00     0.047 C 
HETATM    4  C1  UNL     1     -33.058   4.420   1.722  1.00 20.00     0.035 C 
HETATM    5 BR8  UNL     1     -32.647   7.039   2.644  1.00 20.00    -0.048 Br
ENDBRANCH   1   3
BRANCH   1   6
HETATM    6  C6  UNL     1     -34.667   6.031   4.761  1.00 20.00     0.061 A 
HETATM    7  C4  UNL     1     -34.957   5.731   6.194  1.00 20.00     0.013 A 
HETATM    8  C5  UNL     1     -33.772   6.571   5.826  1.00 20.00     0.013 A 
ENDBRANCH   1   6
TORSDOF 2
ENDMDL
MODEL 2
REMARK VINA RESULT:      -4.6      1.706      1.857
REMARK  2 active torsions:
REMARK  status: ('A' for Active; 'I' for Inactive)
REMARK    1  A    between atoms: C2_2  and  C3_3 
REMARK    2  A    between atoms: C3_3  and  C6_6 
ROOT
HETATM    1  C3  UNL     1     -33.435   6.651   4.110  1.00 20.00     0.170 C 
HETATM    2  O7  UNL     1     -32.739   7.368   4.822  1.00 20.00    -0.291 OA
ENDROOT
BRANCH   1   3
HETATM    3  C2  UNL     1     -33.046   6.296   2.711  1.00 20.00     0.047 C 
HETATM    4  C1  UNL     1     -33.080   5.037   2.254  1.00 20.00     0.035 C 
HETATM    5 BR8  UNL     1     -32.472   7.700   1.610  1.00 20.00    -0.048 Br
ENDBRANCH   1   3
BRANCH   1   6
HETATM    6  C6  UNL     1     -34.709   6.096   4.654  1.00 20.00     0.061 A 
HETATM    7  C4  UNL     1     -34.767   4.642   4.989  1.00 20.00     0.013 A 
HETATM    8  C5  UNL     1     -34.745   5.667   6.083  1.00 20.00     0.013 A 
ENDBRANCH   1   6
TORSDOF 2
ENDMDL
MODEL 3
REMARK VINA RESULT:      -4.4      1.730      2.039
REMARK  2 active torsions:
REMARK  status: ('A' for Active; 'I' for Inactive)
REMARK    1  A    between atoms: C2_2  and  C3_3 
REMARK    2  A    between atoms: C3_3  and  C6_6 
ROOT
HETATM    1  C3  UNL     1     -33.431   5.944   3.120  1.00 20.00     0.170 C 
HETATM    2  O7  UNL     1     -33.270   4.860   2.569  1.00 20.00    -0.291 OA
ENDROOT
BRANCH   1   3
HETATM    3  C2  UNL     1     -32.558   7.123   2.834  1.00 20.00     0.047 C 
HETATM    4  C1  UNL     1     -31.675   7.595   3.724  1.00 20.00     0.035 C 
HETATM    5 BR8  UNL     1     -32.770   7.949   1.165  1.00 20.00    -0.048 Br
ENDBRANCH   1   3
BRANCH   1   6
HETATM    6  C6  UNL     1     -34.544   6.108   4.100  1.00 20.00     0.061 A 
HETATM    7  C4  UNL     1     -34.904   4.950   4.971  1.00 20.00     0.013 A 
HETATM    8  C5  UNL     1     -34.211   6.145   5.554  1.00 20.00     0.013 A 
ENDBRANCH   1   6
TORSDOF 2
ENDMDL
MODEL 4
REMARK VINA RESULT:      -4.2     16.902     17.425
REMARK  2 active torsions:
REMARK  status: ('A' for Active; 'I' for Inactive)
REMARK    1  A    between atoms: C2_2  and  C3_3 
REMARK    2  A    between atoms: C3_3  and  C6_6 
ROOT
HETATM    1  C3  UNL     1     -22.942  17.392   9.677  1.00 20.00     0.170 C 
HETATM    2  O7  UNL     1     -22.424  16.544   8.958  1.00 20.00    -0.291 OA
ENDROOT
BRANCH   1   3
HETATM    3  C2  UNL     1     -23.200  17.158  11.130  1.00 20.00     0.047 C 
HETATM    4  C1  UNL     1     -22.445  17.710  12.091  1.00 20.00     0.035 C 
HETATM    5 BR8  UNL     1     -24.625  16.022  11.566  1.00 20.00    -0.048 Br
ENDBRANCH   1   3
BRANCH   1   6
HETATM    6  C6  UNL     1     -23.318  18.714   9.095  1.00 20.00     0.061 A 
HETATM    7  C4  UNL     1     -24.205  18.738   7.894  1.00 20.00     0.013 A 
HETATM    8  C5  UNL     1     -24.731  19.173   9.229  1.00 20.00     0.013 A 
ENDBRANCH   1   6
TORSDOF 2
ENDMDL
MODEL 5
REMARK VINA RESULT:      -4.1      2.218      3.351
REMARK  2 active torsions:
REMARK  status: ('A' for Active; 'I' for Inactive)
REMARK    1  A    between atoms: C2_2  and  C3_3 
REMARK    2  A    between atoms: C3_3  and  C6_6 
ROOT
HETATM    1  C3  UNL     1     -33.587   5.863   3.273  1.00 20.00     0.170 C 
HETATM    2  O7  UNL     1     -33.329   4.934   2.514  1.00 20.00    -0.291 OA
ENDROOT
BRANCH   1   3
HETATM    3  C2  UNL     1     -34.352   5.669   4.542  1.00 20.00     0.047 C 
HETATM    4  C1  UNL     1     -35.308   4.738   4.669  1.00 20.00     0.035 C 
HETATM    5 BR8  UNL     1     -33.936   6.814   5.966  1.00 20.00    -0.048 Br
ENDBRANCH   1   3
BRANCH   1   6
HETATM    6  C6  UNL     1     -33.114   7.237   2.935  1.00 20.00     0.061 A 
HETATM    7  C4  UNL     1     -31.648   7.517   2.976  1.00 20.00     0.013 A 
HETATM    8  C5  UNL     1     -32.363   7.437   1.660  1.00 20.00     0.013 A 
ENDBRANCH   1   6
TORSDOF 2
ENDMDL
MODEL 6
REMARK VINA RESULT:      -4.1     16.641     17.831
REMARK  2 active torsions:
REMARK  status: ('A' for Active; 'I' for Inactive)
REMARK    1  A    between atoms: C2_2  and  C3_3 
REMARK    2  A    between atoms: C3_3  and  C6_6 
ROOT
HETATM    1  C3  UNL     1     -22.959  17.667  11.358  1.00 20.00     0.170 C 
HETATM    2  O7  UNL     1     -22.066  17.713  12.198  1.00 20.00    -0.291 OA
ENDROOT
BRANCH   1   3
HETATM    3  C2  UNL     1     -24.329  17.162  11.675  1.00 20.00     0.047 C 
HETATM    4  C1  UNL     1     -24.634  15.857  11.663  1.00 20.00     0.035 C 
HETATM    5 BR8  UNL     1     -25.635  18.448  12.070  1.00 20.00    -0.048 Br
ENDBRANCH   1   3
BRANCH   1   6
HETATM    6  C6  UNL     1     -22.683  18.144   9.971  1.00 20.00     0.061 A 
HETATM    7  C4  UNL     1     -21.293  18.031   9.441  1.00 20.00     0.013 A 
HETATM    8  C5  UNL     1     -22.373  17.132   8.919  1.00 20.00     0.013 A 
ENDBRANCH   1   6
TORSDOF 2
ENDMDL
MODEL 7
REMARK VINA RESULT:      -3.9      3.089      4.114
REMARK  2 active torsions:
REMARK  status: ('A' for Active; 'I' for Inactive)
REMARK    1  A    between atoms: C2_2  and  C3_3 
REMARK    2  A    between atoms: C3_3  and  C6_6 
ROOT
HETATM    1  C3  UNL     1     -32.630   7.075   2.590  1.00 20.00     0.170 C 
HETATM    2  O7  UNL     1     -31.718   7.599   3.221  1.00 20.00    -0.291 OA
ENDROOT
BRANCH   1   3
HETATM    3  C2  UNL     1     -33.350   5.862   3.084  1.00 20.00     0.047 C 
HETATM    4  C1  UNL     1     -33.270   4.677   2.462  1.00 20.00     0.035 C 
HETATM    5 BR8  UNL     1     -34.407   6.070   4.617  1.00 20.00    -0.048 Br
ENDBRANCH   1   3
BRANCH   1   6
HETATM    6  C6  UNL     1     -33.056   7.670   1.289  1.00 20.00     0.061 A 
HETATM    7  C4  UNL     1     -32.905   9.142   1.095  1.00 20.00     0.013 A 
HETATM    8  C5  UNL     1     -32.004   8.190   0.367  1.00 20.00     0.013 A 
ENDBRANCH   1   6
TORSDOF 2
ENDMDL
MODEL 8
REMARK VINA RESULT:      -3.9     16.663     17.324
REMARK  2 active torsions:
REMARK  status: ('A' for Active; 'I' for Inactive)
REMARK    1  A    between atoms: C2_2  and  C3_3 
REMARK    2  A    between atoms: C3_3  and  C6_6 
ROOT
HETATM    1  C3  UNL     1     -24.654  17.314  11.704  1.00 20.00     0.170 C 
HETATM    2  O7  UNL     1     -25.084  16.188  11.476  1.00 20.00    -0.291 OA
ENDROOT
BRANCH   1   3
HETATM    3  C2  UNL     1     -23.257  17.721  11.361  1.00 20.00     0.047 C 
HETATM    4  C1  UNL     1     -22.270  17.733  12.268  1.00 20.00     0.035 C 
HETATM    5 BR8  UNL     1     -22.939  18.249   9.591  1.00 20.00    -0.048 Br
ENDBRANCH   1   3
BRANCH   1   6
HETATM    6  C6  UNL     1     -25.552  18.327  12.332  1.00 20.00     0.061 A 
HETATM    7  C4  UNL     1     -26.304  19.262  11.443  1.00 20.00     0.013 A 
HETATM    8  C5  UNL     1     -27.027  18.167  12.169  1.00 20.00     0.013 A 
ENDBRANCH   1   6
TORSDOF 2
ENDMDL
MODEL 9
REMARK VINA RESULT:      -3.9     12.377     12.940
REMARK  2 active torsions:
REMARK  status: ('A' for Active; 'I' for Inactive)
REMARK    1  A    between atoms: C2_2  and  C3_3 
REMARK    2  A    between atoms: C3_3  and  C6_6 
ROOT
HETATM    1  C3  UNL     1     -35.622  13.914  -4.546  1.00 20.00     0.170 C 
HETATM    2  O7  UNL     1     -35.959  12.736  -4.486  1.00 20.00    -0.291 OA
ENDROOT
BRANCH   1   3
HETATM    3  C2  UNL     1     -36.318  14.898  -5.430  1.00 20.00     0.047 C 
HETATM    4  C1  UNL     1     -37.406  15.574  -5.035  1.00 20.00     0.035 C 
HETATM    5 BR8  UNL     1     -35.614  15.136  -7.151  1.00 20.00    -0.048 Br
ENDBRANCH   1   3
BRANCH   1   6
HETATM    6  C6  UNL     1     -34.491  14.396  -3.701  1.00 20.00     0.061 A 
HETATM    7  C4  UNL     1     -33.912  15.742  -3.987  1.00 20.00     0.013 A 
HETATM    8  C5  UNL     1     -34.740  15.524  -2.756  1.00 20.00     0.013 A 
ENDBRANCH   1   6
TORSDOF 2
ENDMDL
