MODEL 1
REMARK VINA RESULT:      -4.8      0.000      0.000
REMARK  1 active torsions:
REMARK  status: ('A' for Active; 'I' for Inactive)
REMARK    1  A    between atoms: C3_3  and  C8_8 
ROOT
HETATM    1  C1  UNL     1     -33.994  16.023  -2.637  1.00 20.00    -0.025 C 
HETATM    2  C2  UNL     1     -33.176  15.772  -3.670  1.00 20.00    -0.024 C 
HETATM    3  C4  UNL     1     -34.812  14.156  -3.704  1.00 20.00     0.018 C 
HETATM    4  C5  UNL     1     -35.330  15.388  -2.957  1.00 20.00     0.013 C 
HETATM    5  C6  UNL     1     -33.968  14.982  -4.687  1.00 20.00     0.024 C 
HETATM    6  C7  UNL     1     -35.989  16.219  -4.099  1.00 20.00     0.005 C 
HETATM    7  C8  UNL     1     -35.058  15.894  -5.334  1.00 20.00     0.027 C 
HETATM    8  C10 UNL     1     -37.464  15.867  -4.271  1.00 20.00     0.012 C 
HETATM    9  C11 UNL     1     -34.493  17.165  -5.978  1.00 20.00     0.024 C 
ENDROOT
BRANCH   7  10
HETATM   10  C3  UNL     1     -35.759  15.133  -6.435  1.00 20.00     0.132 C 
HETATM   11  C9  UNL     1     -36.235  15.935  -7.617  1.00 20.00     0.091 C 
HETATM   12  O12 UNL     1     -35.932  13.917  -6.370  1.00 20.00    -0.298 OA
ENDBRANCH   7  10
TORSDOF 1
ENDMDL
MODEL 2
REMARK VINA RESULT:      -4.6     17.939     19.335
REMARK  1 active torsions:
REMARK  status: ('A' for Active; 'I' for Inactive)
REMARK    1  A    between atoms: C3_3  and  C8_8 
ROOT
HETATM    1  C1  UNL     1     -22.524  18.893   8.759  1.00 20.00    -0.025 C 
HETATM    2  C2  UNL     1     -23.765  18.594   8.347  1.00 20.00    -0.024 C 
HETATM    3  C4  UNL     1     -22.879  16.675   9.256  1.00 20.00     0.018 C 
HETATM    4  C5  UNL     1     -22.152  17.893   9.831  1.00 20.00     0.013 C 
HETATM    5  C6  UNL     1     -24.229  17.402   9.155  1.00 20.00     0.024 C 
HETATM    6  C7  UNL     1     -23.000  18.219  11.099  1.00 20.00     0.005 C 
HETATM    7  C8  UNL     1     -24.460  17.826  10.640  1.00 20.00     0.027 C 
HETATM    8  C10 UNL     1     -22.473  17.488  12.330  1.00 20.00     0.012 C 
HETATM    9  C11 UNL     1     -25.446  18.988  10.802  1.00 20.00     0.024 C 
ENDROOT
BRANCH   7  10
HETATM   10  C3  UNL     1     -25.041  16.662  11.408  1.00 20.00     0.132 C 
HETATM   11  C9  UNL     1     -26.190  16.966  12.332  1.00 20.00     0.091 C 
HETATM   12  O12 UNL     1     -24.598  15.521  11.285  1.00 20.00    -0.298 OA
ENDBRANCH   7  10
TORSDOF 1
ENDMDL
MODEL 3
REMARK VINA RESULT:      -4.5      1.270      1.550
REMARK  1 active torsions:
REMARK  status: ('A' for Active; 'I' for Inactive)
REMARK    1  A    between atoms: C3_3  and  C8_8 
ROOT
HETATM    1  C1  UNL     1     -34.825  16.595  -2.338  1.00 20.00    -0.025 C 
HETATM    2  C2  UNL     1     -34.296  17.402  -3.269  1.00 20.00    -0.024 C 
HETATM    3  C4  UNL     1     -33.477  15.290  -3.669  1.00 20.00     0.018 C 
HETATM    4  C5  UNL     1     -34.791  15.187  -2.891  1.00 20.00     0.013 C 
HETATM    5  C6  UNL     1     -33.921  16.536  -4.451  1.00 20.00     0.024 C 
HETATM    6  C7  UNL     1     -35.849  15.099  -4.032  1.00 20.00     0.005 C 
HETATM    7  C8  UNL     1     -35.212  16.012  -5.155  1.00 20.00     0.027 C 
HETATM    8  C10 UNL     1     -36.126  13.653  -4.433  1.00 20.00     0.012 C 
HETATM    9  C11 UNL     1     -36.166  17.127  -5.599  1.00 20.00     0.024 C 
ENDROOT
BRANCH   7  10
HETATM   10  C3  UNL     1     -34.829  15.254  -6.404  1.00 20.00     0.132 C 
HETATM   11  C9  UNL     1     -35.819  15.271  -7.538  1.00 20.00     0.091 C 
HETATM   12  O12 UNL     1     -33.759  14.652  -6.491  1.00 20.00    -0.298 OA
ENDBRANCH   7  10
TORSDOF 1
ENDMDL
MODEL 4
REMARK VINA RESULT:      -4.5      1.430      2.734
REMARK  1 active torsions:
REMARK  status: ('A' for Active; 'I' for Inactive)
REMARK    1  A    between atoms: C3_3  and  C8_8 
ROOT
HETATM    1  C1  UNL     1     -34.807  16.478  -1.628  1.00 20.00    -0.025 C 
HETATM    2  C2  UNL     1     -35.856  17.013  -2.271  1.00 20.00    -0.024 C 
HETATM    3  C4  UNL     1     -33.994  17.440  -3.553  1.00 20.00     0.018 C 
HETATM    4  C5  UNL     1     -33.728  16.227  -2.658  1.00 20.00     0.013 C 
HETATM    5  C6  UNL     1     -35.483  17.106  -3.734  1.00 20.00     0.024 C 
HETATM    6  C7  UNL     1     -34.194  15.041  -3.555  1.00 20.00     0.005 C 
HETATM    7  C8  UNL     1     -35.402  15.675  -4.353  1.00 20.00     0.027 C 
HETATM    8  C10 UNL     1     -33.051  14.497  -4.407  1.00 20.00     0.012 C 
HETATM    9  C11 UNL     1     -36.690  14.860  -4.188  1.00 20.00     0.024 C 
ENDROOT
BRANCH   7  10
HETATM   10  C3  UNL     1     -35.153  15.785  -5.839  1.00 20.00     0.132 C 
HETATM   11  C9  UNL     1     -35.667  14.660  -6.697  1.00 20.00     0.091 C 
HETATM   12  O12 UNL     1     -34.560  16.747  -6.324  1.00 20.00    -0.298 OA
ENDBRANCH   7  10
TORSDOF 1
ENDMDL
MODEL 5
REMARK VINA RESULT:      -4.5      1.258      1.735
REMARK  1 active torsions:
REMARK  status: ('A' for Active; 'I' for Inactive)
REMARK    1  A    between atoms: C3_3  and  C8_8 
ROOT
HETATM    1  C1  UNL     1     -33.233  16.834  -3.358  1.00 20.00    -0.025 C 
HETATM    2  C2  UNL     1     -32.888  15.557  -3.581  1.00 20.00    -0.024 C 
HETATM    3  C4  UNL     1     -35.102  15.554  -2.957  1.00 20.00     0.018 C 
HETATM    4  C5  UNL     1     -34.734  16.929  -3.519  1.00 20.00     0.013 C 
HETATM    5  C6  UNL     1     -34.157  14.801  -3.906  1.00 20.00     0.024 C 
HETATM    6  C7  UNL     1     -35.060  16.768  -5.035  1.00 20.00     0.005 C 
HETATM    7  C8  UNL     1     -34.701  15.252  -5.299  1.00 20.00     0.027 C 
HETATM    8  C10 UNL     1     -36.498  17.171  -5.347  1.00 20.00     0.012 C 
HETATM    9  C11 UNL     1     -33.685  15.091  -6.436  1.00 20.00     0.024 C 
ENDROOT
BRANCH   7  10
HETATM   10  C3  UNL     1     -35.894  14.403  -5.669  1.00 20.00     0.132 C 
HETATM   11  C9  UNL     1     -36.564  13.651  -4.551  1.00 20.00     0.091 C 
HETATM   12  O12 UNL     1     -36.300  14.331  -6.828  1.00 20.00    -0.298 OA
ENDBRANCH   7  10
TORSDOF 1
ENDMDL
MODEL 6
REMARK VINA RESULT:      -4.3      1.176      2.397
REMARK  1 active torsions:
REMARK  status: ('A' for Active; 'I' for Inactive)
REMARK    1  A    between atoms: C3_3  and  C8_8 
ROOT
HETATM    1  C1  UNL     1     -33.927  17.478  -2.835  1.00 20.00    -0.025 C 
HETATM    2  C2  UNL     1     -34.125  16.298  -2.229  1.00 20.00    -0.024 C 
HETATM    3  C4  UNL     1     -36.120  16.893  -3.209  1.00 20.00     0.018 C 
HETATM    4  C5  UNL     1     -34.970  17.606  -3.923  1.00 20.00     0.013 C 
HETATM    5  C6  UNL     1     -35.292  15.630  -2.922  1.00 20.00     0.024 C 
HETATM    6  C7  UNL     1     -34.602  16.598  -5.054  1.00 20.00     0.005 C 
HETATM    7  C8  UNL     1     -34.877  15.202  -4.365  1.00 20.00     0.027 C 
HETATM    8  C10 UNL     1     -35.391  16.873  -6.331  1.00 20.00     0.012 C 
HETATM    9  C11 UNL     1     -33.647  14.289  -4.406  1.00 20.00     0.024 C 
ENDROOT
BRANCH   7  10
HETATM   10  C3  UNL     1     -36.006  14.426  -5.002  1.00 20.00     0.132 C 
HETATM   11  C9  UNL     1     -37.324  14.428  -4.274  1.00 20.00     0.091 C 
HETATM   12  O12 UNL     1     -35.857  13.823  -6.063  1.00 20.00    -0.298 OA
ENDBRANCH   7  10
TORSDOF 1
ENDMDL
MODEL 7
REMARK VINA RESULT:      -4.2      1.948      3.015
REMARK  1 active torsions:
REMARK  status: ('A' for Active; 'I' for Inactive)
REMARK    1  A    between atoms: C3_3  and  C8_8 
ROOT
HETATM    1  C1  UNL     1     -33.280  14.800  -4.155  1.00 20.00    -0.025 C 
HETATM    2  C2  UNL     1     -34.469  14.223  -3.926  1.00 20.00    -0.024 C 
HETATM    3  C4  UNL     1     -34.271  15.963  -2.435  1.00 20.00     0.018 C 
HETATM    4  C5  UNL     1     -33.363  16.221  -3.640  1.00 20.00     0.013 C 
HETATM    5  C6  UNL     1     -35.352  15.262  -3.272  1.00 20.00     0.024 C 
HETATM    6  C7  UNL     1     -34.298  17.019  -4.599  1.00 20.00     0.005 C 
HETATM    7  C8  UNL     1     -35.712  16.378  -4.303  1.00 20.00     0.027 C 
HETATM    8  C10 UNL     1     -34.191  18.523  -4.364  1.00 20.00     0.012 C 
HETATM    9  C11 UNL     1     -36.379  15.846  -5.577  1.00 20.00     0.024 C 
ENDROOT
BRANCH   7  10
HETATM   10  C3  UNL     1     -36.693  17.341  -3.677  1.00 20.00     0.132 C 
HETATM   11  C9  UNL     1     -37.624  18.064  -4.613  1.00 20.00     0.091 C 
HETATM   12  O12 UNL     1     -36.730  17.525  -2.462  1.00 20.00    -0.298 OA
ENDBRANCH   7  10
TORSDOF 1
ENDMDL
MODEL 8
REMARK VINA RESULT:      -4.2      1.664      3.614
REMARK  1 active torsions:
REMARK  status: ('A' for Active; 'I' for Inactive)
REMARK    1  A    between atoms: C3_3  and  C8_8 
ROOT
HETATM    1  C1  UNL     1     -37.158  15.188  -5.037  1.00 20.00    -0.025 C 
HETATM    2  C2  UNL     1     -36.685  14.342  -4.110  1.00 20.00    -0.024 C 
HETATM    3  C4  UNL     1     -34.956  14.778  -5.564  1.00 20.00     0.018 C 
HETATM    4  C5  UNL     1     -35.972  15.922  -5.624  1.00 20.00     0.013 C 
HETATM    5  C6  UNL     1     -35.183  14.521  -4.066  1.00 20.00     0.024 C 
HETATM    6  C7  UNL     1     -35.435  16.902  -4.537  1.00 20.00     0.005 C 
HETATM    7  C8  UNL     1     -34.833  15.916  -3.459  1.00 20.00     0.027 C 
HETATM    8  C10 UNL     1     -34.458  17.915  -5.127  1.00 20.00     0.012 C 
HETATM    9  C11 UNL     1     -35.432  16.149  -2.068  1.00 20.00     0.024 C 
ENDROOT
BRANCH   7  10
HETATM   10  C3  UNL     1     -33.334  16.032  -3.304  1.00 20.00     0.132 C 
HETATM   11  C9  UNL     1     -32.831  17.099  -2.370  1.00 20.00     0.091 C 
HETATM   12  O12 UNL     1     -32.563  15.291  -3.911  1.00 20.00    -0.298 OA
ENDBRANCH   7  10
TORSDOF 1
ENDMDL
MODEL 9
REMARK VINA RESULT:      -4.2      1.923      3.492
REMARK  1 active torsions:
REMARK  status: ('A' for Active; 'I' for Inactive)
REMARK    1  A    between atoms: C3_3  and  C8_8 
ROOT
HETATM    1  C1  UNL     1     -36.366  14.039  -4.561  1.00 20.00    -0.025 C 
HETATM    2  C2  UNL     1     -35.535  14.388  -5.555  1.00 20.00    -0.024 C 
HETATM    3  C4  UNL     1     -36.355  16.337  -4.649  1.00 20.00     0.018 C 
HETATM    4  C5  UNL     1     -36.453  15.214  -3.613  1.00 20.00     0.013 C 
HETATM    5  C6  UNL     1     -35.056  15.793  -5.264  1.00 20.00     0.024 C 
HETATM    6  C7  UNL     1     -35.088  15.326  -2.868  1.00 20.00     0.005 C 
HETATM    7  C8  UNL     1     -34.110  15.784  -4.022  1.00 20.00     0.027 C 
HETATM    8  C10 UNL     1     -35.179  16.263  -1.667  1.00 20.00     0.012 C 
HETATM    9  C11 UNL     1     -32.912  14.838  -4.168  1.00 20.00     0.024 C 
ENDROOT
BRANCH   7  10
HETATM   10  C3  UNL     1     -33.539  17.167  -3.817  1.00 20.00     0.132 C 
HETATM   11  C9  UNL     1     -32.581  17.342  -2.669  1.00 20.00     0.091 C 
HETATM   12  O12 UNL     1     -33.841  18.105  -4.552  1.00 20.00    -0.298 OA
ENDBRANCH   7  10
TORSDOF 1
ENDMDL
