MODEL 1
REMARK VINA RESULT:      -5.0      0.000      0.000
REMARK  0 active torsions:
REMARK  status: ('A' for Active; 'I' for Inactive)
ROOT
HETATM    1  C1  UNL     1     -26.406  19.119  11.004  1.00 20.00     0.004 A 
HETATM    2  C2  UNL     1     -26.075  19.226   9.706  1.00 20.00     0.031 A 
HETATM    3  C3  UNL     1     -25.487  18.517  11.947  1.00 20.00     0.017 A 
HETATM    4  C4  UNL     1     -21.585  17.377   9.075  1.00 20.00     0.044 A 
HETATM    5  C5  UNL     1     -24.461  18.833   7.908  1.00 20.00     0.146 A 
HETATM    6  C6  UNL     1     -24.302  18.072  11.502  1.00 20.00     0.093 A 
HETATM    7  C7  UNL     1     -24.783  18.740   9.219  1.00 20.00     0.053 A 
HETATM    8  C8  UNL     1     -22.657  17.651   9.817  1.00 20.00     0.136 A 
HETATM    9  C9  UNL     1     -22.562  17.931   8.319  1.00 20.00     0.069 A 
HETATM   10  N10 UNL     1     -23.254  18.400   7.403  1.00 20.00    -0.260 NA
HETATM   11  N11 UNL     1     -23.886  18.157  10.170  1.00 20.00    -0.333 N 
ENDROOT
TORSDOF 0
ENDMDL
MODEL 2
REMARK VINA RESULT:      -4.8      1.370      4.166
REMARK  0 active torsions:
REMARK  status: ('A' for Active; 'I' for Inactive)
ROOT
HETATM    1  C1  UNL     1     -22.770  17.738   8.249  1.00 20.00     0.004 A 
HETATM    2  C2  UNL     1     -22.917  16.920   9.305  1.00 20.00     0.031 A 
HETATM    3  C3  UNL     1     -23.645  18.877   8.077  1.00 20.00     0.017 A 
HETATM    4  C4  UNL     1     -26.610  18.573  12.064  1.00 20.00     0.044 A 
HETATM    5  C5  UNL     1     -24.118  16.327  11.355  1.00 20.00     0.146 A 
HETATM    6  C6  UNL     1     -24.602  19.102   8.991  1.00 20.00     0.093 A 
HETATM    7  C7  UNL     1     -23.962  17.163  10.302  1.00 20.00     0.053 A 
HETATM    8  C8  UNL     1     -25.834  18.611  10.981  1.00 20.00     0.136 A 
HETATM    9  C9  UNL     1     -25.737  17.538  12.064  1.00 20.00     0.069 A 
HETATM   10  N10 UNL     1     -25.079  16.520  12.324  1.00 20.00    -0.260 NA
HETATM   11  N11 UNL     1     -24.811  18.302  10.118  1.00 20.00    -0.333 N 
ENDROOT
TORSDOF 0
ENDMDL
MODEL 3
REMARK VINA RESULT:      -4.7     17.040     18.586
REMARK  0 active torsions:
REMARK  status: ('A' for Active; 'I' for Inactive)
ROOT
HETATM    1  C1  UNL     1     -33.077  15.339  -3.804  1.00 20.00     0.004 A 
HETATM    2  C2  UNL     1     -33.948  14.363  -4.113  1.00 20.00     0.031 A 
HETATM    3  C3  UNL     1     -33.548  16.675  -3.509  1.00 20.00     0.017 A 
HETATM    4  C4  UNL     1     -38.484  16.204  -3.949  1.00 20.00     0.044 A 
HETATM    5  C5  UNL     1     -36.261  13.649  -4.483  1.00 20.00     0.146 A 
HETATM    6  C6  UNL     1     -34.867  16.920  -3.546  1.00 20.00     0.093 A 
HETATM    7  C7  UNL     1     -35.388  14.629  -4.155  1.00 20.00     0.053 A 
HETATM    8  C8  UNL     1     -37.158  16.318  -3.879  1.00 20.00     0.136 A 
HETATM    9  C9  UNL     1     -37.885  15.022  -4.231  1.00 20.00     0.069 A 
HETATM   10  N10 UNL     1     -37.624  13.847  -4.526  1.00 20.00    -0.260 NA
HETATM   11  N11 UNL     1     -35.832  15.956  -3.850  1.00 20.00    -0.333 N 
ENDROOT
TORSDOF 0
ENDMDL
MODEL 4
REMARK VINA RESULT:      -4.6     16.332     16.697
REMARK  0 active torsions:
REMARK  status: ('A' for Active; 'I' for Inactive)
ROOT
HETATM    1  C1  UNL     1     -34.891   5.260   6.165  1.00 20.00     0.004 A 
HETATM    2  C2  UNL     1     -34.749   4.638   4.982  1.00 20.00     0.031 A 
HETATM    3  C3  UNL     1     -34.311   6.569   6.379  1.00 20.00     0.017 A 
HETATM    4  C4  UNL     1     -32.189   7.543   1.983  1.00 20.00     0.044 A 
HETATM    5  C5  UNL     1     -33.855   4.634   2.703  1.00 20.00     0.146 A 
HETATM    6  C6  UNL     1     -33.635   7.150   5.375  1.00 20.00     0.093 A 
HETATM    7  C7  UNL     1     -34.010   5.271   3.887  1.00 20.00     0.053 A 
HETATM    8  C8  UNL     1     -32.727   7.244   3.165  1.00 20.00     0.136 A 
HETATM    9  C9  UNL     1     -32.758   6.315   1.953  1.00 20.00     0.069 A 
HETATM   10  N10 UNL     1     -33.178   5.191   1.639  1.00 20.00    -0.260 NA
HETATM   11  N11 UNL     1     -33.454   6.570   4.117  1.00 20.00    -0.333 N 
ENDROOT
TORSDOF 0
ENDMDL
MODEL 5
REMARK VINA RESULT:      -4.6     16.124     17.572
REMARK  0 active torsions:
REMARK  status: ('A' for Active; 'I' for Inactive)
ROOT
HETATM    1  C1  UNL     1     -33.111  17.053  -2.204  1.00 20.00     0.004 A 
HETATM    2  C2  UNL     1     -32.954  16.359  -3.345  1.00 20.00     0.031 A 
HETATM    3  C3  UNL     1     -34.395  17.084  -1.537  1.00 20.00     0.017 A 
HETATM    4  C4  UNL     1     -37.209  14.216  -4.474  1.00 20.00     0.044 A 
HETATM    5  C5  UNL     1     -33.914  14.937  -5.090  1.00 20.00     0.146 A 
HETATM    6  C6  UNL     1     -35.421  16.406  -2.075  1.00 20.00     0.093 A 
HETATM    7  C7  UNL     1     -34.072  15.620  -3.933  1.00 20.00     0.053 A 
HETATM    8  C8  UNL     1     -36.450  15.015  -3.726  1.00 20.00     0.136 A 
HETATM    9  C9  UNL     1     -35.961  14.313  -4.991  1.00 20.00     0.069 A 
HETATM   10  N10 UNL     1     -34.933  14.218  -5.677  1.00 20.00    -0.260 NA
HETATM   11  N11 UNL     1     -35.331  15.656  -3.251  1.00 20.00    -0.333 N 
ENDROOT
TORSDOF 0
ENDMDL
MODEL 6
REMARK VINA RESULT:      -4.5     16.874     18.329
REMARK  0 active torsions:
REMARK  status: ('A' for Active; 'I' for Inactive)
ROOT
HETATM    1  C1  UNL     1     -34.445  16.327  -2.120  1.00 20.00     0.004 A 
HETATM    2  C2  UNL     1     -35.173  15.330  -2.651  1.00 20.00     0.031 A 
HETATM    3  C3  UNL     1     -33.692  17.220  -2.975  1.00 20.00     0.017 A 
HETATM    4  C4  UNL     1     -34.743  15.501  -7.526  1.00 20.00     0.044 A 
HETATM    5  C5  UNL     1     -35.944  14.113  -4.630  1.00 20.00     0.146 A 
HETATM    6  C6  UNL     1     -33.738  17.037  -4.303  1.00 20.00     0.093 A 
HETATM    7  C7  UNL     1     -35.223  15.128  -4.100  1.00 20.00     0.053 A 
HETATM    8  C8  UNL     1     -34.440  15.918  -6.297  1.00 20.00     0.136 A 
HETATM    9  C9  UNL     1     -35.361  14.736  -6.595  1.00 20.00     0.069 A 
HETATM   10  N10 UNL     1     -36.031  13.888  -5.987  1.00 20.00    -0.260 NA
HETATM   11  N11 UNL     1     -34.479  16.029  -4.928  1.00 20.00    -0.333 N 
ENDROOT
TORSDOF 0
ENDMDL
MODEL 7
REMARK VINA RESULT:      -4.4     16.624     18.131
REMARK  0 active torsions:
REMARK  status: ('A' for Active; 'I' for Inactive)
ROOT
HETATM    1  C1  UNL     1     -33.233  16.786  -3.008  1.00 20.00     0.004 A 
HETATM    2  C2  UNL     1     -33.358  15.504  -3.390  1.00 20.00     0.031 A 
HETATM    3  C3  UNL     1     -34.392  17.652  -2.960  1.00 20.00     0.017 A 
HETATM    4  C4  UNL     1     -38.070  14.615  -4.382  1.00 20.00     0.044 A 
HETATM    5  C5  UNL     1     -34.782  13.669  -4.164  1.00 20.00     0.146 A 
HETATM    6  C6  UNL     1     -35.590  17.151  -3.300  1.00 20.00     0.093 A 
HETATM    7  C7  UNL     1     -34.663  14.956  -3.763  1.00 20.00     0.053 A 
HETATM    8  C8  UNL     1     -37.064  15.422  -4.046  1.00 20.00     0.136 A 
HETATM    9  C9  UNL     1     -36.892  13.948  -4.406  1.00 20.00     0.069 A 
HETATM   10  N10 UNL     1     -35.989  13.105  -4.515  1.00 20.00    -0.260 NA
HETATM   11  N11 UNL     1     -35.798  15.828  -3.699  1.00 20.00    -0.333 N 
ENDROOT
TORSDOF 0
ENDMDL
MODEL 8
REMARK VINA RESULT:      -4.2     14.505     16.113
REMARK  0 active torsions:
REMARK  status: ('A' for Active; 'I' for Inactive)
ROOT
HETATM    1  C1  UNL     1     -33.561  14.771  -4.356  1.00 20.00     0.004 A 
HETATM    2  C2  UNL     1     -32.863  15.746  -3.749  1.00 20.00     0.031 A 
HETATM    3  C3  UNL     1     -34.890  14.428  -3.899  1.00 20.00     0.017 A 
HETATM    4  C4  UNL     1     -35.600  17.618  -0.144  1.00 20.00     0.044 A 
HETATM    5  C5  UNL     1     -32.720  17.451  -1.997  1.00 20.00     0.146 A 
HETATM    6  C6  UNL     1     -35.413  15.102  -2.863  1.00 20.00     0.093 A 
HETATM    7  C7  UNL     1     -33.432  16.481  -2.617  1.00 20.00     0.053 A 
HETATM    8  C8  UNL     1     -35.372  16.744  -1.125  1.00 20.00     0.136 A 
HETATM    9  C9  UNL     1     -34.363  17.796  -0.668  1.00 20.00     0.069 A 
HETATM   10  N10 UNL     1     -33.215  18.177  -0.936  1.00 20.00    -0.260 NA
HETATM   11  N11 UNL     1     -34.753  16.132  -2.188  1.00 20.00    -0.333 N 
ENDROOT
TORSDOF 0
ENDMDL
MODEL 9
REMARK VINA RESULT:      -4.1     11.578     12.873
REMARK  0 active torsions:
REMARK  status: ('A' for Active; 'I' for Inactive)
ROOT
HETATM    1  C1  UNL     1     -35.486  17.481  -0.245  1.00 20.00     0.004 A 
HETATM    2  C2  UNL     1     -34.400  17.647  -1.019  1.00 20.00     0.031 A 
HETATM    3  C3  UNL     1     -35.403  17.676   1.186  1.00 20.00     0.017 A 
HETATM    4  C4  UNL     1     -30.635  18.954   1.828  1.00 20.00     0.044 A 
HETATM    5  C5  UNL     1     -32.018  18.180  -1.213  1.00 20.00     0.146 A 
HETATM    6  C6  UNL     1     -34.225  18.028   1.725  1.00 20.00     0.093 A 
HETATM    7  C7  UNL     1     -33.114  18.030  -0.432  1.00 20.00     0.053 A 
HETATM    8  C8  UNL     1     -31.897  18.568   1.639  1.00 20.00     0.136 A 
HETATM    9  C9  UNL     1     -30.869  18.703   0.518  1.00 20.00     0.069 A 
HETATM   10  N10 UNL     1     -30.789  18.549  -0.710  1.00 20.00    -0.260 NA
HETATM   11  N11 UNL     1     -33.056  18.227   0.985  1.00 20.00    -0.333 N 
ENDROOT
TORSDOF 0
ENDMDL
