MODEL 1
REMARK VINA RESULT:      -4.8      0.000      0.000
REMARK  1 active torsions:
REMARK  status: ('A' for Active; 'I' for Inactive)
REMARK    1  A    between atoms: C3_3  and  C4_4 
ROOT
HETATM    1  C1  UNL     1     -35.597  15.372  -2.985  1.00 20.00     0.061 C 
HETATM    2  C2  UNL     1     -34.324  15.702  -2.760  1.00 20.00     0.087 C 
HETATM    3  C4  UNL     1     -35.802  15.077  -4.433  1.00 20.00     0.376 C 
HETATM    4  C5  UNL     1     -33.555  15.665  -4.034  1.00 20.00     0.463 C 
HETATM    5  C6  UNL     1     -34.345  15.569  -6.357  1.00 20.00     0.324 C 
HETATM    6  N7  UNL     1     -34.447  15.023  -5.015  1.00 20.00     0.211 N 
HETATM    7  F9  UNL     1     -36.565  16.041  -5.014  1.00 20.00    -0.195 F 
HETATM    8  F10 UNL     1     -33.198  16.920  -4.415  1.00 20.00    -0.169 F 
HETATM    9  F11 UNL     1     -32.411  14.945  -3.914  1.00 20.00    -0.169 F 
ENDROOT
BRANCH   3  10
HETATM   10  C3  UNL     1     -36.419  13.727  -4.572  1.00 20.00     0.312 C 
HETATM   11  O8  UNL     1     -35.783  12.681  -4.505  1.00 20.00    -0.301 OA
ENDBRANCH   3  10
TORSDOF 1
ENDMDL
MODEL 2
REMARK VINA RESULT:      -4.5     17.719     18.679
REMARK  1 active torsions:
REMARK  status: ('A' for Active; 'I' for Inactive)
REMARK    1  A    between atoms: C3_3  and  C4_4 
ROOT
HETATM    1  C1  UNL     1     -23.576  18.425   8.337  1.00 20.00     0.061 C 
HETATM    2  C2  UNL     1     -24.664  18.214   9.080  1.00 20.00     0.087 C 
HETATM    3  C4  UNL     1     -22.351  18.078   9.113  1.00 20.00     0.376 C 
HETATM    4  C5  UNL     1     -24.273  17.711  10.425  1.00 20.00     0.463 C 
HETATM    5  C6  UNL     1     -22.080  17.689  11.530  1.00 20.00     0.324 C 
HETATM    6  N7  UNL     1     -22.838  17.394  10.326  1.00 20.00     0.211 N 
HETATM    7  F9  UNL     1     -21.641  19.199   9.414  1.00 20.00    -0.195 F 
HETATM    8  F10 UNL     1     -24.523  18.648  11.378  1.00 20.00    -0.169 F 
HETATM    9  F11 UNL     1     -24.966  16.597  10.771  1.00 20.00    -0.169 F 
ENDROOT
BRANCH   3  10
HETATM   10  C3  UNL     1     -21.536  17.105   8.329  1.00 20.00     0.312 C 
HETATM   11  O8  UNL     1     -21.713  16.881   7.137  1.00 20.00    -0.301 OA
ENDBRANCH   3  10
TORSDOF 1
ENDMDL
MODEL 3
REMARK VINA RESULT:      -4.4     17.110     18.162
REMARK  1 active torsions:
REMARK  status: ('A' for Active; 'I' for Inactive)
REMARK    1  A    between atoms: C3_3  and  C4_4 
ROOT
HETATM    1  C1  UNL     1     -24.871  18.867  10.362  1.00 20.00     0.061 C 
HETATM    2  C2  UNL     1     -24.936  17.871  11.248  1.00 20.00     0.087 C 
HETATM    3  C4  UNL     1     -23.946  18.504   9.250  1.00 20.00     0.376 C 
HETATM    4  C5  UNL     1     -24.057  16.749  10.818  1.00 20.00     0.463 C 
HETATM    5  C6  UNL     1     -22.291  16.686   9.113  1.00 20.00     0.324 C 
HETATM    6  N7  UNL     1     -23.653  17.071   9.438  1.00 20.00     0.211 N 
HETATM    7  F9  UNL     1     -22.818  19.263   9.299  1.00 20.00    -0.195 F 
HETATM    8  F10 UNL     1     -22.987  16.632  11.648  1.00 20.00    -0.169 F 
HETATM    9  F11 UNL     1     -24.709  15.559  10.839  1.00 20.00    -0.169 F 
ENDROOT
BRANCH   3  10
HETATM   10  C3  UNL     1     -24.661  18.664   7.951  1.00 20.00     0.312 C 
HETATM   11  O8  UNL     1     -24.088  18.791   6.874  1.00 20.00    -0.301 OA
ENDBRANCH   3  10
TORSDOF 1
ENDMDL
MODEL 4
REMARK VINA RESULT:      -4.4      1.499      1.535
REMARK  1 active torsions:
REMARK  status: ('A' for Active; 'I' for Inactive)
REMARK    1  A    between atoms: C3_3  and  C4_4 
ROOT
HETATM    1  C1  UNL     1     -35.985  15.980  -3.083  1.00 20.00     0.061 C 
HETATM    2  C2  UNL     1     -34.793  15.407  -2.903  1.00 20.00     0.087 C 
HETATM    3  C4  UNL     1     -36.510  15.657  -4.440  1.00 20.00     0.376 C 
HETATM    4  C5  UNL     1     -34.403  14.651  -4.125  1.00 20.00     0.463 C 
HETATM    5  C6  UNL     1     -35.342  14.714  -6.393  1.00 20.00     0.324 C 
HETATM    6  N7  UNL     1     -35.610  14.614  -4.969  1.00 20.00     0.211 N 
HETATM    7  F9  UNL     1     -36.518  16.766  -5.227  1.00 20.00    -0.195 F 
HETATM    8  F10 UNL     1     -33.361  15.257  -4.752  1.00 20.00    -0.169 F 
HETATM    9  F11 UNL     1     -34.010  13.386  -3.833  1.00 20.00    -0.169 F 
ENDROOT
BRANCH   3  10
HETATM   10  C3  UNL     1     -37.874  15.067  -4.307  1.00 20.00     0.312 C 
HETATM   11  O8  UNL     1     -38.097  13.862  -4.349  1.00 20.00    -0.301 OA
ENDBRANCH   3  10
TORSDOF 1
ENDMDL
MODEL 5
REMARK VINA RESULT:      -4.3      1.491      1.733
REMARK  1 active torsions:
REMARK  status: ('A' for Active; 'I' for Inactive)
REMARK    1  A    between atoms: C3_3  and  C4_4 
ROOT
HETATM    1  C1  UNL     1     -36.280  16.079  -4.404  1.00 20.00     0.061 C 
HETATM    2  C2  UNL     1     -35.608  16.805  -3.507  1.00 20.00     0.087 C 
HETATM    3  C4  UNL     1     -35.475  14.890  -4.807  1.00 20.00     0.376 C 
HETATM    4  C5  UNL     1     -34.288  16.174  -3.228  1.00 20.00     0.463 C 
HETATM    5  C6  UNL     1     -33.086  14.413  -4.446  1.00 20.00     0.324 C 
HETATM    6  N7  UNL     1     -34.344  14.845  -3.861  1.00 20.00     0.211 N 
HETATM    7  F9  UNL     1     -35.055  15.010  -6.095  1.00 20.00    -0.195 F 
HETATM    8  F10 UNL     1     -33.278  16.935  -3.727  1.00 20.00    -0.169 F 
HETATM    9  F11 UNL     1     -34.064  16.038  -1.896  1.00 20.00    -0.169 F 
ENDROOT
BRANCH   3  10
HETATM   10  C3  UNL     1     -36.294  13.659  -4.607  1.00 20.00     0.312 C 
HETATM   11  O8  UNL     1     -37.511  13.672  -4.460  1.00 20.00    -0.301 OA
ENDBRANCH   3  10
TORSDOF 1
ENDMDL
MODEL 6
REMARK VINA RESULT:      -4.2      1.566      1.936
REMARK  1 active torsions:
REMARK  status: ('A' for Active; 'I' for Inactive)
REMARK    1  A    between atoms: C3_3  and  C4_4 
ROOT
HETATM    1  C1  UNL     1     -35.782  14.175  -4.592  1.00 20.00     0.061 C 
HETATM    2  C2  UNL     1     -34.701  13.909  -3.857  1.00 20.00     0.087 C 
HETATM    3  C4  UNL     1     -35.688  15.550  -5.162  1.00 20.00     0.376 C 
HETATM    4  C5  UNL     1     -33.782  15.080  -3.858  1.00 20.00     0.463 C 
HETATM    5  C6  UNL     1     -34.178  17.400  -4.560  1.00 20.00     0.324 C 
HETATM    6  N7  UNL     1     -34.307  15.992  -4.891  1.00 20.00     0.211 N 
HETATM    7  F9  UNL     1     -36.606  16.371  -4.583  1.00 20.00    -0.195 F 
HETATM    8  F10 UNL     1     -33.749  15.665  -2.632  1.00 20.00    -0.169 F 
HETATM    9  F11 UNL     1     -32.509  14.725  -4.165  1.00 20.00    -0.169 F 
ENDROOT
BRANCH   3  10
HETATM   10  C3  UNL     1     -35.869  15.478  -6.641  1.00 20.00     0.312 C 
HETATM   11  O8  UNL     1     -36.167  14.448  -7.236  1.00 20.00    -0.301 OA
ENDBRANCH   3  10
TORSDOF 1
ENDMDL
MODEL 7
REMARK VINA RESULT:      -4.2      1.243      2.673
REMARK  1 active torsions:
REMARK  status: ('A' for Active; 'I' for Inactive)
REMARK    1  A    between atoms: C3_3  and  C4_4 
ROOT
HETATM    1  C1  UNL     1     -34.484  15.112  -5.933  1.00 20.00     0.061 C 
HETATM    2  C2  UNL     1     -34.463  16.446  -5.963  1.00 20.00     0.087 C 
HETATM    3  C4  UNL     1     -34.779  14.635  -4.551  1.00 20.00     0.376 C 
HETATM    4  C5  UNL     1     -34.735  16.990  -4.604  1.00 20.00     0.463 C 
HETATM    5  C6  UNL     1     -34.730  15.869  -2.420  1.00 20.00     0.324 C 
HETATM    6  N7  UNL     1     -35.182  15.839  -3.800  1.00 20.00     0.211 N 
HETATM    7  F9  UNL     1     -33.683  14.041  -4.006  1.00 20.00    -0.195 F 
HETATM    8  F10 UNL     1     -33.620  17.571  -4.088  1.00 20.00    -0.169 F 
HETATM    9  F11 UNL     1     -35.705  17.939  -4.624  1.00 20.00    -0.169 F 
ENDROOT
BRANCH   3  10
HETATM   10  C3  UNL     1     -35.944  13.705  -4.594  1.00 20.00     0.312 C 
HETATM   11  O8  UNL     1     -35.852  12.496  -4.413  1.00 20.00    -0.301 OA
ENDBRANCH   3  10
TORSDOF 1
ENDMDL
MODEL 8
REMARK VINA RESULT:      -4.1      2.312      3.102
REMARK  1 active torsions:
REMARK  status: ('A' for Active; 'I' for Inactive)
REMARK    1  A    between atoms: C3_3  and  C4_4 
ROOT
HETATM    1  C1  UNL     1     -33.869  15.030  -6.016  1.00 20.00     0.061 C 
HETATM    2  C2  UNL     1     -33.449  14.644  -4.810  1.00 20.00     0.087 C 
HETATM    3  C4  UNL     1     -35.358  15.109  -6.039  1.00 20.00     0.376 C 
HETATM    4  C5  UNL     1     -34.615  14.422  -3.911  1.00 20.00     0.463 C 
HETATM    5  C6  UNL     1     -37.004  14.213  -4.442  1.00 20.00     0.324 C 
HETATM    6  N7  UNL     1     -35.779  14.969  -4.632  1.00 20.00     0.211 N 
HETATM    7  F9  UNL     1     -35.877  14.126  -6.824  1.00 20.00    -0.195 F 
HETATM    8  F10 UNL     1     -34.763  13.100  -3.634  1.00 20.00    -0.169 F 
HETATM    9  F11 UNL     1     -34.470  15.064  -2.725  1.00 20.00    -0.169 F 
ENDROOT
BRANCH   3  10
HETATM   10  C3  UNL     1     -35.767  16.463  -6.512  1.00 20.00     0.312 C 
HETATM   11  O8  UNL     1     -35.555  17.492  -5.879  1.00 20.00    -0.301 OA
ENDBRANCH   3  10
TORSDOF 1
ENDMDL
MODEL 9
REMARK VINA RESULT:      -4.1      1.683      2.608
REMARK  1 active torsions:
REMARK  status: ('A' for Active; 'I' for Inactive)
REMARK    1  A    between atoms: C3_3  and  C4_4 
ROOT
HETATM    1  C1  UNL     1     -35.800  14.316  -6.116  1.00 20.00     0.061 C 
HETATM    2  C2  UNL     1     -34.769  15.106  -6.422  1.00 20.00     0.087 C 
HETATM    3  C4  UNL     1     -36.104  14.409  -4.659  1.00 20.00     0.376 C 
HETATM    4  C5  UNL     1     -34.279  15.800  -5.199  1.00 20.00     0.463 C 
HETATM    5  C6  UNL     1     -34.752  15.354  -2.831  1.00 20.00     0.324 C 
HETATM    6  N7  UNL     1     -35.296  15.540  -4.164  1.00 20.00     0.211 N 
HETATM    7  F9  UNL     1     -35.787  13.246  -4.029  1.00 20.00    -0.195 F 
HETATM    8  F10 UNL     1     -33.055  15.331  -4.839  1.00 20.00    -0.169 F 
HETATM    9  F11 UNL     1     -34.153  17.137  -5.392  1.00 20.00    -0.169 F 
ENDROOT
BRANCH   3  10
HETATM   10  C3  UNL     1     -37.543  14.757  -4.483  1.00 20.00     0.312 C 
HETATM   11  O8  UNL     1     -38.434  13.921  -4.383  1.00 20.00    -0.301 OA
ENDBRANCH   3  10
TORSDOF 1
ENDMDL
