MODEL 1
REMARK VINA RESULT:      -5.4      0.000      0.000
REMARK  0 active torsions:
REMARK  status: ('A' for Active; 'I' for Inactive)
ROOT
HETATM    1  C1  UNL     1     -35.556  14.784  -7.234  1.00 20.00     0.015 C 
HETATM    2  C2  UNL     1     -35.646  14.449  -6.085  1.00 20.00    -0.075 C 
HETATM    3  C3  UNL     1     -33.491  16.364  -2.655  1.00 20.00     0.001 C 
HETATM    4  C4  UNL     1     -34.995  16.438  -2.308  1.00 20.00     0.005 C 
HETATM    5  C5  UNL     1     -33.372  15.331  -3.799  1.00 20.00     0.009 C 
HETATM    6  C6  UNL     1     -36.790  14.816  -3.793  1.00 20.00     0.060 C 
HETATM    7  C7  UNL     1     -35.632  15.820  -3.533  1.00 20.00    -0.003 C 
HETATM    8  C8  UNL     1     -34.690  14.589  -3.699  1.00 20.00     0.040 C 
HETATM    9  C9  UNL     1     -35.754  14.046  -4.704  1.00 20.00     0.162 C 
HETATM   10  O10 UNL     1     -35.914  12.653  -4.621  1.00 20.00    -0.214 OA
ENDROOT
TORSDOF 0
ENDMDL
MODEL 2
REMARK VINA RESULT:      -4.9      1.479      1.758
REMARK  0 active torsions:
REMARK  status: ('A' for Active; 'I' for Inactive)
ROOT
HETATM    1  C1  UNL     1     -34.416  16.045  -6.712  1.00 20.00     0.015 C 
HETATM    2  C2  UNL     1     -34.238  15.480  -5.668  1.00 20.00    -0.075 C 
HETATM    3  C3  UNL     1     -33.890  17.476  -1.671  1.00 20.00     0.001 C 
HETATM    4  C4  UNL     1     -35.043  16.456  -1.540  1.00 20.00     0.005 C 
HETATM    5  C5  UNL     1     -33.123  17.082  -2.954  1.00 20.00     0.009 C 
HETATM    6  C6  UNL     1     -35.294  14.457  -3.539  1.00 20.00     0.060 C 
HETATM    7  C7  UNL     1     -35.115  15.878  -2.935  1.00 20.00    -0.003 C 
HETATM    8  C8  UNL     1     -33.591  15.658  -3.183  1.00 20.00     0.040 C 
HETATM    9  C9  UNL     1     -34.024  14.800  -4.413  1.00 20.00     0.162 C 
HETATM   10  O10 UNL     1     -33.200  13.680  -4.608  1.00 20.00    -0.214 OA
ENDROOT
TORSDOF 0
ENDMDL
MODEL 3
REMARK VINA RESULT:      -4.9     17.729     19.202
REMARK  0 active torsions:
REMARK  status: ('A' for Active; 'I' for Inactive)
ROOT
HETATM    1  C1  UNL     1     -26.168  19.227  11.936  1.00 20.00     0.015 C 
HETATM    2  C2  UNL     1     -25.412  18.309  11.774  1.00 20.00    -0.075 C 
HETATM    3  C3  UNL     1     -22.483  17.933   8.404  1.00 20.00     0.001 C 
HETATM    4  C4  UNL     1     -21.653  17.832   9.703  1.00 20.00     0.005 C 
HETATM    5  C5  UNL     1     -23.954  17.714   8.825  1.00 20.00     0.009 C 
HETATM    6  C6  UNL     1     -23.034  17.356  12.137  1.00 20.00     0.060 C 
HETATM    7  C7  UNL     1     -22.710  18.018  10.769  1.00 20.00    -0.003 C 
HETATM    8  C8  UNL     1     -23.805  17.070  10.190  1.00 20.00     0.040 C 
HETATM    9  C9  UNL     1     -24.504  17.204  11.579  1.00 20.00     0.162 C 
HETATM   10  O10 UNL     1     -25.106  16.007  11.999  1.00 20.00    -0.214 OA
ENDROOT
TORSDOF 0
ENDMDL
MODEL 4
REMARK VINA RESULT:      -4.4      1.333      2.170
REMARK  0 active torsions:
REMARK  status: ('A' for Active; 'I' for Inactive)
ROOT
HETATM    1  C1  UNL     1     -38.428  14.893  -4.183  1.00 20.00     0.015 C 
HETATM    2  C2  UNL     1     -37.298  14.684  -4.532  1.00 20.00    -0.075 C 
HETATM    3  C3  UNL     1     -33.791  17.336  -3.672  1.00 20.00     0.001 C 
HETATM    4  C4  UNL     1     -33.423  15.946  -3.107  1.00 20.00     0.005 C 
HETATM    5  C5  UNL     1     -34.993  17.103  -4.615  1.00 20.00     0.009 C 
HETATM    6  C6  UNL     1     -34.976  13.716  -3.927  1.00 20.00     0.060 C 
HETATM    7  C7  UNL     1     -34.673  15.146  -3.397  1.00 20.00    -0.003 C 
HETATM    8  C8  UNL     1     -34.920  15.610  -4.866  1.00 20.00     0.040 C 
HETATM    9  C9  UNL     1     -35.941  14.432  -4.952  1.00 20.00     0.162 C 
HETATM   10  O10 UNL     1     -35.935  13.804  -6.208  1.00 20.00    -0.214 OA
ENDROOT
TORSDOF 0
ENDMDL
MODEL 5
REMARK VINA RESULT:      -4.3      1.312      3.696
REMARK  0 active torsions:
REMARK  status: ('A' for Active; 'I' for Inactive)
ROOT
HETATM    1  C1  UNL     1     -35.036  15.906  -2.180  1.00 20.00     0.015 C 
HETATM    2  C2  UNL     1     -34.848  15.202  -3.135  1.00 20.00    -0.075 C 
HETATM    3  C3  UNL     1     -36.173  16.111  -7.318  1.00 20.00     0.001 C 
HETATM    4  C4  UNL     1     -34.645  15.894  -7.392  1.00 20.00     0.005 C 
HETATM    5  C5  UNL     1     -36.615  15.534  -5.954  1.00 20.00     0.009 C 
HETATM    6  C6  UNL     1     -33.361  14.660  -5.182  1.00 20.00     0.060 C 
HETATM    7  C7  UNL     1     -34.290  15.647  -5.943  1.00 20.00    -0.003 C 
HETATM    8  C8  UNL     1     -35.437  14.655  -5.580  1.00 20.00     0.040 C 
HETATM    9  C9  UNL     1     -34.624  14.357  -4.282  1.00 20.00     0.162 C 
HETATM   10  O10 UNL     1     -34.688  13.006  -3.903  1.00 20.00    -0.214 OA
ENDROOT
TORSDOF 0
ENDMDL
MODEL 6
REMARK VINA RESULT:      -4.2      2.477      4.221
REMARK  0 active torsions:
REMARK  status: ('A' for Active; 'I' for Inactive)
ROOT
HETATM    1  C1  UNL     1     -36.681  18.947  -2.512  1.00 20.00     0.015 C 
HETATM    2  C2  UNL     1     -35.924  18.138  -2.050  1.00 20.00    -0.075 C 
HETATM    3  C3  UNL     1     -34.282  14.589  -4.238  1.00 20.00     0.001 C 
HETATM    4  C4  UNL     1     -33.056  15.389  -3.744  1.00 20.00     0.005 C 
HETATM    5  C5  UNL     1     -35.489  15.127  -3.436  1.00 20.00     0.009 C 
HETATM    6  C6  UNL     1     -33.469  17.373  -1.756  1.00 20.00     0.060 C 
HETATM    7  C7  UNL     1     -33.706  16.578  -3.070  1.00 20.00    -0.003 C 
HETATM    8  C8  UNL     1     -34.814  15.826  -2.271  1.00 20.00     0.040 C 
HETATM    9  C9  UNL     1     -35.013  17.166  -1.496  1.00 20.00     0.162 C 
HETATM   10  O10 UNL     1     -35.295  16.965  -0.135  1.00 20.00    -0.214 OA
ENDROOT
TORSDOF 0
ENDMDL
MODEL 7
REMARK VINA RESULT:      -4.2      1.783      2.538
REMARK  0 active torsions:
REMARK  status: ('A' for Active; 'I' for Inactive)
ROOT
HETATM    1  C1  UNL     1     -36.489  13.615  -4.573  1.00 20.00     0.015 C 
HETATM    2  C2  UNL     1     -35.475  14.201  -4.836  1.00 20.00    -0.075 C 
HETATM    3  C3  UNL     1     -34.131  18.028  -2.931  1.00 20.00     0.001 C 
HETATM    4  C4  UNL     1     -32.986  17.015  -2.707  1.00 20.00     0.005 C 
HETATM    5  C5  UNL     1     -35.027  17.415  -4.032  1.00 20.00     0.009 C 
HETATM    6  C6  UNL     1     -32.992  14.629  -4.244  1.00 20.00     0.060 C 
HETATM    7  C7  UNL     1     -33.549  15.758  -3.333  1.00 20.00    -0.003 C 
HETATM    8  C8  UNL     1     -34.111  16.376  -4.650  1.00 20.00     0.040 C 
HETATM    9  C9  UNL     1     -34.256  14.905  -5.151  1.00 20.00     0.162 C 
HETATM   10  O10 UNL     1     -33.962  14.770  -6.518  1.00 20.00    -0.214 OA
ENDROOT
TORSDOF 0
ENDMDL
MODEL 8
REMARK VINA RESULT:      -4.2     17.608     18.868
REMARK  0 active torsions:
REMARK  status: ('A' for Active; 'I' for Inactive)
ROOT
HETATM    1  C1  UNL     1     -24.725  15.508  11.929  1.00 20.00     0.015 C 
HETATM    2  C2  UNL     1     -24.446  16.627  11.597  1.00 20.00    -0.075 C 
HETATM    3  C3  UNL     1     -22.245  17.744   7.857  1.00 20.00     0.001 C 
HETATM    4  C4  UNL     1     -23.582  18.518   7.813  1.00 20.00     0.005 C 
HETATM    5  C5  UNL     1     -22.085  17.262   9.317  1.00 20.00     0.009 C 
HETATM    6  C6  UNL     1     -25.094  18.711  10.207  1.00 20.00     0.060 C 
HETATM    7  C7  UNL     1     -24.265  18.042   9.075  1.00 20.00    -0.003 C 
HETATM    8  C8  UNL     1     -23.060  18.156  10.059  1.00 20.00     0.040 C 
HETATM    9  C9  UNL     1     -24.110  17.973  11.198  1.00 20.00     0.162 C 
HETATM   10  O10 UNL     1     -23.821  18.752  12.330  1.00 20.00    -0.214 OA
ENDROOT
TORSDOF 0
ENDMDL
MODEL 9
REMARK VINA RESULT:      -4.1      1.333      3.106
REMARK  0 active torsions:
REMARK  status: ('A' for Active; 'I' for Inactive)
ROOT
HETATM    1  C1  UNL     1     -38.657  14.704  -4.156  1.00 20.00     0.015 C 
HETATM    2  C2  UNL     1     -37.512  14.422  -4.382  1.00 20.00    -0.075 C 
HETATM    3  C3  UNL     1     -34.921  16.392  -7.462  1.00 20.00     0.001 C 
HETATM    4  C4  UNL     1     -34.174  16.541  -6.117  1.00 20.00     0.005 C 
HETATM    5  C5  UNL     1     -35.998  15.308  -7.228  1.00 20.00     0.009 C 
HETATM    6  C6  UNL     1     -35.015  14.931  -3.936  1.00 20.00     0.060 C 
HETATM    7  C7  UNL     1     -35.139  15.898  -5.146  1.00 20.00    -0.003 C 
HETATM    8  C8  UNL     1     -35.497  14.623  -5.971  1.00 20.00     0.040 C 
HETATM    9  C9  UNL     1     -36.137  14.082  -4.654  1.00 20.00     0.162 C 
HETATM   10  O10 UNL     1     -35.940  12.702  -4.486  1.00 20.00    -0.214 OA
ENDROOT
TORSDOF 0
ENDMDL
