MODEL 1
REMARK VINA RESULT:      -5.3      0.000      0.000
REMARK  1 active torsions:
REMARK  status: ('A' for Active; 'I' for Inactive)
REMARK    1  A    between atoms: C2_2  and  C3_3 
ROOT
HETATM    1  C1  UNL     1     -33.495  15.047  -4.170  1.00 20.00    -0.010 A 
HETATM    2  C2  UNL     1     -34.802  14.793  -4.011  1.00 20.00    -0.016 A 
HETATM    3  C4  UNL     1     -35.348  15.554  -2.837  1.00 20.00     0.048 A 
HETATM    4  C5  UNL     1     -32.951  15.961  -3.149  1.00 20.00     0.022 A 
HETATM    5  C6  UNL     1     -34.152  16.303  -2.273  1.00 20.00     0.007 A 
HETATM    6  C7  UNL     1     -33.398  17.401  -3.004  1.00 20.00    -0.036 A 
HETATM    7  C9  UNL     1     -32.523  18.301  -2.163  1.00 20.00     0.016 C 
HETATM    8  C10 UNL     1     -34.040  18.125  -4.161  1.00 20.00     0.016 C 
ENDROOT
BRANCH   2   9
HETATM    9  C3  UNL     1     -35.583  13.924  -4.869  1.00 20.00     0.151 C 
HETATM   10  C8  UNL     1     -35.967  14.420  -6.248  1.00 20.00     0.096 C 
HETATM   11  O11 UNL     1     -35.941  12.797  -4.488  1.00 20.00    -0.293 OA
ENDBRANCH   2   9
TORSDOF 1
ENDMDL
MODEL 2
REMARK VINA RESULT:      -4.9      2.686      4.768
REMARK  1 active torsions:
REMARK  status: ('A' for Active; 'I' for Inactive)
REMARK    1  A    between atoms: C2_2  and  C3_3 
ROOT
HETATM    1  C1  UNL     1     -34.350  17.081  -1.590  1.00 20.00    -0.010 A 
HETATM    2  C2  UNL     1     -33.158  17.284  -2.170  1.00 20.00    -0.016 A 
HETATM    3  C4  UNL     1     -32.923  16.275  -3.257  1.00 20.00     0.048 A 
HETATM    4  C5  UNL     1     -35.079  15.925  -2.143  1.00 20.00     0.022 A 
HETATM    5  C6  UNL     1     -34.158  15.389  -3.236  1.00 20.00     0.007 A 
HETATM    6  C7  UNL     1     -35.562  15.859  -3.578  1.00 20.00    -0.036 A 
HETATM    7  C9  UNL     1     -36.577  14.788  -3.902  1.00 20.00     0.016 C 
HETATM    8  C10 UNL     1     -35.769  17.123  -4.375  1.00 20.00     0.016 C 
ENDROOT
BRANCH   2   9
HETATM    9  C3  UNL     1     -32.237  18.345  -1.813  1.00 20.00     0.151 C 
HETATM   10  C8  UNL     1     -31.601  18.322  -0.438  1.00 20.00     0.096 C 
HETATM   11  O11 UNL     1     -31.974  19.263  -2.607  1.00 20.00    -0.293 OA
ENDBRANCH   2   9
TORSDOF 1
ENDMDL
MODEL 3
REMARK VINA RESULT:      -4.9      1.084      1.784
REMARK  1 active torsions:
REMARK  status: ('A' for Active; 'I' for Inactive)
REMARK    1  A    between atoms: C2_2  and  C3_3 
ROOT
HETATM    1  C1  UNL     1     -34.752  16.640  -4.958  1.00 20.00    -0.010 A 
HETATM    2  C2  UNL     1     -34.690  15.313  -5.139  1.00 20.00    -0.016 A 
HETATM    3  C4  UNL     1     -33.644  14.708  -4.246  1.00 20.00     0.048 A 
HETATM    4  C5  UNL     1     -33.774  17.141  -3.975  1.00 20.00     0.022 A 
HETATM    5  C6  UNL     1     -33.044  15.888  -3.499  1.00 20.00     0.007 A 
HETATM    6  C7  UNL     1     -33.801  16.758  -2.509  1.00 20.00    -0.036 A 
HETATM    7  C9  UNL     1     -32.971  17.603  -1.572  1.00 20.00     0.016 C 
HETATM    8  C10 UNL     1     -35.073  16.255  -1.872  1.00 20.00     0.016 C 
ENDROOT
BRANCH   2   9
HETATM    9  C3  UNL     1     -35.532  14.564  -6.051  1.00 20.00     0.151 C 
HETATM   10  C8  UNL     1     -35.696  15.072  -7.468  1.00 20.00     0.096 C 
HETATM   11  O11 UNL     1     -36.117  13.531  -5.685  1.00 20.00    -0.293 OA
ENDBRANCH   2   9
TORSDOF 1
ENDMDL
MODEL 4
REMARK VINA RESULT:      -4.8      1.669      2.135
REMARK  1 active torsions:
REMARK  status: ('A' for Active; 'I' for Inactive)
REMARK    1  A    between atoms: C2_2  and  C3_3 
ROOT
HETATM    1  C1  UNL     1     -35.876  16.717  -4.072  1.00 20.00    -0.010 A 
HETATM    2  C2  UNL     1     -36.150  15.409  -3.965  1.00 20.00    -0.016 A 
HETATM    3  C4  UNL     1     -34.976  14.671  -3.389  1.00 20.00     0.048 A 
HETATM    4  C5  UNL     1     -34.512  17.065  -3.635  1.00 20.00     0.022 A 
HETATM    5  C6  UNL     1     -33.912  15.736  -3.183  1.00 20.00     0.007 A 
HETATM    6  C7  UNL     1     -34.030  16.896  -2.208  1.00 20.00    -0.036 A 
HETATM    7  C9  UNL     1     -32.750  17.606  -1.837  1.00 20.00     0.016 C 
HETATM    8  C10 UNL     1     -35.017  16.835  -1.068  1.00 20.00     0.016 C 
ENDROOT
BRANCH   2   9
HETATM    9  C3  UNL     1     -37.412  14.798  -4.331  1.00 20.00     0.151 C 
HETATM   10  C8  UNL     1     -38.617  15.692  -4.541  1.00 20.00     0.096 C 
HETATM   11  O11 UNL     1     -37.516  13.568  -4.466  1.00 20.00    -0.293 OA
ENDBRANCH   2   9
TORSDOF 1
ENDMDL
MODEL 5
REMARK VINA RESULT:      -4.8      1.626      1.888
REMARK  1 active torsions:
REMARK  status: ('A' for Active; 'I' for Inactive)
REMARK    1  A    between atoms: C2_2  and  C3_3 
ROOT
HETATM    1  C1  UNL     1     -33.026  16.407  -3.053  1.00 20.00    -0.010 A 
HETATM    2  C2  UNL     1     -33.902  15.477  -3.462  1.00 20.00    -0.016 A 
HETATM    3  C4  UNL     1     -35.152  15.530  -2.630  1.00 20.00     0.048 A 
HETATM    4  C5  UNL     1     -33.504  17.191  -1.900  1.00 20.00     0.022 A 
HETATM    5  C6  UNL     1     -34.894  16.630  -1.615  1.00 20.00     0.007 A 
HETATM    6  C7  UNL     1     -34.716  18.099  -1.961  1.00 20.00    -0.036 A 
HETATM    7  C9  UNL     1     -34.878  19.089  -0.831  1.00 20.00     0.016 C 
HETATM    8  C10 UNL     1     -35.207  18.635  -3.283  1.00 20.00     0.016 C 
ENDROOT
BRANCH   2   9
HETATM    9  C3  UNL     1     -33.682  14.566  -4.567  1.00 20.00     0.151 C 
HETATM   10  C8  UNL     1     -34.066  15.013  -5.963  1.00 20.00     0.096 C 
HETATM   11  O11 UNL     1     -33.197  13.437  -4.384  1.00 20.00    -0.293 OA
ENDBRANCH   2   9
TORSDOF 1
ENDMDL
MODEL 6
REMARK VINA RESULT:      -4.7      2.733      4.374
REMARK  1 active torsions:
REMARK  status: ('A' for Active; 'I' for Inactive)
REMARK    1  A    between atoms: C2_2  and  C3_3 
ROOT
HETATM    1  C1  UNL     1     -35.046  15.920  -2.158  1.00 20.00    -0.010 A 
HETATM    2  C2  UNL     1     -34.223  16.872  -1.693  1.00 20.00    -0.016 A 
HETATM    3  C4  UNL     1     -32.981  16.950  -2.534  1.00 20.00     0.048 A 
HETATM    4  C5  UNL     1     -34.504  15.200  -3.325  1.00 20.00     0.022 A 
HETATM    5  C6  UNL     1     -33.156  15.865  -3.584  1.00 20.00     0.007 A 
HETATM    6  C7  UNL     1     -34.231  15.868  -4.657  1.00 20.00    -0.036 A 
HETATM    7  C9  UNL     1     -34.014  14.954  -5.840  1.00 20.00     0.016 C 
HETATM    8  C10 UNL     1     -34.932  17.151  -5.029  1.00 20.00     0.016 C 
ENDROOT
BRANCH   2   9
HETATM    9  C3  UNL     1     -34.505  17.722  -0.554  1.00 20.00     0.151 C 
HETATM   10  C8  UNL     1     -35.516  17.250   0.471  1.00 20.00     0.096 C 
HETATM   11  O11 UNL     1     -33.941  18.820  -0.416  1.00 20.00    -0.293 OA
ENDBRANCH   2   9
TORSDOF 1
ENDMDL
MODEL 7
REMARK VINA RESULT:      -4.7      2.378      4.441
REMARK  1 active torsions:
REMARK  status: ('A' for Active; 'I' for Inactive)
REMARK    1  A    between atoms: C2_2  and  C3_3 
ROOT
HETATM    1  C1  UNL     1     -34.607  16.385  -2.242  1.00 20.00    -0.010 A 
HETATM    2  C2  UNL     1     -33.382  16.703  -2.688  1.00 20.00    -0.016 A 
HETATM    3  C4  UNL     1     -32.917  15.701  -3.706  1.00 20.00     0.048 A 
HETATM    4  C5  UNL     1     -35.141  15.146  -2.836  1.00 20.00     0.022 A 
HETATM    5  C6  UNL     1     -34.047  14.689  -3.798  1.00 20.00     0.007 A 
HETATM    6  C7  UNL     1     -35.443  14.998  -4.314  1.00 20.00    -0.036 A 
HETATM    7  C9  UNL     1     -36.296  13.818  -4.716  1.00 20.00     0.016 C 
HETATM    8  C10 UNL     1     -35.685  16.215  -5.172  1.00 20.00     0.016 C 
ENDROOT
BRANCH   2   9
HETATM    9  C3  UNL     1     -32.626  17.863  -2.264  1.00 20.00     0.151 C 
HETATM   10  C8  UNL     1     -32.574  19.069  -3.179  1.00 20.00     0.096 C 
HETATM   11  O11 UNL     1     -32.023  17.877  -1.178  1.00 20.00    -0.293 OA
ENDBRANCH   2   9
TORSDOF 1
ENDMDL
MODEL 8
REMARK VINA RESULT:      -4.7     14.539     16.753
REMARK  1 active torsions:
REMARK  status: ('A' for Active; 'I' for Inactive)
REMARK    1  A    between atoms: C2_2  and  C3_3 
ROOT
HETATM    1  C1  UNL     1     -25.041  19.065   9.338  1.00 20.00    -0.010 A 
HETATM    2  C2  UNL     1     -24.526  18.796   8.129  1.00 20.00    -0.016 A 
HETATM    3  C4  UNL     1     -23.108  18.318   8.256  1.00 20.00     0.048 A 
HETATM    4  C5  UNL     1     -24.084  18.855  10.439  1.00 20.00     0.022 A 
HETATM    5  C6  UNL     1     -22.816  18.363   9.747  1.00 20.00     0.007 A 
HETATM    6  C7  UNL     1     -23.507  17.498  10.788  1.00 20.00    -0.036 A 
HETATM    7  C9  UNL     1     -22.826  17.376  12.131  1.00 20.00     0.016 C 
HETATM    8  C10 UNL     1     -24.219  16.233  10.376  1.00 20.00     0.016 C 
ENDROOT
BRANCH   2   9
HETATM    9  C3  UNL     1     -25.247  18.925   6.878  1.00 20.00     0.151 C 
HETATM   10  C8  UNL     1     -26.761  18.910   6.909  1.00 20.00     0.096 C 
HETATM   11  O11 UNL     1     -24.645  19.038   5.798  1.00 20.00    -0.293 OA
ENDBRANCH   2   9
TORSDOF 1
ENDMDL
MODEL 9
REMARK VINA RESULT:      -4.5      2.278      3.035
REMARK  1 active torsions:
REMARK  status: ('A' for Active; 'I' for Inactive)
REMARK    1  A    between atoms: C2_2  and  C3_3 
ROOT
HETATM    1  C1  UNL     1     -36.192  13.663  -4.399  1.00 20.00    -0.010 A 
HETATM    2  C2  UNL     1     -36.883  14.758  -4.052  1.00 20.00    -0.016 A 
HETATM    3  C4  UNL     1     -35.983  15.758  -3.385  1.00 20.00     0.048 A 
HETATM    4  C5  UNL     1     -34.771  13.721  -4.010  1.00 20.00     0.022 A 
HETATM    5  C6  UNL     1     -34.620  15.088  -3.348  1.00 20.00     0.007 A 
HETATM    6  C7  UNL     1     -33.798  14.735  -4.576  1.00 20.00    -0.036 A 
HETATM    7  C9  UNL     1     -32.329  14.460  -4.357  1.00 20.00     0.016 C 
HETATM    8  C10 UNL     1     -34.076  15.410  -5.897  1.00 20.00     0.016 C 
ENDROOT
BRANCH   2   9
HETATM    9  C3  UNL     1     -38.295  14.959  -4.308  1.00 20.00     0.151 C 
HETATM   10  C8  UNL     1     -38.822  16.376  -4.398  1.00 20.00     0.096 C 
HETATM   11  O11 UNL     1     -39.067  13.995  -4.445  1.00 20.00    -0.293 OA
ENDBRANCH   2   9
TORSDOF 1
ENDMDL
