MODEL 1
REMARK VINA RESULT:      -4.9      0.000      0.000
REMARK  3 active torsions:
REMARK  status: ('A' for Active; 'I' for Inactive)
REMARK    1  A    between atoms: C2_2  and  C6_6 
REMARK    2  A    between atoms: C3_3  and  C7_7 
REMARK    3  A    between atoms: C6_6  and  C7_7 
ROOT
HETATM    1  C7  UNL     1     -33.400   5.680   2.505  1.00 20.00     0.242 C 
HETATM    2  F9  UNL     1     -32.663   4.623   2.953  1.00 20.00    -0.241 F 
ENDROOT
BRANCH   1   3
HETATM    3  C3  UNL     1     -32.589   6.960   2.574  1.00 20.00     0.157 C 
HETATM    4  C5  UNL     1     -32.582   7.848   1.357  1.00 20.00     0.094 C 
HETATM    5  O8  UNL     1     -31.955   7.261   3.585  1.00 20.00    -0.295 OA
ENDBRANCH   1   3
BRANCH   1   6
HETATM    6  C6  UNL     1     -34.703   5.733   3.299  1.00 20.00     0.072 C 
BRANCH   6   7
HETATM    7  C2  UNL     1     -34.722   4.766   4.450  1.00 20.00    -0.028 C 
HETATM    8  C1  UNL     1     -34.520   5.122   5.728  1.00 20.00    -0.035 C 
HETATM    9  C4  UNL     1     -34.253   6.523   6.166  1.00 20.00     0.036 C 
ENDBRANCH   6   7
ENDBRANCH   1   6
TORSDOF 3
ENDMDL
MODEL 2
REMARK VINA RESULT:      -4.7      1.899      4.266
REMARK  3 active torsions:
REMARK  status: ('A' for Active; 'I' for Inactive)
REMARK    1  A    between atoms: C2_2  and  C6_6 
REMARK    2  A    between atoms: C3_3  and  C7_7 
REMARK    3  A    between atoms: C6_6  and  C7_7 
ROOT
HETATM    1  C7  UNL     1     -34.011   6.431   4.019  1.00 20.00     0.242 C 
HETATM    2  F9  UNL     1     -33.204   7.126   4.872  1.00 20.00    -0.241 F 
ENDROOT
BRANCH   1   3
HETATM    3  C3  UNL     1     -34.505   5.156   4.675  1.00 20.00     0.157 C 
HETATM    4  C5  UNL     1     -34.858   5.218   6.139  1.00 20.00     0.094 C 
HETATM    5  O8  UNL     1     -34.610   4.108   4.039  1.00 20.00    -0.295 OA
ENDBRANCH   1   3
BRANCH   1   6
HETATM    6  C6  UNL     1     -33.249   6.198   2.716  1.00 20.00     0.072 C 
BRANCH   6   7
HETATM    7  C2  UNL     1     -32.126   7.178   2.516  1.00 20.00    -0.028 C 
HETATM    8  C1  UNL     1     -32.111   8.108   1.550  1.00 20.00    -0.035 C 
HETATM    9  C4  UNL     1     -33.208   8.288   0.553  1.00 20.00     0.036 C 
ENDBRANCH   6   7
ENDBRANCH   1   6
TORSDOF 3
ENDMDL
MODEL 3
REMARK VINA RESULT:      -4.5      1.733      2.091
REMARK  3 active torsions:
REMARK  status: ('A' for Active; 'I' for Inactive)
REMARK    1  A    between atoms: C2_2  and  C6_6 
REMARK    2  A    between atoms: C3_3  and  C7_7 
REMARK    3  A    between atoms: C6_6  and  C7_7 
ROOT
HETATM    1  C7  UNL     1     -34.370   4.294   3.578  1.00 20.00     0.242 C 
HETATM    2  F9  UNL     1     -33.773   3.528   4.537  1.00 20.00    -0.241 F 
ENDROOT
BRANCH   1   3
HETATM    3  C3  UNL     1     -33.338   4.817   2.598  1.00 20.00     0.157 C 
HETATM    4  C5  UNL     1     -32.986   6.280   2.671  1.00 20.00     0.094 C 
HETATM    5  O8  UNL     1     -32.810   4.076   1.769  1.00 20.00    -0.295 OA
ENDBRANCH   1   3
BRANCH   1   6
HETATM    6  C6  UNL     1     -35.175   5.391   4.269  1.00 20.00     0.072 C 
BRANCH   6   7
HETATM    7  C2  UNL     1     -35.017   5.375   5.764  1.00 20.00    -0.028 C 
HETATM    8  C1  UNL     1     -34.257   6.246   6.445  1.00 20.00    -0.035 C 
HETATM    9  C4  UNL     1     -33.472   7.341   5.802  1.00 20.00     0.036 C 
ENDBRANCH   6   7
ENDBRANCH   1   6
TORSDOF 3
ENDMDL
MODEL 4
REMARK VINA RESULT:      -4.4      1.694      2.193
REMARK  3 active torsions:
REMARK  status: ('A' for Active; 'I' for Inactive)
REMARK    1  A    between atoms: C2_2  and  C6_6 
REMARK    2  A    between atoms: C3_3  and  C7_7 
REMARK    3  A    between atoms: C6_6  and  C7_7 
ROOT
HETATM    1  C7  UNL     1     -32.456   6.970   4.021  1.00 20.00     0.242 C 
HETATM    2  F9  UNL     1     -31.522   7.961   4.123  1.00 20.00    -0.241 F 
ENDROOT
BRANCH   1   3
HETATM    3  C3  UNL     1     -32.724   6.642   2.565  1.00 20.00     0.157 C 
HETATM    4  C5  UNL     1     -32.539   7.745   1.556  1.00 20.00     0.094 C 
HETATM    5  O8  UNL     1     -33.086   5.517   2.219  1.00 20.00    -0.295 OA
ENDBRANCH   1   3
BRANCH   1   6
HETATM    6  C6  UNL     1     -33.700   7.397   4.796  1.00 20.00     0.072 C 
BRANCH   6   7
HETATM    7  C2  UNL     1     -33.972   6.522   5.988  1.00 20.00    -0.028 C 
HETATM    8  C1  UNL     1     -34.676   5.382   5.933  1.00 20.00    -0.035 C 
HETATM    9  C4  UNL     1     -35.279   4.839   4.680  1.00 20.00     0.036 C 
ENDBRANCH   6   7
ENDBRANCH   1   6
TORSDOF 3
ENDMDL
MODEL 5
REMARK VINA RESULT:      -4.3     11.767     12.254
REMARK  3 active torsions:
REMARK  status: ('A' for Active; 'I' for Inactive)
REMARK    1  A    between atoms: C2_2  and  C6_6 
REMARK    2  A    between atoms: C3_3  and  C7_7 
REMARK    3  A    between atoms: C6_6  and  C7_7 
ROOT
HETATM    1  C7  UNL     1     -34.798  14.666  -5.011  1.00 20.00     0.242 C 
HETATM    2  F9  UNL     1     -35.183  15.944  -5.296  1.00 20.00    -0.241 F 
ENDROOT
BRANCH   1   3
HETATM    3  C3  UNL     1     -35.995  13.829  -4.606  1.00 20.00     0.157 C 
HETATM    4  C5  UNL     1     -37.289  14.549  -4.332  1.00 20.00     0.094 C 
HETATM    5  O8  UNL     1     -35.913  12.605  -4.499  1.00 20.00    -0.295 OA
ENDBRANCH   1   3
BRANCH   1   6
HETATM    6  C6  UNL     1     -33.696  14.717  -3.956  1.00 20.00     0.072 C 
BRANCH   6   7
HETATM    7  C2  UNL     1     -33.338  16.122  -3.556  1.00 20.00    -0.028 C 
HETATM    8  C1  UNL     1     -33.924  16.784  -2.548  1.00 20.00    -0.035 C 
HETATM    9  C4  UNL     1     -35.006  16.209  -1.695  1.00 20.00     0.036 C 
ENDBRANCH   6   7
ENDBRANCH   1   6
TORSDOF 3
ENDMDL
MODEL 6
REMARK VINA RESULT:      -4.2     11.831     12.291
REMARK  3 active torsions:
REMARK  status: ('A' for Active; 'I' for Inactive)
REMARK    1  A    between atoms: C2_2  and  C6_6 
REMARK    2  A    between atoms: C3_3  and  C7_7 
REMARK    3  A    between atoms: C6_6  and  C7_7 
ROOT
HETATM    1  C7  UNL     1     -34.958  14.787  -4.944  1.00 20.00     0.242 C 
HETATM    2  F9  UNL     1     -35.464  15.992  -5.336  1.00 20.00    -0.241 F 
ENDROOT
BRANCH   1   3
HETATM    3  C3  UNL     1     -36.080  13.829  -4.593  1.00 20.00     0.157 C 
HETATM    4  C5  UNL     1     -37.457  14.409  -4.402  1.00 20.00     0.094 C 
HETATM    5  O8  UNL     1     -35.874  12.622  -4.463  1.00 20.00    -0.295 OA
ENDBRANCH   1   3
BRANCH   1   6
HETATM    6  C6  UNL     1     -33.971  15.025  -3.804  1.00 20.00     0.072 C 
BRANCH   6   7
HETATM    7  C2  UNL     1     -34.620  15.633  -2.591  1.00 20.00    -0.028 C 
HETATM    8  C1  UNL     1     -34.153  16.722  -1.961  1.00 20.00    -0.035 C 
HETATM    9  C4  UNL     1     -32.931  17.466  -2.385  1.00 20.00     0.036 C 
ENDBRANCH   6   7
ENDBRANCH   1   6
TORSDOF 3
ENDMDL
MODEL 7
REMARK VINA RESULT:      -4.2      1.717      2.070
REMARK  3 active torsions:
REMARK  status: ('A' for Active; 'I' for Inactive)
REMARK    1  A    between atoms: C2_2  and  C6_6 
REMARK    2  A    between atoms: C3_3  and  C7_7 
REMARK    3  A    between atoms: C6_6  and  C7_7 
ROOT
HETATM    1  C7  UNL     1     -32.294   7.067   2.618  1.00 20.00     0.242 C 
HETATM    2  F9  UNL     1     -31.511   7.678   3.554  1.00 20.00    -0.241 F 
ENDROOT
BRANCH   1   3
HETATM    3  C3  UNL     1     -32.391   7.921   1.369  1.00 20.00     0.157 C 
HETATM    4  C5  UNL     1     -33.328   9.101   1.402  1.00 20.00     0.094 C 
HETATM    5  O8  UNL     1     -31.734   7.659   0.362  1.00 20.00    -0.295 OA
ENDBRANCH   1   3
BRANCH   1   6
HETATM    6  C6  UNL     1     -33.645   6.747   3.253  1.00 20.00     0.072 C 
BRANCH   6   7
HETATM    7  C2  UNL     1     -33.966   5.279   3.229  1.00 20.00    -0.028 C 
HETATM    8  C1  UNL     1     -34.512   4.616   4.260  1.00 20.00    -0.035 C 
HETATM    9  C4  UNL     1     -34.869   5.255   5.561  1.00 20.00     0.036 C 
ENDBRANCH   6   7
ENDBRANCH   1   6
TORSDOF 3
ENDMDL
MODEL 8
REMARK VINA RESULT:      -4.1     11.314     12.106
REMARK  3 active torsions:
REMARK  status: ('A' for Active; 'I' for Inactive)
REMARK    1  A    between atoms: C2_2  and  C6_6 
REMARK    2  A    between atoms: C3_3  and  C7_7 
REMARK    3  A    between atoms: C6_6  and  C7_7 
ROOT
HETATM    1  C7  UNL     1     -34.933  14.092  -3.758  1.00 20.00     0.242 C 
HETATM    2  F9  UNL     1     -33.719  13.855  -4.334  1.00 20.00    -0.241 F 
ENDROOT
BRANCH   1   3
HETATM    3  C3  UNL     1     -36.037  14.017  -4.795  1.00 20.00     0.157 C 
HETATM    4  C5  UNL     1     -35.733  14.541  -6.175  1.00 20.00     0.094 C 
HETATM    5  O8  UNL     1     -37.142  13.550  -4.521  1.00 20.00    -0.295 OA
ENDBRANCH   1   3
BRANCH   1   6
HETATM    6  C6  UNL     1     -34.867  15.430  -3.025  1.00 20.00     0.072 C 
BRANCH   6   7
HETATM    7  C2  UNL     1     -33.508  16.069  -3.103  1.00 20.00    -0.028 C 
HETATM    8  C1  UNL     1     -33.100  17.059  -2.294  1.00 20.00    -0.035 C 
HETATM    9  C4  UNL     1     -33.946  17.650  -1.216  1.00 20.00     0.036 C 
ENDBRANCH   6   7
ENDBRANCH   1   6
TORSDOF 3
ENDMDL
MODEL 9
REMARK VINA RESULT:      -4.1      2.115      3.706
REMARK  3 active torsions:
REMARK  status: ('A' for Active; 'I' for Inactive)
REMARK    1  A    between atoms: C2_2  and  C6_6 
REMARK    2  A    between atoms: C3_3  and  C7_7 
REMARK    3  A    between atoms: C6_6  and  C7_7 
ROOT
HETATM    1  C7  UNL     1     -34.869   4.929   4.274  1.00 20.00     0.242 C 
HETATM    2  F9  UNL     1     -35.688   5.768   3.574  1.00 20.00    -0.241 F 
ENDROOT
BRANCH   1   3
HETATM    3  C3  UNL     1     -34.677   5.435   5.691  1.00 20.00     0.157 C 
HETATM    4  C5  UNL     1     -34.033   6.785   5.867  1.00 20.00     0.094 C 
HETATM    5  O8  UNL     1     -35.029   4.765   6.662  1.00 20.00    -0.295 OA
ENDBRANCH   1   3
BRANCH   1   6
HETATM    6  C6  UNL     1     -33.566   4.766   3.495  1.00 20.00     0.072 C 
BRANCH   6   7
HETATM    7  C2  UNL     1     -33.520   5.615   2.255  1.00 20.00    -0.028 C 
HETATM    8  C1  UNL     1     -32.814   6.751   2.153  1.00 20.00    -0.035 C 
HETATM    9  C4  UNL     1     -31.986   7.315   3.258  1.00 20.00     0.036 C 
ENDBRANCH   6   7
ENDBRANCH   1   6
TORSDOF 3
ENDMDL
