MODEL 1
REMARK VINA RESULT:      -5.0      0.000      0.000
REMARK  1 active torsions:
REMARK  status: ('A' for Active; 'I' for Inactive)
REMARK    1  A    between atoms: C7_7  and  O11_11 
ROOT
HETATM    1  C1  UNL     1     -25.323  16.146  11.993  1.00 20.00    -0.029 C 
HETATM    2  C2  UNL     1     -25.316  18.836  10.230  1.00 20.00    -0.022 C 
HETATM    3  C3  UNL     1     -24.395  18.584   9.294  1.00 20.00     0.002 C 
HETATM    4  C4  UNL     1     -24.107  16.186  11.441  1.00 20.00    -0.018 C 
HETATM    5  C5  UNL     1     -25.835  17.510  12.324  1.00 20.00     0.036 C 
HETATM    6  C6  UNL     1     -24.850  18.443  11.607  1.00 20.00     0.026 C 
HETATM    7  C7  UNL     1     -23.147  18.015   9.886  1.00 20.00     0.155 C 
HETATM    8  C8  UNL     1     -23.579  17.597  11.312  1.00 20.00     0.010 C 
HETATM    9  C9  UNL     1     -22.463  17.824  12.331  1.00 20.00     0.023 C 
ENDROOT
BRANCH   7  10
HETATM   10  O11 UNL     1     -22.660  16.917   9.134  1.00 20.00    -0.386 OA
HETATM   11  C10 UNL     1     -21.811  17.341   8.074  1.00 20.00     0.202 C 
ENDBRANCH   7  10
TORSDOF 1
ENDMDL
MODEL 2
REMARK VINA RESULT:      -4.5     16.363     17.649
REMARK  1 active torsions:
REMARK  status: ('A' for Active; 'I' for Inactive)
REMARK    1  A    between atoms: C7_7  and  O11_11 
ROOT
HETATM    1  C1  UNL     1     -35.919  16.083  -4.891  1.00 20.00    -0.029 C 
HETATM    2  C2  UNL     1     -35.107  16.221  -1.782  1.00 20.00    -0.022 C 
HETATM    3  C3  UNL     1     -34.078  17.074  -1.773  1.00 20.00     0.002 C 
HETATM    4  C4  UNL     1     -34.629  16.434  -4.893  1.00 20.00    -0.018 C 
HETATM    5  C5  UNL     1     -36.244  15.148  -3.774  1.00 20.00     0.036 C 
HETATM    6  C6  UNL     1     -34.993  15.203  -2.886  1.00 20.00     0.026 C 
HETATM    7  C7  UNL     1     -33.085  16.753  -2.843  1.00 20.00     0.155 C 
HETATM    8  C8  UNL     1     -33.853  15.782  -3.771  1.00 20.00     0.010 C 
HETATM    9  C9  UNL     1     -32.936  14.700  -4.342  1.00 20.00     0.023 C 
ENDROOT
BRANCH   7  10
HETATM   10  O11 UNL     1     -32.655  17.917  -3.529  1.00 20.00    -0.386 OA
HETATM   11  C10 UNL     1     -32.501  19.021  -2.645  1.00 20.00     0.202 C 
ENDBRANCH   7  10
TORSDOF 1
ENDMDL
MODEL 3
REMARK VINA RESULT:      -4.4     16.619     17.906
REMARK  1 active torsions:
REMARK  status: ('A' for Active; 'I' for Inactive)
REMARK    1  A    between atoms: C7_7  and  O11_11 
ROOT
HETATM    1  C1  UNL     1     -34.236  18.509  -3.686  1.00 20.00    -0.029 C 
HETATM    2  C2  UNL     1     -33.064  15.515  -3.742  1.00 20.00    -0.022 C 
HETATM    3  C3  UNL     1     -34.154  14.764  -3.924  1.00 20.00     0.002 C 
HETATM    4  C4  UNL     1     -35.259  17.738  -3.307  1.00 20.00    -0.018 C 
HETATM    5  C5  UNL     1     -32.926  17.984  -3.199  1.00 20.00     0.036 C 
HETATM    6  C6  UNL     1     -33.271  16.576  -2.695  1.00 20.00     0.026 C 
HETATM    7  C7  UNL     1     -35.263  15.169  -3.007  1.00 20.00     0.155 C 
HETATM    8  C8  UNL     1     -34.811  16.553  -2.482  1.00 20.00     0.010 C 
HETATM    9  C9  UNL     1     -35.213  16.762  -1.021  1.00 20.00     0.023 C 
ENDROOT
BRANCH   7  10
HETATM   10  O11 UNL     1     -36.507  15.237  -3.683  1.00 20.00    -0.386 OA
HETATM   11  C10 UNL     1     -36.729  14.088  -4.492  1.00 20.00     0.202 C 
ENDBRANCH   7  10
TORSDOF 1
ENDMDL
MODEL 4
REMARK VINA RESULT:      -4.4     17.171     18.374
REMARK  1 active torsions:
REMARK  status: ('A' for Active; 'I' for Inactive)
REMARK    1  A    between atoms: C7_7  and  O11_11 
ROOT
HETATM    1  C1  UNL     1     -34.871  16.141  -1.949  1.00 20.00    -0.029 C 
HETATM    2  C2  UNL     1     -33.829  18.193  -4.196  1.00 20.00    -0.022 C 
HETATM    3  C3  UNL     1     -34.511  17.825  -5.285  1.00 20.00     0.002 C 
HETATM    4  C4  UNL     1     -35.062  15.501  -3.106  1.00 20.00    -0.018 C 
HETATM    5  C5  UNL     1     -33.645  16.993  -1.973  1.00 20.00     0.036 C 
HETATM    6  C6  UNL     1     -33.254  17.013  -3.458  1.00 20.00     0.026 C 
HETATM    7  C7  UNL     1     -34.480  16.344  -5.481  1.00 20.00     0.155 C 
HETATM    8  C8  UNL     1     -33.981  15.807  -4.118  1.00 20.00     0.010 C 
HETATM    9  C9  UNL     1     -33.075  14.587  -4.288  1.00 20.00     0.023 C 
ENDROOT
BRANCH   7  10
HETATM   10  O11 UNL     1     -35.757  15.830  -5.820  1.00 20.00    -0.386 OA
HETATM   11  C10 UNL     1     -35.678  14.874  -6.870  1.00 20.00     0.202 C 
ENDBRANCH   7  10
TORSDOF 1
ENDMDL
MODEL 5
REMARK VINA RESULT:      -4.3      1.500      2.192
REMARK  1 active torsions:
REMARK  status: ('A' for Active; 'I' for Inactive)
REMARK    1  A    between atoms: C7_7  and  O11_11 
ROOT
HETATM    1  C1  UNL     1     -23.997  15.970  10.535  1.00 20.00    -0.029 C 
HETATM    2  C2  UNL     1     -25.419  18.848  10.727  1.00 20.00    -0.022 C 
HETATM    3  C3  UNL     1     -25.441  19.263   9.457  1.00 20.00     0.002 C 
HETATM    4  C4  UNL     1     -23.556  16.638   9.465  1.00 20.00    -0.018 C 
HETATM    5  C5  UNL     1     -24.192  16.865  11.714  1.00 20.00     0.036 C 
HETATM    6  C6  UNL     1     -24.082  18.274  11.115  1.00 20.00     0.026 C 
HETATM    7  C7  UNL     1     -24.118  19.069   8.789  1.00 20.00     0.155 C 
HETATM    8  C8  UNL     1     -23.367  18.111   9.744  1.00 20.00     0.010 C 
HETATM    9  C9  UNL     1     -21.873  18.435   9.810  1.00 20.00     0.023 C 
ENDROOT
BRANCH   7  10
HETATM   10  O11 UNL     1     -24.259  18.523   7.489  1.00 20.00    -0.386 OA
HETATM   11  C10 UNL     1     -25.436  18.996   6.844  1.00 20.00     0.202 C 
ENDBRANCH   7  10
TORSDOF 1
ENDMDL
MODEL 6
REMARK VINA RESULT:      -4.2     23.133     24.113
REMARK  1 active torsions:
REMARK  status: ('A' for Active; 'I' for Inactive)
REMARK    1  A    between atoms: C7_7  and  O11_11 
ROOT
HETATM    1  C1  UNL     1     -41.112   5.041  -1.170  1.00 20.00    -0.029 C 
HETATM    2  C2  UNL     1     -43.417   7.236  -1.626  1.00 20.00    -0.022 C 
HETATM    3  C3  UNL     1     -43.056   8.232  -0.811  1.00 20.00     0.002 C 
HETATM    4  C4  UNL     1     -41.128   5.755  -0.041  1.00 20.00    -0.018 C 
HETATM    5  C5  UNL     1     -42.476   4.889  -1.758  1.00 20.00     0.036 C 
HETATM    6  C6  UNL     1     -43.322   5.890  -0.958  1.00 20.00     0.026 C 
HETATM    7  C7  UNL     1     -42.692   7.728   0.548  1.00 20.00     0.155 C 
HETATM    8  C8  UNL     1     -42.520   6.205   0.337  1.00 20.00     0.010 C 
HETATM    9  C9  UNL     1     -43.008   5.407   1.547  1.00 20.00     0.023 C 
ENDROOT
BRANCH   7  10
HETATM   10  O11 UNL     1     -41.507   8.335   1.034  1.00 20.00    -0.386 OA
HETATM   11  C10 UNL     1     -41.199   9.531   0.328  1.00 20.00     0.202 C 
ENDBRANCH   7  10
TORSDOF 1
ENDMDL
MODEL 7
REMARK VINA RESULT:      -4.1     17.483     18.760
REMARK  1 active torsions:
REMARK  status: ('A' for Active; 'I' for Inactive)
REMARK    1  A    between atoms: C7_7  and  O11_11 
ROOT
HETATM    1  C1  UNL     1     -34.068  16.614  -1.934  1.00 20.00    -0.029 C 
HETATM    2  C2  UNL     1     -34.591  17.472  -4.990  1.00 20.00    -0.022 C 
HETATM    3  C3  UNL     1     -35.890  17.208  -5.162  1.00 20.00     0.002 C 
HETATM    4  C4  UNL     1     -35.121  15.885  -2.315  1.00 20.00    -0.018 C 
HETATM    5  C5  UNL     1     -33.098  16.825  -3.050  1.00 20.00     0.036 C 
HETATM    6  C6  UNL     1     -33.871  16.351  -4.289  1.00 20.00     0.026 C 
HETATM    7  C7  UNL     1     -36.252  15.855  -4.640  1.00 20.00     0.155 C 
HETATM    8  C8  UNL     1     -35.037  15.466  -3.765  1.00 20.00     0.010 C 
HETATM    9  C9  UNL     1     -34.734  13.970  -3.852  1.00 20.00     0.023 C 
ENDROOT
BRANCH   7  10
HETATM   10  O11 UNL     1     -37.458  15.884  -3.895  1.00 20.00    -0.386 OA
HETATM   11  C10 UNL     1     -38.338  14.834  -4.277  1.00 20.00     0.202 C 
ENDBRANCH   7  10
TORSDOF 1
ENDMDL
MODEL 8
REMARK VINA RESULT:      -4.1     18.123     19.338
REMARK  1 active torsions:
REMARK  status: ('A' for Active; 'I' for Inactive)
REMARK    1  A    between atoms: C7_7  and  O11_11 
ROOT
HETATM    1  C1  UNL     1     -35.487  17.010  -3.098  1.00 20.00    -0.029 C 
HETATM    2  C2  UNL     1     -33.466  14.773  -4.219  1.00 20.00    -0.022 C 
HETATM    3  C3  UNL     1     -33.671  14.812  -5.539  1.00 20.00     0.002 C 
HETATM    4  C4  UNL     1     -36.023  16.620  -4.258  1.00 20.00    -0.018 C 
HETATM    5  C5  UNL     1     -34.812  15.885  -2.385  1.00 20.00     0.036 C 
HETATM    6  C6  UNL     1     -34.756  14.774  -3.443  1.00 20.00     0.026 C 
HETATM    7  C7  UNL     1     -35.128  14.810  -5.872  1.00 20.00     0.155 C 
HETATM    8  C8  UNL     1     -35.809  15.147  -4.525  1.00 20.00     0.010 C 
HETATM    9  C9  UNL     1     -37.129  14.396  -4.355  1.00 20.00     0.023 C 
ENDROOT
BRANCH   7  10
HETATM   10  O11 UNL     1     -35.439  15.758  -6.879  1.00 20.00    -0.386 OA
HETATM   11  C10 UNL     1     -34.332  15.994  -7.741  1.00 20.00     0.202 C 
ENDBRANCH   7  10
TORSDOF 1
ENDMDL
MODEL 9
REMARK VINA RESULT:      -4.1     17.446     18.664
REMARK  1 active torsions:
REMARK  status: ('A' for Active; 'I' for Inactive)
REMARK    1  A    between atoms: C7_7  and  O11_11 
ROOT
HETATM    1  C1  UNL     1     -33.315  16.483  -2.537  1.00 20.00    -0.029 C 
HETATM    2  C2  UNL     1     -35.785  14.581  -3.330  1.00 20.00    -0.022 C 
HETATM    3  C3  UNL     1     -35.424  14.094  -4.521  1.00 20.00     0.002 C 
HETATM    4  C4  UNL     1     -33.287  16.430  -3.872  1.00 20.00    -0.018 C 
HETATM    5  C5  UNL     1     -34.709  16.451  -2.003  1.00 20.00     0.036 C 
HETATM    6  C6  UNL     1     -35.551  16.065  -3.227  1.00 20.00     0.026 C 
HETATM    7  C7  UNL     1     -34.922  15.170  -5.428  1.00 20.00     0.155 C 
HETATM    8  C8  UNL     1     -34.671  16.362  -4.475  1.00 20.00     0.010 C 
HETATM    9  C9  UNL     1     -35.010  17.698  -5.137  1.00 20.00     0.023 C 
ENDROOT
BRANCH   7  10
HETATM   10  O11 UNL     1     -33.743  14.776  -6.110  1.00 20.00    -0.386 OA
HETATM   11  C10 UNL     1     -33.800  15.107  -7.493  1.00 20.00     0.202 C 
ENDBRANCH   7  10
TORSDOF 1
ENDMDL
