MODEL 1
REMARK VINA RESULT:      -4.3      0.000      0.000
REMARK  1 active torsions:
REMARK  status: ('A' for Active; 'I' for Inactive)
REMARK    1  A    between atoms: C1_1  and  C3_3 
REMARK       I    between atoms: C3_3  and  N8_8 
ROOT
HETATM    1  C3  UNL     1     -33.316   5.715   2.909  1.00 20.00     0.223 C 
HETATM    2  C4  UNL     1     -34.848   4.716   4.564  1.00 20.00     0.119 A 
HETATM    3  C5  UNL     1     -34.718   6.145   4.930  1.00 20.00     0.075 A 
HETATM    4  C7  UNL     1     -33.600   6.623   5.787  1.00 20.00     0.028 C 
HETATM    5  N8  UNL     1     -34.524   5.709   3.580  1.00 20.00    -0.243 NA
HETATM    6  O9  UNL     1     -32.607   4.759   2.621  1.00 20.00    -0.275 OA
ENDROOT
BRANCH   1   7
HETATM    7  C1  UNL     1     -32.928   7.085   2.528  1.00 20.00     0.064 C 
HETATM    8  C2  UNL     1     -32.993   7.549   1.273  1.00 20.00    -0.026 C 
HETATM    9  C6  UNL     1     -32.598   8.935   0.881  1.00 20.00     0.036 C 
ENDBRANCH   1   7
TORSDOF 1
ENDMDL
MODEL 2
REMARK VINA RESULT:      -4.1     11.123     12.248
REMARK  1 active torsions:
REMARK  status: ('A' for Active; 'I' for Inactive)
REMARK    1  A    between atoms: C1_1  and  C3_3 
REMARK       I    between atoms: C3_3  and  N8_8 
ROOT
HETATM    1  C3  UNL     1     -34.426  14.430  -4.121  1.00 20.00     0.223 C 
HETATM    2  C4  UNL     1     -33.940  14.933  -6.487  1.00 20.00     0.119 A 
HETATM    3  C5  UNL     1     -34.874  15.984  -6.023  1.00 20.00     0.075 A 
HETATM    4  C7  UNL     1     -36.347  15.771  -6.044  1.00 20.00     0.028 C 
HETATM    5  N8  UNL     1     -34.010  15.308  -5.103  1.00 20.00    -0.243 NA
HETATM    6  O9  UNL     1     -34.310  13.211  -4.100  1.00 20.00    -0.275 OA
ENDROOT
BRANCH   1   7
HETATM    7  C1  UNL     1     -35.063  15.148  -3.003  1.00 20.00     0.064 C 
HETATM    8  C2  UNL     1     -34.449  16.103  -2.293  1.00 20.00    -0.026 C 
HETATM    9  C6  UNL     1     -35.089  16.832  -1.157  1.00 20.00     0.036 C 
ENDBRANCH   1   7
TORSDOF 1
ENDMDL
MODEL 3
REMARK VINA RESULT:      -4.0     11.486     12.068
REMARK  1 active torsions:
REMARK  status: ('A' for Active; 'I' for Inactive)
REMARK    1  A    between atoms: C1_1  and  C3_3 
REMARK       I    between atoms: C3_3  and  N8_8 
ROOT
HETATM    1  C3  UNL     1     -34.060  14.780  -4.419  1.00 20.00     0.223 C 
HETATM    2  C4  UNL     1     -35.592  14.549  -6.339  1.00 20.00     0.119 A 
HETATM    3  C5  UNL     1     -36.342  15.285  -5.295  1.00 20.00     0.075 A 
HETATM    4  C7  UNL     1     -37.076  14.564  -4.220  1.00 20.00     0.028 C 
HETATM    5  N8  UNL     1     -34.913  15.339  -5.351  1.00 20.00    -0.243 NA
HETATM    6  O9  UNL     1     -33.366  13.778  -4.536  1.00 20.00    -0.275 OA
ENDROOT
BRANCH   1   7
HETATM    7  C1  UNL     1     -34.046  15.567  -3.173  1.00 20.00     0.064 C 
HETATM    8  C2  UNL     1     -33.274  16.646  -2.990  1.00 20.00    -0.026 C 
HETATM    9  C6  UNL     1     -33.254  17.446  -1.728  1.00 20.00     0.036 C 
ENDBRANCH   1   7
TORSDOF 1
ENDMDL
MODEL 4
REMARK VINA RESULT:      -3.9     15.883     16.575
REMARK  1 active torsions:
REMARK  status: ('A' for Active; 'I' for Inactive)
REMARK    1  A    between atoms: C1_1  and  C3_3 
REMARK       I    between atoms: C3_3  and  N8_8 
ROOT
HETATM    1  C3  UNL     1     -24.552  18.511  10.138  1.00 20.00     0.223 C 
HETATM    2  C4  UNL     1     -26.032  17.948  12.029  1.00 20.00     0.119 A 
HETATM    3  C5  UNL     1     -24.803  17.140  12.208  1.00 20.00     0.075 A 
HETATM    4  C7  UNL     1     -24.641  15.824  11.535  1.00 20.00     0.028 C 
HETATM    5  N8  UNL     1     -24.772  18.381  11.495  1.00 20.00    -0.243 NA
HETATM    6  O9  UNL     1     -25.365  18.791   9.265  1.00 20.00    -0.275 OA
ENDROOT
BRANCH   1   7
HETATM    7  C1  UNL     1     -23.136  18.277   9.804  1.00 20.00     0.064 C 
HETATM    8  C2  UNL     1     -22.736  17.524   8.771  1.00 20.00    -0.026 C 
HETATM    9  C6  UNL     1     -21.302  17.280   8.430  1.00 20.00     0.036 C 
ENDBRANCH   1   7
TORSDOF 1
ENDMDL
MODEL 5
REMARK VINA RESULT:      -3.6     16.194     17.064
REMARK  1 active torsions:
REMARK  status: ('A' for Active; 'I' for Inactive)
REMARK    1  A    between atoms: C1_1  and  C3_3 
REMARK       I    between atoms: C3_3  and  N8_8 
ROOT
HETATM    1  C3  UNL     1     -23.762  17.274  11.668  1.00 20.00     0.223 C 
HETATM    2  C4  UNL     1     -21.951  17.659  10.038  1.00 20.00     0.119 A 
HETATM    3  C5  UNL     1     -23.047  18.582   9.666  1.00 20.00     0.075 A 
HETATM    4  C7  UNL     1     -24.166  18.137   8.792  1.00 20.00     0.028 C 
HETATM    5  N8  UNL     1     -22.894  18.127  11.014  1.00 20.00    -0.243 NA
HETATM    6  O9  UNL     1     -23.592  16.094  11.950  1.00 20.00    -0.275 OA
ENDROOT
BRANCH   1   7
HETATM    7  C1  UNL     1     -25.008  17.967  12.038  1.00 20.00     0.064 C 
HETATM    8  C2  UNL     1     -26.220  17.402  11.952  1.00 20.00    -0.026 C 
HETATM    9  C6  UNL     1     -27.487  18.101  12.323  1.00 20.00     0.036 C 
ENDBRANCH   1   7
TORSDOF 1
ENDMDL
MODEL 6
REMARK VINA RESULT:      -3.6     11.030     12.083
REMARK  1 active torsions:
REMARK  status: ('A' for Active; 'I' for Inactive)
REMARK    1  A    between atoms: C1_1  and  C3_3 
REMARK       I    between atoms: C3_3  and  N8_8 
ROOT
HETATM    1  C3  UNL     1     -35.805  13.974  -4.222  1.00 20.00     0.223 C 
HETATM    2  C4  UNL     1     -33.373  14.334  -4.421  1.00 20.00     0.119 A 
HETATM    3  C5  UNL     1     -34.008  15.653  -4.649  1.00 20.00     0.075 A 
HETATM    4  C7  UNL     1     -34.495  16.052  -5.996  1.00 20.00     0.028 C 
HETATM    5  N8  UNL     1     -34.656  14.649  -3.859  1.00 20.00    -0.243 NA
HETATM    6  O9  UNL     1     -35.913  12.812  -4.592  1.00 20.00    -0.275 OA
ENDROOT
BRANCH   1   7
HETATM    7  C1  UNL     1     -36.991  14.841  -4.102  1.00 20.00     0.064 C 
HETATM    8  C2  UNL     1     -38.244  14.409  -4.294  1.00 20.00    -0.026 C 
HETATM    9  C6  UNL     1     -39.449  15.284  -4.177  1.00 20.00     0.036 C 
ENDBRANCH   1   7
TORSDOF 1
ENDMDL
MODEL 7
REMARK VINA RESULT:      -3.6      8.910      9.231
REMARK  1 active torsions:
REMARK  status: ('A' for Active; 'I' for Inactive)
REMARK    1  A    between atoms: C1_1  and  C3_3 
REMARK       I    between atoms: C3_3  and  N8_8 
ROOT
HETATM    1  C3  UNL     1     -41.253   5.854  -0.930  1.00 20.00     0.223 C 
HETATM    2  C4  UNL     1     -43.264   4.424  -0.912  1.00 20.00     0.119 A 
HETATM    3  C5  UNL     1     -43.417   5.371   0.217  1.00 20.00     0.075 A 
HETATM    4  C7  UNL     1     -42.819   5.087   1.549  1.00 20.00     0.028 C 
HETATM    5  N8  UNL     1     -42.627   5.711  -0.928  1.00 20.00    -0.243 NA
HETATM    6  O9  UNL     1     -40.416   5.095  -1.402  1.00 20.00    -0.275 OA
ENDROOT
BRANCH   1   7
HETATM    7  C1  UNL     1     -40.849   7.109  -0.272  1.00 20.00     0.064 C 
HETATM    8  C2  UNL     1     -41.568   8.238  -0.331  1.00 20.00    -0.026 C 
HETATM    9  C6  UNL     1     -41.162   9.513   0.332  1.00 20.00     0.036 C 
ENDBRANCH   1   7
TORSDOF 1
ENDMDL
MODEL 8
REMARK VINA RESULT:      -3.6     11.275     12.173
REMARK  1 active torsions:
REMARK  status: ('A' for Active; 'I' for Inactive)
REMARK    1  A    between atoms: C1_1  and  C3_3 
REMARK       I    between atoms: C3_3  and  N8_8 
ROOT
HETATM    1  C3  UNL     1     -34.287  15.828  -2.649  1.00 20.00     0.223 C 
HETATM    2  C4  UNL     1     -35.136  14.267  -4.360  1.00 20.00     0.119 A 
HETATM    3  C5  UNL     1     -34.161  15.144  -5.047  1.00 20.00     0.075 A 
HETATM    4  C7  UNL     1     -34.566  16.464  -5.599  1.00 20.00     0.028 C 
HETATM    5  N8  UNL     1     -34.063  14.892  -3.641  1.00 20.00    -0.243 NA
HETATM    6  O9  UNL     1     -35.249  15.914  -1.896  1.00 20.00    -0.275 OA
ENDROOT
BRANCH   1   7
HETATM    7  C1  UNL     1     -33.171  16.785  -2.561  1.00 20.00     0.064 C 
HETATM    8  C2  UNL     1     -33.049  17.690  -1.580  1.00 20.00    -0.026 C 
HETATM    9  C6  UNL     1     -31.921  18.664  -1.487  1.00 20.00     0.036 C 
ENDBRANCH   1   7
TORSDOF 1
ENDMDL
MODEL 9
REMARK VINA RESULT:      -3.5     12.089     13.153
REMARK  1 active torsions:
REMARK  status: ('A' for Active; 'I' for Inactive)
REMARK    1  A    between atoms: C1_1  and  C3_3 
REMARK       I    between atoms: C3_3  and  N8_8 
ROOT
HETATM    1  C3  UNL     1     -31.765  18.671  -0.496  1.00 20.00     0.223 C 
HETATM    2  C4  UNL     1     -32.444  18.927  -2.853  1.00 20.00     0.119 A 
HETATM    3  C5  UNL     1     -33.640  18.438  -2.128  1.00 20.00     0.075 A 
HETATM    4  C7  UNL     1     -33.860  16.986  -1.895  1.00 20.00     0.028 C 
HETATM    5  N8  UNL     1     -32.620  19.183  -1.451  1.00 20.00    -0.243 NA
HETATM    6  O9  UNL     1     -30.573  18.411  -0.609  1.00 20.00    -0.275 OA
ENDROOT
BRANCH   1   7
HETATM    7  C1  UNL     1     -32.465  18.457   0.784  1.00 20.00     0.064 C 
HETATM    8  C2  UNL     1     -31.839  18.135   1.923  1.00 20.00    -0.026 C 
HETATM    9  C6  UNL     1     -32.544  17.914   3.222  1.00 20.00     0.036 C 
ENDBRANCH   1   7
TORSDOF 1
ENDMDL
