MODEL 1
REMARK VINA RESULT:      -4.1      0.000      0.000
REMARK  0 active torsions:
REMARK  status: ('A' for Active; 'I' for Inactive)
ROOT
HETATM    1  C1  UNL     1     -24.705  18.660  10.348  1.00 20.00     0.223 C 
HETATM    2  C2  UNL     1     -22.854  17.546  11.313  1.00 20.00     0.130 C 
HETATM    3  C3  UNL     1     -25.058  18.345  11.794  1.00 20.00     0.079 C 
HETATM    4  C4  UNL     1     -24.085  17.203  12.151  1.00 20.00     0.012 C 
HETATM    5  C5  UNL     1     -26.536  18.060  11.991  1.00 20.00     0.020 C 
HETATM    6  C6  UNL     1     -24.603  15.802  11.815  1.00 20.00     0.012 C 
HETATM    7  C7  UNL     1     -22.629  18.376   8.941  1.00 20.00     0.152 C 
HETATM    8  N8  UNL     1     -23.410  18.186  10.143  1.00 20.00    -0.356 N 
HETATM    9  O9  UNL     1     -25.420  19.260   9.560  1.00 20.00    -0.273 OA
ENDROOT
TORSDOF 0
ENDMDL
MODEL 2
REMARK VINA RESULT:      -4.1     18.619     19.357
REMARK  0 active torsions:
REMARK  status: ('A' for Active; 'I' for Inactive)
ROOT
HETATM    1  C1  UNL     1     -35.808  13.977  -4.179  1.00 20.00     0.223 C 
HETATM    2  C2  UNL     1     -36.440  16.158  -3.512  1.00 20.00     0.130 C 
HETATM    3  C3  UNL     1     -34.561  14.684  -3.668  1.00 20.00     0.079 C 
HETATM    4  C4  UNL     1     -34.935  16.176  -3.777  1.00 20.00     0.012 C 
HETATM    5  C5  UNL     1     -33.299  14.249  -4.391  1.00 20.00     0.020 C 
HETATM    6  C6  UNL     1     -34.626  16.809  -5.136  1.00 20.00     0.012 C 
HETATM    7  C7  UNL     1     -38.254  14.589  -4.299  1.00 20.00     0.152 C 
HETATM    8  N8  UNL     1     -36.860  14.881  -4.043  1.00 20.00    -0.356 N 
HETATM    9  O9  UNL     1     -35.854  12.823  -4.576  1.00 20.00    -0.273 OA
ENDROOT
TORSDOF 0
ENDMDL
MODEL 3
REMARK VINA RESULT:      -3.8     18.318     19.015
REMARK  0 active torsions:
REMARK  status: ('A' for Active; 'I' for Inactive)
ROOT
HETATM    1  C1  UNL     1     -34.787  14.863  -5.382  1.00 20.00     0.223 C 
HETATM    2  C2  UNL     1     -36.027  15.586  -3.501  1.00 20.00     0.130 C 
HETATM    3  C3  UNL     1     -34.055  14.387  -4.136  1.00 20.00     0.079 C 
HETATM    4  C4  UNL     1     -34.596  15.321  -3.035  1.00 20.00     0.012 C 
HETATM    5  C5  UNL     1     -32.548  14.354  -4.314  1.00 20.00     0.020 C 
HETATM    6  C6  UNL     1     -33.821  16.631  -2.879  1.00 20.00     0.012 C 
HETATM    7  C7  UNL     1     -36.976  16.051  -5.793  1.00 20.00     0.152 C 
HETATM    8  N8  UNL     1     -35.927  15.534  -4.942  1.00 20.00    -0.356 N 
HETATM    9  O9  UNL     1     -34.443  14.640  -6.533  1.00 20.00    -0.273 OA
ENDROOT
TORSDOF 0
ENDMDL
MODEL 4
REMARK VINA RESULT:      -3.7     15.943     16.981
REMARK  0 active torsions:
REMARK  status: ('A' for Active; 'I' for Inactive)
ROOT
HETATM    1  C1  UNL     1     -33.577   6.657   4.710  1.00 20.00     0.223 C 
HETATM    2  C2  UNL     1     -35.000   4.988   3.823  1.00 20.00     0.130 C 
HETATM    3  C3  UNL     1     -33.535   6.772   3.193  1.00 20.00     0.079 C 
HETATM    4  C4  UNL     1     -34.016   5.384   2.724  1.00 20.00     0.012 C 
HETATM    5  C5  UNL     1     -32.184   7.230   2.675  1.00 20.00     0.020 C 
HETATM    6  C6  UNL     1     -32.903   4.342   2.584  1.00 20.00     0.012 C 
HETATM    7  C7  UNL     1     -34.889   5.236   6.332  1.00 20.00     0.152 C 
HETATM    8  N8  UNL     1     -34.457   5.617   5.005  1.00 20.00    -0.356 N 
HETATM    9  O9  UNL     1     -32.982   7.384   5.492  1.00 20.00    -0.273 OA
ENDROOT
TORSDOF 0
ENDMDL
MODEL 5
REMARK VINA RESULT:      -3.7     17.414     18.058
REMARK  0 active torsions:
REMARK  status: ('A' for Active; 'I' for Inactive)
ROOT
HETATM    1  C1  UNL     1     -34.785  15.521  -2.952  1.00 20.00     0.223 C 
HETATM    2  C2  UNL     1     -32.699  15.227  -4.028  1.00 20.00     0.130 C 
HETATM    3  C3  UNL     1     -34.868  14.247  -3.779  1.00 20.00     0.079 C 
HETATM    4  C4  UNL     1     -33.737  14.428  -4.813  1.00 20.00     0.012 C 
HETATM    5  C5  UNL     1     -36.257  13.994  -4.335  1.00 20.00     0.020 C 
HETATM    6  C6  UNL     1     -34.154  15.172  -6.084  1.00 20.00     0.012 C 
HETATM    7  C7  UNL     1     -32.943  17.166  -2.431  1.00 20.00     0.152 C 
HETATM    8  N8  UNL     1     -33.498  16.026  -3.127  1.00 20.00    -0.356 N 
HETATM    9  O9  UNL     1     -35.676  15.961  -2.240  1.00 20.00    -0.273 OA
ENDROOT
TORSDOF 0
ENDMDL
MODEL 6
REMARK VINA RESULT:      -3.7     18.090     18.666
REMARK  0 active torsions:
REMARK  status: ('A' for Active; 'I' for Inactive)
ROOT
HETATM    1  C1  UNL     1     -34.530  16.872  -4.468  1.00 20.00     0.223 C 
HETATM    2  C2  UNL     1     -33.863  14.906  -5.603  1.00 20.00     0.130 C 
HETATM    3  C3  UNL     1     -34.116  15.851  -3.418  1.00 20.00     0.079 C 
HETATM    4  C4  UNL     1     -34.227  14.510  -4.172  1.00 20.00     0.012 C 
HETATM    5  C5  UNL     1     -34.913  15.971  -2.132  1.00 20.00     0.020 C 
HETATM    6  C6  UNL     1     -35.615  13.867  -4.119  1.00 20.00     0.012 C 
HETATM    7  C7  UNL     1     -34.499  16.915  -6.991  1.00 20.00     0.152 C 
HETATM    8  N8  UNL     1     -34.342  16.266  -5.708  1.00 20.00    -0.356 N 
HETATM    9  O9  UNL     1     -34.902  18.013  -4.237  1.00 20.00    -0.273 OA
ENDROOT
TORSDOF 0
ENDMDL
MODEL 7
REMARK VINA RESULT:      -3.6     18.122     18.749
REMARK  0 active torsions:
REMARK  status: ('A' for Active; 'I' for Inactive)
ROOT
HETATM    1  C1  UNL     1     -34.013  15.410  -4.050  1.00 20.00     0.223 C 
HETATM    2  C2  UNL     1     -35.911  14.509  -5.139  1.00 20.00     0.130 C 
HETATM    3  C3  UNL     1     -35.073  15.149  -2.991  1.00 20.00     0.079 C 
HETATM    4  C4  UNL     1     -36.380  15.096  -3.809  1.00 20.00     0.012 C 
HETATM    5  C5  UNL     1     -35.029  16.154  -1.853  1.00 20.00     0.020 C 
HETATM    6  C6  UNL     1     -37.052  16.455  -4.017  1.00 20.00     0.012 C 
HETATM    7  C7  UNL     1     -33.852  14.959  -6.529  1.00 20.00     0.152 C 
HETATM    8  N8  UNL     1     -34.558  15.000  -5.266  1.00 20.00    -0.356 N 
HETATM    9  O9  UNL     1     -32.892  15.847  -3.837  1.00 20.00    -0.273 OA
ENDROOT
TORSDOF 0
ENDMDL
MODEL 8
REMARK VINA RESULT:      -3.6     16.745     17.411
REMARK  0 active torsions:
REMARK  status: ('A' for Active; 'I' for Inactive)
ROOT
HETATM    1  C1  UNL     1     -33.385  17.810  -3.959  1.00 20.00     0.223 C 
HETATM    2  C2  UNL     1     -34.473  15.714  -4.088  1.00 20.00     0.130 C 
HETATM    3  C3  UNL     1     -32.923  16.977  -2.773  1.00 20.00     0.079 C 
HETATM    4  C4  UNL     1     -34.034  15.915  -2.638  1.00 20.00     0.012 C 
HETATM    5  C5  UNL     1     -32.636  17.815  -1.540  1.00 20.00     0.020 C 
HETATM    6  C6  UNL     1     -35.215  16.342  -1.763  1.00 20.00     0.012 C 
HETATM    7  C7  UNL     1     -34.856  17.362  -5.960  1.00 20.00     0.152 C 
HETATM    8  N8  UNL     1     -34.265  17.012  -4.687  1.00 20.00    -0.356 N 
HETATM    9  O9  UNL     1     -32.999  18.939  -4.223  1.00 20.00    -0.273 OA
ENDROOT
TORSDOF 0
ENDMDL
MODEL 9
REMARK VINA RESULT:      -3.5     23.224     23.997
REMARK  0 active torsions:
REMARK  status: ('A' for Active; 'I' for Inactive)
ROOT
HETATM    1  C1  UNL     1     -42.879   7.693  -1.038  1.00 20.00     0.223 C 
HETATM    2  C2  UNL     1     -41.562   7.071   0.827  1.00 20.00     0.130 C 
HETATM    3  C3  UNL     1     -43.137   6.220  -0.762  1.00 20.00     0.079 C 
HETATM    4  C4  UNL     1     -41.900   5.795   0.056  1.00 20.00     0.012 C 
HETATM    5  C5  UNL     1     -43.417   5.424  -2.024  1.00 20.00     0.020 C 
HETATM    6  C6  UNL     1     -40.709   5.335  -0.789  1.00 20.00     0.012 C 
HETATM    7  C7  UNL     1     -41.536   9.493   0.117  1.00 20.00     0.152 C 
HETATM    8  N8  UNL     1     -41.973   8.126  -0.071  1.00 20.00    -0.356 N 
HETATM    9  O9  UNL     1     -43.417   8.354  -1.913  1.00 20.00    -0.273 OA
ENDROOT
TORSDOF 0
ENDMDL
