MODEL 1
REMARK VINA RESULT:      -4.7      0.000      0.000
REMARK  0 active torsions:
REMARK  status: ('A' for Active; 'I' for Inactive)
ROOT
HETATM    1  C1  UNL     1     -22.794  17.684  11.212  1.00 20.00     0.041 A 
HETATM    2  C2  UNL     1     -22.773  17.870   9.798  1.00 20.00    -0.008 A 
HETATM    3  C3  UNL     1     -24.048  18.094  11.527  1.00 20.00     0.041 A 
HETATM    4  C4  UNL     1     -23.984  18.368   9.368  1.00 20.00     0.064 A 
HETATM    5  C5  UNL     1     -25.194  18.398  12.331  1.00 20.00     0.047 A 
HETATM    6  C6  UNL     1     -23.959  18.551   7.973  1.00 20.00     0.141 A 
HETATM    7  C7  UNL     1     -25.829  18.786  11.187  1.00 20.00     0.100 A 
HETATM    8  C8  UNL     1     -21.912  17.722   8.613  1.00 20.00     0.189 A 
HETATM    9  N9  UNL     1     -22.806  18.204   7.462  1.00 20.00    -0.295 NA
HETATM   10  N10 UNL     1     -24.725  18.486  10.456  1.00 20.00    -0.320 N 
ENDROOT
TORSDOF 0
ENDMDL
MODEL 2
REMARK VINA RESULT:      -4.7      0.927      1.987
REMARK  0 active torsions:
REMARK  status: ('A' for Active; 'I' for Inactive)
ROOT
HETATM    1  C1  UNL     1     -25.216  18.890  10.016  1.00 20.00     0.041 A 
HETATM    2  C2  UNL     1     -24.368  18.662   8.890  1.00 20.00    -0.008 A 
HETATM    3  C3  UNL     1     -24.518  18.291  11.013  1.00 20.00     0.041 A 
HETATM    4  C4  UNL     1     -23.248  17.959   9.277  1.00 20.00     0.064 A 
HETATM    5  C5  UNL     1     -24.197  17.830  12.331  1.00 20.00     0.047 A 
HETATM    6  C6  UNL     1     -22.416  17.737   8.164  1.00 20.00     0.141 A 
HETATM    7  C7  UNL     1     -23.049  17.306  11.811  1.00 20.00     0.100 A 
HETATM    8  C8  UNL     1     -24.257  18.910   7.444  1.00 20.00     0.189 A 
HETATM    9  N9  UNL     1     -22.921  18.250   7.072  1.00 20.00    -0.295 NA
HETATM   10  N10 UNL     1     -23.386  17.758  10.575  1.00 20.00    -0.320 N 
ENDROOT
TORSDOF 0
ENDMDL
MODEL 3
REMARK VINA RESULT:      -4.6     16.290     17.049
REMARK  0 active torsions:
REMARK  status: ('A' for Active; 'I' for Inactive)
ROOT
HETATM    1  C1  UNL     1     -33.744   5.069   2.635  1.00 20.00     0.041 A 
HETATM    2  C2  UNL     1     -34.148   5.301   3.984  1.00 20.00    -0.008 A 
HETATM    3  C3  UNL     1     -33.013   6.180   2.369  1.00 20.00     0.041 A 
HETATM    4  C4  UNL     1     -33.646   6.506   4.427  1.00 20.00     0.064 A 
HETATM    5  C5  UNL     1     -32.203   7.104   1.634  1.00 20.00     0.047 A 
HETATM    6  C6  UNL     1     -34.046   6.730   5.757  1.00 20.00     0.141 A 
HETATM    7  C7  UNL     1     -32.195   7.900   2.743  1.00 20.00     0.100 A 
HETATM    8  C8  UNL     1     -34.919   4.711   5.090  1.00 20.00     0.189 A 
HETATM    9  N9  UNL     1     -34.780   5.748   6.213  1.00 20.00    -0.295 NA
HETATM   10  N10 UNL     1     -32.964   7.001   3.410  1.00 20.00    -0.320 N 
ENDROOT
TORSDOF 0
ENDMDL
MODEL 4
REMARK VINA RESULT:      -4.6     15.005     16.551
REMARK  0 active torsions:
REMARK  status: ('A' for Active; 'I' for Inactive)
ROOT
HETATM    1  C1  UNL     1     -35.225  16.174  -1.937  1.00 20.00     0.041 A 
HETATM    2  C2  UNL     1     -34.660  15.375  -2.975  1.00 20.00    -0.008 A 
HETATM    3  C3  UNL     1     -34.216  17.041  -1.674  1.00 20.00     0.041 A 
HETATM    4  C4  UNL     1     -33.381  15.803  -3.259  1.00 20.00     0.064 A 
HETATM    5  C5  UNL     1     -33.506  18.120  -1.054  1.00 20.00     0.047 A 
HETATM    6  C6  UNL     1     -32.828  15.013  -4.283  1.00 20.00     0.141 A 
HETATM    7  C7  UNL     1     -32.455  17.833  -1.877  1.00 20.00     0.100 A 
HETATM    8  C8  UNL     1     -34.953  14.240  -3.866  1.00 20.00     0.189 A 
HETATM    9  N9  UNL     1     -33.664  14.092  -4.688  1.00 20.00    -0.295 NA
HETATM   10  N10 UNL     1     -33.158  16.817  -2.442  1.00 20.00    -0.320 N 
ENDROOT
TORSDOF 0
ENDMDL
MODEL 5
REMARK VINA RESULT:      -4.4     15.467     16.784
REMARK  0 active torsions:
REMARK  status: ('A' for Active; 'I' for Inactive)
ROOT
HETATM    1  C1  UNL     1     -32.857  16.714  -2.871  1.00 20.00     0.041 A 
HETATM    2  C2  UNL     1     -33.520  15.647  -3.547  1.00 20.00    -0.008 A 
HETATM    3  C3  UNL     1     -33.759  17.037  -1.911  1.00 20.00     0.041 A 
HETATM    4  C4  UNL     1     -34.746  15.407  -2.964  1.00 20.00     0.064 A 
HETATM    5  C5  UNL     1     -34.335  17.722  -0.793  1.00 20.00     0.047 A 
HETATM    6  C6  UNL     1     -35.396  14.354  -3.634  1.00 20.00     0.141 A 
HETATM    7  C7  UNL     1     -35.421  16.904  -0.917  1.00 20.00     0.100 A 
HETATM    8  C8  UNL     1     -33.368  14.695  -4.660  1.00 20.00     0.189 A 
HETATM    9  N9  UNL     1     -34.674  13.890  -4.620  1.00 20.00    -0.295 NA
HETATM   10  N10 UNL     1     -34.844  16.277  -1.974  1.00 20.00    -0.320 N 
ENDROOT
TORSDOF 0
ENDMDL
MODEL 6
REMARK VINA RESULT:      -4.4     16.730     18.184
REMARK  0 active torsions:
REMARK  status: ('A' for Active; 'I' for Inactive)
ROOT
HETATM    1  C1  UNL     1     -33.891  14.679  -3.800  1.00 20.00     0.041 A 
HETATM    2  C2  UNL     1     -35.255  14.384  -4.098  1.00 20.00    -0.008 A 
HETATM    3  C3  UNL     1     -34.011  15.776  -3.011  1.00 20.00     0.041 A 
HETATM    4  C4  UNL     1     -36.082  15.300  -3.486  1.00 20.00     0.064 A 
HETATM    5  C5  UNL     1     -33.620  16.880  -2.187  1.00 20.00     0.047 A 
HETATM    6  C6  UNL     1     -37.425  15.006  -3.784  1.00 20.00     0.141 A 
HETATM    7  C7  UNL     1     -34.945  17.181  -2.053  1.00 20.00     0.100 A 
HETATM    8  C8  UNL     1     -36.111  13.440  -4.836  1.00 20.00     0.189 A 
HETATM    9  N9  UNL     1     -37.530  13.953  -4.553  1.00 20.00    -0.295 NA
HETATM   10  N10 UNL     1     -35.278  16.125  -2.838  1.00 20.00    -0.320 N 
ENDROOT
TORSDOF 0
ENDMDL
MODEL 7
REMARK VINA RESULT:      -4.4      1.234      3.309
REMARK  0 active torsions:
REMARK  status: ('A' for Active; 'I' for Inactive)
ROOT
HETATM    1  C1  UNL     1     -22.798  18.147   8.849  1.00 20.00     0.041 A 
HETATM    2  C2  UNL     1     -23.324  17.975  10.164  1.00 20.00    -0.008 A 
HETATM    3  C3  UNL     1     -23.871  18.647   8.185  1.00 20.00     0.041 A 
HETATM    4  C4  UNL     1     -24.643  18.371  10.202  1.00 20.00     0.064 A 
HETATM    5  C5  UNL     1     -24.651  19.162   7.101  1.00 20.00     0.047 A 
HETATM    6  C6  UNL     1     -25.158  18.199  11.500  1.00 20.00     0.141 A 
HETATM    7  C7  UNL     1     -25.699  19.263   7.971  1.00 20.00     0.100 A 
HETATM    8  C8  UNL     1     -22.962  17.519  11.516  1.00 20.00     0.189 A 
HETATM    9  N9  UNL     1     -24.258  17.714  12.316  1.00 20.00    -0.295 NA
HETATM   10  N10 UNL     1     -24.929  18.771   8.975  1.00 20.00    -0.320 N 
ENDROOT
TORSDOF 0
ENDMDL
MODEL 8
REMARK VINA RESULT:      -4.2      1.219      3.956
REMARK  0 active torsions:
REMARK  status: ('A' for Active; 'I' for Inactive)
ROOT
HETATM    1  C1  UNL     1     -24.274  18.599   8.632  1.00 20.00     0.041 A 
HETATM    2  C2  UNL     1     -24.458  18.351  10.026  1.00 20.00    -0.008 A 
HETATM    3  C3  UNL     1     -23.072  18.015   8.402  1.00 20.00     0.041 A 
HETATM    4  C4  UNL     1     -23.380  17.653  10.527  1.00 20.00     0.064 A 
HETATM    5  C5  UNL     1     -21.913  17.577   7.684  1.00 20.00     0.047 A 
HETATM    6  C6  UNL     1     -23.565  17.411  11.901  1.00 20.00     0.141 A 
HETATM    7  C7  UNL     1     -21.454  17.042   8.853  1.00 20.00     0.100 A 
HETATM    8  C8  UNL     1     -25.395  18.574  11.138  1.00 20.00     0.189 A 
HETATM    9  N9  UNL     1     -24.696  17.907  12.331  1.00 20.00    -0.295 NA
HETATM   10  N10 UNL     1     -22.566  17.473   9.502  1.00 20.00    -0.320 N 
ENDROOT
TORSDOF 0
ENDMDL
MODEL 9
REMARK VINA RESULT:      -4.2     16.517     16.939
REMARK  0 active torsions:
REMARK  status: ('A' for Active; 'I' for Inactive)
ROOT
HETATM    1  C1  UNL     1     -34.439   4.490   3.749  1.00 20.00     0.041 A 
HETATM    2  C2  UNL     1     -33.656   5.409   2.987  1.00 20.00    -0.008 A 
HETATM    3  C3  UNL     1     -34.566   5.146   4.929  1.00 20.00     0.041 A 
HETATM    4  C4  UNL     1     -33.372   6.526   3.742  1.00 20.00     0.064 A 
HETATM    5  C5  UNL     1     -34.967   5.404   6.280  1.00 20.00     0.047 A 
HETATM    6  C6  UNL     1     -32.600   7.429   2.988  1.00 20.00     0.141 A 
HETATM    7  C7  UNL     1     -34.308   6.597   6.193  1.00 20.00     0.100 A 
HETATM    8  C8  UNL     1     -33.033   5.598   1.667  1.00 20.00     0.189 A 
HETATM    9  N9  UNL     1     -32.360   6.973   1.786  1.00 20.00    -0.295 NA
HETATM   10  N10 UNL     1     -33.946   6.318   4.914  1.00 20.00    -0.320 N 
ENDROOT
TORSDOF 0
ENDMDL
