MODEL 1
REMARK VINA RESULT:      -4.4      0.000      0.000
REMARK  1 active torsions:
REMARK  status: ('A' for Active; 'I' for Inactive)
REMARK    1  A    between atoms: C3_3  and  C6_6 
ROOT
HETATM    1  C1  UNL     1     -33.711  14.770  -5.828  1.00 20.00    -0.023 C 
HETATM    2  C2  UNL     1     -34.969  15.086  -6.172  1.00 20.00    -0.071 C 
HETATM    3  C4  UNL     1     -33.477  14.918  -4.361  1.00 20.00     0.033 C 
HETATM    4  C5  UNL     1     -34.667  15.790  -3.935  1.00 20.00     0.005 C 
HETATM    5  C6  UNL     1     -35.785  15.488  -4.965  1.00 20.00     0.043 C 
HETATM    6  C7  UNL     1     -35.536  15.020  -7.548  1.00 20.00     0.044 C 
HETATM    7  C9  UNL     1     -35.037  15.615  -2.467  1.00 20.00     0.011 C 
HETATM    8  C10 UNL     1     -36.692  16.699  -5.183  1.00 20.00     0.029 C 
ENDROOT
BRANCH   5   9
HETATM    9  C3  UNL     1     -36.618  14.282  -4.605  1.00 20.00     0.136 C 
HETATM   10  C8  UNL     1     -38.056  14.538  -4.239  1.00 20.00     0.092 C 
HETATM   11  O11 UNL     1     -36.147  13.146  -4.613  1.00 20.00    -0.297 OA
ENDBRANCH   5   9
TORSDOF 1
ENDMDL
MODEL 2
REMARK VINA RESULT:      -4.3      2.245      3.634
REMARK  1 active torsions:
REMARK  status: ('A' for Active; 'I' for Inactive)
REMARK    1  A    between atoms: C3_3  and  C6_6 
ROOT
HETATM    1  C1  UNL     1     -32.863  15.530  -3.691  1.00 20.00    -0.023 C 
HETATM    2  C2  UNL     1     -33.357  16.479  -2.880  1.00 20.00    -0.071 C 
HETATM    3  C4  UNL     1     -33.934  14.637  -4.224  1.00 20.00     0.033 C 
HETATM    4  C5  UNL     1     -35.097  14.925  -3.264  1.00 20.00     0.005 C 
HETATM    5  C6  UNL     1     -34.860  16.370  -2.755  1.00 20.00     0.043 C 
HETATM    6  C7  UNL     1     -32.563  17.544  -2.206  1.00 20.00     0.044 C 
HETATM    7  C9  UNL     1     -36.461  14.643  -3.882  1.00 20.00     0.011 C 
HETATM    8  C10 UNL     1     -35.397  16.562  -1.338  1.00 20.00     0.029 C 
ENDROOT
BRANCH   5   9
HETATM    9  C3  UNL     1     -35.431  17.426  -3.669  1.00 20.00     0.136 C 
HETATM   10  C8  UNL     1     -36.593  18.222  -3.137  1.00 20.00     0.092 C 
HETATM   11  O11 UNL     1     -34.970  17.628  -4.790  1.00 20.00    -0.297 OA
ENDBRANCH   5   9
TORSDOF 1
ENDMDL
MODEL 3
REMARK VINA RESULT:      -4.3     18.348     19.604
REMARK  1 active torsions:
REMARK  status: ('A' for Active; 'I' for Inactive)
REMARK    1  A    between atoms: C3_3  and  C6_6 
ROOT
HETATM    1  C1  UNL     1     -25.041  19.212   9.418  1.00 20.00    -0.023 C 
HETATM    2  C2  UNL     1     -25.048  18.661  10.641  1.00 20.00    -0.071 C 
HETATM    3  C4  UNL     1     -23.758  18.958   8.698  1.00 20.00     0.033 C 
HETATM    4  C5  UNL     1     -22.826  18.539   9.844  1.00 20.00     0.005 C 
HETATM    5  C6  UNL     1     -23.755  17.932  10.925  1.00 20.00     0.043 C 
HETATM    6  C7  UNL     1     -26.182  18.705  11.606  1.00 20.00     0.044 C 
HETATM    7  C9  UNL     1     -21.669  17.664   9.379  1.00 20.00     0.011 C 
HETATM    8  C10 UNL     1     -23.197  18.148  12.332  1.00 20.00     0.029 C 
ENDROOT
BRANCH   5   9
HETATM    9  C3  UNL     1     -24.046  16.467  10.709  1.00 20.00     0.136 C 
HETATM   10  C8  UNL     1     -24.571  15.700  11.893  1.00 20.00     0.092 C 
HETATM   11  O11 UNL     1     -23.866  15.928   9.619  1.00 20.00    -0.297 OA
ENDBRANCH   5   9
TORSDOF 1
ENDMDL
MODEL 4
REMARK VINA RESULT:      -4.2      0.824      3.131
REMARK  1 active torsions:
REMARK  status: ('A' for Active; 'I' for Inactive)
REMARK    1  A    between atoms: C3_3  and  C6_6 
ROOT
HETATM    1  C1  UNL     1     -35.833  17.107  -4.188  1.00 20.00    -0.023 C 
HETATM    2  C2  UNL     1     -35.262  16.054  -3.583  1.00 20.00    -0.071 C 
HETATM    3  C4  UNL     1     -35.957  16.906  -5.663  1.00 20.00     0.033 C 
HETATM    4  C5  UNL     1     -34.977  15.750  -5.911  1.00 20.00     0.005 C 
HETATM    5  C6  UNL     1     -34.925  14.965  -4.576  1.00 20.00     0.043 C 
HETATM    6  C7  UNL     1     -35.017  15.921  -2.120  1.00 20.00     0.044 C 
HETATM    7  C9  UNL     1     -35.316  14.942  -7.157  1.00 20.00     0.011 C 
HETATM    8  C10 UNL     1     -33.561  14.309  -4.362  1.00 20.00     0.029 C 
ENDROOT
BRANCH   5   9
HETATM    9  C3  UNL     1     -36.016  13.931  -4.448  1.00 20.00     0.136 C 
HETATM   10  C8  UNL     1     -37.420  14.448  -4.276  1.00 20.00     0.092 C 
HETATM   11  O11 UNL     1     -35.772  12.727  -4.485  1.00 20.00    -0.297 OA
ENDBRANCH   5   9
TORSDOF 1
ENDMDL
MODEL 5
REMARK VINA RESULT:      -4.1      1.709      3.154
REMARK  1 active torsions:
REMARK  status: ('A' for Active; 'I' for Inactive)
REMARK    1  A    between atoms: C3_3  and  C6_6 
ROOT
HETATM    1  C1  UNL     1     -35.451  16.477  -2.619  1.00 20.00    -0.023 C 
HETATM    2  C2  UNL     1     -36.249  15.969  -3.569  1.00 20.00    -0.071 C 
HETATM    3  C4  UNL     1     -34.053  15.963  -2.728  1.00 20.00     0.033 C 
HETATM    4  C5  UNL     1     -34.235  14.732  -3.626  1.00 20.00     0.005 C 
HETATM    5  C6  UNL     1     -35.492  15.032  -4.482  1.00 20.00     0.043 C 
HETATM    6  C7  UNL     1     -37.691  16.295  -3.759  1.00 20.00     0.044 C 
HETATM    7  C9  UNL     1     -32.970  14.361  -4.390  1.00 20.00     0.011 C 
HETATM    8  C10 UNL     1     -36.243  13.752  -4.847  1.00 20.00     0.029 C 
ENDROOT
BRANCH   5   9
HETATM    9  C3  UNL     1     -35.188  15.822  -5.731  1.00 20.00     0.136 C 
HETATM   10  C8  UNL     1     -35.370  15.107  -7.044  1.00 20.00     0.092 C 
HETATM   11  O11 UNL     1     -34.813  16.991  -5.680  1.00 20.00    -0.297 OA
ENDBRANCH   5   9
TORSDOF 1
ENDMDL
MODEL 6
REMARK VINA RESULT:      -4.0      2.189      3.529
REMARK  1 active torsions:
REMARK  status: ('A' for Active; 'I' for Inactive)
REMARK    1  A    between atoms: C3_3  and  C6_6 
ROOT
HETATM    1  C1  UNL     1     -35.070  14.133  -4.122  1.00 20.00    -0.023 C 
HETATM    2  C2  UNL     1     -33.946  14.856  -4.012  1.00 20.00    -0.071 C 
HETATM    3  C4  UNL     1     -36.273  14.895  -3.673  1.00 20.00     0.033 C 
HETATM    4  C5  UNL     1     -35.642  16.039  -2.866  1.00 20.00     0.005 C 
HETATM    5  C6  UNL     1     -34.231  16.241  -3.475  1.00 20.00     0.043 C 
HETATM    6  C7  UNL     1     -32.580  14.404  -4.399  1.00 20.00     0.044 C 
HETATM    7  C9  UNL     1     -36.529  17.275  -2.795  1.00 20.00     0.011 C 
HETATM    8  C10 UNL     1     -33.233  16.737  -2.431  1.00 20.00     0.029 C 
ENDROOT
BRANCH   5   9
HETATM    9  C3  UNL     1     -34.223  17.161  -4.671  1.00 20.00     0.136 C 
HETATM   10  C8  UNL     1     -33.577  18.508  -4.483  1.00 20.00     0.092 C 
HETATM   11  O11 UNL     1     -34.718  16.827  -5.746  1.00 20.00    -0.297 OA
ENDBRANCH   5   9
TORSDOF 1
ENDMDL
MODEL 7
REMARK VINA RESULT:      -3.9      1.962      3.193
REMARK  1 active torsions:
REMARK  status: ('A' for Active; 'I' for Inactive)
REMARK    1  A    between atoms: C3_3  and  C6_6 
ROOT
HETATM    1  C1  UNL     1     -34.399  14.178  -3.944  1.00 20.00    -0.023 C 
HETATM    2  C2  UNL     1     -34.354  15.461  -3.556  1.00 20.00    -0.071 C 
HETATM    3  C4  UNL     1     -35.774  13.766  -4.357  1.00 20.00     0.033 C 
HETATM    4  C5  UNL     1     -36.638  14.877  -3.744  1.00 20.00     0.005 C 
HETATM    5  C6  UNL     1     -35.712  16.118  -3.664  1.00 20.00     0.043 C 
HETATM    6  C7  UNL     1     -33.135  16.191  -3.111  1.00 20.00     0.044 C 
HETATM    7  C9  UNL     1     -37.962  15.070  -4.473  1.00 20.00     0.011 C 
HETATM    8  C10 UNL     1     -36.079  17.019  -2.486  1.00 20.00     0.029 C 
ENDROOT
BRANCH   5   9
HETATM    9  C3  UNL     1     -35.684  16.925  -4.938  1.00 20.00     0.136 C 
HETATM   10  C8  UNL     1     -36.297  18.299  -4.882  1.00 20.00     0.092 C 
HETATM   11  O11 UNL     1     -35.183  16.485  -5.971  1.00 20.00    -0.297 OA
ENDBRANCH   5   9
TORSDOF 1
ENDMDL
MODEL 8
REMARK VINA RESULT:      -3.8      1.522      3.138
REMARK  1 active torsions:
REMARK  status: ('A' for Active; 'I' for Inactive)
REMARK    1  A    between atoms: C3_3  and  C6_6 
ROOT
HETATM    1  C1  UNL     1     -34.241  16.299  -2.692  1.00 20.00    -0.023 C 
HETATM    2  C2  UNL     1     -34.129  16.823  -3.922  1.00 20.00    -0.071 C 
HETATM    3  C4  UNL     1     -35.179  15.137  -2.662  1.00 20.00     0.033 C 
HETATM    4  C5  UNL     1     -35.949  15.315  -3.979  1.00 20.00     0.005 C 
HETATM    5  C6  UNL     1     -34.978  16.071  -4.921  1.00 20.00     0.043 C 
HETATM    6  C7  UNL     1     -33.256  17.970  -4.301  1.00 20.00     0.044 C 
HETATM    7  C9  UNL     1     -36.524  14.008  -4.511  1.00 20.00     0.011 C 
HETATM    8  C10 UNL     1     -35.732  16.958  -5.911  1.00 20.00     0.029 C 
ENDROOT
BRANCH   5   9
HETATM    9  C3  UNL     1     -34.036  15.158  -5.666  1.00 20.00     0.136 C 
HETATM   10  C8  UNL     1     -34.086  15.215  -7.169  1.00 20.00     0.092 C 
HETATM   11  O11 UNL     1     -33.264  14.406  -5.074  1.00 20.00    -0.297 OA
ENDBRANCH   5   9
TORSDOF 1
ENDMDL
MODEL 9
REMARK VINA RESULT:      -3.8      1.943      3.435
REMARK  1 active torsions:
REMARK  status: ('A' for Active; 'I' for Inactive)
REMARK    1  A    between atoms: C3_3  and  C6_6 
ROOT
HETATM    1  C1  UNL     1     -35.928  15.510  -2.748  1.00 20.00    -0.023 C 
HETATM    2  C2  UNL     1     -35.385  14.806  -3.752  1.00 20.00    -0.071 C 
HETATM    3  C4  UNL     1     -35.079  16.675  -2.357  1.00 20.00     0.033 C 
HETATM    4  C5  UNL     1     -33.728  16.311  -2.989  1.00 20.00     0.005 C 
HETATM    5  C6  UNL     1     -34.074  15.409  -4.202  1.00 20.00     0.043 C 
HETATM    6  C7  UNL     1     -35.987  13.605  -4.395  1.00 20.00     0.044 C 
HETATM    7  C9  UNL     1     -32.861  17.529  -3.280  1.00 20.00     0.011 C 
HETATM    8  C10 UNL     1     -32.967  14.393  -4.481  1.00 20.00     0.029 C 
ENDROOT
BRANCH   5   9
HETATM    9  C3  UNL     1     -34.382  16.189  -5.456  1.00 20.00     0.136 C 
HETATM   10  C8  UNL     1     -33.985  15.553  -6.762  1.00 20.00     0.092 C 
HETATM   11  O11 UNL     1     -34.932  17.288  -5.415  1.00 20.00    -0.297 OA
ENDBRANCH   5   9
TORSDOF 1
ENDMDL
