MODEL 1
REMARK VINA RESULT:      -4.9      0.000      0.000
REMARK  1 active torsions:
REMARK  status: ('A' for Active; 'I' for Inactive)
REMARK    1  A    between atoms: C3_3  and  C6_6 
ROOT
HETATM    1  C1  UNL     1     -33.164  16.730  -2.910  1.00 20.00    -0.030 A 
HETATM    2  C2  UNL     1     -33.012  15.677  -3.730  1.00 20.00    -0.025 A 
HETATM    3  C4  UNL     1     -34.460  16.595  -2.152  1.00 20.00     0.033 A 
HETATM    4  C5  UNL     1     -34.111  14.704  -3.656  1.00 20.00     0.024 A 
HETATM    5  C6  UNL     1     -35.510  15.096  -4.061  1.00 20.00     0.068 A 
HETATM    6  C7  UNL     1     -35.064  15.289  -2.631  1.00 20.00     0.009 A 
ENDROOT
BRANCH   5   7
HETATM    7  C3  UNL     1     -36.485  14.039  -4.363  1.00 20.00     0.128 C 
HETATM    8  C8  UNL     1     -37.937  14.432  -4.347  1.00 20.00     0.091 C 
HETATM    9  O9  UNL     1     -36.129  12.890  -4.621  1.00 20.00    -0.298 OA
ENDBRANCH   5   7
TORSDOF 1
ENDMDL
MODEL 2
REMARK VINA RESULT:      -4.8      1.092      1.745
REMARK  1 active torsions:
REMARK  status: ('A' for Active; 'I' for Inactive)
REMARK    1  A    between atoms: C3_3  and  C6_6 
ROOT
HETATM    1  C1  UNL     1     -33.742  16.843  -1.850  1.00 20.00    -0.030 A 
HETATM    2  C2  UNL     1     -35.016  16.421  -1.786  1.00 20.00    -0.025 A 
HETATM    3  C4  UNL     1     -33.182  16.552  -3.219  1.00 20.00     0.033 A 
HETATM    4  C5  UNL     1     -35.504  15.820  -3.037  1.00 20.00     0.024 A 
HETATM    5  C6  UNL     1     -34.881  14.556  -3.573  1.00 20.00     0.068 A 
HETATM    6  C7  UNL     1     -34.319  15.898  -3.980  1.00 20.00     0.009 A 
ENDROOT
BRANCH   5   7
HETATM    7  C3  UNL     1     -35.620  13.767  -4.567  1.00 20.00     0.128 C 
HETATM    8  C8  UNL     1     -35.901  14.431  -5.887  1.00 20.00     0.091 C 
HETATM    9  O9  UNL     1     -35.989  12.616  -4.332  1.00 20.00    -0.298 OA
ENDBRANCH   5   7
TORSDOF 1
ENDMDL
MODEL 3
REMARK VINA RESULT:      -4.7     11.391     12.113
REMARK  1 active torsions:
REMARK  status: ('A' for Active; 'I' for Inactive)
REMARK    1  A    between atoms: C3_3  and  C6_6 
ROOT
HETATM    1  C1  UNL     1     -35.121   4.976   5.639  1.00 20.00    -0.030 A 
HETATM    2  C2  UNL     1     -35.202   5.062   4.301  1.00 20.00    -0.025 A 
HETATM    3  C4  UNL     1     -34.282   6.111   6.168  1.00 20.00     0.033 A 
HETATM    4  C5  UNL     1     -34.482   6.214   3.737  1.00 20.00     0.024 A 
HETATM    5  C6  UNL     1     -32.984   6.323   3.873  1.00 20.00     0.068 A 
HETATM    6  C7  UNL     1     -33.877   6.907   4.942  1.00 20.00     0.009 A 
ENDROOT
BRANCH   5   7
HETATM    7  C3  UNL     1     -32.254   7.235   2.982  1.00 20.00     0.128 C 
HETATM    8  C8  UNL     1     -32.805   7.409   1.593  1.00 20.00     0.091 C 
HETATM    9  O9  UNL     1     -31.244   7.829   3.356  1.00 20.00    -0.298 OA
ENDBRANCH   5   7
TORSDOF 1
ENDMDL
MODEL 4
REMARK VINA RESULT:      -4.6      1.595      2.101
REMARK  1 active torsions:
REMARK  status: ('A' for Active; 'I' for Inactive)
REMARK    1  A    between atoms: C3_3  and  C6_6 
ROOT
HETATM    1  C1  UNL     1     -33.932  16.754  -2.036  1.00 20.00    -0.030 A 
HETATM    2  C2  UNL     1     -33.052  16.489  -3.016  1.00 20.00    -0.025 A 
HETATM    3  C4  UNL     1     -35.154  15.888  -2.209  1.00 20.00     0.033 A 
HETATM    4  C5  UNL     1     -33.503  15.450  -3.954  1.00 20.00     0.024 A 
HETATM    5  C6  UNL     1     -34.726  15.669  -4.810  1.00 20.00     0.068 A 
HETATM    6  C7  UNL     1     -34.873  15.048  -3.440  1.00 20.00     0.009 A 
ENDROOT
BRANCH   5   7
HETATM    7  C3  UNL     1     -34.923  14.824  -5.995  1.00 20.00     0.128 C 
HETATM    8  C8  UNL     1     -33.968  15.031  -7.140  1.00 20.00     0.091 C 
HETATM    9  O9  UNL     1     -35.823  13.987  -6.048  1.00 20.00    -0.298 OA
ENDBRANCH   5   7
TORSDOF 1
ENDMDL
MODEL 5
REMARK VINA RESULT:      -4.5     11.576     12.258
REMARK  1 active torsions:
REMARK  status: ('A' for Active; 'I' for Inactive)
REMARK    1  A    between atoms: C3_3  and  C6_6 
ROOT
HETATM    1  C1  UNL     1     -34.727   5.573   6.442  1.00 20.00    -0.030 A 
HETATM    2  C2  UNL     1     -35.119   4.883   5.359  1.00 20.00    -0.025 A 
HETATM    3  C4  UNL     1     -33.994   6.818   6.009  1.00 20.00     0.033 A 
HETATM    4  C5  UNL     1     -34.750   5.519   4.085  1.00 20.00     0.024 A 
HETATM    5  C6  UNL     1     -33.301   5.703   3.713  1.00 20.00     0.068 A 
HETATM    6  C7  UNL     1     -34.016   6.781   4.493  1.00 20.00     0.009 A 
ENDROOT
BRANCH   5   7
HETATM    7  C3  UNL     1     -32.955   5.956   2.308  1.00 20.00     0.128 C 
HETATM    8  C8  UNL     1     -32.491   7.345   1.964  1.00 20.00     0.091 C 
HETATM    9  O9  UNL     1     -33.037   5.073   1.455  1.00 20.00    -0.298 OA
ENDBRANCH   5   7
TORSDOF 1
ENDMDL
MODEL 6
REMARK VINA RESULT:      -4.5     17.951     18.514
REMARK  1 active torsions:
REMARK  status: ('A' for Active; 'I' for Inactive)
REMARK    1  A    between atoms: C3_3  and  C6_6 
ROOT
HETATM    1  C1  UNL     1     -25.363  17.140  12.277  1.00 20.00    -0.030 A 
HETATM    2  C2  UNL     1     -24.601  16.253  11.617  1.00 20.00    -0.025 A 
HETATM    3  C4  UNL     1     -25.402  18.439  11.512  1.00 20.00     0.033 A 
HETATM    4  C5  UNL     1     -24.041  16.771  10.360  1.00 20.00     0.024 A 
HETATM    5  C6  UNL     1     -23.071  17.925  10.372  1.00 20.00     0.068 A 
HETATM    6  C7  UNL     1     -24.554  18.196  10.278  1.00 20.00     0.009 A 
ENDROOT
BRANCH   5   7
HETATM    7  C3  UNL     1     -22.231  18.160   9.191  1.00 20.00     0.128 C 
HETATM    8  C8  UNL     1     -22.006  16.987   8.276  1.00 20.00     0.091 C 
HETATM    9  O9  UNL     1     -21.738  19.263   8.958  1.00 20.00    -0.298 OA
ENDBRANCH   5   7
TORSDOF 1
ENDMDL
MODEL 7
REMARK VINA RESULT:      -4.4     16.424     17.933
REMARK  1 active torsions:
REMARK  status: ('A' for Active; 'I' for Inactive)
REMARK    1  A    between atoms: C3_3  and  C6_6 
ROOT
HETATM    1  C1  UNL     1     -23.342  17.847  12.332  1.00 20.00    -0.030 A 
HETATM    2  C2  UNL     1     -22.368  17.796  11.409  1.00 20.00    -0.025 A 
HETATM    3  C4  UNL     1     -24.683  17.685  11.660  1.00 20.00     0.033 A 
HETATM    4  C5  UNL     1     -22.860  17.589  10.038  1.00 20.00     0.024 A 
HETATM    5  C6  UNL     1     -23.736  18.622   9.375  1.00 20.00     0.068 A 
HETATM    6  C7  UNL     1     -24.368  17.516  10.186  1.00 20.00     0.009 A 
ENDROOT
BRANCH   5   7
HETATM    7  C3  UNL     1     -23.878  18.600   7.913  1.00 20.00     0.128 C 
HETATM    8  C8  UNL     1     -25.207  19.031   7.356  1.00 20.00     0.091 C 
HETATM    9  O9  UNL     1     -22.953  18.249   7.181  1.00 20.00    -0.298 OA
ENDBRANCH   5   7
TORSDOF 1
ENDMDL
MODEL 8
REMARK VINA RESULT:      -4.4     11.253     11.995
REMARK  1 active torsions:
REMARK  status: ('A' for Active; 'I' for Inactive)
REMARK    1  A    between atoms: C3_3  and  C6_6 
ROOT
HETATM    1  C1  UNL     1     -35.210   5.217   5.400  1.00 20.00    -0.030 A 
HETATM    2  C2  UNL     1     -34.454   6.272   5.745  1.00 20.00    -0.025 A 
HETATM    3  C4  UNL     1     -34.660   4.591   4.143  1.00 20.00     0.033 A 
HETATM    4  C5  UNL     1     -33.323   6.513   4.836  1.00 20.00     0.024 A 
HETATM    5  C6  UNL     1     -33.564   6.878   3.393  1.00 20.00     0.068 A 
HETATM    6  C7  UNL     1     -33.445   5.425   3.787  1.00 20.00     0.009 A 
ENDROOT
BRANCH   5   7
HETATM    7  C3  UNL     1     -32.475   7.497   2.626  1.00 20.00     0.128 C 
HETATM    8  C8  UNL     1     -32.809   7.973   1.239  1.00 20.00     0.091 C 
HETATM    9  O9  UNL     1     -31.345   7.622   3.097  1.00 20.00    -0.298 OA
ENDBRANCH   5   7
TORSDOF 1
ENDMDL
MODEL 9
REMARK VINA RESULT:      -4.1      2.864      4.625
REMARK  1 active torsions:
REMARK  status: ('A' for Active; 'I' for Inactive)
REMARK    1  A    between atoms: C3_3  and  C6_6 
ROOT
HETATM    1  C1  UNL     1     -34.957  14.748  -3.865  1.00 20.00    -0.030 A 
HETATM    2  C2  UNL     1     -35.310  15.574  -2.867  1.00 20.00    -0.025 A 
HETATM    3  C4  UNL     1     -33.483  14.897  -4.146  1.00 20.00     0.033 A 
HETATM    4  C5  UNL     1     -34.193  16.365  -2.329  1.00 20.00     0.024 A 
HETATM    5  C6  UNL     1     -33.474  17.366  -3.198  1.00 20.00     0.068 A 
HETATM    6  C7  UNL     1     -32.995  15.934  -3.153  1.00 20.00     0.009 A 
ENDROOT
BRANCH   5   7
HETATM    7  C3  UNL     1     -32.659  18.407  -2.558  1.00 20.00     0.128 C 
HETATM    8  C8  UNL     1     -32.584  18.379  -1.056  1.00 20.00     0.091 C 
HETATM    9  O9  UNL     1     -32.063  19.257  -3.219  1.00 20.00    -0.298 OA
ENDBRANCH   5   7
TORSDOF 1
ENDMDL
