MODEL 1
REMARK VINA RESULT:      -5.5      0.000      0.000
REMARK  1 active torsions:
REMARK  status: ('A' for Active; 'I' for Inactive)
REMARK    1  A    between atoms: C3_3  and  C7_7 
ROOT
HETATM    1  C1  UNL     1     -34.204   5.719   6.224  1.00 20.00    -0.030 C 
HETATM    2  C2  UNL     1     -34.572   4.617   5.563  1.00 20.00    -0.026 C 
HETATM    3  C4  UNL     1     -34.123   6.939   5.358  1.00 20.00     0.033 C 
HETATM    4  C5  UNL     1     -33.548   4.791   3.227  1.00 20.00     0.021 C 
HETATM    5  C6  UNL     1     -34.787   4.927   4.138  1.00 20.00     0.013 C 
HETATM    6  C7  UNL     1     -33.760   6.249   2.760  1.00 20.00     0.060 C 
HETATM    7  C8  UNL     1     -34.673   6.470   4.002  1.00 20.00     0.008 C 
ENDROOT
BRANCH   6   8
HETATM    8  C3  UNL     1     -32.530   7.144   2.593  1.00 20.00     0.127 C 
HETATM    9  C9  UNL     1     -32.398   7.876   1.284  1.00 20.00     0.091 C 
HETATM   10  O10 UNL     1     -31.690   7.261   3.485  1.00 20.00    -0.298 OA
ENDBRANCH   6   8
TORSDOF 1
ENDMDL
MODEL 2
REMARK VINA RESULT:      -4.9     11.407     12.484
REMARK  1 active torsions:
REMARK  status: ('A' for Active; 'I' for Inactive)
REMARK    1  A    between atoms: C3_3  and  C7_7 
ROOT
HETATM    1  C1  UNL     1     -34.017  16.821  -2.479  1.00 20.00    -0.030 C 
HETATM    2  C2  UNL     1     -33.092  16.492  -3.385  1.00 20.00    -0.026 C 
HETATM    3  C4  UNL     1     -35.112  15.807  -2.344  1.00 20.00     0.033 C 
HETATM    4  C5  UNL     1     -34.317  15.277  -5.271  1.00 20.00     0.021 C 
HETATM    5  C6  UNL     1     -33.429  15.200  -4.010  1.00 20.00     0.013 C 
HETATM    6  C7  UNL     1     -35.318  14.311  -4.597  1.00 20.00     0.060 C 
HETATM    7  C8  UNL     1     -34.650  14.640  -3.230  1.00 20.00     0.008 C 
ENDROOT
BRANCH   6   8
HETATM    8  C3  UNL     1     -36.814  14.587  -4.761  1.00 20.00     0.127 C 
HETATM    9  C9  UNL     1     -37.195  15.910  -5.371  1.00 20.00     0.091 C 
HETATM   10  O10 UNL     1     -37.664  13.768  -4.414  1.00 20.00    -0.298 OA
ENDBRANCH   6   8
TORSDOF 1
ENDMDL
MODEL 3
REMARK VINA RESULT:      -4.8     16.141     16.875
REMARK  1 active torsions:
REMARK  status: ('A' for Active; 'I' for Inactive)
REMARK    1  A    between atoms: C3_3  and  C7_7 
ROOT
HETATM    1  C1  UNL     1     -25.465  18.601  11.333  1.00 20.00    -0.030 C 
HETATM    2  C2  UNL     1     -24.773  18.045  12.332  1.00 20.00    -0.026 C 
HETATM    3  C4  UNL     1     -25.053  18.116   9.976  1.00 20.00     0.033 C 
HETATM    4  C5  UNL     1     -22.391  17.703  11.468  1.00 20.00     0.021 C 
HETATM    5  C6  UNL     1     -23.775  17.102  11.796  1.00 20.00     0.013 C 
HETATM    6  C7  UNL     1     -22.519  17.152  10.030  1.00 20.00     0.060 C 
HETATM    7  C8  UNL     1     -24.048  16.992  10.271  1.00 20.00     0.008 C 
ENDROOT
BRANCH   6   8
HETATM    8  C3  UNL     1     -22.054  18.036   8.871  1.00 20.00     0.127 C 
HETATM    9  C9  UNL     1     -21.667  17.334   7.597  1.00 20.00     0.091 C 
HETATM   10  O10 UNL     1     -22.001  19.261   8.974  1.00 20.00    -0.298 OA
ENDBRANCH   6   8
TORSDOF 1
ENDMDL
MODEL 4
REMARK VINA RESULT:      -4.6     15.342     16.218
REMARK  1 active torsions:
REMARK  status: ('A' for Active; 'I' for Inactive)
REMARK    1  A    between atoms: C3_3  and  C7_7 
ROOT
HETATM    1  C1  UNL     1     -24.304  16.217  10.827  1.00 20.00    -0.030 C 
HETATM    2  C2  UNL     1     -24.899  17.162  11.562  1.00 20.00    -0.026 C 
HETATM    3  C4  UNL     1     -23.463  16.764   9.714  1.00 20.00     0.033 C 
HETATM    4  C5  UNL     1     -25.496  19.063   9.961  1.00 20.00     0.021 C 
HETATM    5  C6  UNL     1     -24.554  18.498  11.046  1.00 20.00     0.013 C 
HETATM    6  C7  UNL     1     -24.274  19.261   9.036  1.00 20.00     0.060 C 
HETATM    7  C8  UNL     1     -23.478  18.282   9.947  1.00 20.00     0.008 C 
ENDROOT
BRANCH   6   8
HETATM    8  C3  UNL     1     -24.424  18.916   7.553  1.00 20.00     0.127 C 
HETATM    9  C9  UNL     1     -25.827  18.873   7.007  1.00 20.00     0.091 C 
HETATM   10  O10 UNL     1     -23.448  18.687   6.840  1.00 20.00    -0.298 OA
ENDBRANCH   6   8
TORSDOF 1
ENDMDL
MODEL 5
REMARK VINA RESULT:      -4.3      9.183     10.051
REMARK  1 active torsions:
REMARK  status: ('A' for Active; 'I' for Inactive)
REMARK    1  A    between atoms: C3_3  and  C7_7 
ROOT
HETATM    1  C1  UNL     1     -41.239   8.632  -0.444  1.00 20.00    -0.030 C 
HETATM    2  C2  UNL     1     -41.660   8.308   0.783  1.00 20.00    -0.026 C 
HETATM    3  C4  UNL     1     -41.869   7.814  -1.529  1.00 20.00     0.033 C 
HETATM    4  C5  UNL     1     -42.051   5.782   0.778  1.00 20.00     0.021 C 
HETATM    5  C6  UNL     1     -42.638   7.209   0.710  1.00 20.00     0.013 C 
HETATM    6  C7  UNL     1     -42.768   5.450  -0.550  1.00 20.00     0.060 C 
HETATM    7  C8  UNL     1     -42.930   6.978  -0.797  1.00 20.00     0.008 C 
ENDROOT
BRANCH   6   8
HETATM    8  C3  UNL     1     -42.016   4.620  -1.593  1.00 20.00     0.127 C 
HETATM    9  C9  UNL     1     -42.848   3.745  -2.491  1.00 20.00     0.091 C 
HETATM   10  O10 UNL     1     -40.790   4.667  -1.693  1.00 20.00    -0.298 OA
ENDBRANCH   6   8
TORSDOF 1
ENDMDL
MODEL 6
REMARK VINA RESULT:      -4.3     15.611     16.490
REMARK  1 active torsions:
REMARK  status: ('A' for Active; 'I' for Inactive)
REMARK    1  A    between atoms: C3_3  and  C7_7 
ROOT
HETATM    1  C1  UNL     1     -25.397  16.280  12.323  1.00 20.00    -0.030 C 
HETATM    2  C2  UNL     1     -25.943  17.487  12.151  1.00 20.00    -0.026 C 
HETATM    3  C4  UNL     1     -23.935  16.232  11.996  1.00 20.00     0.033 C 
HETATM    4  C5  UNL     1     -24.772  18.539  10.137  1.00 20.00     0.021 C 
HETATM    5  C6  UNL     1     -24.928  18.441  11.670  1.00 20.00     0.013 C 
HETATM    6  C7  UNL     1     -23.266  18.234  10.294  1.00 20.00     0.060 C 
HETATM    7  C8  UNL     1     -23.565  17.698  11.724  1.00 20.00     0.008 C 
ENDROOT
BRANCH   6   8
HETATM    8  C3  UNL     1     -22.609  17.289   9.285  1.00 20.00     0.127 C 
HETATM    9  C9  UNL     1     -21.293  17.730   8.703  1.00 20.00     0.091 C 
HETATM   10  O10 UNL     1     -23.129  16.220   8.967  1.00 20.00    -0.298 OA
ENDBRANCH   6   8
TORSDOF 1
ENDMDL
MODEL 7
REMARK VINA RESULT:      -4.3     11.677     12.779
REMARK  1 active torsions:
REMARK  status: ('A' for Active; 'I' for Inactive)
REMARK    1  A    between atoms: C3_3  and  C7_7 
ROOT
HETATM    1  C1  UNL     1     -34.193  18.072  -3.771  1.00 20.00    -0.030 C 
HETATM    2  C2  UNL     1     -33.067  17.451  -3.406  1.00 20.00    -0.026 C 
HETATM    3  C4  UNL     1     -35.419  17.222  -3.628  1.00 20.00     0.033 C 
HETATM    4  C5  UNL     1     -33.336  14.998  -4.074  1.00 20.00     0.021 C 
HETATM    5  C6  UNL     1     -33.363  16.075  -2.968  1.00 20.00     0.013 C 
HETATM    6  C7  UNL     1     -34.773  14.589  -3.678  1.00 20.00     0.060 C 
HETATM    7  C8  UNL     1     -34.911  15.948  -2.934  1.00 20.00     0.008 C 
ENDROOT
BRANCH   6   8
HETATM    8  C3  UNL     1     -35.768  14.265  -4.794  1.00 20.00     0.127 C 
HETATM    9  C9  UNL     1     -37.220  14.189  -4.405  1.00 20.00     0.091 C 
HETATM   10  O10 UNL     1     -35.400  14.078  -5.953  1.00 20.00    -0.298 OA
ENDBRANCH   6   8
TORSDOF 1
ENDMDL
MODEL 8
REMARK VINA RESULT:      -4.2     11.997     12.984
REMARK  1 active torsions:
REMARK  status: ('A' for Active; 'I' for Inactive)
REMARK    1  A    between atoms: C3_3  and  C7_7 
ROOT
HETATM    1  C1  UNL     1     -35.182  16.866  -1.214  1.00 20.00    -0.030 C 
HETATM    2  C2  UNL     1     -34.057  17.587  -1.185  1.00 20.00    -0.026 C 
HETATM    3  C4  UNL     1     -35.189  15.809  -2.277  1.00 20.00     0.033 C 
HETATM    4  C5  UNL     1     -33.277  17.822  -3.608  1.00 20.00     0.021 C 
HETATM    5  C6  UNL     1     -33.132  17.128  -2.236  1.00 20.00     0.013 C 
HETATM    6  C7  UNL     1     -33.454  16.435  -4.265  1.00 20.00     0.060 C 
HETATM    7  C8  UNL     1     -33.766  15.853  -2.855  1.00 20.00     0.008 C 
ENDROOT
BRANCH   6   8
HETATM    8  C3  UNL     1     -34.507  16.283  -5.364  1.00 20.00     0.127 C 
HETATM    9  C9  UNL     1     -34.346  15.113  -6.298  1.00 20.00     0.091 C 
HETATM   10  O10 UNL     1     -35.441  17.076  -5.479  1.00 20.00    -0.298 OA
ENDBRANCH   6   8
TORSDOF 1
ENDMDL
MODEL 9
REMARK VINA RESULT:      -4.2      8.957      9.771
REMARK  1 active torsions:
REMARK  status: ('A' for Active; 'I' for Inactive)
REMARK    1  A    between atoms: C3_3  and  C7_7 
ROOT
HETATM    1  C1  UNL     1     -41.998   5.154  -1.363  1.00 20.00    -0.030 C 
HETATM    2  C2  UNL     1     -42.608   4.754  -0.243  1.00 20.00    -0.026 C 
HETATM    3  C4  UNL     1     -41.178   6.396  -1.187  1.00 20.00     0.033 C 
HETATM    4  C5  UNL     1     -43.261   6.872   1.031  1.00 20.00     0.021 C 
HETATM    5  C6  UNL     1     -42.297   5.677   0.863  1.00 20.00     0.013 C 
HETATM    6  C7  UNL     1     -42.050   7.829   0.943  1.00 20.00     0.060 C 
HETATM    7  C8  UNL     1     -41.226   6.663   0.325  1.00 20.00     0.008 C 
ENDROOT
BRANCH   6   8
HETATM    8  C3  UNL     1     -42.204   9.120   0.136  1.00 20.00     0.127 C 
HETATM    9  C9  UNL     1     -43.353   9.178  -0.835  1.00 20.00     0.091 C 
HETATM   10  O10 UNL     1     -41.428  10.065   0.274  1.00 20.00    -0.298 OA
ENDBRANCH   6   8
TORSDOF 1
ENDMDL
