MODEL 1
REMARK VINA RESULT:      -5.7      0.000      0.000
REMARK  0 active torsions:
REMARK  status: ('A' for Active; 'I' for Inactive)
ROOT
HETATM    1  C1  UNL     1     -32.424   7.044   2.652  1.00 20.00     0.011 C 
HETATM    2  C2  UNL     1     -33.346   4.607   2.722  1.00 20.00     0.011 C 
HETATM    3  C3  UNL     1     -32.300   7.551   3.896  1.00 20.00     0.007 C 
HETATM    4  C4  UNL     1     -34.071   4.112   3.745  1.00 20.00     0.007 C 
HETATM    5  C5  UNL     1     -33.984   6.863   6.007  1.00 20.00     0.042 C 
HETATM    6  C6  UNL     1     -34.771   5.517   5.914  1.00 20.00     0.042 C 
HETATM    7  C7  UNL     1     -33.590   6.083   2.570  1.00 20.00     0.270 C 
HETATM    8  C8  UNL     1     -33.163   6.723   4.760  1.00 20.00     0.247 C 
HETATM    9  C9  UNL     1     -34.889   5.196   4.401  1.00 20.00     0.247 C 
HETATM   10  N10 UNL     1     -34.296   6.412   3.828  1.00 20.00     0.116 N 
ENDROOT
TORSDOF 0
ENDMDL
MODEL 2
REMARK VINA RESULT:      -4.7     15.741     16.563
REMARK  0 active torsions:
REMARK  status: ('A' for Active; 'I' for Inactive)
ROOT
HETATM    1  C1  UNL     1     -26.186  18.972  11.562  1.00 20.00     0.011 C 
HETATM    2  C2  UNL     1     -25.458  16.552  12.202  1.00 20.00     0.011 C 
HETATM    3  C3  UNL     1     -25.839  19.262  10.291  1.00 20.00     0.007 C 
HETATM    4  C4  UNL     1     -24.458  15.887  11.589  1.00 20.00     0.007 C 
HETATM    5  C5  UNL     1     -23.578  18.218   9.042  1.00 20.00     0.042 C 
HETATM    6  C6  UNL     1     -22.961  16.902   9.615  1.00 20.00     0.042 C 
HETATM    7  C7  UNL     1     -25.186  18.031  12.197  1.00 20.00     0.270 C 
HETATM    8  C8  UNL     1     -24.787  18.295   9.926  1.00 20.00     0.247 C 
HETATM    9  C9  UNL     1     -23.395  16.840  11.103  1.00 20.00     0.247 C 
HETATM   10  N10 UNL     1     -24.069  18.138  11.234  1.00 20.00     0.116 N 
ENDROOT
TORSDOF 0
ENDMDL
MODEL 3
REMARK VINA RESULT:      -4.6     16.417     16.883
REMARK  0 active torsions:
REMARK  status: ('A' for Active; 'I' for Inactive)
ROOT
HETATM    1  C1  UNL     1     -23.372  17.839   8.811  1.00 20.00     0.011 C 
HETATM    2  C2  UNL     1     -22.427  17.739  11.237  1.00 20.00     0.011 C 
HETATM    3  C3  UNL     1     -24.410  18.698   8.730  1.00 20.00     0.007 C 
HETATM    4  C4  UNL     1     -23.145  18.060  12.332  1.00 20.00     0.007 C 
HETATM    5  C5  UNL     1     -26.180  19.166  10.829  1.00 20.00     0.042 C 
HETATM    6  C6  UNL     1     -25.710  18.828  12.280  1.00 20.00     0.042 C 
HETATM    7  C7  UNL     1     -23.322  17.174  10.169  1.00 20.00     0.270 C 
HETATM    8  C8  UNL     1     -24.896  18.879  10.111  1.00 20.00     0.247 C 
HETATM    9  C9  UNL     1     -24.607  17.748  12.129  1.00 20.00     0.247 C 
HETATM   10  N10 UNL     1     -24.668  17.511  10.681  1.00 20.00     0.116 N 
ENDROOT
TORSDOF 0
ENDMDL
MODEL 4
REMARK VINA RESULT:      -4.5     16.113     17.102
REMARK  0 active torsions:
REMARK  status: ('A' for Active; 'I' for Inactive)
ROOT
HETATM    1  C1  UNL     1     -23.946  17.776  12.332  1.00 20.00     0.011 C 
HETATM    2  C2  UNL     1     -25.284  18.869  10.381  1.00 20.00     0.011 C 
HETATM    3  C3  UNL     1     -22.622  17.779  12.073  1.00 20.00     0.007 C 
HETATM    4  C4  UNL     1     -24.827  18.948   9.115  1.00 20.00     0.007 C 
HETATM    5  C5  UNL     1     -21.562  17.578   9.504  1.00 20.00     0.042 C 
HETATM    6  C6  UNL     1     -22.475  17.964   8.297  1.00 20.00     0.042 C 
HETATM    7  C7  UNL     1     -24.749  17.638  11.057  1.00 20.00     0.270 C 
HETATM    8  C8  UNL     1     -22.494  17.961  10.614  1.00 20.00     0.247 C 
HETATM    9  C9  UNL     1     -23.935  17.777   8.790  1.00 20.00     0.247 C 
HETATM   10  N10 UNL     1     -23.691  17.204  10.120  1.00 20.00     0.116 N 
ENDROOT
TORSDOF 0
ENDMDL
MODEL 5
REMARK VINA RESULT:      -4.4     15.904     16.489
REMARK  0 active torsions:
REMARK  status: ('A' for Active; 'I' for Inactive)
ROOT
HETATM    1  C1  UNL     1     -22.690  17.857   8.594  1.00 20.00     0.011 C 
HETATM    2  C2  UNL     1     -24.854  19.263   8.957  1.00 20.00     0.011 C 
HETATM    3  C3  UNL     1     -22.803  16.638   9.161  1.00 20.00     0.007 C 
HETATM    4  C4  UNL     1     -25.725  19.047   9.963  1.00 20.00     0.007 C 
HETATM    5  C5  UNL     1     -24.293  16.150  11.464  1.00 20.00     0.042 C 
HETATM    6  C6  UNL     1     -25.417  17.167  11.844  1.00 20.00     0.042 C 
HETATM    7  C7  UNL     1     -23.459  18.896   9.380  1.00 20.00     0.270 C 
HETATM    8  C8  UNL     1     -23.893  16.749  10.149  1.00 20.00     0.247 C 
HETATM    9  C9  UNL     1     -25.017  18.512  11.182  1.00 20.00     0.247 C 
HETATM   10  N10 UNL     1     -23.701  18.155  10.637  1.00 20.00     0.116 N 
ENDROOT
TORSDOF 0
ENDMDL
MODEL 6
REMARK VINA RESULT:      -4.2      0.815      3.499
REMARK  0 active torsions:
REMARK  status: ('A' for Active; 'I' for Inactive)
ROOT
HETATM    1  C1  UNL     1     -34.962   4.750   5.303  1.00 20.00     0.011 C 
HETATM    2  C2  UNL     1     -33.570   6.875   5.884  1.00 20.00     0.011 C 
HETATM    3  C3  UNL     1     -34.433   4.098   4.247  1.00 20.00     0.007 C 
HETATM    4  C4  UNL     1     -32.785   7.519   4.997  1.00 20.00     0.007 C 
HETATM    5  C5  UNL     1     -33.099   5.381   2.164  1.00 20.00     0.042 C 
HETATM    6  C6  UNL     1     -32.506   6.801   2.432  1.00 20.00     0.042 C 
HETATM    7  C7  UNL     1     -34.742   6.242   5.187  1.00 20.00     0.270 C 
HETATM    8  C8  UNL     1     -33.575   5.077   3.553  1.00 20.00     0.247 C 
HETATM    9  C9  UNL     1     -33.338   7.396   3.599  1.00 20.00     0.247 C 
HETATM   10  N10 UNL     1     -34.349   6.344   3.765  1.00 20.00     0.116 N 
ENDROOT
TORSDOF 0
ENDMDL
MODEL 7
REMARK VINA RESULT:      -4.1      0.580      2.916
REMARK  0 active torsions:
REMARK  status: ('A' for Active; 'I' for Inactive)
ROOT
HETATM    1  C1  UNL     1     -34.504   4.236   3.349  1.00 20.00     0.011 C 
HETATM    2  C2  UNL     1     -34.465   5.197   5.771  1.00 20.00     0.011 C 
HETATM    3  C3  UNL     1     -33.435   4.659   2.642  1.00 20.00     0.007 C 
HETATM    4  C4  UNL     1     -33.810   6.324   6.117  1.00 20.00     0.007 C 
HETATM    5  C5  UNL     1     -32.223   7.138   3.032  1.00 20.00     0.042 C 
HETATM    6  C6  UNL     1     -32.442   7.858   4.401  1.00 20.00     0.042 C 
HETATM    7  C7  UNL     1     -34.944   5.282   4.348  1.00 20.00     0.270 C 
HETATM    8  C8  UNL     1     -32.929   5.853   3.347  1.00 20.00     0.247 C 
HETATM    9  C9  UNL     1     -33.774   7.300   4.968  1.00 20.00     0.247 C 
HETATM   10  N10 UNL     1     -34.207   6.461   3.843  1.00 20.00     0.116 N 
ENDROOT
TORSDOF 0
ENDMDL
MODEL 8
REMARK VINA RESULT:      -4.1     16.564     17.016
REMARK  0 active torsions:
REMARK  status: ('A' for Active; 'I' for Inactive)
ROOT
HETATM    1  C1  UNL     1     -22.987  17.186  11.726  1.00 20.00     0.011 C 
HETATM    2  C2  UNL     1     -22.107  16.972   9.282  1.00 20.00     0.011 C 
HETATM    3  C3  UNL     1     -24.296  17.513  11.742  1.00 20.00     0.007 C 
HETATM    4  C4  UNL     1     -22.681  17.584   8.226  1.00 20.00     0.007 C 
HETATM    5  C5  UNL     1     -25.509  19.085   9.788  1.00 20.00     0.042 C 
HETATM    6  C6  UNL     1     -24.816  19.190   8.391  1.00 20.00     0.042 C 
HETATM    7  C7  UNL     1     -22.290  17.793  10.528  1.00 20.00     0.270 C 
HETATM    8  C8  UNL     1     -24.591  18.076  10.411  1.00 20.00     0.247 C 
HETATM    9  C9  UNL     1     -23.314  18.889   8.637  1.00 20.00     0.247 C 
HETATM   10  N10 UNL     1     -23.304  18.782  10.102  1.00 20.00     0.116 N 
ENDROOT
TORSDOF 0
ENDMDL
MODEL 9
REMARK VINA RESULT:      -4.1     12.010     12.645
REMARK  0 active torsions:
REMARK  status: ('A' for Active; 'I' for Inactive)
ROOT
HETATM    1  C1  UNL     1     -37.246  14.513  -4.542  1.00 20.00     0.011 C 
HETATM    2  C2  UNL     1     -35.352  14.678  -6.325  1.00 20.00     0.011 C 
HETATM    3  C3  UNL     1     -36.984  15.306  -3.483  1.00 20.00     0.007 C 
HETATM    4  C4  UNL     1     -34.090  15.058  -6.041  1.00 20.00     0.007 C 
HETATM    5  C5  UNL     1     -34.407  15.866  -2.585  1.00 20.00     0.042 C 
HETATM    6  C6  UNL     1     -33.221  15.683  -3.586  1.00 20.00     0.042 C 
HETATM    7  C7  UNL     1     -35.968  13.975  -5.147  1.00 20.00     0.270 C 
HETATM    8  C8  UNL     1     -35.536  15.583  -3.530  1.00 20.00     0.247 C 
HETATM    9  C9  UNL     1     -33.708  14.652  -4.639  1.00 20.00     0.247 C 
HETATM   10  N10 UNL     1     -35.009  14.285  -4.065  1.00 20.00     0.116 N 
ENDROOT
TORSDOF 0
ENDMDL
