MODEL 1
REMARK VINA RESULT:      -4.6      0.000      0.000
REMARK  0 active torsions:
REMARK  status: ('A' for Active; 'I' for Inactive)
ROOT
HETATM    1  C1  UNL     1     -24.049  18.093   9.166  1.00 20.00     0.026 C 
HETATM    2  C2  UNL     1     -24.994  18.153  11.089  1.00 20.00     0.017 C 
HETATM    3  C3  UNL     1     -23.629  18.546   7.979  1.00 20.00     0.040 C 
HETATM    4  C4  UNL     1     -23.515  16.859   9.831  1.00 20.00     0.073 C 
HETATM    5  C5  UNL     1     -23.973  17.048  11.284  1.00 20.00    -0.002 C 
HETATM    6  C6  UNL     1     -25.918  18.585  12.185  1.00 20.00     0.066 C 
HETATM    7  C7  UNL     1     -24.594  15.773  11.847  1.00 20.00     0.021 C 
HETATM    8  C8  UNL     1     -22.831  17.544  12.174  1.00 20.00     0.021 C 
HETATM    9  N9  UNL     1     -25.000  18.725   9.925  1.00 20.00    -0.263 NA
ENDROOT
TORSDOF 0
ENDMDL
MODEL 2
REMARK VINA RESULT:      -4.3     23.258     23.750
REMARK  0 active torsions:
REMARK  status: ('A' for Active; 'I' for Inactive)
ROOT
HETATM    1  C1  UNL     1     -41.919   8.236   0.049  1.00 20.00     0.026 C 
HETATM    2  C2  UNL     1     -42.591   6.259   0.533  1.00 20.00     0.017 C 
HETATM    3  C3  UNL     1     -41.401   9.452   0.255  1.00 20.00     0.040 C 
HETATM    4  C4  UNL     1     -42.029   7.588  -1.300  1.00 20.00     0.073 C 
HETATM    5  C5  UNL     1     -42.244   6.113  -0.936  1.00 20.00    -0.002 C 
HETATM    6  C6  UNL     1     -43.111   5.114   1.346  1.00 20.00     0.066 C 
HETATM    7  C7  UNL     1     -43.381   5.495  -1.746  1.00 20.00     0.021 C 
HETATM    8  C8  UNL     1     -40.956   5.301  -1.090  1.00 20.00     0.021 C 
HETATM    9  N9  UNL     1     -42.383   7.428   1.055  1.00 20.00    -0.263 NA
ENDROOT
TORSDOF 0
ENDMDL
MODEL 3
REMARK VINA RESULT:      -4.2      1.193      2.211
REMARK  0 active torsions:
REMARK  status: ('A' for Active; 'I' for Inactive)
ROOT
HETATM    1  C1  UNL     1     -23.523  18.331   9.117  1.00 20.00     0.026 C 
HETATM    2  C2  UNL     1     -22.918  17.931  11.134  1.00 20.00     0.017 C 
HETATM    3  C3  UNL     1     -23.398  18.474   7.793  1.00 20.00     0.040 C 
HETATM    4  C4  UNL     1     -24.835  18.145   9.821  1.00 20.00     0.073 C 
HETATM    5  C5  UNL     1     -24.396  17.596  11.186  1.00 20.00    -0.002 C 
HETATM    6  C6  UNL     1     -22.029  17.798  12.332  1.00 20.00     0.066 C 
HETATM    7  C7  UNL     1     -25.115  18.303  12.332  1.00 20.00     0.021 C 
HETATM    8  C8  UNL     1     -24.585  16.080  11.270  1.00 20.00     0.021 C 
HETATM    9  N9  UNL     1     -22.459  18.311   9.982  1.00 20.00    -0.263 NA
ENDROOT
TORSDOF 0
ENDMDL
MODEL 4
REMARK VINA RESULT:      -4.1      1.505      2.628
REMARK  0 active torsions:
REMARK  status: ('A' for Active; 'I' for Inactive)
ROOT
HETATM    1  C1  UNL     1     -24.660  18.891   8.992  1.00 20.00     0.026 C 
HETATM    2  C2  UNL     1     -22.781  18.194   9.753  1.00 20.00     0.017 C 
HETATM    3  C3  UNL     1     -25.564  19.262   8.078  1.00 20.00     0.040 C 
HETATM    4  C4  UNL     1     -25.000  18.509  10.402  1.00 20.00     0.073 C 
HETATM    5  C5  UNL     1     -23.735  17.766  10.853  1.00 20.00    -0.002 C 
HETATM    6  C6  UNL     1     -21.312  17.915   9.822  1.00 20.00     0.066 C 
HETATM    7  C7  UNL     1     -23.276  18.225  12.234  1.00 20.00     0.021 C 
HETATM    8  C8  UNL     1     -23.929  16.249  10.814  1.00 20.00     0.021 C 
HETATM    9  N9  UNL     1     -23.317  18.789   8.734  1.00 20.00    -0.263 NA
ENDROOT
TORSDOF 0
ENDMDL
MODEL 5
REMARK VINA RESULT:      -3.9     14.898     16.370
REMARK  0 active torsions:
REMARK  status: ('A' for Active; 'I' for Inactive)
ROOT
HETATM    1  C1  UNL     1     -34.299  15.519  -3.006  1.00 20.00     0.026 C 
HETATM    2  C2  UNL     1     -34.604  17.016  -1.503  1.00 20.00     0.017 C 
HETATM    3  C3  UNL     1     -34.611  14.518  -3.837  1.00 20.00     0.040 C 
HETATM    4  C4  UNL     1     -33.079  16.381  -3.151  1.00 20.00     0.073 C 
HETATM    5  C5  UNL     1     -33.429  17.589  -2.272  1.00 20.00    -0.002 C 
HETATM    6  C6  UNL     1     -35.209  17.723  -0.330  1.00 20.00     0.066 C 
HETATM    7  C7  UNL     1     -32.268  17.975  -1.360  1.00 20.00     0.021 C 
HETATM    8  C8  UNL     1     -33.888  18.782  -3.113  1.00 20.00     0.021 C 
HETATM    9  N9  UNL     1     -35.076  15.890  -1.940  1.00 20.00    -0.263 NA
ENDROOT
TORSDOF 0
ENDMDL
MODEL 6
REMARK VINA RESULT:      -3.7     16.448     18.019
REMARK  0 active torsions:
REMARK  status: ('A' for Active; 'I' for Inactive)
ROOT
HETATM    1  C1  UNL     1     -34.571  16.392  -2.531  1.00 20.00     0.026 C 
HETATM    2  C2  UNL     1     -35.230  14.847  -3.863  1.00 20.00     0.017 C 
HETATM    3  C3  UNL     1     -34.422  17.049  -1.376  1.00 20.00     0.040 C 
HETATM    4  C4  UNL     1     -33.709  16.612  -3.739  1.00 20.00     0.073 C 
HETATM    5  C5  UNL     1     -33.988  15.353  -4.572  1.00 20.00    -0.002 C 
HETATM    6  C6  UNL     1     -36.059  13.729  -4.413  1.00 20.00     0.066 C 
HETATM    7  C7  UNL     1     -34.250  15.695  -6.036  1.00 20.00     0.021 C 
HETATM    8  C8  UNL     1     -32.858  14.330  -4.440  1.00 20.00     0.021 C 
HETATM    9  N9  UNL     1     -35.515  15.419  -2.735  1.00 20.00    -0.263 NA
ENDROOT
TORSDOF 0
ENDMDL
MODEL 7
REMARK VINA RESULT:      -3.6     16.878     18.449
REMARK  0 active torsions:
REMARK  status: ('A' for Active; 'I' for Inactive)
ROOT
HETATM    1  C1  UNL     1     -33.930  16.194  -2.999  1.00 20.00     0.026 C 
HETATM    2  C2  UNL     1     -34.276  15.384  -4.953  1.00 20.00     0.017 C 
HETATM    3  C3  UNL     1     -33.378  16.974  -2.063  1.00 20.00     0.040 C 
HETATM    4  C4  UNL     1     -35.233  15.470  -2.827  1.00 20.00     0.073 C 
HETATM    5  C5  UNL     1     -35.608  15.127  -4.275  1.00 20.00    -0.002 C 
HETATM    6  C6  UNL     1     -34.019  14.994  -6.375  1.00 20.00     0.066 C 
HETATM    7  C7  UNL     1     -36.060  13.675  -4.408  1.00 20.00     0.021 C 
HETATM    8  C8  UNL     1     -36.667  16.086  -4.824  1.00 20.00     0.021 C 
HETATM    9  N9  UNL     1     -33.380  15.991  -4.238  1.00 20.00    -0.263 NA
ENDROOT
TORSDOF 0
ENDMDL
MODEL 8
REMARK VINA RESULT:      -3.6     16.187     17.528
REMARK  0 active torsions:
REMARK  status: ('A' for Active; 'I' for Inactive)
ROOT
HETATM    1  C1  UNL     1     -33.058  18.035  -3.422  1.00 20.00     0.026 C 
HETATM    2  C2  UNL     1     -34.372  16.888  -4.666  1.00 20.00     0.017 C 
HETATM    3  C3  UNL     1     -32.529  19.125  -2.854  1.00 20.00     0.040 C 
HETATM    4  C4  UNL     1     -32.867  16.641  -2.901  1.00 20.00     0.073 C 
HETATM    5  C5  UNL     1     -33.996  15.874  -3.602  1.00 20.00    -0.002 C 
HETATM    6  C6  UNL     1     -35.306  16.554  -5.788  1.00 20.00     0.066 C 
HETATM    7  C7  UNL     1     -33.498  14.561  -4.197  1.00 20.00     0.021 C 
HETATM    8  C8  UNL     1     -35.182  15.639  -2.664  1.00 20.00     0.021 C 
HETATM    9  N9  UNL     1     -33.861  18.072  -4.532  1.00 20.00    -0.263 NA
ENDROOT
TORSDOF 0
ENDMDL
MODEL 9
REMARK VINA RESULT:      -3.6     23.124     23.614
REMARK  0 active torsions:
REMARK  status: ('A' for Active; 'I' for Inactive)
ROOT
HETATM    1  C1  UNL     1     -41.269   5.657  -0.851  1.00 20.00     0.026 C 
HETATM    2  C2  UNL     1     -42.518   6.679   0.561  1.00 20.00     0.017 C 
HETATM    3  C3  UNL     1     -40.790   4.633  -1.565  1.00 20.00     0.040 C 
HETATM    4  C4  UNL     1     -41.038   7.100  -1.193  1.00 20.00     0.073 C 
HETATM    5  C5  UNL     1     -42.126   7.807  -0.374  1.00 20.00    -0.002 C 
HETATM    6  C6  UNL     1     -43.417   6.896   1.737  1.00 20.00     0.066 C 
HETATM    7  C7  UNL     1     -41.570   9.017   0.372  1.00 20.00     0.021 C 
HETATM    8  C8  UNL     1     -43.321   8.200  -1.246  1.00 20.00     0.021 C 
HETATM    9  N9  UNL     1     -42.052   5.505   0.264  1.00 20.00    -0.263 NA
ENDROOT
TORSDOF 0
ENDMDL
