MODEL 1
REMARK VINA RESULT:      -4.3      0.000      0.000
REMARK  2 active torsions:
REMARK  status: ('A' for Active; 'I' for Inactive)
REMARK    1  A    between atoms: C1_1  and  N9_9 
REMARK    2  A    between atoms: C4_4  and  C8_8 
ROOT
HETATM    1  C2  UNL     1     -33.888  15.019  -5.829  1.00 20.00     0.031 C 
HETATM    2  C3  UNL     1     -35.045  14.207  -3.882  1.00 20.00     0.130 C 
HETATM    3  C4  UNL     1     -33.672  14.678  -4.347  1.00 20.00     0.005 C 
HETATM    4  C5  UNL     1     -35.359  15.431  -5.949  1.00 20.00     0.083 C 
HETATM    5  C6  UNL     1     -35.549  16.942  -6.022  1.00 20.00     0.032 C 
HETATM    6  N9  UNL     1     -35.997  14.845  -4.774  1.00 20.00    -0.355 N 
ENDROOT
BRANCH   3   7
HETATM    7  C8  UNL     1     -33.165  15.864  -3.530  1.00 20.00     0.002 C 
HETATM    8  C7  UNL     1     -34.065  16.174  -2.374  1.00 20.00     0.005 C 
ENDBRANCH   3   7
BRANCH   6   9
HETATM    9  C1  UNL     1     -37.360  14.768  -4.591  1.00 20.00     0.351 C 
HETATM   10  O10 UNL     1     -38.018  13.758  -4.367  1.00 20.00    -0.284 OA
ENDBRANCH   6   9
TORSDOF 2
ENDMDL
MODEL 2
REMARK VINA RESULT:      -4.3      1.173      1.563
REMARK  2 active torsions:
REMARK  status: ('A' for Active; 'I' for Inactive)
REMARK    1  A    between atoms: C1_1  and  N9_9 
REMARK    2  A    between atoms: C4_4  and  C8_8 
ROOT
HETATM    1  C2  UNL     1     -33.295  14.969  -4.121  1.00 20.00     0.031 C 
HETATM    2  C3  UNL     1     -35.137  15.555  -2.689  1.00 20.00     0.130 C 
HETATM    3  C4  UNL     1     -33.676  15.897  -2.958  1.00 20.00     0.005 C 
HETATM    4  C5  UNL     1     -34.592  14.724  -4.898  1.00 20.00     0.083 C 
HETATM    5  C6  UNL     1     -34.690  15.560  -6.170  1.00 20.00     0.032 C 
HETATM    6  N9  UNL     1     -35.651  15.034  -3.943  1.00 20.00    -0.355 N 
ENDROOT
BRANCH   3   7
HETATM    7  C8  UNL     1     -33.485  17.375  -3.287  1.00 20.00     0.002 C 
HETATM    8  C7  UNL     1     -32.641  18.072  -2.265  1.00 20.00     0.005 C 
ENDBRANCH   3   7
BRANCH   6   9
HETATM    9  C1  UNL     1     -36.982  14.736  -4.139  1.00 20.00     0.351 C 
HETATM   10  O10 UNL     1     -37.452  13.656  -4.478  1.00 20.00    -0.284 OA
ENDBRANCH   6   9
TORSDOF 2
ENDMDL
MODEL 3
REMARK VINA RESULT:      -4.2      1.549      1.784
REMARK  2 active torsions:
REMARK  status: ('A' for Active; 'I' for Inactive)
REMARK    1  A    between atoms: C1_1  and  N9_9 
REMARK    2  A    between atoms: C4_4  and  C8_8 
ROOT
HETATM    1  C2  UNL     1     -34.268  16.928  -4.711  1.00 20.00     0.031 C 
HETATM    2  C3  UNL     1     -33.995  14.708  -3.825  1.00 20.00     0.130 C 
HETATM    3  C4  UNL     1     -33.484  16.134  -3.654  1.00 20.00     0.005 C 
HETATM    4  C5  UNL     1     -35.595  16.183  -4.888  1.00 20.00     0.083 C 
HETATM    5  C6  UNL     1     -36.754  16.851  -4.155  1.00 20.00     0.032 C 
HETATM    6  N9  UNL     1     -35.324  14.837  -4.393  1.00 20.00    -0.355 N 
ENDROOT
BRANCH   3   7
HETATM    7  C8  UNL     1     -33.698  16.655  -2.236  1.00 20.00     0.002 C 
HETATM    8  C7  UNL     1     -32.713  17.724  -1.877  1.00 20.00     0.005 C 
ENDBRANCH   3   7
BRANCH   6   9
HETATM    9  C1  UNL     1     -36.168  13.763  -4.571  1.00 20.00     0.351 C 
HETATM   10  O10 UNL     1     -35.871  12.575  -4.513  1.00 20.00    -0.284 OA
ENDBRANCH   6   9
TORSDOF 2
ENDMDL
MODEL 4
REMARK VINA RESULT:      -4.0      1.836      2.903
REMARK  2 active torsions:
REMARK  status: ('A' for Active; 'I' for Inactive)
REMARK    1  A    between atoms: C1_1  and  N9_9 
REMARK    2  A    between atoms: C4_4  and  C8_8 
ROOT
HETATM    1  C2  UNL     1     -34.992  16.212  -2.178  1.00 20.00     0.031 C 
HETATM    2  C3  UNL     1     -36.832  15.953  -3.707  1.00 20.00     0.130 C 
HETATM    3  C4  UNL     1     -36.110  17.006  -2.873  1.00 20.00     0.005 C 
HETATM    4  C5  UNL     1     -34.663  15.049  -3.119  1.00 20.00     0.083 C 
HETATM    5  C6  UNL     1     -33.395  15.284  -3.933  1.00 20.00     0.032 C 
HETATM    6  N9  UNL     1     -35.848  14.916  -3.960  1.00 20.00    -0.355 N 
ENDROOT
BRANCH   3   7
HETATM    7  C8  UNL     1     -35.582  18.154  -3.730  1.00 20.00     0.002 C 
HETATM    8  C7  UNL     1     -34.492  18.913  -3.040  1.00 20.00     0.005 C 
ENDBRANCH   3   7
BRANCH   6   9
HETATM    9  C1  UNL     1     -36.087  13.850  -4.799  1.00 20.00     0.351 C 
HETATM   10  O10 UNL     1     -35.915  12.662  -4.547  1.00 20.00    -0.284 OA
ENDBRANCH   6   9
TORSDOF 2
ENDMDL
MODEL 5
REMARK VINA RESULT:      -3.9      1.599      2.150
REMARK  2 active torsions:
REMARK  status: ('A' for Active; 'I' for Inactive)
REMARK    1  A    between atoms: C1_1  and  N9_9 
REMARK    2  A    between atoms: C4_4  and  C8_8 
ROOT
HETATM    1  C2  UNL     1     -33.710  17.257  -3.918  1.00 20.00     0.031 C 
HETATM    2  C3  UNL     1     -34.023  14.877  -4.079  1.00 20.00     0.130 C 
HETATM    3  C4  UNL     1     -33.816  15.989  -3.057  1.00 20.00     0.005 C 
HETATM    4  C5  UNL     1     -34.539  16.975  -5.175  1.00 20.00     0.083 C 
HETATM    5  C6  UNL     1     -35.912  17.637  -5.142  1.00 20.00     0.032 C 
HETATM    6  N9  UNL     1     -34.622  15.519  -5.235  1.00 20.00    -0.355 N 
ENDROOT
BRANCH   3   7
HETATM    7  C8  UNL     1     -34.952  16.052  -2.040  1.00 20.00     0.002 C 
HETATM    8  C7  UNL     1     -34.800  17.206  -1.099  1.00 20.00     0.005 C 
ENDBRANCH   3   7
BRANCH   6   9
HETATM    9  C1  UNL     1     -35.082  14.815  -6.326  1.00 20.00     0.351 C 
HETATM   10  O10 UNL     1     -35.968  13.968  -6.336  1.00 20.00    -0.284 OA
ENDBRANCH   6   9
TORSDOF 2
ENDMDL
MODEL 6
REMARK VINA RESULT:      -3.8     10.429     12.150
REMARK  2 active torsions:
REMARK  status: ('A' for Active; 'I' for Inactive)
REMARK    1  A    between atoms: C1_1  and  N9_9 
REMARK    2  A    between atoms: C4_4  and  C8_8 
ROOT
HETATM    1  C2  UNL     1     -41.410   5.642   0.328  1.00 20.00     0.031 C 
HETATM    2  C3  UNL     1     -41.486   7.296  -1.418  1.00 20.00     0.130 C 
HETATM    3  C4  UNL     1     -41.540   5.789  -1.196  1.00 20.00     0.005 C 
HETATM    4  C5  UNL     1     -42.003   6.925   0.919  1.00 20.00     0.083 C 
HETATM    5  C6  UNL     1     -43.417   6.733   1.457  1.00 20.00     0.032 C 
HETATM    6  N9  UNL     1     -41.949   7.888  -0.176  1.00 20.00    -0.355 N 
ENDROOT
BRANCH   3   7
HETATM    7  C8  UNL     1     -42.823   5.173  -1.748  1.00 20.00     0.002 C 
HETATM    8  C7  UNL     1     -42.582   3.828  -2.360  1.00 20.00     0.005 C 
ENDBRANCH   3   7
BRANCH   6   9
HETATM    9  C1  UNL     1     -42.169   9.240  -0.029  1.00 20.00     0.351 C 
HETATM   10  O10 UNL     1     -41.356  10.084   0.331  1.00 20.00    -0.284 OA
ENDBRANCH   6   9
TORSDOF 2
ENDMDL
MODEL 7
REMARK VINA RESULT:      -3.7      1.667      2.680
REMARK  2 active torsions:
REMARK  status: ('A' for Active; 'I' for Inactive)
REMARK    1  A    between atoms: C1_1  and  N9_9 
REMARK    2  A    between atoms: C4_4  and  C8_8 
ROOT
HETATM    1  C2  UNL     1     -34.688  15.404  -2.835  1.00 20.00     0.031 C 
HETATM    2  C3  UNL     1     -35.617  16.640  -4.679  1.00 20.00     0.130 C 
HETATM    3  C4  UNL     1     -35.032  16.833  -3.284  1.00 20.00     0.005 C 
HETATM    4  C5  UNL     1     -34.393  14.625  -4.121  1.00 20.00     0.083 C 
HETATM    5  C6  UNL     1     -32.900  14.440  -4.374  1.00 20.00     0.032 C 
HETATM    6  N9  UNL     1     -35.044  15.401  -5.172  1.00 20.00    -0.355 N 
ENDROOT
BRANCH   3   7
HETATM    7  C8  UNL     1     -33.822  17.762  -3.293  1.00 20.00     0.002 C 
HETATM    8  C7  UNL     1     -32.878  17.465  -2.169  1.00 20.00     0.005 C 
ENDBRANCH   3   7
BRANCH   6   9
HETATM    9  C1  UNL     1     -35.231  14.953  -6.461  1.00 20.00     0.351 C 
HETATM   10  O10 UNL     1     -36.182  14.307  -6.886  1.00 20.00    -0.284 OA
ENDBRANCH   6   9
TORSDOF 2
ENDMDL
MODEL 8
REMARK VINA RESULT:      -3.7      1.537      1.952
REMARK  2 active torsions:
REMARK  status: ('A' for Active; 'I' for Inactive)
REMARK    1  A    between atoms: C1_1  and  N9_9 
REMARK    2  A    between atoms: C4_4  and  C8_8 
ROOT
HETATM    1  C2  UNL     1     -34.585  14.186  -3.986  1.00 20.00     0.031 C 
HETATM    2  C3  UNL     1     -35.843  16.183  -3.520  1.00 20.00     0.130 C 
HETATM    3  C4  UNL     1     -34.648  15.379  -3.020  1.00 20.00     0.005 C 
HETATM    4  C5  UNL     1     -35.175  14.691  -5.307  1.00 20.00     0.083 C 
HETATM    5  C6  UNL     1     -34.109  15.029  -6.343  1.00 20.00     0.032 C 
HETATM    6  N9  UNL     1     -35.972  15.853  -4.927  1.00 20.00    -0.355 N 
ENDROOT
BRANCH   3   7
HETATM    7  C8  UNL     1     -33.365  16.206  -3.008  1.00 20.00     0.002 C 
HETATM    8  C7  UNL     1     -33.376  17.244  -1.929  1.00 20.00     0.005 C 
ENDBRANCH   3   7
BRANCH   6   9
HETATM    9  C1  UNL     1     -36.865  16.486  -5.764  1.00 20.00     0.351 C 
HETATM   10  O10 UNL     1     -37.993  16.873  -5.482  1.00 20.00    -0.284 OA
ENDBRANCH   6   9
TORSDOF 2
ENDMDL
MODEL 9
REMARK VINA RESULT:      -3.6      2.408      3.739
REMARK  2 active torsions:
REMARK  status: ('A' for Active; 'I' for Inactive)
REMARK    1  A    between atoms: C1_1  and  N9_9 
REMARK    2  A    between atoms: C4_4  and  C8_8 
ROOT
HETATM    1  C2  UNL     1     -34.046  17.119  -1.541  1.00 20.00     0.031 C 
HETATM    2  C3  UNL     1     -34.998  15.280  -2.765  1.00 20.00     0.130 C 
HETATM    3  C4  UNL     1     -35.392  16.466  -1.892  1.00 20.00     0.005 C 
HETATM    4  C5  UNL     1     -33.111  16.798  -2.712  1.00 20.00     0.083 C 
HETATM    5  C6  UNL     1     -32.936  17.971  -3.670  1.00 20.00     0.032 C 
HETATM    6  N9  UNL     1     -33.721  15.639  -3.355  1.00 20.00    -0.355 N 
ENDROOT
BRANCH   3   7
HETATM    7  C8  UNL     1     -36.346  17.416  -2.611  1.00 20.00     0.002 C 
HETATM    8  C7  UNL     1     -37.109  16.727  -3.699  1.00 20.00     0.005 C 
ENDBRANCH   3   7
BRANCH   6   9
HETATM    9  C1  UNL     1     -33.099  14.871  -4.315  1.00 20.00     0.351 C 
HETATM   10  O10 UNL     1     -33.606  14.412  -5.332  1.00 20.00    -0.284 OA
ENDBRANCH   6   9
TORSDOF 2
ENDMDL
