MODEL 1
REMARK VINA RESULT:      -4.2      0.000      0.000
REMARK  2 active torsions:
REMARK  status: ('A' for Active; 'I' for Inactive)
REMARK    1  A    between atoms: C2_2  and  C7_7 
REMARK    2  A    between atoms: C3_3  and  C6_6 
ROOT
HETATM    1  C4  UNL     1     -35.714  14.466  -5.539  1.00 20.00     0.014 C 
HETATM    2  C5  UNL     1     -35.466  14.150  -4.054  1.00 20.00     0.015 C 
HETATM    3  C6  UNL     1     -34.927  15.788  -5.348  1.00 20.00     0.067 C 
HETATM    4  C7  UNL     1     -34.258  15.132  -4.088  1.00 20.00    -0.011 C 
HETATM    5  C10 UNL     1     -32.913  14.457  -4.368  1.00 20.00     0.021 C 
ENDROOT
BRANCH   4   6
HETATM    6  C2  UNL     1     -34.167  16.013  -2.894  1.00 20.00    -0.084 C 
HETATM    7  C1  UNL     1     -35.124  16.035  -1.955  1.00 20.00     0.015 C 
HETATM    8  C8  UNL     1     -32.944  16.876  -2.801  1.00 20.00     0.043 C 
ENDBRANCH   4   6
BRANCH   3   9
HETATM    9  C3  UNL     1     -35.766  17.067  -5.173  1.00 20.00     0.128 C 
HETATM   10  C9  UNL     1     -35.089  18.370  -5.503  1.00 20.00     0.091 C 
HETATM   11  O11 UNL     1     -36.932  17.025  -4.783  1.00 20.00    -0.298 OA
ENDBRANCH   3   9
TORSDOF 2
ENDMDL
MODEL 2
REMARK VINA RESULT:      -4.0      1.261      3.082
REMARK  2 active torsions:
REMARK  status: ('A' for Active; 'I' for Inactive)
REMARK    1  A    between atoms: C2_2  and  C7_7 
REMARK    2  A    between atoms: C3_3  and  C6_6 
ROOT
HETATM    1  C4  UNL     1     -34.491  15.943  -2.219  1.00 20.00     0.014 C 
HETATM    2  C5  UNL     1     -33.709  16.728  -3.288  1.00 20.00     0.015 C 
HETATM    3  C6  UNL     1     -35.200  15.171  -3.362  1.00 20.00     0.067 C 
HETATM    4  C7  UNL     1     -33.998  15.572  -4.290  1.00 20.00    -0.011 C 
HETATM    5  C10 UNL     1     -32.887  14.522  -4.369  1.00 20.00     0.021 C 
ENDROOT
BRANCH   4   6
HETATM    6  C2  UNL     1     -34.381  16.037  -5.649  1.00 20.00    -0.084 C 
HETATM    7  C1  UNL     1     -34.535  17.338  -5.935  1.00 20.00     0.015 C 
HETATM    8  C8  UNL     1     -34.586  14.968  -6.680  1.00 20.00     0.043 C 
ENDBRANCH   4   6
BRANCH   3   9
HETATM    9  C3  UNL     1     -36.620  15.639  -3.729  1.00 20.00     0.128 C 
HETATM   10  C9  UNL     1     -37.529  14.616  -4.355  1.00 20.00     0.091 C 
HETATM   11  O11 UNL     1     -36.994  16.792  -3.519  1.00 20.00    -0.298 OA
ENDBRANCH   3   9
TORSDOF 2
ENDMDL
MODEL 3
REMARK VINA RESULT:      -4.0      1.501      2.516
REMARK  2 active torsions:
REMARK  status: ('A' for Active; 'I' for Inactive)
REMARK    1  A    between atoms: C2_2  and  C7_7 
REMARK    2  A    between atoms: C3_3  and  C6_6 
ROOT
HETATM    1  C4  UNL     1     -34.740  13.942  -3.901  1.00 20.00     0.014 C 
HETATM    2  C5  UNL     1     -35.442  15.165  -3.285  1.00 20.00     0.015 C 
HETATM    3  C6  UNL     1     -34.139  14.881  -4.980  1.00 20.00     0.067 C 
HETATM    4  C7  UNL     1     -34.391  16.073  -3.988  1.00 20.00    -0.011 C 
HETATM    5  C10 UNL     1     -33.187  16.428  -3.113  1.00 20.00     0.021 C 
ENDROOT
BRANCH   4   6
HETATM    6  C2  UNL     1     -34.971  17.293  -4.608  1.00 20.00    -0.084 C 
HETATM    7  C1  UNL     1     -36.295  17.506  -4.650  1.00 20.00     0.015 C 
HETATM    8  C8  UNL     1     -33.991  18.273  -5.182  1.00 20.00     0.043 C 
ENDBRANCH   4   6
BRANCH   3   9
HETATM    9  C3  UNL     1     -34.837  14.886  -6.352  1.00 20.00     0.128 C 
HETATM   10  C9  UNL     1     -34.021  15.359  -7.524  1.00 20.00     0.091 C 
HETATM   11  O11 UNL     1     -36.005  14.519  -6.484  1.00 20.00    -0.298 OA
ENDBRANCH   3   9
TORSDOF 2
ENDMDL
MODEL 4
REMARK VINA RESULT:      -3.9      1.606      3.310
REMARK  2 active torsions:
REMARK  status: ('A' for Active; 'I' for Inactive)
REMARK    1  A    between atoms: C2_2  and  C7_7 
REMARK    2  A    between atoms: C3_3  and  C6_6 
ROOT
HETATM    1  C4  UNL     1     -33.279  14.447  -4.346  1.00 20.00     0.014 C 
HETATM    2  C5  UNL     1     -34.089  15.003  -5.531  1.00 20.00     0.015 C 
HETATM    3  C6  UNL     1     -34.370  14.998  -3.393  1.00 20.00     0.067 C 
HETATM    4  C7  UNL     1     -35.351  14.996  -4.619  1.00 20.00    -0.011 C 
HETATM    5  C10 UNL     1     -36.202  13.729  -4.743  1.00 20.00     0.021 C 
ENDROOT
BRANCH   4   6
HETATM    6  C2  UNL     1     -36.194  16.212  -4.752  1.00 20.00    -0.084 C 
HETATM    7  C1  UNL     1     -35.808  17.266  -5.487  1.00 20.00     0.015 C 
HETATM    8  C8  UNL     1     -37.502  16.194  -4.018  1.00 20.00     0.043 C 
ENDBRANCH   4   6
BRANCH   3   9
HETATM    9  C3  UNL     1     -34.056  16.330  -2.686  1.00 20.00     0.128 C 
HETATM   10  C9  UNL     1     -34.872  16.657  -1.465  1.00 20.00     0.091 C 
HETATM   11  O11 UNL     1     -33.179  17.088  -3.099  1.00 20.00    -0.298 OA
ENDBRANCH   3   9
TORSDOF 2
ENDMDL
MODEL 5
REMARK VINA RESULT:      -3.9      1.718      2.982
REMARK  2 active torsions:
REMARK  status: ('A' for Active; 'I' for Inactive)
REMARK    1  A    between atoms: C2_2  and  C7_7 
REMARK    2  A    between atoms: C3_3  and  C6_6 
ROOT
HETATM    1  C4  UNL     1     -35.565  15.147  -7.260  1.00 20.00     0.014 C 
HETATM    2  C5  UNL     1     -34.100  15.088  -6.790  1.00 20.00     0.015 C 
HETATM    3  C6  UNL     1     -35.984  15.404  -5.789  1.00 20.00     0.067 C 
HETATM    4  C7  UNL     1     -34.516  15.894  -5.525  1.00 20.00    -0.011 C 
HETATM    5  C10 UNL     1     -34.323  17.406  -5.657  1.00 20.00     0.021 C 
ENDROOT
BRANCH   4   6
HETATM    6  C2  UNL     1     -33.904  15.393  -4.266  1.00 20.00    -0.084 C 
HETATM    7  C1  UNL     1     -32.944  14.456  -4.269  1.00 20.00     0.015 C 
HETATM    8  C8  UNL     1     -34.421  15.995  -2.994  1.00 20.00     0.043 C 
ENDBRANCH   4   6
BRANCH   3   9
HETATM    9  C3  UNL     1     -36.524  14.193  -5.007  1.00 20.00     0.128 C 
HETATM   10  C9  UNL     1     -37.719  14.435  -4.126  1.00 20.00     0.091 C 
HETATM   11  O11 UNL     1     -36.004  13.081  -5.101  1.00 20.00    -0.298 OA
ENDBRANCH   3   9
TORSDOF 2
ENDMDL
MODEL 6
REMARK VINA RESULT:      -3.9      1.668      2.679
REMARK  2 active torsions:
REMARK  status: ('A' for Active; 'I' for Inactive)
REMARK    1  A    between atoms: C2_2  and  C7_7 
REMARK    2  A    between atoms: C3_3  and  C6_6 
ROOT
HETATM    1  C4  UNL     1     -33.224  14.592  -4.423  1.00 20.00     0.014 C 
HETATM    2  C5  UNL     1     -34.461  13.926  -3.795  1.00 20.00     0.015 C 
HETATM    3  C6  UNL     1     -34.098  15.838  -4.723  1.00 20.00     0.067 C 
HETATM    4  C7  UNL     1     -35.075  15.343  -3.598  1.00 20.00    -0.011 C 
HETATM    5  C10 UNL     1     -34.809  15.952  -2.219  1.00 20.00     0.021 C 
ENDROOT
BRANCH   4   6
HETATM    6  C2  UNL     1     -36.520  15.424  -3.939  1.00 20.00    -0.084 C 
HETATM    7  C1  UNL     1     -37.196  14.367  -4.413  1.00 20.00     0.015 C 
HETATM    8  C8  UNL     1     -37.176  16.755  -3.725  1.00 20.00     0.043 C 
ENDBRANCH   4   6
BRANCH   3   9
HETATM    9  C3  UNL     1     -34.622  15.979  -6.164  1.00 20.00     0.128 C 
HETATM   10  C9  UNL     1     -34.948  17.372  -6.632  1.00 20.00     0.091 C 
HETATM   11  O11 UNL     1     -34.766  15.001  -6.896  1.00 20.00    -0.298 OA
ENDBRANCH   3   9
TORSDOF 2
ENDMDL
MODEL 7
REMARK VINA RESULT:      -3.9      1.962      3.541
REMARK  2 active torsions:
REMARK  status: ('A' for Active; 'I' for Inactive)
REMARK    1  A    between atoms: C2_2  and  C7_7 
REMARK    2  A    between atoms: C3_3  and  C6_6 
ROOT
HETATM    1  C4  UNL     1     -33.647  16.090  -2.864  1.00 20.00     0.014 C 
HETATM    2  C5  UNL     1     -35.107  15.768  -2.499  1.00 20.00     0.015 C 
HETATM    3  C6  UNL     1     -34.072  16.131  -4.355  1.00 20.00     0.067 C 
HETATM    4  C7  UNL     1     -35.542  16.380  -3.863  1.00 20.00    -0.011 C 
HETATM    5  C10 UNL     1     -35.938  17.856  -3.786  1.00 20.00     0.021 C 
ENDROOT
BRANCH   4   6
HETATM    6  C2  UNL     1     -36.584  15.590  -4.570  1.00 20.00    -0.084 C 
HETATM    7  C1  UNL     1     -36.942  14.364  -4.163  1.00 20.00     0.015 C 
HETATM    8  C8  UNL     1     -37.211  16.244  -5.766  1.00 20.00     0.043 C 
ENDBRANCH   4   6
BRANCH   3   9
HETATM    9  C3  UNL     1     -33.763  14.875  -5.191  1.00 20.00     0.128 C 
HETATM   10  C9  UNL     1     -33.820  15.027  -6.687  1.00 20.00     0.091 C 
HETATM   11  O11 UNL     1     -33.482  13.800  -4.661  1.00 20.00    -0.298 OA
ENDBRANCH   3   9
TORSDOF 2
ENDMDL
MODEL 8
REMARK VINA RESULT:      -3.9      1.641      2.989
REMARK  2 active torsions:
REMARK  status: ('A' for Active; 'I' for Inactive)
REMARK    1  A    between atoms: C2_2  and  C7_7 
REMARK    2  A    between atoms: C3_3  and  C6_6 
ROOT
HETATM    1  C4  UNL     1     -36.222  14.780  -3.806  1.00 20.00     0.014 C 
HETATM    2  C5  UNL     1     -36.231  16.319  -3.827  1.00 20.00     0.015 C 
HETATM    3  C6  UNL     1     -34.704  14.834  -3.491  1.00 20.00     0.067 C 
HETATM    4  C7  UNL     1     -34.930  16.299  -2.972  1.00 20.00    -0.011 C 
HETATM    5  C10 UNL     1     -35.172  16.402  -1.465  1.00 20.00     0.021 C 
ENDROOT
BRANCH   4   6
HETATM    6  C2  UNL     1     -33.908  17.285  -3.411  1.00 20.00    -0.084 C 
HETATM    7  C1  UNL     1     -34.023  17.959  -4.565  1.00 20.00     0.015 C 
HETATM    8  C8  UNL     1     -32.741  17.483  -2.489  1.00 20.00     0.043 C 
ENDBRANCH   4   6
BRANCH   3   9
HETATM    9  C3  UNL     1     -33.748  14.596  -4.675  1.00 20.00     0.128 C 
HETATM   10  C9  UNL     1     -32.311  14.310  -4.336  1.00 20.00     0.091 C 
HETATM   11  O11 UNL     1     -34.142  14.636  -5.840  1.00 20.00    -0.298 OA
ENDBRANCH   3   9
TORSDOF 2
ENDMDL
MODEL 9
REMARK VINA RESULT:      -3.8      1.340      3.040
REMARK  2 active torsions:
REMARK  status: ('A' for Active; 'I' for Inactive)
REMARK    1  A    between atoms: C2_2  and  C7_7 
REMARK    2  A    between atoms: C3_3  and  C6_6 
ROOT
HETATM    1  C4  UNL     1     -34.102  18.262  -3.856  1.00 20.00     0.014 C 
HETATM    2  C5  UNL     1     -33.157  17.123  -3.433  1.00 20.00     0.015 C 
HETATM    3  C6  UNL     1     -35.123  17.189  -4.316  1.00 20.00     0.067 C 
HETATM    4  C7  UNL     1     -34.392  16.178  -3.363  1.00 20.00    -0.011 C 
HETATM    5  C10 UNL     1     -35.013  16.065  -1.969  1.00 20.00     0.021 C 
ENDROOT
BRANCH   4   6
HETATM    6  C2  UNL     1     -34.150  14.831  -3.943  1.00 20.00    -0.084 C 
HETATM    7  C1  UNL     1     -32.957  14.480  -4.445  1.00 20.00     0.015 C 
HETATM    8  C8  UNL     1     -35.315  13.887  -3.933  1.00 20.00     0.043 C 
ENDBRANCH   4   6
BRANCH   3   9
HETATM    9  C3  UNL     1     -35.174  16.893  -5.827  1.00 20.00     0.128 C 
HETATM   10  C9  UNL     1     -36.466  16.340  -6.364  1.00 20.00     0.091 C 
HETATM   11  O11 UNL     1     -34.207  17.102  -6.558  1.00 20.00    -0.298 OA
ENDBRANCH   3   9
TORSDOF 2
ENDMDL
