MODEL 1
REMARK VINA RESULT:      -3.7      0.000      0.000
REMARK  3 active torsions:
REMARK  status: ('A' for Active; 'I' for Inactive)
REMARK    1  A    between atoms: C8_8  and  C9_9 
REMARK    2  A    between atoms: C8_8  and  O11_11 
REMARK    3  A    between atoms: N10_10  and  O11_11 
ROOT
HETATM    1  C1  UNL     1     -35.467  14.311  -3.922  1.00 20.00     0.107 A 
HETATM    2  C2  UNL     1     -34.338  15.014  -4.664  1.00 20.00     0.049 A 
HETATM    3  C3  UNL     1     -36.796  14.050  -4.543  1.00 20.00     0.031 C 
HETATM    4  C4  UNL     1     -34.562  15.548  -6.055  1.00 20.00     0.036 C 
HETATM    5  C5  UNL     1     -32.934  14.520  -4.421  1.00 20.00     0.036 C 
HETATM    6  N10 UNL     1     -35.099  15.681  -3.592  1.00 20.00    -0.180 NA
ENDROOT
BRANCH   6   7
HETATM    7  O11 UNL     1     -34.342  15.664  -2.353  1.00 20.00    -0.302 OA
BRANCH   7   8
HETATM    8  C8  UNL     1     -34.189  17.008  -1.923  1.00 20.00     0.197 C 
BRANCH   8   9
HETATM    9  C9  UNL     1     -32.795  17.521  -2.299  1.00 20.00     0.003 C 
HETATM   10  C6  UNL     1     -32.858  18.477  -3.493  1.00 20.00     0.011 C 
HETATM   11  C7  UNL     1     -32.139  18.207  -1.103  1.00 20.00     0.011 C 
ENDBRANCH   8   9
ENDBRANCH   7   8
ENDBRANCH   6   7
TORSDOF 3
ENDMDL
MODEL 2
REMARK VINA RESULT:      -3.6     16.392     17.695
REMARK  3 active torsions:
REMARK  status: ('A' for Active; 'I' for Inactive)
REMARK    1  A    between atoms: C8_8  and  C9_9 
REMARK    2  A    between atoms: C8_8  and  O11_11 
REMARK    3  A    between atoms: N10_10  and  O11_11 
ROOT
HETATM    1  C1  UNL     1     -25.603  18.270  11.949  1.00 20.00     0.107 A 
HETATM    2  C2  UNL     1     -24.460  17.267  11.872  1.00 20.00     0.049 A 
HETATM    3  C3  UNL     1     -26.988  17.880  12.332  1.00 20.00     0.031 C 
HETATM    4  C4  UNL     1     -24.719  15.802  12.111  1.00 20.00     0.036 C 
HETATM    5  C5  UNL     1     -23.099  17.727  12.332  1.00 20.00     0.036 C 
HETATM    6  N10 UNL     1     -25.078  17.837  10.660  1.00 20.00    -0.180 NA
ENDROOT
BRANCH   6   7
HETATM    7  O11 UNL     1     -24.247  18.901  10.125  1.00 20.00    -0.302 OA
BRANCH   7   8
HETATM    8  C8  UNL     1     -24.078  18.658   8.736  1.00 20.00     0.197 C 
BRANCH   8   9
HETATM    9  C9  UNL     1     -22.682  18.088   8.472  1.00 20.00     0.003 C 
HETATM   10  C6  UNL     1     -21.624  18.783   9.333  1.00 20.00     0.011 C 
HETATM   11  C7  UNL     1     -22.665  16.582   8.724  1.00 20.00     0.011 C 
ENDBRANCH   8   9
ENDBRANCH   7   8
ENDBRANCH   6   7
TORSDOF 3
ENDMDL
MODEL 3
REMARK VINA RESULT:      -3.6      1.336      4.392
REMARK  3 active torsions:
REMARK  status: ('A' for Active; 'I' for Inactive)
REMARK    1  A    between atoms: C8_8  and  C9_9 
REMARK    2  A    between atoms: C8_8  and  O11_11 
REMARK    3  A    between atoms: N10_10  and  O11_11 
ROOT
HETATM    1  C1  UNL     1     -34.910  16.652  -2.456  1.00 20.00     0.107 A 
HETATM    2  C2  UNL     1     -33.648  17.275  -3.039  1.00 20.00     0.049 A 
HETATM    3  C3  UNL     1     -35.248  16.729  -1.007  1.00 20.00     0.031 C 
HETATM    4  C4  UNL     1     -32.642  17.937  -2.133  1.00 20.00     0.036 C 
HETATM    5  C5  UNL     1     -33.754  17.913  -4.401  1.00 20.00     0.036 C 
HETATM    6  N10 UNL     1     -33.793  15.816  -2.877  1.00 20.00    -0.180 NA
ENDROOT
BRANCH   6   7
HETATM    7  O11 UNL     1     -34.136  15.201  -4.146  1.00 20.00    -0.302 OA
BRANCH   7   8
HETATM    8  C8  UNL     1     -34.903  14.039  -3.868  1.00 20.00     0.197 C 
BRANCH   8   9
HETATM    9  C9  UNL     1     -36.054  13.920  -4.871  1.00 20.00     0.003 C 
HETATM   10  C6  UNL     1     -37.354  14.487  -4.295  1.00 20.00     0.011 C 
HETATM   11  C7  UNL     1     -35.699  14.629  -6.176  1.00 20.00     0.011 C 
ENDBRANCH   8   9
ENDBRANCH   7   8
ENDBRANCH   6   7
TORSDOF 3
ENDMDL
MODEL 4
REMARK VINA RESULT:      -3.6      1.053      2.280
REMARK  3 active torsions:
REMARK  status: ('A' for Active; 'I' for Inactive)
REMARK    1  A    between atoms: C8_8  and  C9_9 
REMARK    2  A    between atoms: C8_8  and  O11_11 
REMARK    3  A    between atoms: N10_10  and  O11_11 
ROOT
HETATM    1  C1  UNL     1     -34.483  15.577  -4.682  1.00 20.00     0.107 A 
HETATM    2  C2  UNL     1     -35.789  15.048  -4.104  1.00 20.00     0.049 A 
HETATM    3  C3  UNL     1     -33.814  14.953  -5.857  1.00 20.00     0.031 C 
HETATM    4  C4  UNL     1     -36.418  13.801  -4.670  1.00 20.00     0.036 C 
HETATM    5  C5  UNL     1     -36.789  16.061  -3.605  1.00 20.00     0.036 C 
HETATM    6  N10 UNL     1     -34.500  14.858  -3.414  1.00 20.00    -0.180 NA
ENDROOT
BRANCH   6   7
HETATM    7  O11 UNL     1     -34.358  15.824  -2.340  1.00 20.00    -0.302 OA
BRANCH   7   8
HETATM    8  C8  UNL     1     -33.224  16.628  -2.631  1.00 20.00     0.197 C 
BRANCH   8   9
HETATM    9  C9  UNL     1     -33.255  17.902  -1.781  1.00 20.00     0.003 C 
HETATM   10  C6  UNL     1     -34.309  17.808  -0.676  1.00 20.00     0.011 C 
HETATM   11  C7  UNL     1     -31.879  18.175  -1.180  1.00 20.00     0.011 C 
ENDBRANCH   8   9
ENDBRANCH   7   8
ENDBRANCH   6   7
TORSDOF 3
ENDMDL
MODEL 5
REMARK VINA RESULT:      -3.6      1.736      2.482
REMARK  3 active torsions:
REMARK  status: ('A' for Active; 'I' for Inactive)
REMARK    1  A    between atoms: C8_8  and  C9_9 
REMARK    2  A    between atoms: C8_8  and  O11_11 
REMARK    3  A    between atoms: N10_10  and  O11_11 
ROOT
HETATM    1  C1  UNL     1     -37.764  14.697  -4.312  1.00 20.00     0.107 A 
HETATM    2  C2  UNL     1     -36.832  15.371  -5.311  1.00 20.00     0.049 A 
HETATM    3  C3  UNL     1     -39.210  15.037  -4.208  1.00 20.00     0.031 C 
HETATM    4  C4  UNL     1     -37.341  16.482  -6.192  1.00 20.00     0.036 C 
HETATM    5  C5  UNL     1     -35.775  14.515  -5.961  1.00 20.00     0.036 C 
HETATM    6  N10 UNL     1     -36.776  15.673  -3.868  1.00 20.00    -0.180 NA
ENDROOT
BRANCH   6   7
HETATM    7  O11 UNL     1     -35.675  14.957  -3.248  1.00 20.00    -0.302 OA
BRANCH   7   8
HETATM    8  C8  UNL     1     -35.039  15.847  -2.343  1.00 20.00     0.197 C 
BRANCH   8   9
HETATM    9  C9  UNL     1     -33.855  16.533  -3.031  1.00 20.00     0.003 C 
HETATM   10  C6  UNL     1     -33.006  17.318  -2.028  1.00 20.00     0.011 C 
HETATM   11  C7  UNL     1     -32.996  15.505  -3.764  1.00 20.00     0.011 C 
ENDBRANCH   8   9
ENDBRANCH   7   8
ENDBRANCH   6   7
TORSDOF 3
ENDMDL
MODEL 6
REMARK VINA RESULT:      -3.5      1.844      4.228
REMARK  3 active torsions:
REMARK  status: ('A' for Active; 'I' for Inactive)
REMARK    1  A    between atoms: C8_8  and  C9_9 
REMARK    2  A    between atoms: C8_8  and  O11_11 
REMARK    3  A    between atoms: N10_10  and  O11_11 
ROOT
HETATM    1  C1  UNL     1     -35.760  16.788  -3.728  1.00 20.00     0.107 A 
HETATM    2  C2  UNL     1     -34.802  16.309  -2.645  1.00 20.00     0.049 A 
HETATM    3  C3  UNL     1     -36.930  17.661  -3.435  1.00 20.00     0.031 C 
HETATM    4  C4  UNL     1     -35.060  16.650  -1.199  1.00 20.00     0.036 C 
HETATM    5  C5  UNL     1     -33.338  16.227  -2.998  1.00 20.00     0.036 C 
HETATM    6  N10 UNL     1     -35.781  15.403  -3.273  1.00 20.00    -0.180 NA
ENDROOT
BRANCH   6   7
HETATM    7  O11 UNL     1     -35.132  14.582  -4.280  1.00 20.00    -0.302 OA
BRANCH   7   8
HETATM    8  C8  UNL     1     -36.093  14.295  -5.286  1.00 20.00     0.197 C 
BRANCH   8   9
HETATM    9  C9  UNL     1     -35.536  14.672  -6.662  1.00 20.00     0.003 C 
HETATM   10  C6  UNL     1     -36.320  15.832  -7.281  1.00 20.00     0.011 C 
HETATM   11  C7  UNL     1     -34.055  15.029  -6.558  1.00 20.00     0.011 C 
ENDBRANCH   8   9
ENDBRANCH   7   8
ENDBRANCH   6   7
TORSDOF 3
ENDMDL
MODEL 7
REMARK VINA RESULT:      -3.4      1.995      2.980
REMARK  3 active torsions:
REMARK  status: ('A' for Active; 'I' for Inactive)
REMARK    1  A    between atoms: C8_8  and  C9_9 
REMARK    2  A    between atoms: C8_8  and  O11_11 
REMARK    3  A    between atoms: N10_10  and  O11_11 
ROOT
HETATM    1  C1  UNL     1     -36.032  15.496  -6.717  1.00 20.00     0.107 A 
HETATM    2  C2  UNL     1     -34.650  16.034  -7.060  1.00 20.00     0.049 A 
HETATM    3  C3  UNL     1     -37.256  16.345  -6.753  1.00 20.00     0.031 C 
HETATM    4  C4  UNL     1     -34.462  17.495  -7.379  1.00 20.00     0.036 C 
HETATM    5  C5  UNL     1     -33.717  15.122  -7.816  1.00 20.00     0.036 C 
HETATM    6  N10 UNL     1     -35.043  15.727  -5.672  1.00 20.00    -0.180 NA
ENDROOT
BRANCH   6   7
HETATM    7  O11 UNL     1     -34.498  14.444  -5.268  1.00 20.00    -0.302 OA
BRANCH   7   8
HETATM    8  C8  UNL     1     -34.425  14.434  -3.850  1.00 20.00     0.197 C 
BRANCH   8   9
HETATM    9  C9  UNL     1     -34.376  15.871  -3.321  1.00 20.00     0.003 C 
HETATM   10  C6  UNL     1     -35.151  16.008  -2.008  1.00 20.00     0.011 C 
HETATM   11  C7  UNL     1     -32.929  16.320  -3.132  1.00 20.00     0.011 C 
ENDBRANCH   8   9
ENDBRANCH   7   8
ENDBRANCH   6   7
TORSDOF 3
ENDMDL
MODEL 8
REMARK VINA RESULT:      -3.4      1.944      2.783
REMARK  3 active torsions:
REMARK  status: ('A' for Active; 'I' for Inactive)
REMARK    1  A    between atoms: C8_8  and  C9_9 
REMARK    2  A    between atoms: C8_8  and  O11_11 
REMARK    3  A    between atoms: N10_10  and  O11_11 
ROOT
HETATM    1  C1  UNL     1     -34.527  17.245  -4.481  1.00 20.00     0.107 A 
HETATM    2  C2  UNL     1     -34.037  16.129  -3.568  1.00 20.00     0.049 A 
HETATM    3  C3  UNL     1     -34.431  17.168  -5.965  1.00 20.00     0.031 C 
HETATM    4  C4  UNL     1     -33.354  14.918  -4.151  1.00 20.00     0.036 C 
HETATM    5  C5  UNL     1     -34.851  15.833  -2.334  1.00 20.00     0.036 C 
HETATM    6  N10 UNL     1     -33.306  17.402  -3.701  1.00 20.00    -0.180 NA
ENDROOT
BRANCH   6   7
HETATM    7  O11 UNL     1     -33.594  18.268  -2.572  1.00 20.00    -0.302 OA
BRANCH   7   8
HETATM    8  C8  UNL     1     -32.384  18.911  -2.201  1.00 20.00     0.197 C 
BRANCH   8   9
HETATM    9  C9  UNL     1     -32.275  18.979  -0.675  1.00 20.00     0.003 C 
HETATM   10  C6  UNL     1     -33.501  18.358  -0.001  1.00 20.00     0.011 C 
HETATM   11  C7  UNL     1     -31.000  18.286  -0.200  1.00 20.00     0.011 C 
ENDBRANCH   8   9
ENDBRANCH   7   8
ENDBRANCH   6   7
TORSDOF 3
ENDMDL
MODEL 9
REMARK VINA RESULT:      -3.4      1.922      3.179
REMARK  3 active torsions:
REMARK  status: ('A' for Active; 'I' for Inactive)
REMARK    1  A    between atoms: C8_8  and  C9_9 
REMARK    2  A    between atoms: C8_8  and  O11_11 
REMARK    3  A    between atoms: N10_10  and  O11_11 
ROOT
HETATM    1  C1  UNL     1     -34.686  15.771  -6.281  1.00 20.00     0.107 A 
HETATM    2  C2  UNL     1     -36.099  16.310  -6.458  1.00 20.00     0.049 A 
HETATM    3  C3  UNL     1     -33.897  15.204  -7.410  1.00 20.00     0.031 C 
HETATM    4  C4  UNL     1     -36.787  16.212  -7.795  1.00 20.00     0.036 C 
HETATM    5  C5  UNL     1     -36.479  17.536  -5.667  1.00 20.00     0.036 C 
HETATM    6  N10 UNL     1     -35.835  15.027  -5.779  1.00 20.00    -0.180 NA
ENDROOT
BRANCH   6   7
HETATM    7  O11 UNL     1     -35.895  15.200  -4.339  1.00 20.00    -0.302 OA
BRANCH   7   8
HETATM    8  C8  UNL     1     -34.651  14.774  -3.802  1.00 20.00     0.197 C 
BRANCH   8   9
HETATM    9  C9  UNL     1     -34.243  15.687  -2.642  1.00 20.00     0.003 C 
HETATM   10  C6  UNL     1     -33.092  16.613  -3.041  1.00 20.00     0.011 C 
HETATM   11  C7  UNL     1     -35.440  16.504  -2.161  1.00 20.00     0.011 C 
ENDBRANCH   8   9
ENDBRANCH   7   8
ENDBRANCH   6   7
TORSDOF 3
ENDMDL
