MODEL 1
REMARK VINA RESULT:      -4.9      0.000      0.000
REMARK  1 active torsions:
REMARK  status: ('A' for Active; 'I' for Inactive)
REMARK    1  A    between atoms: C4_4  and  C5_5 
ROOT
HETATM    1  C1  UNL     1     -33.746  17.137  -4.274  1.00 20.00    -0.022 C 
HETATM    2  C2  UNL     1     -35.055  17.364  -4.498  1.00 20.00    -0.021 C 
HETATM    3  C3  UNL     1     -34.247  14.792  -3.684  1.00 20.00    -0.006 C 
HETATM    4  C4  UNL     1     -35.554  15.030  -3.905  1.00 20.00     0.009 C 
HETATM    5  C6  UNL     1     -34.143  16.514  -1.932  1.00 20.00     0.013 C 
HETATM    6  C7  UNL     1     -35.662  16.780  -2.194  1.00 20.00     0.014 C 
HETATM    7  C8  UNL     1     -33.474  16.036  -3.253  1.00 20.00     0.031 C 
HETATM    8  C9  UNL     1     -35.986  16.471  -3.683  1.00 20.00     0.045 C 
ENDROOT
BRANCH   4   9
HETATM    9  C5  UNL     1     -36.474  13.980  -4.311  1.00 20.00     0.248 C 
HETATM   10  O10 UNL     1     -36.028  12.861  -4.609  1.00 20.00    -0.274 OA
HETATM   11 CL11 UNL     1     -38.183  14.377  -4.353  1.00 20.00    -0.039 Cl
ENDBRANCH   4   9
TORSDOF 1
ENDMDL
MODEL 2
REMARK VINA RESULT:      -4.8      1.354      1.477
REMARK  1 active torsions:
REMARK  status: ('A' for Active; 'I' for Inactive)
REMARK    1  A    between atoms: C4_4  and  C5_5 
ROOT
HETATM    1  C1  UNL     1     -34.160  18.177  -3.670  1.00 20.00    -0.022 C 
HETATM    2  C2  UNL     1     -35.393  17.639  -3.717  1.00 20.00    -0.021 C 
HETATM    3  C3  UNL     1     -33.176  15.921  -3.461  1.00 20.00    -0.006 C 
HETATM    4  C4  UNL     1     -34.413  15.393  -3.504  1.00 20.00     0.009 C 
HETATM    5  C6  UNL     1     -33.712  17.228  -1.449  1.00 20.00     0.013 C 
HETATM    6  C7  UNL     1     -35.146  16.606  -1.506  1.00 20.00     0.014 C 
HETATM    7  C8  UNL     1     -33.147  17.338  -2.894  1.00 20.00     0.031 C 
HETATM    8  C9  UNL     1     -35.515  16.305  -2.986  1.00 20.00     0.045 C 
ENDROOT
BRANCH   4   9
HETATM    9  C5  UNL     1     -34.664  14.048  -3.997  1.00 20.00     0.248 C 
HETATM   10  O10 UNL     1     -33.720  13.250  -4.095  1.00 20.00    -0.274 OA
HETATM   11 CL11 UNL     1     -36.317  13.642  -4.428  1.00 20.00    -0.039 Cl
ENDBRANCH   4   9
TORSDOF 1
ENDMDL
MODEL 3
REMARK VINA RESULT:      -4.8      0.817      1.915
REMARK  1 active torsions:
REMARK  status: ('A' for Active; 'I' for Inactive)
REMARK    1  A    between atoms: C4_4  and  C5_5 
ROOT
HETATM    1  C1  UNL     1     -33.253  16.211  -2.820  1.00 20.00    -0.022 C 
HETATM    2  C2  UNL     1     -33.079  15.413  -3.892  1.00 20.00    -0.021 C 
HETATM    3  C3  UNL     1     -35.691  15.830  -2.925  1.00 20.00    -0.006 C 
HETATM    4  C4  UNL     1     -35.507  15.038  -3.998  1.00 20.00     0.009 C 
HETATM    5  C6  UNL     1     -34.691  17.760  -4.073  1.00 20.00     0.013 C 
HETATM    6  C7  UNL     1     -34.485  16.833  -5.316  1.00 20.00     0.014 C 
HETATM    7  C8  UNL     1     -34.614  16.902  -2.778  1.00 20.00     0.031 C 
HETATM    8  C9  UNL     1     -34.279  15.369  -4.833  1.00 20.00     0.045 C 
ENDROOT
BRANCH   4   9
HETATM    9  C5  UNL     1     -36.425  13.960  -4.331  1.00 20.00     0.248 C 
HETATM   10  O10 UNL     1     -35.975  12.827  -4.559  1.00 20.00    -0.274 OA
HETATM   11 CL11 UNL     1     -38.136  14.346  -4.388  1.00 20.00    -0.039 Cl
ENDBRANCH   4   9
TORSDOF 1
ENDMDL
MODEL 4
REMARK VINA RESULT:      -4.6      1.608      2.432
REMARK  1 active torsions:
REMARK  status: ('A' for Active; 'I' for Inactive)
REMARK    1  A    between atoms: C4_4  and  C5_5 
ROOT
HETATM    1  C1  UNL     1     -33.513  17.461  -1.471  1.00 20.00    -0.022 C 
HETATM    2  C2  UNL     1     -32.756  17.248  -2.565  1.00 20.00    -0.021 C 
HETATM    3  C3  UNL     1     -35.141  15.781  -2.264  1.00 20.00    -0.006 C 
HETATM    4  C4  UNL     1     -34.379  15.579  -3.356  1.00 20.00     0.009 C 
HETATM    5  C6  UNL     1     -35.448  18.157  -2.815  1.00 20.00     0.013 C 
HETATM    6  C7  UNL     1     -34.566  17.911  -4.083  1.00 20.00     0.014 C 
HETATM    7  C8  UNL     1     -35.000  17.186  -1.686  1.00 20.00     0.031 C 
HETATM    8  C9  UNL     1     -33.545  16.777  -3.783  1.00 20.00     0.045 C 
ENDROOT
BRANCH   4   9
HETATM    9  C5  UNL     1     -34.372  14.313  -4.071  1.00 20.00     0.248 C 
HETATM   10  O10 UNL     1     -33.292  13.832  -4.447  1.00 20.00    -0.274 OA
HETATM   11 CL11 UNL     1     -35.922  13.539  -4.358  1.00 20.00    -0.039 Cl
ENDBRANCH   4   9
TORSDOF 1
ENDMDL
MODEL 5
REMARK VINA RESULT:      -4.6      2.084      2.147
REMARK  1 active torsions:
REMARK  status: ('A' for Active; 'I' for Inactive)
REMARK    1  A    between atoms: C4_4  and  C5_5 
ROOT
HETATM    1  C1  UNL     1     -33.266  17.390  -3.436  1.00 20.00    -0.022 C 
HETATM    2  C2  UNL     1     -34.197  17.833  -4.304  1.00 20.00    -0.021 C 
HETATM    3  C3  UNL     1     -33.650  15.072  -4.199  1.00 20.00    -0.006 C 
HETATM    4  C4  UNL     1     -34.582  15.524  -5.059  1.00 20.00     0.009 C 
HETATM    5  C6  UNL     1     -34.884  15.959  -2.266  1.00 20.00     0.013 C 
HETATM    6  C7  UNL     1     -35.962  16.476  -3.274  1.00 20.00     0.014 C 
HETATM    7  C8  UNL     1     -33.494  15.956  -2.964  1.00 20.00     0.031 C 
HETATM    8  C9  UNL     1     -35.278  16.807  -4.630  1.00 20.00     0.045 C 
ENDROOT
BRANCH   4   9
HETATM    9  C5  UNL     1     -34.898  14.825  -6.294  1.00 20.00     0.248 C 
HETATM   10  O10 UNL     1     -35.844  14.023  -6.315  1.00 20.00    -0.274 OA
HETATM   11 CL11 UNL     1     -33.901  15.174  -7.697  1.00 20.00    -0.039 Cl
ENDBRANCH   4   9
TORSDOF 1
ENDMDL
MODEL 6
REMARK VINA RESULT:      -4.5      1.521      1.881
REMARK  1 active torsions:
REMARK  status: ('A' for Active; 'I' for Inactive)
REMARK    1  A    between atoms: C4_4  and  C5_5 
ROOT
HETATM    1  C1  UNL     1     -33.588  14.802  -5.657  1.00 20.00    -0.022 C 
HETATM    2  C2  UNL     1     -34.465  15.715  -6.116  1.00 20.00    -0.021 C 
HETATM    3  C3  UNL     1     -35.203  14.113  -3.920  1.00 20.00    -0.006 C 
HETATM    4  C4  UNL     1     -36.072  15.033  -4.383  1.00 20.00     0.009 C 
HETATM    5  C6  UNL     1     -33.516  15.833  -3.429  1.00 20.00     0.013 C 
HETATM    6  C7  UNL     1     -34.533  16.893  -3.965  1.00 20.00     0.014 C 
HETATM    7  C8  UNL     1     -33.744  14.486  -4.172  1.00 20.00     0.031 C 
HETATM    8  C9  UNL     1     -35.429  16.237  -5.054  1.00 20.00     0.045 C 
ENDROOT
BRANCH   4   9
HETATM    9  C5  UNL     1     -37.510  14.881  -4.237  1.00 20.00     0.248 C 
HETATM   10  O10 UNL     1     -38.022  13.761  -4.382  1.00 20.00    -0.274 OA
HETATM   11 CL11 UNL     1     -38.438  16.322  -3.857  1.00 20.00    -0.039 Cl
ENDBRANCH   4   9
TORSDOF 1
ENDMDL
MODEL 7
REMARK VINA RESULT:      -4.5      3.870      4.838
REMARK  1 active torsions:
REMARK  status: ('A' for Active; 'I' for Inactive)
REMARK    1  A    between atoms: C4_4  and  C5_5 
ROOT
HETATM    1  C1  UNL     1     -35.426  17.734  -3.310  1.00 20.00    -0.022 C 
HETATM    2  C2  UNL     1     -34.228  18.150  -3.764  1.00 20.00    -0.021 C 
HETATM    3  C3  UNL     1     -34.441  17.298  -1.087  1.00 20.00    -0.006 C 
HETATM    4  C4  UNL     1     -33.247  17.711  -1.551  1.00 20.00     0.009 C 
HETATM    5  C6  UNL     1     -34.564  15.501  -2.761  1.00 20.00     0.013 C 
HETATM    6  C7  UNL     1     -33.174  15.986  -3.289  1.00 20.00     0.014 C 
HETATM    7  C8  UNL     1     -35.339  16.716  -2.176  1.00 20.00     0.031 C 
HETATM    8  C9  UNL     1     -33.040  17.516  -3.046  1.00 20.00     0.045 C 
ENDROOT
BRANCH   4   9
HETATM    9  C5  UNL     1     -32.235  18.286  -0.680  1.00 20.00     0.248 C 
HETATM   10  O10 UNL     1     -31.163  18.678  -1.167  1.00 20.00    -0.274 OA
HETATM   11 CL11 UNL     1     -32.608  18.388   1.033  1.00 20.00    -0.039 Cl
ENDBRANCH   4   9
TORSDOF 1
ENDMDL
MODEL 8
REMARK VINA RESULT:      -4.5      3.058      4.000
REMARK  1 active torsions:
REMARK  status: ('A' for Active; 'I' for Inactive)
REMARK    1  A    between atoms: C4_4  and  C5_5 
ROOT
HETATM    1  C1  UNL     1     -35.706  16.122  -4.611  1.00 20.00    -0.022 C 
HETATM    2  C2  UNL     1     -34.600  16.854  -4.848  1.00 20.00    -0.021 C 
HETATM    3  C3  UNL     1     -35.090  15.950  -2.226  1.00 20.00    -0.006 C 
HETATM    4  C4  UNL     1     -33.985  16.678  -2.472  1.00 20.00     0.009 C 
HETATM    5  C6  UNL     1     -34.395  14.204  -3.812  1.00 20.00     0.013 C 
HETATM    6  C7  UNL     1     -33.113  15.056  -4.088  1.00 20.00     0.014 C 
HETATM    7  C8  UNL     1     -35.569  15.155  -3.438  1.00 20.00     0.031 C 
HETATM    8  C9  UNL     1     -33.448  16.562  -3.891  1.00 20.00     0.045 C 
ENDROOT
BRANCH   4   9
HETATM    9  C5  UNL     1     -33.355  17.499  -1.451  1.00 20.00     0.248 C 
HETATM   10  O10 UNL     1     -32.189  17.889  -1.617  1.00 20.00    -0.274 OA
HETATM   11 CL11 UNL     1     -34.308  17.889  -0.029  1.00 20.00    -0.039 Cl
ENDBRANCH   4   9
TORSDOF 1
ENDMDL
MODEL 9
REMARK VINA RESULT:      -4.4      2.081      2.789
REMARK  1 active torsions:
REMARK  status: ('A' for Active; 'I' for Inactive)
REMARK    1  A    between atoms: C4_4  and  C5_5 
ROOT
HETATM    1  C1  UNL     1     -35.491  16.807  -2.573  1.00 20.00    -0.022 C 
HETATM    2  C2  UNL     1     -35.220  15.488  -2.610  1.00 20.00    -0.021 C 
HETATM    3  C3  UNL     1     -35.045  16.974  -4.996  1.00 20.00    -0.006 C 
HETATM    4  C4  UNL     1     -34.771  15.656  -5.023  1.00 20.00     0.009 C 
HETATM    5  C6  UNL     1     -33.247  17.401  -3.374  1.00 20.00     0.013 C 
HETATM    6  C7  UNL     1     -32.934  15.869  -3.415  1.00 20.00     0.014 C 
HETATM    7  C8  UNL     1     -34.764  17.619  -3.641  1.00 20.00     0.031 C 
HETATM    8  C9  UNL     1     -34.245  15.087  -3.713  1.00 20.00     0.045 C 
ENDROOT
BRANCH   4   9
HETATM    9  C5  UNL     1     -34.955  14.851  -6.219  1.00 20.00     0.248 C 
HETATM   10  O10 UNL     1     -35.868  14.011  -6.253  1.00 20.00    -0.274 OA
HETATM   11 CL11 UNL     1     -33.853  15.129  -7.557  1.00 20.00    -0.039 Cl
ENDBRANCH   4   9
TORSDOF 1
ENDMDL
