MODEL 1
REMARK VINA RESULT:      -4.2      0.000      0.000
REMARK  1 active torsions:
REMARK  status: ('A' for Active; 'I' for Inactive)
REMARK    1  A    between atoms: C1_1  and  C4_4 
ROOT
HETATM    1  C2  UNL     1     -34.341  15.087  -6.838  1.00 20.00     0.180 C 
HETATM    2  C3  UNL     1     -34.672  16.553  -6.621  1.00 20.00     0.103 C 
HETATM    3  C4  UNL     1     -35.041  14.946  -4.618  1.00 20.00     0.165 C 
HETATM    4  C6  UNL     1     -34.357  15.129  -3.271  1.00 20.00     0.067 C 
HETATM    5  O8  UNL     1     -34.077  14.483  -5.564  1.00 20.00    -0.362 OA
HETATM    6  S9  UNL     1     -35.771  16.495  -5.199  1.00 20.00    -0.122 SA
ENDROOT
BRANCH   3   7
HETATM    7  C1  UNL     1     -36.129  13.919  -4.518  1.00 20.00     0.167 C 
HETATM    8  C5  UNL     1     -37.536  14.436  -4.379  1.00 20.00     0.095 C 
HETATM    9  O7  UNL     1     -35.884  12.715  -4.550  1.00 20.00    -0.294 OA
ENDBRANCH   3   7
TORSDOF 1
ENDMDL
MODEL 2
REMARK VINA RESULT:      -4.0     19.034     20.301
REMARK  1 active torsions:
REMARK  status: ('A' for Active; 'I' for Inactive)
REMARK    1  A    between atoms: C1_1  and  C4_4 
ROOT
HETATM    1  C2  UNL     1     -24.666  15.683  11.597  1.00 20.00     0.180 C 
HETATM    2  C3  UNL     1     -25.617  16.610  12.332  1.00 20.00     0.103 C 
HETATM    3  C4  UNL     1     -23.907  17.707  10.719  1.00 20.00     0.165 C 
HETATM    4  C6  UNL     1     -24.319  18.579   9.543  1.00 20.00     0.067 C 
HETATM    5  O8  UNL     1     -24.208  16.346  10.409  1.00 20.00    -0.362 OA
HETATM    6  S9  UNL     1     -24.773  18.194  12.231  1.00 20.00    -0.122 SA
ENDROOT
BRANCH   3   7
HETATM    7  C1  UNL     1     -22.432  17.817  10.963  1.00 20.00     0.167 C 
HETATM    8  C5  UNL     1     -21.553  17.938   9.748  1.00 20.00     0.095 C 
HETATM    9  O7  UNL     1     -21.964  17.811  12.100  1.00 20.00    -0.294 OA
ENDBRANCH   3   7
TORSDOF 1
ENDMDL
MODEL 3
REMARK VINA RESULT:      -3.8     19.395     20.139
REMARK  1 active torsions:
REMARK  status: ('A' for Active; 'I' for Inactive)
REMARK    1  A    between atoms: C1_1  and  C4_4 
ROOT
HETATM    1  C2  UNL     1     -25.764  18.057  11.545  1.00 20.00     0.180 C 
HETATM    2  C3  UNL     1     -25.824  16.761  12.332  1.00 20.00     0.103 C 
HETATM    3  C4  UNL     1     -23.515  17.460  11.377  1.00 20.00     0.165 C 
HETATM    4  C6  UNL     1     -22.288  17.675  12.251  1.00 20.00     0.067 C 
HETATM    5  O8  UNL     1     -24.417  18.549  11.575  1.00 20.00    -0.362 OA
HETATM    6  S9  UNL     1     -24.343  15.903  11.782  1.00 20.00    -0.122 SA
ENDROOT
BRANCH   3   7
HETATM    7  C1  UNL     1     -23.129  17.427   9.929  1.00 20.00     0.167 C 
HETATM    8  C5  UNL     1     -22.821  18.750   9.282  1.00 20.00     0.095 C 
HETATM    9  O7  UNL     1     -23.065  16.371   9.302  1.00 20.00    -0.294 OA
ENDBRANCH   3   7
TORSDOF 1
ENDMDL
MODEL 4
REMARK VINA RESULT:      -3.8      1.120      2.904
REMARK  1 active torsions:
REMARK  status: ('A' for Active; 'I' for Inactive)
REMARK    1  A    between atoms: C1_1  and  C4_4 
ROOT
HETATM    1  C2  UNL     1     -36.675  14.012  -4.551  1.00 20.00     0.180 C 
HETATM    2  C3  UNL     1     -37.183  15.419  -4.804  1.00 20.00     0.103 C 
HETATM    3  C4  UNL     1     -34.710  14.926  -5.414  1.00 20.00     0.165 C 
HETATM    4  C6  UNL     1     -34.148  15.114  -6.815  1.00 20.00     0.067 C 
HETATM    5  O8  UNL     1     -35.549  13.770  -5.406  1.00 20.00    -0.362 OA
HETATM    6  S9  UNL     1     -35.661  16.372  -4.889  1.00 20.00    -0.122 SA
ENDROOT
BRANCH   3   7
HETATM    7  C1  UNL     1     -33.601  14.707  -4.429  1.00 20.00     0.167 C 
HETATM    8  C5  UNL     1     -33.349  15.810  -3.438  1.00 20.00     0.095 C 
HETATM    9  O7  UNL     1     -32.931  13.675  -4.431  1.00 20.00    -0.294 OA
ENDBRANCH   3   7
TORSDOF 1
ENDMDL
MODEL 5
REMARK VINA RESULT:      -3.7      1.540      2.522
REMARK  1 active torsions:
REMARK  status: ('A' for Active; 'I' for Inactive)
REMARK    1  A    between atoms: C1_1  and  C4_4 
ROOT
HETATM    1  C2  UNL     1     -34.724  16.215  -2.936  1.00 20.00     0.180 C 
HETATM    2  C3  UNL     1     -33.301  15.857  -3.328  1.00 20.00     0.103 C 
HETATM    3  C4  UNL     1     -35.203  15.029  -4.887  1.00 20.00     0.165 C 
HETATM    4  C6  UNL     1     -35.283  15.391  -6.362  1.00 20.00     0.067 C 
HETATM    5  O8  UNL     1     -35.546  16.178  -4.111  1.00 20.00    -0.362 OA
HETATM    6  S9  UNL     1     -33.544  14.465  -4.439  1.00 20.00    -0.122 SA
ENDROOT
BRANCH   3   7
HETATM    7  C1  UNL     1     -36.178  13.937  -4.561  1.00 20.00     0.167 C 
HETATM    8  C5  UNL     1     -37.601  14.354  -4.308  1.00 20.00     0.095 C 
HETATM    9  O7  UNL     1     -35.830  12.758  -4.506  1.00 20.00    -0.294 OA
ENDBRANCH   3   7
TORSDOF 1
ENDMDL
MODEL 6
REMARK VINA RESULT:      -3.7      1.369      2.985
REMARK  1 active torsions:
REMARK  status: ('A' for Active; 'I' for Inactive)
REMARK    1  A    between atoms: C1_1  and  C4_4 
ROOT
HETATM    1  C2  UNL     1     -38.335  14.699  -4.154  1.00 20.00     0.180 C 
HETATM    2  C3  UNL     1     -38.327  16.156  -4.579  1.00 20.00     0.103 C 
HETATM    3  C4  UNL     1     -36.188  14.770  -5.063  1.00 20.00     0.165 C 
HETATM    4  C6  UNL     1     -35.616  14.589  -6.461  1.00 20.00     0.067 C 
HETATM    5  O8  UNL     1     -37.375  13.985  -4.946  1.00 20.00    -0.362 OA
HETATM    6  S9  UNL     1     -36.571  16.507  -4.731  1.00 20.00    -0.122 SA
ENDROOT
BRANCH   3   7
HETATM    7  C1  UNL     1     -35.209  14.296  -4.031  1.00 20.00     0.167 C 
HETATM    8  C5  UNL     1     -34.742  15.313  -3.025  1.00 20.00     0.095 C 
HETATM    9  O7  UNL     1     -34.810  13.133  -4.006  1.00 20.00    -0.294 OA
ENDBRANCH   3   7
TORSDOF 1
ENDMDL
MODEL 7
REMARK VINA RESULT:      -3.7      1.844      2.949
REMARK  1 active torsions:
REMARK  status: ('A' for Active; 'I' for Inactive)
REMARK    1  A    between atoms: C1_1  and  C4_4 
ROOT
HETATM    1  C2  UNL     1     -36.124  13.765  -4.637  1.00 20.00     0.180 C 
HETATM    2  C3  UNL     1     -35.903  14.395  -6.000  1.00 20.00     0.103 C 
HETATM    3  C4  UNL     1     -34.071  14.785  -4.204  1.00 20.00     0.165 C 
HETATM    4  C6  UNL     1     -32.618  14.380  -4.401  1.00 20.00     0.067 C 
HETATM    5  O8  UNL     1     -34.852  13.608  -3.993  1.00 20.00    -0.362 OA
HETATM    6  S9  UNL     1     -34.702  15.684  -5.642  1.00 20.00    -0.122 SA
ENDROOT
BRANCH   3   7
HETATM    7  C1  UNL     1     -34.213  15.664  -2.998  1.00 20.00     0.167 C 
HETATM    8  C5  UNL     1     -33.121  16.673  -2.765  1.00 20.00     0.095 C 
HETATM    9  O7  UNL     1     -35.174  15.565  -2.238  1.00 20.00    -0.294 OA
ENDBRANCH   3   7
TORSDOF 1
ENDMDL
MODEL 8
REMARK VINA RESULT:      -3.6      1.761      2.439
REMARK  1 active torsions:
REMARK  status: ('A' for Active; 'I' for Inactive)
REMARK    1  A    between atoms: C1_1  and  C4_4 
ROOT
HETATM    1  C2  UNL     1     -35.843  16.326  -5.837  1.00 20.00     0.180 C 
HETATM    2  C3  UNL     1     -37.250  16.014  -5.360  1.00 20.00     0.103 C 
HETATM    3  C4  UNL     1     -35.291  15.309  -3.811  1.00 20.00     0.165 C 
HETATM    4  C6  UNL     1     -35.151  15.798  -2.378  1.00 20.00     0.067 C 
HETATM    5  O8  UNL     1     -34.975  16.385  -4.697  1.00 20.00    -0.362 OA
HETATM    6  S9  UNL     1     -36.969  14.721  -4.142  1.00 20.00    -0.122 SA
ENDROOT
BRANCH   3   7
HETATM    7  C1  UNL     1     -34.335  14.186  -4.078  1.00 20.00     0.167 C 
HETATM    8  C5  UNL     1     -32.916  14.568  -4.401  1.00 20.00     0.095 C 
HETATM    9  O7  UNL     1     -34.693  13.010  -4.034  1.00 20.00    -0.294 OA
ENDBRANCH   3   7
TORSDOF 1
ENDMDL
MODEL 9
REMARK VINA RESULT:      -3.4     10.625     11.851
REMARK  1 active torsions:
REMARK  status: ('A' for Active; 'I' for Inactive)
REMARK    1  A    between atoms: C1_1  and  C4_4 
ROOT
HETATM    1  C2  UNL     1     -41.063   8.362  -0.112  1.00 20.00     0.180 C 
HETATM    2  C3  UNL     1     -42.486   8.885  -0.181  1.00 20.00     0.103 C 
HETATM    3  C4  UNL     1     -42.179   6.323   0.092  1.00 20.00     0.165 C 
HETATM    4  C6  UNL     1     -42.759   5.539   1.259  1.00 20.00     0.067 C 
HETATM    5  O8  UNL     1     -41.073   7.095   0.562  1.00 20.00    -0.362 OA
HETATM    6  S9  UNL     1     -43.417   7.418  -0.642  1.00 20.00    -0.122 SA
ENDROOT
BRANCH   3   7
HETATM    7  C1  UNL     1     -41.682   5.391  -0.971  1.00 20.00     0.167 C 
HETATM    8  C5  UNL     1     -42.726   4.680  -1.789  1.00 20.00     0.095 C 
HETATM    9  O7  UNL     1     -40.481   5.217  -1.166  1.00 20.00    -0.294 OA
ENDBRANCH   3   7
TORSDOF 1
ENDMDL
