MODEL 1
REMARK VINA RESULT:      -5.0      0.000      0.000
REMARK  0 active torsions:
REMARK  status: ('A' for Active; 'I' for Inactive)
ROOT
HETATM    1  C1  UNL     1     -33.349   5.382   2.364  1.00 20.00     0.148 A 
HETATM    2  C2  UNL     1     -32.804   7.160   3.467  1.00 20.00     0.218 A 
HETATM    3  C3  UNL     1     -33.955   5.284   3.582  1.00 20.00     0.061 A 
HETATM    4  C4  UNL     1     -34.777   4.543   4.440  1.00 20.00     0.037 A 
HETATM    5  C5  UNL     1     -34.922   5.196   5.610  1.00 20.00     0.077 A 
HETATM    6  C6  UNL     1     -34.141   6.456   5.517  1.00 20.00     0.253 A 
HETATM    7  N7  UNL     1     -32.626   6.565   2.299  1.00 20.00    -0.253 NA
HETATM    8  N8  UNL     1     -33.604   6.404   4.258  1.00 20.00    -0.272 N 
HETATM    9  O9  UNL     1     -33.961   7.365   6.296  1.00 20.00    -0.268 OA
ENDROOT
TORSDOF 0
ENDMDL
MODEL 2
REMARK VINA RESULT:      -4.9      1.629      2.901
REMARK  0 active torsions:
REMARK  status: ('A' for Active; 'I' for Inactive)
ROOT
HETATM    1  C1  UNL     1     -34.800   5.307   5.739  1.00 20.00     0.148 A 
HETATM    2  C2  UNL     1     -33.676   7.121   5.396  1.00 20.00     0.218 A 
HETATM    3  C3  UNL     1     -34.279   5.209   4.483  1.00 20.00     0.061 A 
HETATM    4  C4  UNL     1     -34.147   4.453   3.311  1.00 20.00     0.037 A 
HETATM    5  C5  UNL     1     -33.384   5.120   2.421  1.00 20.00     0.077 A 
HETATM    6  C6  UNL     1     -32.987   6.405   3.050  1.00 20.00     0.253 A 
HETATM    7  N7  UNL     1     -34.416   6.513   6.308  1.00 20.00    -0.253 NA
HETATM    8  N8  UNL     1     -33.579   6.351   4.285  1.00 20.00    -0.272 N 
HETATM    9  O9  UNL     1     -32.314   7.332   2.661  1.00 20.00    -0.268 OA
ENDROOT
TORSDOF 0
ENDMDL
MODEL 3
REMARK VINA RESULT:      -4.8      1.469      2.139
REMARK  0 active torsions:
REMARK  status: ('A' for Active; 'I' for Inactive)
ROOT
HETATM    1  C1  UNL     1     -32.384   7.372   3.402  1.00 20.00     0.148 A 
HETATM    2  C2  UNL     1     -33.416   5.667   2.564  1.00 20.00     0.218 A 
HETATM    3  C3  UNL     1     -33.194   6.886   4.386  1.00 20.00     0.061 A 
HETATM    4  C4  UNL     1     -33.657   7.000   5.703  1.00 20.00     0.037 A 
HETATM    5  C5  UNL     1     -34.554   6.026   5.957  1.00 20.00     0.077 A 
HETATM    6  C6  UNL     1     -34.692   5.214   4.722  1.00 20.00     0.253 A 
HETATM    7  N7  UNL     1     -32.529   6.599   2.258  1.00 20.00    -0.253 NA
HETATM    8  N8  UNL     1     -33.830   5.821   3.846  1.00 20.00    -0.272 N 
HETATM    9  O9  UNL     1     -35.365   4.245   4.452  1.00 20.00    -0.268 OA
ENDROOT
TORSDOF 0
ENDMDL
MODEL 4
REMARK VINA RESULT:      -4.5      2.023      3.577
REMARK  0 active torsions:
REMARK  status: ('A' for Active; 'I' for Inactive)
ROOT
HETATM    1  C1  UNL     1     -34.234   6.560   5.817  1.00 20.00     0.148 A 
HETATM    2  C2  UNL     1     -34.756   4.742   4.770  1.00 20.00     0.218 A 
HETATM    3  C3  UNL     1     -33.608   6.615   4.606  1.00 20.00     0.061 A 
HETATM    4  C4  UNL     1     -32.775   7.328   3.735  1.00 20.00     0.037 A 
HETATM    5  C5  UNL     1     -32.609   6.634   2.591  1.00 20.00     0.077 A 
HETATM    6  C6  UNL     1     -33.387   5.376   2.717  1.00 20.00     0.253 A 
HETATM    7  N7  UNL     1     -34.955   5.378   5.913  1.00 20.00    -0.253 NA
HETATM    8  N8  UNL     1     -33.945   5.472   3.965  1.00 20.00    -0.272 N 
HETATM    9  O9  UNL     1     -33.554   4.440   1.969  1.00 20.00    -0.268 OA
ENDROOT
TORSDOF 0
ENDMDL
MODEL 5
REMARK VINA RESULT:      -4.4     11.941     12.362
REMARK  0 active torsions:
REMARK  status: ('A' for Active; 'I' for Inactive)
ROOT
HETATM    1  C1  UNL     1     -37.378  15.048  -3.781  1.00 20.00     0.148 A 
HETATM    2  C2  UNL     1     -36.221  13.516  -4.774  1.00 20.00     0.218 A 
HETATM    3  C3  UNL     1     -36.067  15.326  -3.528  1.00 20.00     0.061 A 
HETATM    4  C4  UNL     1     -35.132  16.166  -2.909  1.00 20.00     0.037 A 
HETATM    5  C5  UNL     1     -33.884  15.719  -3.156  1.00 20.00     0.077 A 
HETATM    6  C6  UNL     1     -34.004  14.501  -3.996  1.00 20.00     0.253 A 
HETATM    7  N7  UNL     1     -37.467  13.907  -4.566  1.00 20.00    -0.253 NA
HETATM    8  N8  UNL     1     -35.358  14.359  -4.157  1.00 20.00    -0.272 N 
HETATM    9  O9  UNL     1     -33.182  13.751  -4.471  1.00 20.00    -0.268 OA
ENDROOT
TORSDOF 0
ENDMDL
MODEL 6
REMARK VINA RESULT:      -4.3     16.838     17.274
REMARK  0 active torsions:
REMARK  status: ('A' for Active; 'I' for Inactive)
ROOT
HETATM    1  C1  UNL     1     -24.124  18.497   8.702  1.00 20.00     0.148 A 
HETATM    2  C2  UNL     1     -22.072  18.275   9.343  1.00 20.00     0.218 A 
HETATM    3  C3  UNL     1     -24.160  18.267  10.046  1.00 20.00     0.061 A 
HETATM    4  C4  UNL     1     -24.936  18.110  11.201  1.00 20.00     0.037 A 
HETATM    5  C5  UNL     1     -24.135  17.884  12.262  1.00 20.00     0.077 A 
HETATM    6  C6  UNL     1     -22.734  17.892  11.773  1.00 20.00     0.253 A 
HETATM    7  N7  UNL     1     -22.807  18.501   8.267  1.00 20.00    -0.253 NA
HETATM    8  N8  UNL     1     -22.868  18.131  10.430  1.00 20.00    -0.272 N 
HETATM    9  O9  UNL     1     -21.672  17.739  12.332  1.00 20.00    -0.268 OA
ENDROOT
TORSDOF 0
ENDMDL
MODEL 7
REMARK VINA RESULT:      -4.2     16.528     16.723
REMARK  0 active torsions:
REMARK  status: ('A' for Active; 'I' for Inactive)
ROOT
HETATM    1  C1  UNL     1     -24.961  18.236  11.256  1.00 20.00     0.148 A 
HETATM    2  C2  UNL     1     -25.445  19.263   9.417  1.00 20.00     0.218 A 
HETATM    3  C3  UNL     1     -24.029  17.848  10.339  1.00 20.00     0.061 A 
HETATM    4  C4  UNL     1     -22.893  17.079  10.056  1.00 20.00     0.037 A 
HETATM    5  C5  UNL     1     -22.528  17.259   8.771  1.00 20.00     0.077 A 
HETATM    6  C6  UNL     1     -23.491  18.213   8.164  1.00 20.00     0.253 A 
HETATM    7  N7  UNL     1     -25.849  19.126  10.669  1.00 20.00    -0.253 NA
HETATM    8  N8  UNL     1     -24.346  18.501   9.195  1.00 20.00    -0.272 N 
HETATM    9  O9  UNL     1     -23.585  18.683   7.053  1.00 20.00    -0.268 OA
ENDROOT
TORSDOF 0
ENDMDL
MODEL 8
REMARK VINA RESULT:      -4.1     16.456     16.956
REMARK  0 active torsions:
REMARK  status: ('A' for Active; 'I' for Inactive)
ROOT
HETATM    1  C1  UNL     1     -23.053  18.008  10.726  1.00 20.00     0.148 A 
HETATM    2  C2  UNL     1     -22.122  17.897   8.778  1.00 20.00     0.218 A 
HETATM    3  C3  UNL     1     -23.964  18.487   9.832  1.00 20.00     0.061 A 
HETATM    4  C4  UNL     1     -25.241  19.020   9.611  1.00 20.00     0.037 A 
HETATM    5  C5  UNL     1     -25.414  19.262   8.296  1.00 20.00     0.077 A 
HETATM    6  C6  UNL     1     -24.165  18.860   7.601  1.00 20.00     0.253 A 
HETATM    7  N7  UNL     1     -21.895  17.638  10.055  1.00 20.00    -0.253 NA
HETATM    8  N8  UNL     1     -23.366  18.409   8.620  1.00 20.00    -0.272 N 
HETATM    9  O9  UNL     1     -23.834  18.882   6.437  1.00 20.00    -0.268 OA
ENDROOT
TORSDOF 0
ENDMDL
MODEL 9
REMARK VINA RESULT:      -4.0     12.095     12.397
REMARK  0 active torsions:
REMARK  status: ('A' for Active; 'I' for Inactive)
ROOT
HETATM    1  C1  UNL     1     -36.164  13.489  -4.659  1.00 20.00     0.148 A 
HETATM    2  C2  UNL     1     -37.510  15.001  -3.899  1.00 20.00     0.218 A 
HETATM    3  C3  UNL     1     -35.392  14.405  -4.007  1.00 20.00     0.061 A 
HETATM    4  C4  UNL     1     -34.110  14.803  -3.607  1.00 20.00     0.037 A 
HETATM    5  C5  UNL     1     -34.186  15.956  -2.912  1.00 20.00     0.077 A 
HETATM    6  C6  UNL     1     -35.617  16.344  -2.848  1.00 20.00     0.253 A 
HETATM    7  N7  UNL     1     -37.497  13.871  -4.587  1.00 20.00    -0.253 NA
HETATM    8  N8  UNL     1     -36.249  15.342  -3.537  1.00 20.00    -0.272 N 
HETATM    9  O9  UNL     1     -36.188  17.284  -2.342  1.00 20.00    -0.268 OA
ENDROOT
TORSDOF 0
ENDMDL
