MODEL 1
REMARK VINA RESULT:      -4.5      0.000      0.000
REMARK  0 active torsions:
REMARK  status: ('A' for Active; 'I' for Inactive)
ROOT
HETATM    1  C1  UNL     1     -25.806  19.256   6.377  1.00 20.00     0.017 C 
HETATM    2  C2  UNL     1     -25.241  19.199   7.435  1.00 20.00    -0.057 C 
HETATM    3  C3  UNL     1     -24.882  18.670  11.013  1.00 20.00     0.182 C 
HETATM    4  C4  UNL     1     -22.749  18.104   9.845  1.00 20.00     0.182 C 
HETATM    5  C5  UNL     1     -24.550  19.132   8.726  1.00 20.00     0.341 C 
HETATM    6  C6  UNL     1     -23.688  17.698  10.996  1.00 20.00    -0.004 C 
HETATM    7  C7  UNL     1     -24.195  16.262  10.765  1.00 20.00     0.019 C 
HETATM    8  C8  UNL     1     -22.939  17.759  12.332  1.00 20.00     0.019 C 
HETATM    9  O9  UNL     1     -25.496  18.742   9.725  1.00 20.00    -0.350 OA
HETATM   10  O10 UNL     1     -23.469  18.204   8.615  1.00 20.00    -0.350 OA
ENDROOT
TORSDOF 0
ENDMDL
MODEL 2
REMARK VINA RESULT:      -4.3     15.690     16.622
REMARK  0 active torsions:
REMARK  status: ('A' for Active; 'I' for Inactive)
ROOT
HETATM    1  C1  UNL     1     -32.320   8.216   0.614  1.00 20.00     0.017 C 
HETATM    2  C2  UNL     1     -32.519   7.543   1.589  1.00 20.00    -0.057 C 
HETATM    3  C3  UNL     1     -33.814   6.732   4.888  1.00 20.00     0.182 C 
HETATM    4  C4  UNL     1     -33.661   4.665   3.494  1.00 20.00     0.182 C 
HETATM    5  C5  UNL     1     -32.760   6.722   2.779  1.00 20.00     0.341 C 
HETATM    6  C6  UNL     1     -34.504   5.397   4.555  1.00 20.00    -0.004 C 
HETATM    7  C7  UNL     1     -35.913   5.670   3.994  1.00 20.00     0.019 C 
HETATM    8  C8  UNL     1     -34.624   4.536   5.818  1.00 20.00     0.019 C 
HETATM    9  O9  UNL     1     -33.554   7.479   3.697  1.00 20.00    -0.350 OA
HETATM   10  O10 UNL     1     -33.409   5.514   2.374  1.00 20.00    -0.350 OA
ENDROOT
TORSDOF 0
ENDMDL
MODEL 3
REMARK VINA RESULT:      -4.2      1.778      2.525
REMARK  0 active torsions:
REMARK  status: ('A' for Active; 'I' for Inactive)
ROOT
HETATM    1  C1  UNL     1     -21.293  16.922   6.785  1.00 20.00     0.017 C 
HETATM    2  C2  UNL     1     -21.858  17.396   7.733  1.00 20.00    -0.057 C 
HETATM    3  C3  UNL     1     -24.683  18.328   9.822  1.00 20.00     0.182 C 
HETATM    4  C4  UNL     1     -22.675  17.891  11.241  1.00 20.00     0.182 C 
HETATM    5  C5  UNL     1     -22.548  17.976   8.889  1.00 20.00     0.341 C 
HETATM    6  C6  UNL     1     -24.204  17.730  11.157  1.00 20.00    -0.004 C 
HETATM    7  C7  UNL     1     -24.569  16.234  11.213  1.00 20.00     0.019 C 
HETATM    8  C8  UNL     1     -24.874  18.456  12.330  1.00 20.00     0.019 C 
HETATM    9  O9  UNL     1     -23.954  17.772   8.727  1.00 20.00    -0.350 OA
HETATM   10  O10 UNL     1     -22.046  17.356  10.075  1.00 20.00    -0.350 OA
ENDROOT
TORSDOF 0
ENDMDL
MODEL 4
REMARK VINA RESULT:      -4.1     22.476     24.114
REMARK  0 active torsions:
REMARK  status: ('A' for Active; 'I' for Inactive)
ROOT
HETATM    1  C1  UNL     1     -43.304   3.258  -2.303  1.00 20.00     0.017 C 
HETATM    2  C2  UNL     1     -42.778   4.283  -1.963  1.00 20.00    -0.057 C 
HETATM    3  C3  UNL     1     -42.416   7.873  -1.517  1.00 20.00     0.182 C 
HETATM    4  C4  UNL     1     -41.234   6.658   0.317  1.00 20.00     0.182 C 
HETATM    5  C5  UNL     1     -42.133   5.533  -1.549  1.00 20.00     0.341 C 
HETATM    6  C6  UNL     1     -42.085   7.897  -0.013  1.00 20.00    -0.004 C 
HETATM    7  C7  UNL     1     -43.391   7.859   0.804  1.00 20.00     0.019 C 
HETATM    8  C8  UNL     1     -41.311   9.175   0.335  1.00 20.00     0.019 C 
HETATM    9  O9  UNL     1     -42.998   6.621  -1.887  1.00 20.00    -0.350 OA
HETATM   10  O10 UNL     1     -41.874   5.467  -0.145  1.00 20.00    -0.350 OA
ENDROOT
TORSDOF 0
ENDMDL
MODEL 5
REMARK VINA RESULT:      -4.0      1.861      3.363
REMARK  0 active torsions:
REMARK  status: ('A' for Active; 'I' for Inactive)
ROOT
HETATM    1  C1  UNL     1     -26.385  19.211  11.943  1.00 20.00     0.017 C 
HETATM    2  C2  UNL     1     -25.713  18.749  11.061  1.00 20.00    -0.057 C 
HETATM    3  C3  UNL     1     -23.515  18.772   8.166  1.00 20.00     0.182 C 
HETATM    4  C4  UNL     1     -23.079  16.744   9.558  1.00 20.00     0.182 C 
HETATM    5  C5  UNL     1     -24.896  18.184   9.983  1.00 20.00     0.341 C 
HETATM    6  C6  UNL     1     -22.415  17.829   8.690  1.00 20.00    -0.004 C 
HETATM    7  C7  UNL     1     -21.413  18.630   9.543  1.00 20.00     0.019 C 
HETATM    8  C8  UNL     1     -21.673  17.182   7.515  1.00 20.00     0.019 C 
HETATM    9  O9  UNL     1     -24.317  19.262   9.242  1.00 20.00    -0.350 OA
HETATM   10  O10 UNL     1     -23.903  17.335  10.564  1.00 20.00    -0.350 OA
ENDROOT
TORSDOF 0
ENDMDL
MODEL 6
REMARK VINA RESULT:      -3.9     22.409     24.120
REMARK  0 active torsions:
REMARK  status: ('A' for Active; 'I' for Inactive)
ROOT
HETATM    1  C1  UNL     1     -41.160   9.731   0.349  1.00 20.00     0.017 C 
HETATM    2  C2  UNL     1     -41.389   8.739  -0.290  1.00 20.00    -0.057 C 
HETATM    3  C3  UNL     1     -41.238   5.215  -1.167  1.00 20.00     0.182 C 
HETATM    4  C4  UNL     1     -43.417   6.189  -1.901  1.00 20.00     0.182 C 
HETATM    5  C5  UNL     1     -41.666   7.530  -1.071  1.00 20.00     0.341 C 
HETATM    6  C6  UNL     1     -42.746   4.936  -1.309  1.00 20.00    -0.004 C 
HETATM    7  C7  UNL     1     -43.348   4.636   0.077  1.00 20.00     0.019 C 
HETATM    8  C8  UNL     1     -42.975   3.732  -2.229  1.00 20.00     0.019 C 
HETATM    9  O9  UNL     1     -41.012   6.425  -0.442  1.00 20.00    -0.350 OA
HETATM   10  O10 UNL     1     -43.083   7.350  -1.140  1.00 20.00    -0.350 OA
ENDROOT
TORSDOF 0
ENDMDL
MODEL 7
REMARK VINA RESULT:      -3.9     17.897     19.507
REMARK  0 active torsions:
REMARK  status: ('A' for Active; 'I' for Inactive)
ROOT
HETATM    1  C1  UNL     1     -40.526  15.126  -4.567  1.00 20.00     0.017 C 
HETATM    2  C2  UNL     1     -39.350  15.043  -4.340  1.00 20.00    -0.057 C 
HETATM    3  C3  UNL     1     -36.032  13.558  -4.372  1.00 20.00     0.182 C 
HETATM    4  C4  UNL     1     -35.856  16.049  -4.365  1.00 20.00     0.182 C 
HETATM    5  C5  UNL     1     -37.914  14.942  -4.061  1.00 20.00     0.341 C 
HETATM    6  C6  UNL     1     -35.236  14.755  -4.924  1.00 20.00    -0.004 C 
HETATM    7  C7  UNL     1     -35.321  14.766  -6.462  1.00 20.00     0.019 C 
HETATM    8  C8  UNL     1     -33.766  14.651  -4.501  1.00 20.00     0.019 C 
HETATM    9  O9  UNL     1     -37.430  13.719  -4.623  1.00 20.00    -0.350 OA
HETATM   10  O10 UNL     1     -37.262  16.086  -4.616  1.00 20.00    -0.350 OA
ENDROOT
TORSDOF 0
ENDMDL
MODEL 8
REMARK VINA RESULT:      -3.9     14.509     17.060
REMARK  0 active torsions:
REMARK  status: ('A' for Active; 'I' for Inactive)
ROOT
HETATM    1  C1  UNL     1     -32.237  18.353  -1.799  1.00 20.00     0.017 C 
HETATM    2  C2  UNL     1     -32.928  17.427  -2.128  1.00 20.00    -0.057 C 
HETATM    3  C3  UNL     1     -35.936  15.734  -3.267  1.00 20.00     0.182 C 
HETATM    4  C4  UNL     1     -33.910  14.499  -4.046  1.00 20.00     0.182 C 
HETATM    5  C5  UNL     1     -33.770  16.296  -2.527  1.00 20.00     0.341 C 
HETATM    6  C6  UNL     1     -35.334  14.933  -4.437  1.00 20.00    -0.004 C 
HETATM    7  C7  UNL     1     -35.276  15.821  -5.694  1.00 20.00     0.019 C 
HETATM    8  C8  UNL     1     -36.198  13.701  -4.730  1.00 20.00     0.019 C 
HETATM    9  O9  UNL     1     -35.063  16.796  -2.878  1.00 20.00    -0.350 OA
HETATM   10  O10 UNL     1     -33.138  15.622  -3.618  1.00 20.00    -0.350 OA
ENDROOT
TORSDOF 0
ENDMDL
MODEL 9
REMARK VINA RESULT:      -3.9     15.582     17.829
REMARK  0 active torsions:
REMARK  status: ('A' for Active; 'I' for Inactive)
ROOT
HETATM    1  C1  UNL     1     -35.204  16.822  -0.804  1.00 20.00     0.017 C 
HETATM    2  C2  UNL     1     -34.767  16.623  -1.905  1.00 20.00    -0.057 C 
HETATM    3  C3  UNL     1     -33.536  14.670  -4.713  1.00 20.00     0.182 C 
HETATM    4  C4  UNL     1     -34.658  16.744  -5.537  1.00 20.00     0.182 C 
HETATM    5  C5  UNL     1     -34.231  16.380  -3.248  1.00 20.00     0.341 C 
HETATM    6  C6  UNL     1     -34.436  15.247  -5.822  1.00 20.00    -0.004 C 
HETATM    7  C7  UNL     1     -35.791  14.515  -5.819  1.00 20.00     0.019 C 
HETATM    8  C8  UNL     1     -33.768  15.066  -7.190  1.00 20.00     0.019 C 
HETATM    9  O9  UNL     1     -34.068  14.970  -3.421  1.00 20.00    -0.350 OA
HETATM   10  O10 UNL     1     -35.134  16.940  -4.204  1.00 20.00    -0.350 OA
ENDROOT
TORSDOF 0
ENDMDL
