MODEL 1
REMARK VINA RESULT:      -5.0      0.000      0.000
REMARK  1 active torsions:
REMARK  status: ('A' for Active; 'I' for Inactive)
REMARK    1  A    between atoms: C3_3  and  C9_9 
ROOT
HETATM    1  C1  UNL     1     -33.914  14.881  -4.406  1.00 20.00    -0.067 A 
HETATM    2  C2  UNL     1     -32.782  14.209  -4.435  1.00 20.00     0.016 C 
HETATM    3  C4  UNL     1     -34.753  18.312  -1.959  1.00 20.00     0.000 C 
HETATM    4  C5  UNL     1     -34.437  16.887  -1.495  1.00 20.00     0.001 C 
HETATM    5  C6  UNL     1     -34.997  18.422  -3.465  1.00 20.00     0.001 C 
HETATM    6  C7  UNL     1     -35.093  15.839  -2.389  1.00 20.00     0.015 C 
HETATM    7  C8  UNL     1     -34.214  17.372  -4.249  1.00 20.00     0.015 C 
HETATM    8  C9  UNL     1     -35.216  14.998  -4.932  1.00 20.00     0.096 A 
HETATM    9  C10 UNL     1     -34.611  15.971  -3.822  1.00 20.00    -0.003 A 
ENDROOT
BRANCH   8  10
HETATM   10  C3  UNL     1     -36.153  13.939  -4.555  1.00 20.00     0.132 C 
HETATM   11  C11 UNL     1     -37.583  14.349  -4.330  1.00 20.00     0.091 C 
HETATM   12  O12 UNL     1     -35.790  12.770  -4.431  1.00 20.00    -0.298 OA
ENDBRANCH   8  10
TORSDOF 1
ENDMDL
MODEL 2
REMARK VINA RESULT:      -4.6      1.731      2.143
REMARK  1 active torsions:
REMARK  status: ('A' for Active; 'I' for Inactive)
REMARK    1  A    between atoms: C3_3  and  C9_9 
ROOT
HETATM    1  C1  UNL     1     -35.104  14.528  -4.357  1.00 20.00    -0.067 A 
HETATM    2  C2  UNL     1     -35.352  13.250  -4.160  1.00 20.00     0.016 C 
HETATM    3  C4  UNL     1     -33.836  17.342  -1.368  1.00 20.00     0.000 C 
HETATM    4  C5  UNL     1     -35.159  16.572  -1.426  1.00 20.00     0.001 C 
HETATM    5  C6  UNL     1     -33.006  17.225  -2.648  1.00 20.00     0.001 C 
HETATM    6  C7  UNL     1     -35.694  16.466  -2.851  1.00 20.00     0.015 C 
HETATM    7  C8  UNL     1     -33.245  15.898  -3.363  1.00 20.00     0.015 C 
HETATM    8  C9  UNL     1     -35.052  15.576  -5.297  1.00 20.00     0.096 A 
HETATM    9  C10 UNL     1     -34.706  15.747  -3.749  1.00 20.00    -0.003 A 
ENDROOT
BRANCH   8  10
HETATM   10  C3  UNL     1     -36.343  16.028  -5.819  1.00 20.00     0.132 C 
HETATM   11  C11 UNL     1     -36.397  17.426  -6.372  1.00 20.00     0.091 C 
HETATM   12  O12 UNL     1     -37.333  15.299  -5.810  1.00 20.00    -0.298 OA
ENDBRANCH   8  10
TORSDOF 1
ENDMDL
MODEL 3
REMARK VINA RESULT:      -4.4      2.005      3.838
REMARK  1 active torsions:
REMARK  status: ('A' for Active; 'I' for Inactive)
REMARK    1  A    between atoms: C3_3  and  C9_9 
ROOT
HETATM    1  C1  UNL     1     -34.208  15.024  -3.819  1.00 20.00    -0.067 A 
HETATM    2  C2  UNL     1     -33.177  14.522  -4.464  1.00 20.00     0.016 C 
HETATM    3  C4  UNL     1     -37.994  16.090  -5.550  1.00 20.00     0.000 C 
HETATM    4  C5  UNL     1     -36.623  16.702  -5.851  1.00 20.00     0.001 C 
HETATM    5  C6  UNL     1     -37.991  15.154  -4.340  1.00 20.00     0.001 C 
HETATM    6  C7  UNL     1     -35.775  16.848  -4.590  1.00 20.00     0.015 C 
HETATM    7  C8  UNL     1     -36.639  14.472  -4.148  1.00 20.00     0.015 C 
HETATM    8  C9  UNL     1     -34.718  15.436  -2.571  1.00 20.00     0.096 A 
HETATM    9  C10 UNL     1     -35.541  15.499  -3.936  1.00 20.00    -0.003 A 
ENDROOT
BRANCH   8  10
HETATM   10  C3  UNL     1     -34.124  16.650  -2.010  1.00 20.00     0.132 C 
HETATM   11  C11 UNL     1     -34.922  17.368  -0.956  1.00 20.00     0.091 C 
HETATM   12  O12 UNL     1     -33.025  17.061  -2.379  1.00 20.00    -0.298 OA
ENDBRANCH   8  10
TORSDOF 1
ENDMDL
MODEL 4
REMARK VINA RESULT:      -4.4      1.512      2.850
REMARK  1 active torsions:
REMARK  status: ('A' for Active; 'I' for Inactive)
REMARK    1  A    between atoms: C3_3  and  C9_9 
ROOT
HETATM    1  C1  UNL     1     -36.483  14.847  -4.417  1.00 20.00    -0.067 A 
HETATM    2  C2  UNL     1     -37.752  14.542  -4.246  1.00 20.00     0.016 C 
HETATM    3  C4  UNL     1     -34.352  17.998  -2.418  1.00 20.00     0.000 C 
HETATM    4  C5  UNL     1     -35.539  18.133  -3.376  1.00 20.00     0.001 C 
HETATM    5  C6  UNL     1     -33.764  16.586  -2.371  1.00 20.00     0.001 C 
HETATM    6  C7  UNL     1     -35.449  17.147  -4.537  1.00 20.00     0.015 C 
HETATM    7  C8  UNL     1     -34.818  15.519  -2.657  1.00 20.00     0.015 C 
HETATM    8  C9  UNL     1     -35.286  14.528  -5.087  1.00 20.00     0.096 A 
HETATM    9  C10 UNL     1     -35.429  15.717  -4.033  1.00 20.00    -0.003 A 
ENDROOT
BRANCH   8  10
HETATM   10  C3  UNL     1     -35.264  14.813  -6.523  1.00 20.00     0.132 C 
HETATM   11  C11 UNL     1     -33.922  15.111  -7.133  1.00 20.00     0.091 C 
HETATM   12  O12 UNL     1     -36.293  14.805  -7.197  1.00 20.00    -0.298 OA
ENDBRANCH   8  10
TORSDOF 1
ENDMDL
MODEL 5
REMARK VINA RESULT:      -4.4      1.510      1.921
REMARK  1 active torsions:
REMARK  status: ('A' for Active; 'I' for Inactive)
REMARK    1  A    between atoms: C3_3  and  C9_9 
ROOT
HETATM    1  C1  UNL     1     -36.001  15.428  -5.592  1.00 20.00    -0.067 A 
HETATM    2  C2  UNL     1     -35.427  14.763  -6.572  1.00 20.00     0.016 C 
HETATM    3  C4  UNL     1     -33.978  17.385  -2.345  1.00 20.00     0.000 C 
HETATM    4  C5  UNL     1     -33.997  15.888  -2.668  1.00 20.00     0.001 C 
HETATM    5  C6  UNL     1     -34.978  18.199  -3.169  1.00 20.00     0.001 C 
HETATM    6  C7  UNL     1     -35.371  15.426  -3.147  1.00 20.00     0.015 C 
HETATM    7  C8  UNL     1     -35.229  17.577  -4.540  1.00 20.00     0.015 C 
HETATM    8  C9  UNL     1     -37.218  15.873  -5.038  1.00 20.00     0.096 A 
HETATM    9  C10 UNL     1     -35.786  16.171  -4.402  1.00 20.00    -0.003 A 
ENDROOT
BRANCH   8  10
HETATM   10  C3  UNL     1     -38.077  14.833  -4.470  1.00 20.00     0.132 C 
HETATM   11  C11 UNL     1     -39.340  15.294  -3.794  1.00 20.00     0.091 C 
HETATM   12  O12 UNL     1     -37.782  13.641  -4.543  1.00 20.00    -0.298 OA
ENDBRANCH   8  10
TORSDOF 1
ENDMDL
MODEL 6
REMARK VINA RESULT:      -4.3      1.378      2.449
REMARK  1 active torsions:
REMARK  status: ('A' for Active; 'I' for Inactive)
REMARK    1  A    between atoms: C3_3  and  C9_9 
ROOT
HETATM    1  C1  UNL     1     -36.471  16.352  -4.749  1.00 20.00    -0.067 A 
HETATM    2  C2  UNL     1     -36.846  17.178  -5.703  1.00 20.00     0.016 C 
HETATM    3  C4  UNL     1     -33.580  17.186  -1.681  1.00 20.00     0.000 C 
HETATM    4  C5  UNL     1     -33.346  17.119  -3.193  1.00 20.00     0.001 C 
HETATM    5  C6  UNL     1     -34.960  16.680  -1.255  1.00 20.00     0.001 C 
HETATM    6  C7  UNL     1     -34.142  15.992  -3.844  1.00 20.00     0.015 C 
HETATM    7  C8  UNL     1     -36.010  16.904  -2.339  1.00 20.00     0.015 C 
HETATM    8  C9  UNL     1     -36.640  15.077  -4.175  1.00 20.00     0.096 A 
HETATM    9  C10 UNL     1     -35.630  16.179  -3.618  1.00 20.00    -0.003 A 
ENDROOT
BRANCH   8  10
HETATM   10  C3  UNL     1     -36.141  13.951  -4.968  1.00 20.00     0.132 C 
HETATM   11  C11 UNL     1     -35.843  14.223  -6.417  1.00 20.00     0.091 C 
HETATM   12  O12 UNL     1     -35.972  12.838  -4.472  1.00 20.00    -0.298 OA
ENDBRANCH   8  10
TORSDOF 1
ENDMDL
MODEL 7
REMARK VINA RESULT:      -4.3      1.556      2.714
REMARK  1 active torsions:
REMARK  status: ('A' for Active; 'I' for Inactive)
REMARK    1  A    between atoms: C3_3  and  C9_9 
ROOT
HETATM    1  C1  UNL     1     -35.876  16.270  -3.147  1.00 20.00    -0.067 A 
HETATM    2  C2  UNL     1     -37.096  16.694  -3.401  1.00 20.00     0.016 C 
HETATM    3  C4  UNL     1     -32.395  18.740  -2.656  1.00 20.00     0.000 C 
HETATM    4  C5  UNL     1     -33.256  18.577  -3.911  1.00 20.00     0.001 C 
HETATM    5  C6  UNL     1     -32.724  17.729  -1.556  1.00 20.00     0.001 C 
HETATM    6  C7  UNL     1     -33.707  17.133  -4.109  1.00 20.00     0.015 C 
HETATM    7  C8  UNL     1     -34.188  17.300  -1.594  1.00 20.00     0.015 C 
HETATM    8  C9  UNL     1     -35.055  15.150  -2.910  1.00 20.00     0.096 A 
HETATM    9  C10 UNL     1     -34.528  16.655  -2.926  1.00 20.00    -0.003 A 
ENDROOT
BRANCH   8  10
HETATM   10  C3  UNL     1     -34.825  14.274  -4.061  1.00 20.00     0.132 C 
HETATM   11  C11 UNL     1     -36.024  13.936  -4.904  1.00 20.00     0.091 C 
HETATM   12  O12 UNL     1     -33.706  13.838  -4.326  1.00 20.00    -0.298 OA
ENDBRANCH   8  10
TORSDOF 1
ENDMDL
MODEL 8
REMARK VINA RESULT:      -4.2      2.741      4.742
REMARK  1 active torsions:
REMARK  status: ('A' for Active; 'I' for Inactive)
REMARK    1  A    between atoms: C3_3  and  C9_9 
ROOT
HETATM    1  C1  UNL     1     -34.656  17.266  -1.867  1.00 20.00    -0.067 A 
HETATM    2  C2  UNL     1     -35.255  16.824  -0.782  1.00 20.00     0.016 C 
HETATM    3  C4  UNL     1     -34.064  15.055  -5.503  1.00 20.00     0.000 C 
HETATM    4  C5  UNL     1     -33.493  14.744  -4.117  1.00 20.00     0.001 C 
HETATM    5  C6  UNL     1     -34.730  16.429  -5.594  1.00 20.00     0.001 C 
HETATM    6  C7  UNL     1     -33.070  16.011  -3.378  1.00 20.00     0.015 C 
HETATM    7  C8  UNL     1     -35.324  16.865  -4.258  1.00 20.00     0.015 C 
HETATM    8  C9  UNL     1     -34.009  18.357  -2.482  1.00 20.00     0.096 A 
HETATM    9  C10 UNL     1     -34.249  16.947  -3.189  1.00 20.00    -0.003 A 
ENDROOT
BRANCH   8  10
HETATM   10  C3  UNL     1     -32.691  18.700  -1.946  1.00 20.00     0.132 C 
HETATM   11  C11 UNL     1     -32.425  18.328  -0.513  1.00 20.00     0.091 C 
HETATM   12  O12 UNL     1     -31.841  19.263  -2.635  1.00 20.00    -0.298 OA
ENDBRANCH   8  10
TORSDOF 1
ENDMDL
MODEL 9
REMARK VINA RESULT:      -4.2      2.078      2.322
REMARK  1 active torsions:
REMARK  status: ('A' for Active; 'I' for Inactive)
REMARK    1  A    between atoms: C3_3  and  C9_9 
ROOT
HETATM    1  C1  UNL     1     -34.588  15.195  -3.922  1.00 20.00    -0.067 A 
HETATM    2  C2  UNL     1     -34.687  13.883  -3.885  1.00 20.00     0.016 C 
HETATM    3  C4  UNL     1     -34.054  17.784  -0.534  1.00 20.00     0.000 C 
HETATM    4  C5  UNL     1     -35.248  16.874  -0.836  1.00 20.00     0.001 C 
HETATM    5  C6  UNL     1     -33.074  17.911  -1.702  1.00 20.00     0.001 C 
HETATM    6  C7  UNL     1     -35.597  16.867  -2.321  1.00 20.00     0.015 C 
HETATM    7  C8  UNL     1     -33.052  16.655  -2.569  1.00 20.00     0.015 C 
HETATM    8  C9  UNL     1     -34.567  16.342  -4.740  1.00 20.00     0.096 A 
HETATM    9  C10 UNL     1     -34.426  16.377  -3.151  1.00 20.00    -0.003 A 
ENDROOT
BRANCH   8  10
HETATM   10  C3  UNL     1     -35.837  16.694  -5.377  1.00 20.00     0.132 C 
HETATM   11  C11 UNL     1     -36.740  15.553  -5.761  1.00 20.00     0.091 C 
HETATM   12  O12 UNL     1     -36.151  17.864  -5.586  1.00 20.00    -0.298 OA
ENDBRANCH   8  10
TORSDOF 1
ENDMDL
