MODEL 1
REMARK VINA RESULT:      -4.8      0.000      0.000
REMARK  1 active torsions:
REMARK  status: ('A' for Active; 'I' for Inactive)
REMARK    1  A    between atoms: C3_3  and  C9_9 
ROOT
HETATM    1  C1  UNL     1     -35.314  16.246  -6.761  1.00 20.00     0.013 C 
HETATM    2  C2  UNL     1     -35.344  15.715  -5.685  1.00 20.00    -0.099 C 
HETATM    3  C4  UNL     1     -33.391  16.465  -2.625  1.00 20.00     0.000 C 
HETATM    4  C5  UNL     1     -32.938  15.504  -3.717  1.00 20.00     0.002 C 
HETATM    5  C6  UNL     1     -34.727  17.112  -2.970  1.00 20.00     0.002 C 
HETATM    6  C7  UNL     1     -33.999  14.443  -4.013  1.00 20.00     0.030 C 
HETATM    7  C8  UNL     1     -35.804  16.066  -3.260  1.00 20.00     0.030 C 
HETATM    8  C9  UNL     1     -35.380  15.047  -4.334  1.00 20.00     0.083 C 
ENDROOT
BRANCH   8   9
HETATM    9  C3  UNL     1     -36.384  13.967  -4.412  1.00 20.00     0.143 C 
HETATM   10  C10 UNL     1     -37.829  14.379  -4.325  1.00 20.00     0.093 C 
HETATM   11  O11 UNL     1     -36.056  12.789  -4.544  1.00 20.00    -0.297 OA
ENDBRANCH   8   9
TORSDOF 1
ENDMDL
MODEL 2
REMARK VINA RESULT:      -4.8      1.509      1.920
REMARK  1 active torsions:
REMARK  status: ('A' for Active; 'I' for Inactive)
REMARK    1  A    between atoms: C3_3  and  C9_9 
ROOT
HETATM    1  C1  UNL     1     -35.532  17.358  -5.433  1.00 20.00     0.013 C 
HETATM    2  C2  UNL     1     -35.036  16.639  -4.611  1.00 20.00    -0.099 C 
HETATM    3  C4  UNL     1     -33.683  17.462  -1.260  1.00 20.00     0.000 C 
HETATM    4  C5  UNL     1     -32.867  17.495  -2.546  1.00 20.00     0.002 C 
HETATM    5  C6  UNL     1     -35.136  17.090  -1.530  1.00 20.00     0.002 C 
HETATM    6  C7  UNL     1     -32.960  16.173  -3.309  1.00 20.00     0.030 C 
HETATM    7  C8  UNL     1     -35.249  15.765  -2.285  1.00 20.00     0.030 C 
HETATM    8  C9  UNL     1     -34.412  15.735  -3.577  1.00 20.00     0.083 C 
ENDROOT
BRANCH   8   9
HETATM    9  C3  UNL     1     -34.419  14.369  -4.137  1.00 20.00     0.143 C 
HETATM   10  C10 UNL     1     -35.764  13.722  -4.326  1.00 20.00     0.093 C 
HETATM   11  O11 UNL     1     -33.377  13.789  -4.437  1.00 20.00    -0.297 OA
ENDBRANCH   8   9
TORSDOF 1
ENDMDL
MODEL 3
REMARK VINA RESULT:      -4.6      0.999      2.046
REMARK  1 active torsions:
REMARK  status: ('A' for Active; 'I' for Inactive)
REMARK    1  A    between atoms: C3_3  and  C9_9 
ROOT
HETATM    1  C1  UNL     1     -32.439  14.214  -4.458  1.00 20.00     0.013 C 
HETATM    2  C2  UNL     1     -33.546  14.623  -4.237  1.00 20.00    -0.099 C 
HETATM    3  C4  UNL     1     -34.641  17.975  -3.094  1.00 20.00     0.000 C 
HETATM    4  C5  UNL     1     -34.265  16.831  -2.160  1.00 20.00     0.002 C 
HETATM    5  C6  UNL     1     -34.468  17.581  -4.556  1.00 20.00     0.002 C 
HETATM    6  C7  UNL     1     -35.050  15.558  -2.480  1.00 20.00     0.030 C 
HETATM    7  C8  UNL     1     -35.253  16.315  -4.898  1.00 20.00     0.030 C 
HETATM    8  C9  UNL     1     -34.935  15.137  -3.958  1.00 20.00     0.083 C 
ENDROOT
BRANCH   8   9
HETATM    9  C3  UNL     1     -35.869  14.025  -4.227  1.00 20.00     0.143 C 
HETATM   10  C10 UNL     1     -37.323  14.384  -4.377  1.00 20.00     0.093 C 
HETATM   11  O11 UNL     1     -35.478  12.863  -4.325  1.00 20.00    -0.297 OA
ENDBRANCH   8   9
TORSDOF 1
ENDMDL
MODEL 4
REMARK VINA RESULT:      -4.5      1.138      1.268
REMARK  1 active torsions:
REMARK  status: ('A' for Active; 'I' for Inactive)
REMARK    1  A    between atoms: C3_3  and  C9_9 
ROOT
HETATM    1  C1  UNL     1     -35.613  15.123  -7.402  1.00 20.00     0.013 C 
HETATM    2  C2  UNL     1     -35.745  15.134  -6.209  1.00 20.00    -0.099 C 
HETATM    3  C4  UNL     1     -33.256  15.861  -3.561  1.00 20.00     0.000 C 
HETATM    4  C5  UNL     1     -33.508  14.476  -4.144  1.00 20.00     0.002 C 
HETATM    5  C6  UNL     1     -34.125  16.916  -4.233  1.00 20.00     0.002 C 
HETATM    6  C7  UNL     1     -34.987  14.092  -4.073  1.00 20.00     0.030 C 
HETATM    7  C8  UNL     1     -35.609  16.554  -4.164  1.00 20.00     0.030 C 
HETATM    8  C9  UNL     1     -35.911  15.147  -4.710  1.00 20.00     0.083 C 
ENDROOT
BRANCH   8   9
HETATM    9  C3  UNL     1     -37.320  14.801  -4.429  1.00 20.00     0.143 C 
HETATM   10  C10 UNL     1     -38.254  15.946  -4.144  1.00 20.00     0.093 C 
HETATM   11  O11 UNL     1     -37.710  13.635  -4.430  1.00 20.00    -0.297 OA
ENDBRANCH   8   9
TORSDOF 1
ENDMDL
MODEL 5
REMARK VINA RESULT:      -4.5      1.288      3.528
REMARK  1 active torsions:
REMARK  status: ('A' for Active; 'I' for Inactive)
REMARK    1  A    between atoms: C3_3  and  C9_9 
ROOT
HETATM    1  C1  UNL     1     -35.118  16.338  -1.618  1.00 20.00     0.013 C 
HETATM    2  C2  UNL     1     -35.245  15.799  -2.683  1.00 20.00    -0.099 C 
HETATM    3  C4  UNL     1     -37.694  16.454  -5.386  1.00 20.00     0.000 C 
HETATM    4  C5  UNL     1     -37.929  15.487  -4.232  1.00 20.00     0.002 C 
HETATM    5  C6  UNL     1     -36.344  17.150  -5.265  1.00 20.00     0.002 C 
HETATM    6  C7  UNL     1     -36.797  14.466  -4.110  1.00 20.00     0.030 C 
HETATM    7  C8  UNL     1     -35.198  16.144  -5.151  1.00 20.00     0.030 C 
HETATM    8  C9  UNL     1     -35.406  15.121  -4.020  1.00 20.00     0.083 C 
ENDROOT
BRANCH   8   9
HETATM    9  C3  UNL     1     -34.364  14.077  -4.102  1.00 20.00     0.143 C 
HETATM   10  C10 UNL     1     -32.960  14.542  -4.382  1.00 20.00     0.093 C 
HETATM   11  O11 UNL     1     -34.630  12.886  -3.948  1.00 20.00    -0.297 OA
ENDBRANCH   8   9
TORSDOF 1
ENDMDL
MODEL 6
REMARK VINA RESULT:      -4.4      2.624      4.064
REMARK  1 active torsions:
REMARK  status: ('A' for Active; 'I' for Inactive)
REMARK    1  A    between atoms: C3_3  and  C9_9 
ROOT
HETATM    1  C1  UNL     1     -34.637  18.558  -4.753  1.00 20.00     0.013 C 
HETATM    2  C2  UNL     1     -34.345  17.755  -3.911  1.00 20.00    -0.099 C 
HETATM    3  C4  UNL     1     -34.693  14.065  -3.943  1.00 20.00     0.000 C 
HETATM    4  C5  UNL     1     -35.773  15.024  -3.457  1.00 20.00     0.002 C 
HETATM    5  C6  UNL     1     -33.469  14.815  -4.454  1.00 20.00     0.002 C 
HETATM    6  C7  UNL     1     -35.239  15.987  -2.396  1.00 20.00     0.030 C 
HETATM    7  C8  UNL     1     -32.915  15.777  -3.402  1.00 20.00     0.030 C 
HETATM    8  C9  UNL     1     -33.979  16.745  -2.853  1.00 20.00     0.083 C 
ENDROOT
BRANCH   8   9
HETATM    9  C3  UNL     1     -33.418  17.499  -1.713  1.00 20.00     0.143 C 
HETATM   10  C10 UNL     1     -34.343  17.766  -0.557  1.00 20.00     0.093 C 
HETATM   11  O11 UNL     1     -32.251  17.888  -1.708  1.00 20.00    -0.297 OA
ENDBRANCH   8   9
TORSDOF 1
ENDMDL
MODEL 7
REMARK VINA RESULT:      -4.2      1.664      3.472
REMARK  1 active torsions:
REMARK  status: ('A' for Active; 'I' for Inactive)
REMARK    1  A    between atoms: C3_3  and  C9_9 
ROOT
HETATM    1  C1  UNL     1     -34.021  15.173  -7.224  1.00 20.00     0.013 C 
HETATM    2  C2  UNL     1     -34.246  15.210  -6.046  1.00 20.00    -0.099 C 
HETATM    3  C4  UNL     1     -37.480  14.975  -4.250  1.00 20.00     0.000 C 
HETATM    4  C5  UNL     1     -36.869  16.279  -4.750  1.00 20.00     0.002 C 
HETATM    5  C6  UNL     1     -36.615  13.776  -4.621  1.00 20.00     0.002 C 
HETATM    6  C7  UNL     1     -35.436  16.461  -4.246  1.00 20.00     0.030 C 
HETATM    7  C8  UNL     1     -35.181  13.936  -4.117  1.00 20.00     0.030 C 
HETATM    8  C9  UNL     1     -34.530  15.258  -4.566  1.00 20.00     0.083 C 
ENDROOT
BRANCH   8   9
HETATM    9  C3  UNL     1     -33.231  15.425  -3.883  1.00 20.00     0.143 C 
HETATM   10  C10 UNL     1     -33.146  16.515  -2.849  1.00 20.00     0.093 C 
HETATM   11  O11 UNL     1     -32.267  14.707  -4.144  1.00 20.00    -0.297 OA
ENDBRANCH   8   9
TORSDOF 1
ENDMDL
MODEL 8
REMARK VINA RESULT:      -4.2      1.472      2.246
REMARK  1 active torsions:
REMARK  status: ('A' for Active; 'I' for Inactive)
REMARK    1  A    between atoms: C3_3  and  C9_9 
ROOT
HETATM    1  C1  UNL     1     -34.298  18.284  -6.005  1.00 20.00     0.013 C 
HETATM    2  C2  UNL     1     -34.533  17.181  -5.593  1.00 20.00    -0.099 C 
HETATM    3  C4  UNL     1     -34.962  16.002  -2.106  1.00 20.00     0.000 C 
HETATM    4  C5  UNL     1     -33.624  16.061  -2.833  1.00 20.00     0.002 C 
HETATM    5  C6  UNL     1     -36.095  16.529  -2.978  1.00 20.00     0.002 C 
HETATM    6  C7  UNL     1     -33.673  15.322  -4.170  1.00 20.00     0.030 C 
HETATM    7  C8  UNL     1     -36.166  15.795  -4.318  1.00 20.00     0.030 C 
HETATM    8  C9  UNL     1     -34.826  15.796  -5.076  1.00 20.00     0.083 C 
ENDROOT
BRANCH   8   9
HETATM    9  C3  UNL     1     -34.924  14.908  -6.252  1.00 20.00     0.143 C 
HETATM   10  C10 UNL     1     -33.862  15.061  -7.307  1.00 20.00     0.093 C 
HETATM   11  O11 UNL     1     -35.829  14.082  -6.363  1.00 20.00    -0.297 OA
ENDBRANCH   8   9
TORSDOF 1
ENDMDL
MODEL 9
REMARK VINA RESULT:      -4.2      1.477      1.844
REMARK  1 active torsions:
REMARK  status: ('A' for Active; 'I' for Inactive)
REMARK    1  A    between atoms: C3_3  and  C9_9 
ROOT
HETATM    1  C1  UNL     1     -36.322  17.993  -5.307  1.00 20.00     0.013 C 
HETATM    2  C2  UNL     1     -36.252  16.855  -4.932  1.00 20.00    -0.099 C 
HETATM    3  C4  UNL     1     -33.264  14.775  -4.237  1.00 20.00     0.000 C 
HETATM    4  C5  UNL     1     -33.937  14.880  -5.600  1.00 20.00     0.002 C 
HETATM    5  C6  UNL     1     -33.948  15.666  -3.207  1.00 20.00     0.002 C 
HETATM    6  C7  UNL     1     -35.433  14.573  -5.518  1.00 20.00     0.030 C 
HETATM    7  C8  UNL     1     -35.443  15.366  -3.104  1.00 20.00     0.030 C 
HETATM    8  C9  UNL     1     -36.164  15.425  -4.463  1.00 20.00     0.083 C 
ENDROOT
BRANCH   8   9
HETATM    9  C3  UNL     1     -37.549  14.935  -4.308  1.00 20.00     0.143 C 
HETATM   10  C10 UNL     1     -38.600  15.966  -3.995  1.00 20.00     0.093 C 
HETATM   11  O11 UNL     1     -37.830  13.744  -4.431  1.00 20.00    -0.297 OA
ENDBRANCH   8   9
TORSDOF 1
ENDMDL
