MODEL 1
REMARK VINA RESULT:      -4.4      0.000      0.000
REMARK  1 active torsions:
REMARK  status: ('A' for Active; 'I' for Inactive)
REMARK    1  A    between atoms: C1_1  and  C4_4 
ROOT
HETATM    1  C2  UNL     1     -33.601  14.778  -4.096  1.00 20.00     0.038 C 
HETATM    2  C3  UNL     1     -35.039  16.219  -4.753  1.00 20.00     0.038 C 
HETATM    3  C4  UNL     1     -34.858  14.702  -4.994  1.00 20.00     0.076 C 
HETATM    4  C5  UNL     1     -34.152  16.094  -3.484  1.00 20.00     0.035 C 
HETATM    5  C6  UNL     1     -33.100  17.197  -3.371  1.00 20.00     0.032 C 
HETATM    6 CL9  UNL     1     -35.045  15.911  -1.930  1.00 20.00    -0.120 Cl
ENDROOT
BRANCH   3   7
HETATM    7  C1  UNL     1     -35.994  13.769  -4.553  1.00 20.00     0.223 C 
HETATM    8  O7  UNL     1     -35.829  12.558  -4.443  1.00 20.00    -0.279 OA
HETATM    9 CL8  UNL     1     -37.470  14.634  -4.250  1.00 20.00    -0.043 Cl
ENDBRANCH   3   7
TORSDOF 1
ENDMDL
MODEL 2
REMARK VINA RESULT:      -4.4      1.706      1.905
REMARK  1 active torsions:
REMARK  status: ('A' for Active; 'I' for Inactive)
REMARK    1  A    between atoms: C1_1  and  C4_4 
ROOT
HETATM    1  C2  UNL     1     -35.143  15.287  -2.802  1.00 20.00     0.038 C 
HETATM    2  C3  UNL     1     -33.744  14.722  -4.319  1.00 20.00     0.038 C 
HETATM    3  C4  UNL     1     -35.082  14.127  -3.823  1.00 20.00     0.076 C 
HETATM    4  C5  UNL     1     -34.149  16.084  -3.691  1.00 20.00     0.035 C 
HETATM    5  C6  UNL     1     -33.023  16.744  -2.899  1.00 20.00     0.032 C 
HETATM    6 CL9  UNL     1     -34.902  17.265  -4.825  1.00 20.00    -0.120 Cl
ENDROOT
BRANCH   3   7
HETATM    7  C1  UNL     1     -36.229  14.008  -4.836  1.00 20.00     0.223 C 
HETATM    8  O7  UNL     1     -37.361  13.678  -4.495  1.00 20.00    -0.279 OA
HETATM    9 CL8  UNL     1     -35.716  14.389  -6.453  1.00 20.00    -0.043 Cl
ENDBRANCH   3   7
TORSDOF 1
ENDMDL
MODEL 3
REMARK VINA RESULT:      -4.2      1.479      1.706
REMARK  1 active torsions:
REMARK  status: ('A' for Active; 'I' for Inactive)
REMARK    1  A    between atoms: C1_1  and  C4_4 
ROOT
HETATM    1  C2  UNL     1     -35.137  15.350  -2.872  1.00 20.00     0.038 C 
HETATM    2  C3  UNL     1     -33.687  14.684  -4.296  1.00 20.00     0.038 C 
HETATM    3  C4  UNL     1     -35.074  14.161  -3.858  1.00 20.00     0.076 C 
HETATM    4  C5  UNL     1     -34.064  16.078  -3.726  1.00 20.00     0.035 C 
HETATM    5  C6  UNL     1     -32.953  16.712  -2.891  1.00 20.00     0.032 C 
HETATM    6 CL9  UNL     1     -34.702  17.258  -4.929  1.00 20.00    -0.120 Cl
ENDROOT
BRANCH   3   7
HETATM    7  C1  UNL     1     -36.170  14.063  -4.929  1.00 20.00     0.223 C 
HETATM    8  O7  UNL     1     -35.915  13.748  -6.087  1.00 20.00    -0.279 OA
HETATM    9 CL8  UNL     1     -37.742  14.444  -4.293  1.00 20.00    -0.043 Cl
ENDBRANCH   3   7
TORSDOF 1
ENDMDL
MODEL 4
REMARK VINA RESULT:      -4.2      1.748      1.959
REMARK  1 active torsions:
REMARK  status: ('A' for Active; 'I' for Inactive)
REMARK    1  A    between atoms: C1_1  and  C4_4 
ROOT
HETATM    1  C2  UNL     1     -34.807  16.382  -4.583  1.00 20.00     0.038 C 
HETATM    2  C3  UNL     1     -34.988  15.135  -2.855  1.00 20.00     0.038 C 
HETATM    3  C4  UNL     1     -35.805  15.279  -4.160  1.00 20.00     0.076 C 
HETATM    4  C5  UNL     1     -33.783  15.805  -3.568  1.00 20.00     0.035 C 
HETATM    5  C6  UNL     1     -33.099  16.878  -2.721  1.00 20.00     0.032 C 
HETATM    6 CL9  UNL     1     -32.564  14.672  -4.258  1.00 20.00    -0.120 Cl
ENDROOT
BRANCH   3   7
HETATM    7  C1  UNL     1     -35.929  14.045  -5.064  1.00 20.00     0.223 C 
HETATM    8  O7  UNL     1     -36.109  12.922  -4.603  1.00 20.00    -0.279 OA
HETATM    9 CL8  UNL     1     -35.783  14.450  -6.748  1.00 20.00    -0.043 Cl
ENDBRANCH   3   7
TORSDOF 1
ENDMDL
MODEL 5
REMARK VINA RESULT:      -3.9     18.179     18.883
REMARK  1 active torsions:
REMARK  status: ('A' for Active; 'I' for Inactive)
REMARK    1  A    between atoms: C1_1  and  C4_4 
ROOT
HETATM    1  C2  UNL     1     -23.563  16.563  10.078  1.00 20.00     0.038 C 
HETATM    2  C3  UNL     1     -23.642  18.698   9.965  1.00 20.00     0.038 C 
HETATM    3  C4  UNL     1     -24.694  17.602  10.257  1.00 20.00     0.076 C 
HETATM    4  C5  UNL     1     -22.525  17.688  10.345  1.00 20.00     0.035 C 
HETATM    5  C6  UNL     1     -21.356  17.680   9.362  1.00 20.00     0.032 C 
HETATM    6 CL9  UNL     1     -21.926  17.800  12.041  1.00 20.00    -0.120 Cl
ENDROOT
BRANCH   3   7
HETATM    7  C1  UNL     1     -25.413  17.647  11.613  1.00 20.00     0.223 C 
HETATM    8  O7  UNL     1     -25.497  16.656  12.332  1.00 20.00    -0.279 OA
HETATM    9 CL8  UNL     1     -26.058  19.223  11.959  1.00 20.00    -0.043 Cl
ENDBRANCH   3   7
TORSDOF 1
ENDMDL
MODEL 6
REMARK VINA RESULT:      -3.8     10.301     11.534
REMARK  1 active torsions:
REMARK  status: ('A' for Active; 'I' for Inactive)
REMARK    1  A    between atoms: C1_1  and  C4_4 
ROOT
HETATM    1  C2  UNL     1     -40.926   7.009   0.684  1.00 20.00     0.038 C 
HETATM    2  C3  UNL     1     -41.523   7.626  -1.275  1.00 20.00     0.038 C 
HETATM    3  C4  UNL     1     -41.266   6.249  -0.619  1.00 20.00     0.076 C 
HETATM    4  C5  UNL     1     -41.711   8.234   0.141  1.00 20.00     0.035 C 
HETATM    5  C6  UNL     1     -40.975   9.559   0.333  1.00 20.00     0.032 C 
HETATM    6 CL9  UNL     1     -43.417   8.371   0.704  1.00 20.00    -0.120 Cl
ENDROOT
BRANCH   3   7
HETATM    7  C1  UNL     1     -42.429   5.249  -0.579  1.00 20.00     0.223 C 
HETATM    8  O7  UNL     1     -42.892   4.755  -1.603  1.00 20.00    -0.279 OA
HETATM    9 CL8  UNL     1     -42.968   4.937   1.044  1.00 20.00    -0.043 Cl
ENDBRANCH   3   7
TORSDOF 1
ENDMDL
MODEL 7
REMARK VINA RESULT:      -3.7     10.490     11.833
REMARK  1 active torsions:
REMARK  status: ('A' for Active; 'I' for Inactive)
REMARK    1  A    between atoms: C1_1  and  C4_4 
ROOT
HETATM    1  C2  UNL     1     -43.258   6.885  -1.529  1.00 20.00     0.038 C 
HETATM    2  C3  UNL     1     -41.164   6.783  -1.106  1.00 20.00     0.038 C 
HETATM    3  C4  UNL     1     -42.179   7.945  -1.210  1.00 20.00     0.076 C 
HETATM    4  C5  UNL     1     -42.349   5.805  -0.880  1.00 20.00     0.035 C 
HETATM    5  C6  UNL     1     -42.244   4.525  -1.707  1.00 20.00     0.032 C 
HETATM    6 CL9  UNL     1     -42.716   5.417   0.841  1.00 20.00    -0.120 Cl
ENDROOT
BRANCH   3   7
HETATM    7  C1  UNL     1     -42.387   8.824   0.031  1.00 20.00     0.223 C 
HETATM    8  O7  UNL     1     -43.414   8.763   0.700  1.00 20.00    -0.279 OA
HETATM    9 CL8  UNL     1     -41.027   9.863   0.332  1.00 20.00    -0.043 Cl
ENDBRANCH   3   7
TORSDOF 1
ENDMDL
MODEL 8
REMARK VINA RESULT:      -3.7      2.025      2.319
REMARK  1 active torsions:
REMARK  status: ('A' for Active; 'I' for Inactive)
REMARK    1  A    between atoms: C1_1  and  C4_4 
ROOT
HETATM    1  C2  UNL     1     -34.936  15.921  -2.310  1.00 20.00     0.038 C 
HETATM    2  C3  UNL     1     -33.160  15.760  -3.491  1.00 20.00     0.038 C 
HETATM    3  C4  UNL     1     -34.474  14.949  -3.420  1.00 20.00     0.076 C 
HETATM    4  C5  UNL     1     -33.893  16.953  -2.820  1.00 20.00     0.035 C 
HETATM    5  C6  UNL     1     -33.087  17.605  -1.698  1.00 20.00     0.032 C 
HETATM    6 CL9  UNL     1     -34.531  18.204  -3.949  1.00 20.00    -0.120 Cl
ENDROOT
BRANCH   3   7
HETATM    7  C1  UNL     1     -35.329  14.861  -4.692  1.00 20.00     0.223 C 
HETATM    8  O7  UNL     1     -36.550  14.747  -4.643  1.00 20.00    -0.279 OA
HETATM    9 CL8  UNL     1     -34.364  14.940  -6.135  1.00 20.00    -0.043 Cl
ENDBRANCH   3   7
TORSDOF 1
ENDMDL
MODEL 9
REMARK VINA RESULT:      -3.7      2.064      3.638
REMARK  1 active torsions:
REMARK  status: ('A' for Active; 'I' for Inactive)
REMARK    1  A    between atoms: C1_1  and  C4_4 
ROOT
HETATM    1  C2  UNL     1     -36.189  13.612  -4.595  1.00 20.00     0.038 C 
HETATM    2  C3  UNL     1     -36.149  15.362  -3.366  1.00 20.00     0.038 C 
HETATM    3  C4  UNL     1     -35.086  14.313  -3.768  1.00 20.00     0.076 C 
HETATM    4  C5  UNL     1     -36.990  14.943  -4.602  1.00 20.00     0.035 C 
HETATM    5  C6  UNL     1     -38.474  14.758  -4.289  1.00 20.00     0.032 C 
HETATM    6 CL9  UNL     1     -36.775  15.968  -6.068  1.00 20.00    -0.120 Cl
ENDROOT
BRANCH   3   7
HETATM    7  C1  UNL     1     -33.841  14.809  -4.515  1.00 20.00     0.223 C 
HETATM    8  O7  UNL     1     -33.581  14.437  -5.655  1.00 20.00    -0.279 OA
HETATM    9 CL8  UNL     1     -32.901  15.914  -3.557  1.00 20.00    -0.043 Cl
ENDBRANCH   3   7
TORSDOF 1
ENDMDL
