MODEL 1
REMARK VINA RESULT:      -5.2      0.000      0.000
REMARK  1 active torsions:
REMARK  status: ('A' for Active; 'I' for Inactive)
REMARK    1  A    between atoms: C3_3  and  C8_8 
ROOT
HETATM    1  C1  UNL     1     -33.214  16.145  -3.059  1.00 20.00    -0.025 C 
HETATM    2  C2  UNL     1     -32.866  15.301  -4.042  1.00 20.00    -0.022 C 
HETATM    3  C4  UNL     1     -34.674  16.514  -4.814  1.00 20.00     0.021 C 
HETATM    4  C5  UNL     1     -35.528  15.271  -2.969  1.00 20.00     0.063 C 
HETATM    5  C6  UNL     1     -34.661  16.516  -3.281  1.00 20.00     0.012 C 
HETATM    6  C7  UNL     1     -34.087  15.101  -4.911  1.00 20.00     0.059 C 
HETATM    7  C8  UNL     1     -35.122  14.286  -4.100  1.00 20.00     0.202 C 
HETATM    8  F11 UNL     1     -34.535  13.181  -3.571  1.00 20.00    -0.231 F 
ENDROOT
BRANCH   7   9
HETATM    9  C3  UNL     1     -36.281  13.882  -4.959  1.00 20.00     0.338 C 
HETATM   10  O9  UNL     1     -37.410  13.655  -4.551  1.00 20.00    -0.256 OA
HETATM   11  F10 UNL     1     -36.076  13.799  -6.281  1.00 20.00    -0.161 F 
ENDBRANCH   7   9
TORSDOF 1
ENDMDL
MODEL 2
REMARK VINA RESULT:      -5.1      1.437      2.076
REMARK  1 active torsions:
REMARK  status: ('A' for Active; 'I' for Inactive)
REMARK    1  A    between atoms: C3_3  and  C8_8 
ROOT
HETATM    1  C1  UNL     1     -33.585  17.079  -3.809  1.00 20.00    -0.025 C 
HETATM    2  C2  UNL     1     -34.814  17.304  -4.298  1.00 20.00    -0.022 C 
HETATM    3  C4  UNL     1     -35.058  15.837  -2.530  1.00 20.00     0.021 C 
HETATM    4  C5  UNL     1     -33.774  14.633  -4.137  1.00 20.00     0.063 C 
HETATM    5  C6  UNL     1     -33.630  15.756  -3.081  1.00 20.00     0.012 C 
HETATM    6  C7  UNL     1     -35.673  16.123  -3.906  1.00 20.00     0.059 C 
HETATM    7  C8  UNL     1     -35.193  14.894  -4.714  1.00 20.00     0.202 C 
HETATM    8  F11 UNL     1     -35.113  15.206  -6.033  1.00 20.00    -0.231 F 
ENDROOT
BRANCH   7   9
HETATM    9  C3  UNL     1     -36.118  13.730  -4.524  1.00 20.00     0.338 C 
HETATM   10  O9  UNL     1     -35.774  12.559  -4.501  1.00 20.00    -0.256 OA
HETATM   11  F10 UNL     1     -37.417  13.995  -4.326  1.00 20.00    -0.161 F 
ENDBRANCH   7   9
TORSDOF 1
ENDMDL
MODEL 3
REMARK VINA RESULT:      -4.9     10.453     11.641
REMARK  1 active torsions:
REMARK  status: ('A' for Active; 'I' for Inactive)
REMARK    1  A    between atoms: C3_3  and  C8_8 
ROOT
HETATM    1  C1  UNL     1     -41.949   4.887  -1.423  1.00 20.00    -0.025 C 
HETATM    2  C2  UNL     1     -40.844   5.496  -0.966  1.00 20.00    -0.022 C 
HETATM    3  C4  UNL     1     -42.498   5.845   0.609  1.00 20.00     0.021 C 
HETATM    4  C5  UNL     1     -43.276   6.975  -1.340  1.00 20.00     0.063 C 
HETATM    5  C6  UNL     1     -43.131   5.549  -0.755  1.00 20.00     0.012 C 
HETATM    6  C7  UNL     1     -41.293   6.571  -0.003  1.00 20.00     0.059 C 
HETATM    7  C8  UNL     1     -41.993   7.683  -0.821  1.00 20.00     0.202 C 
HETATM    8  F11 UNL     1     -41.209   8.057  -1.865  1.00 20.00    -0.231 F 
ENDROOT
BRANCH   7   9
HETATM    9  C3  UNL     1     -42.296   8.873   0.038  1.00 20.00     0.338 C 
HETATM   10  O9  UNL     1     -43.417   9.259   0.329  1.00 20.00    -0.256 OA
HETATM   11  F10 UNL     1     -41.259   9.543   0.559  1.00 20.00    -0.161 F 
ENDBRANCH   7   9
TORSDOF 1
ENDMDL
MODEL 4
REMARK VINA RESULT:      -4.9      1.343      1.919
REMARK  1 active torsions:
REMARK  status: ('A' for Active; 'I' for Inactive)
REMARK    1  A    between atoms: C3_3  and  C8_8 
ROOT
HETATM    1  C1  UNL     1     -34.413  17.243  -2.838  1.00 20.00    -0.025 C 
HETATM    2  C2  UNL     1     -34.844  16.175  -2.151  1.00 20.00    -0.022 C 
HETATM    3  C4  UNL     1     -33.461  15.379  -3.822  1.00 20.00     0.021 C 
HETATM    4  C5  UNL     1     -35.295  16.368  -4.979  1.00 20.00     0.063 C 
HETATM    5  C6  UNL     1     -34.008  16.757  -4.210  1.00 20.00     0.012 C 
HETATM    6  C7  UNL     1     -34.738  14.979  -3.070  1.00 20.00     0.059 C 
HETATM    7  C8  UNL     1     -35.804  15.135  -4.181  1.00 20.00     0.202 C 
HETATM    8  F11 UNL     1     -37.016  15.402  -3.630  1.00 20.00    -0.231 F 
ENDROOT
BRANCH   7   9
HETATM    9  C3  UNL     1     -35.890  13.898  -5.021  1.00 20.00     0.338 C 
HETATM   10  O9  UNL     1     -35.991  12.761  -4.586  1.00 20.00    -0.256 OA
HETATM   11  F10 UNL     1     -35.897  14.050  -6.353  1.00 20.00    -0.161 F 
ENDBRANCH   7   9
TORSDOF 1
ENDMDL
MODEL 5
REMARK VINA RESULT:      -4.8     10.332     11.455
REMARK  1 active torsions:
REMARK  status: ('A' for Active; 'I' for Inactive)
REMARK    1  A    between atoms: C3_3  and  C8_8 
ROOT
HETATM    1  C1  UNL     1     -42.175   9.084   0.413  1.00 20.00    -0.025 C 
HETATM    2  C2  UNL     1     -41.128   8.759  -0.360  1.00 20.00    -0.022 C 
HETATM    3  C4  UNL     1     -43.018   7.978  -1.435  1.00 20.00     0.021 C 
HETATM    4  C5  UNL     1     -42.922   6.731   0.594  1.00 20.00     0.063 C 
HETATM    5  C6  UNL     1     -43.298   8.137   0.064  1.00 20.00     0.012 C 
HETATM    6  C7  UNL     1     -41.551   7.586  -1.215  1.00 20.00     0.059 C 
HETATM    7  C8  UNL     1     -41.703   6.353  -0.293  1.00 20.00     0.202 C 
HETATM    8  F11 UNL     1     -40.592   6.206   0.475  1.00 20.00    -0.231 F 
ENDROOT
BRANCH   7   9
HETATM    9  C3  UNL     1     -41.934   5.107  -1.094  1.00 20.00     0.338 C 
HETATM   10  O9  UNL     1     -43.018   4.567  -1.251  1.00 20.00    -0.256 OA
HETATM   11  F10 UNL     1     -40.879   4.565  -1.717  1.00 20.00    -0.161 F 
ENDBRANCH   7   9
TORSDOF 1
ENDMDL
MODEL 6
REMARK VINA RESULT:      -4.7      1.712      2.225
REMARK  1 active torsions:
REMARK  status: ('A' for Active; 'I' for Inactive)
REMARK    1  A    between atoms: C3_3  and  C8_8 
ROOT
HETATM    1  C1  UNL     1     -34.272  17.027  -2.390  1.00 20.00    -0.025 C 
HETATM    2  C2  UNL     1     -34.936  15.870  -2.248  1.00 20.00    -0.022 C 
HETATM    3  C4  UNL     1     -33.148  15.444  -3.647  1.00 20.00     0.021 C 
HETATM    4  C5  UNL     1     -34.500  16.991  -4.854  1.00 20.00     0.063 C 
HETATM    5  C6  UNL     1     -33.492  16.937  -3.680  1.00 20.00     0.012 C 
HETATM    6  C7  UNL     1     -34.608  15.016  -3.452  1.00 20.00     0.059 C 
HETATM    7  C8  UNL     1     -35.279  15.657  -4.689  1.00 20.00     0.202 C 
HETATM    8  F11 UNL     1     -36.589  15.908  -4.432  1.00 20.00    -0.231 F 
ENDROOT
BRANCH   7   9
HETATM    9  C3  UNL     1     -35.160  14.766  -5.888  1.00 20.00     0.338 C 
HETATM   10  O9  UNL     1     -35.952  13.886  -6.188  1.00 20.00    -0.256 OA
HETATM   11  F10 UNL     1     -34.127  14.972  -6.716  1.00 20.00    -0.161 F 
ENDBRANCH   7   9
TORSDOF 1
ENDMDL
MODEL 7
REMARK VINA RESULT:      -4.7      1.552      1.766
REMARK  1 active torsions:
REMARK  status: ('A' for Active; 'I' for Inactive)
REMARK    1  A    between atoms: C3_3  and  C8_8 
ROOT
HETATM    1  C1  UNL     1     -34.005  16.235  -2.287  1.00 20.00    -0.025 C 
HETATM    2  C2  UNL     1     -33.321  16.730  -3.330  1.00 20.00    -0.022 C 
HETATM    3  C4  UNL     1     -35.549  16.709  -3.942  1.00 20.00     0.021 C 
HETATM    4  C5  UNL     1     -34.985  14.412  -3.644  1.00 20.00     0.063 C 
HETATM    5  C6  UNL     1     -35.305  15.687  -2.825  1.00 20.00     0.012 C 
HETATM    6  C7  UNL     1     -34.162  16.499  -4.565  1.00 20.00     0.059 C 
HETATM    7  C8  UNL     1     -34.185  14.979  -4.850  1.00 20.00     0.202 C 
HETATM    8  F11 UNL     1     -32.920  14.485  -4.847  1.00 20.00    -0.231 F 
ENDROOT
BRANCH   7   9
HETATM    9  C3  UNL     1     -34.839  14.688  -6.166  1.00 20.00     0.338 C 
HETATM   10  O9  UNL     1     -35.859  14.031  -6.312  1.00 20.00    -0.256 OA
HETATM   11  F10 UNL     1     -34.287  15.219  -7.265  1.00 20.00    -0.161 F 
ENDBRANCH   7   9
TORSDOF 1
ENDMDL
MODEL 8
REMARK VINA RESULT:      -4.5      1.942      2.735
REMARK  1 active torsions:
REMARK  status: ('A' for Active; 'I' for Inactive)
REMARK    1  A    between atoms: C3_3  and  C8_8 
ROOT
HETATM    1  C1  UNL     1     -35.810  17.196  -2.271  1.00 20.00    -0.025 C 
HETATM    2  C2  UNL     1     -35.010  16.284  -1.700  1.00 20.00    -0.022 C 
HETATM    3  C4  UNL     1     -33.740  17.385  -3.285  1.00 20.00     0.021 C 
HETATM    4  C5  UNL     1     -35.437  16.275  -4.538  1.00 20.00     0.063 C 
HETATM    5  C6  UNL     1     -35.229  17.512  -3.629  1.00 20.00     0.012 C 
HETATM    6  C7  UNL     1     -33.902  15.983  -2.684  1.00 20.00     0.059 C 
HETATM    7  C8  UNL     1     -34.518  15.212  -3.875  1.00 20.00     0.202 C 
HETATM    8  F11 UNL     1     -35.260  14.169  -3.422  1.00 20.00    -0.231 F 
ENDROOT
BRANCH   7   9
HETATM    9  C3  UNL     1     -33.452  14.710  -4.801  1.00 20.00     0.338 C 
HETATM   10  O9  UNL     1     -33.596  14.522  -5.999  1.00 20.00    -0.256 OA
HETATM   11  F10 UNL     1     -32.235  14.487  -4.285  1.00 20.00    -0.161 F 
ENDBRANCH   7   9
TORSDOF 1
ENDMDL
MODEL 9
REMARK VINA RESULT:      -4.4     10.836     11.801
REMARK  1 active torsions:
REMARK  status: ('A' for Active; 'I' for Inactive)
REMARK    1  A    between atoms: C3_3  and  C8_8 
ROOT
HETATM    1  C1  UNL     1     -42.275   8.760   0.367  1.00 20.00    -0.025 C 
HETATM    2  C2  UNL     1     -43.276   7.883   0.542  1.00 20.00    -0.022 C 
HETATM    3  C4  UNL     1     -41.309   6.740   0.944  1.00 20.00     0.021 C 
HETATM    4  C5  UNL     1     -41.187   7.355  -1.355  1.00 20.00     0.063 C 
HETATM    5  C6  UNL     1     -41.031   7.962   0.061  1.00 20.00     0.012 C 
HETATM    6  C7  UNL     1     -42.698   6.501   0.339  1.00 20.00     0.059 C 
HETATM    7  C8  UNL     1     -42.352   6.344  -1.161  1.00 20.00     0.202 C 
HETATM    8  F11 UNL     1     -43.415   6.702  -1.925  1.00 20.00    -0.231 F 
ENDROOT
BRANCH   7   9
HETATM    9  C3  UNL     1     -41.952   4.934  -1.477  1.00 20.00     0.338 C 
HETATM   10  O9  UNL     1     -42.723   4.045  -1.803  1.00 20.00    -0.256 OA
HETATM   11  F10 UNL     1     -40.647   4.634  -1.435  1.00 20.00    -0.161 F 
ENDBRANCH   7   9
TORSDOF 1
ENDMDL
