MODEL 1
REMARK VINA RESULT:      -4.9      0.000      0.000
REMARK  1 active torsions:
REMARK  status: ('A' for Active; 'I' for Inactive)
REMARK    1  A    between atoms: C2_2  and  C3_3 
ROOT
HETATM    1  C1  UNL     1     -33.934  14.738  -4.129  1.00 20.00    -0.011 C 
HETATM    2  C2  UNL     1     -35.273  14.782  -4.162  1.00 20.00    -0.019 C 
HETATM    3  C4  UNL     1     -33.846  16.326  -2.280  1.00 20.00     0.010 C 
HETATM    4  C5  UNL     1     -35.402  16.363  -2.322  1.00 20.00     0.011 C 
HETATM    5  C6  UNL     1     -33.473  16.142  -3.773  1.00 20.00     0.017 C 
HETATM    6  C7  UNL     1     -35.705  16.193  -3.833  1.00 20.00     0.030 C 
HETATM    7  C8  UNL     1     -34.553  16.986  -4.508  1.00 20.00    -0.033 C 
HETATM    8  C9  UNL     1     -34.513  16.874  -6.050  1.00 20.00     0.016 C 
HETATM    9  C10 UNL     1     -34.527  18.492  -4.184  1.00 20.00     0.016 C 
ENDROOT
BRANCH   2  10
HETATM   10  C3  UNL     1     -36.152  13.668  -4.448  1.00 20.00     0.265 C 
HETATM   11  O11 UNL     1     -35.774  12.492  -4.454  1.00 20.00    -0.302 OA
ENDBRANCH   2  10
TORSDOF 1
ENDMDL
MODEL 2
REMARK VINA RESULT:      -4.6      1.443      2.356
REMARK  1 active torsions:
REMARK  status: ('A' for Active; 'I' for Inactive)
REMARK    1  A    between atoms: C2_2  and  C3_3 
ROOT
HETATM    1  C1  UNL     1     -35.861  16.018  -5.391  1.00 20.00    -0.011 C 
HETATM    2  C2  UNL     1     -36.390  15.401  -4.325  1.00 20.00    -0.019 C 
HETATM    3  C4  UNL     1     -33.735  14.856  -5.110  1.00 20.00     0.010 C 
HETATM    4  C5  UNL     1     -34.363  14.139  -3.877  1.00 20.00     0.011 C 
HETATM    5  C6  UNL     1     -34.397  16.256  -5.058  1.00 20.00     0.017 C 
HETATM    6  C7  UNL     1     -35.299  15.228  -3.292  1.00 20.00     0.030 C 
HETATM    7  C8  UNL     1     -34.499  16.537  -3.531  1.00 20.00    -0.033 C 
HETATM    8  C9  UNL     1     -35.263  17.832  -3.168  1.00 20.00     0.016 C 
HETATM    9  C10 UNL     1     -33.147  16.613  -2.797  1.00 20.00     0.016 C 
ENDROOT
BRANCH   2  10
HETATM   10  C3  UNL     1     -37.764  14.964  -4.192  1.00 20.00     0.265 C 
HETATM   11  O11 UNL     1     -38.133  13.809  -4.426  1.00 20.00    -0.302 OA
ENDBRANCH   2  10
TORSDOF 1
ENDMDL
MODEL 3
REMARK VINA RESULT:      -4.6      0.832      2.464
REMARK  1 active torsions:
REMARK  status: ('A' for Active; 'I' for Inactive)
REMARK    1  A    between atoms: C2_2  and  C3_3 
ROOT
HETATM    1  C1  UNL     1     -36.304  16.123  -4.373  1.00 20.00    -0.011 C 
HETATM    2  C2  UNL     1     -35.754  14.906  -4.256  1.00 20.00    -0.019 C 
HETATM    3  C4  UNL     1     -34.261  17.041  -5.342  1.00 20.00     0.010 C 
HETATM    4  C5  UNL     1     -33.636  15.620  -5.207  1.00 20.00     0.011 C 
HETATM    5  C6  UNL     1     -35.188  17.119  -4.102  1.00 20.00     0.017 C 
HETATM    6  C7  UNL     1     -34.292  15.082  -3.910  1.00 20.00     0.030 C 
HETATM    7  C8  UNL     1     -34.382  16.349  -3.017  1.00 20.00    -0.033 C 
HETATM    8  C9  UNL     1     -35.140  16.142  -1.684  1.00 20.00     0.016 C 
HETATM    9  C10 UNL     1     -33.026  16.980  -2.649  1.00 20.00     0.016 C 
ENDROOT
BRANCH   2  10
HETATM   10  C3  UNL     1     -36.439  13.645  -4.441  1.00 20.00     0.265 C 
HETATM   11  O11 UNL     1     -35.855  12.558  -4.490  1.00 20.00    -0.302 OA
ENDBRANCH   2  10
TORSDOF 1
ENDMDL
MODEL 4
REMARK VINA RESULT:      -4.5      1.117      1.128
REMARK  1 active torsions:
REMARK  status: ('A' for Active; 'I' for Inactive)
REMARK    1  A    between atoms: C2_2  and  C3_3 
ROOT
HETATM    1  C1  UNL     1     -34.430  15.202  -4.962  1.00 20.00    -0.011 C 
HETATM    2  C2  UNL     1     -35.560  14.888  -4.313  1.00 20.00    -0.019 C 
HETATM    3  C4  UNL     1     -33.471  16.227  -2.966  1.00 20.00     0.010 C 
HETATM    4  C5  UNL     1     -34.786  15.850  -2.220  1.00 20.00     0.011 C 
HETATM    5  C6  UNL     1     -33.975  16.539  -4.399  1.00 20.00     0.017 C 
HETATM    6  C7  UNL     1     -35.860  15.997  -3.329  1.00 20.00     0.030 C 
HETATM    7  C8  UNL     1     -35.351  17.218  -4.143  1.00 20.00    -0.033 C 
HETATM    8  C9  UNL     1     -36.164  17.518  -5.424  1.00 20.00     0.016 C 
HETATM    9  C10 UNL     1     -35.283  18.539  -3.355  1.00 20.00     0.016 C 
ENDROOT
BRANCH   2  10
HETATM   10  C3  UNL     1     -36.346  13.690  -4.510  1.00 20.00     0.265 C 
HETATM   11  O11 UNL     1     -37.581  13.677  -4.479  1.00 20.00    -0.302 OA
ENDBRANCH   2  10
TORSDOF 1
ENDMDL
MODEL 5
REMARK VINA RESULT:      -4.5      2.627      3.947
REMARK  1 active torsions:
REMARK  status: ('A' for Active; 'I' for Inactive)
REMARK    1  A    between atoms: C2_2  and  C3_3 
ROOT
HETATM    1  C1  UNL     1     -33.511  17.653  -3.940  1.00 20.00    -0.011 C 
HETATM    2  C2  UNL     1     -33.250  17.263  -2.684  1.00 20.00    -0.019 C 
HETATM    3  C4  UNL     1     -35.857  17.015  -3.736  1.00 20.00     0.010 C 
HETATM    4  C5  UNL     1     -35.543  16.573  -2.276  1.00 20.00     0.011 C 
HETATM    5  C6  UNL     1     -34.541  16.675  -4.481  1.00 20.00     0.017 C 
HETATM    6  C7  UNL     1     -34.090  16.042  -2.387  1.00 20.00     0.030 C 
HETATM    7  C8  UNL     1     -34.076  15.364  -3.784  1.00 20.00    -0.033 C 
HETATM    8  C9  UNL     1     -32.687  14.857  -4.238  1.00 20.00     0.016 C 
HETATM    9  C10 UNL     1     -35.041  14.173  -3.937  1.00 20.00     0.016 C 
ENDROOT
BRANCH   2  10
HETATM   10  C3  UNL     1     -32.332  17.908  -1.770  1.00 20.00     0.265 C 
HETATM   11  O11 UNL     1     -31.773  18.981  -2.016  1.00 20.00    -0.302 OA
ENDBRANCH   2  10
TORSDOF 1
ENDMDL
MODEL 6
REMARK VINA RESULT:      -4.5      1.346      2.817
REMARK  1 active torsions:
REMARK  status: ('A' for Active; 'I' for Inactive)
REMARK    1  A    between atoms: C2_2  and  C3_3 
ROOT
HETATM    1  C1  UNL     1     -36.517  16.917  -4.358  1.00 20.00    -0.011 C 
HETATM    2  C2  UNL     1     -36.697  15.594  -4.231  1.00 20.00    -0.019 C 
HETATM    3  C4  UNL     1     -34.563  16.596  -5.782  1.00 20.00     0.010 C 
HETATM    4  C5  UNL     1     -34.786  15.062  -5.634  1.00 20.00     0.011 C 
HETATM    5  C6  UNL     1     -35.014  17.136  -4.401  1.00 20.00     0.017 C 
HETATM    6  C7  UNL     1     -35.336  14.936  -4.190  1.00 20.00     0.030 C 
HETATM    7  C8  UNL     1     -34.539  16.026  -3.421  1.00 20.00    -0.033 C 
HETATM    8  C9  UNL     1     -34.986  16.233  -1.955  1.00 20.00     0.016 C 
HETATM    9  C10 UNL     1     -33.015  15.806  -3.381  1.00 20.00     0.016 C 
ENDROOT
BRANCH   2  10
HETATM   10  C3  UNL     1     -37.973  14.915  -4.161  1.00 20.00     0.265 C 
HETATM   11  O11 UNL     1     -38.122  13.722  -4.444  1.00 20.00    -0.302 OA
ENDBRANCH   2  10
TORSDOF 1
ENDMDL
MODEL 7
REMARK VINA RESULT:      -4.4     16.433     18.200
REMARK  1 active torsions:
REMARK  status: ('A' for Active; 'I' for Inactive)
REMARK    1  A    between atoms: C2_2  and  C3_3 
ROOT
HETATM    1  C1  UNL     1     -23.903  16.829   9.021  1.00 20.00    -0.011 C 
HETATM    2  C2  UNL     1     -24.116  18.153   8.984  1.00 20.00    -0.019 C 
HETATM    3  C4  UNL     1     -24.843  16.659  11.265  1.00 20.00     0.010 C 
HETATM    4  C5  UNL     1     -25.092  18.195  11.208  1.00 20.00     0.011 C 
HETATM    5  C6  UNL     1     -23.530  16.501  10.457  1.00 20.00     0.017 C 
HETATM    6  C7  UNL     1     -23.888  18.704  10.374  1.00 20.00     0.030 C 
HETATM    7  C8  UNL     1     -22.730  17.779  10.839  1.00 20.00    -0.033 C 
HETATM    8  C9  UNL     1     -21.408  17.964  10.058  1.00 20.00     0.016 C 
HETATM    9  C10 UNL     1     -22.369  17.894  12.332  1.00 20.00     0.016 C 
ENDROOT
BRANCH   2  10
HETATM   10  C3  UNL     1     -24.508  18.916   7.819  1.00 20.00     0.265 C 
HETATM   11  O11 UNL     1     -23.889  18.888   6.751  1.00 20.00    -0.302 OA
ENDBRANCH   2  10
TORSDOF 1
ENDMDL
MODEL 8
REMARK VINA RESULT:      -4.4      2.390      3.568
REMARK  1 active torsions:
REMARK  status: ('A' for Active; 'I' for Inactive)
REMARK    1  A    between atoms: C2_2  and  C3_3 
ROOT
HETATM    1  C1  UNL     1     -34.915  15.921  -2.264  1.00 20.00    -0.011 C 
HETATM    2  C2  UNL     1     -33.850  16.559  -2.772  1.00 20.00    -0.019 C 
HETATM    3  C4  UNL     1     -34.634  14.054  -3.809  1.00 20.00     0.010 C 
HETATM    4  C5  UNL     1     -33.394  14.801  -4.385  1.00 20.00     0.011 C 
HETATM    5  C6  UNL     1     -35.585  15.219  -3.435  1.00 20.00     0.017 C 
HETATM    6  C7  UNL     1     -33.806  16.290  -4.259  1.00 20.00     0.030 C 
HETATM    7  C8  UNL     1     -35.329  16.254  -4.567  1.00 20.00    -0.033 C 
HETATM    8  C9  UNL     1     -36.054  17.607  -4.373  1.00 20.00     0.016 C 
HETATM    9  C10 UNL     1     -35.692  15.768  -5.982  1.00 20.00     0.016 C 
ENDROOT
BRANCH   2  10
HETATM   10  C3  UNL     1     -32.902  17.354  -2.022  1.00 20.00     0.265 C 
HETATM   11  O11 UNL     1     -32.373  18.376  -2.469  1.00 20.00    -0.302 OA
ENDBRANCH   2  10
TORSDOF 1
ENDMDL
MODEL 9
REMARK VINA RESULT:      -4.3      1.440      2.210
REMARK  1 active torsions:
REMARK  status: ('A' for Active; 'I' for Inactive)
REMARK    1  A    between atoms: C2_2  and  C3_3 
ROOT
HETATM    1  C1  UNL     1     -35.831  14.830  -3.856  1.00 20.00    -0.011 C 
HETATM    2  C2  UNL     1     -35.643  15.605  -4.934  1.00 20.00    -0.019 C 
HETATM    3  C4  UNL     1     -35.779  16.756  -2.360  1.00 20.00     0.010 C 
HETATM    4  C5  UNL     1     -35.568  17.647  -3.620  1.00 20.00     0.011 C 
HETATM    5  C6  UNL     1     -35.019  15.458  -2.736  1.00 20.00     0.017 C 
HETATM    6  C7  UNL     1     -34.718  16.736  -4.543  1.00 20.00     0.030 C 
HETATM    7  C8  UNL     1     -33.798  15.990  -3.539  1.00 20.00    -0.033 C 
HETATM    8  C9  UNL     1     -32.919  14.886  -4.172  1.00 20.00     0.016 C 
HETATM    9  C10 UNL     1     -32.843  16.896  -2.739  1.00 20.00     0.016 C 
ENDROOT
BRANCH   2  10
HETATM   10  C3  UNL     1     -36.234  15.401  -6.239  1.00 20.00     0.265 C 
HETATM   11  O11 UNL     1     -36.130  14.346  -6.872  1.00 20.00    -0.302 OA
ENDBRANCH   2  10
TORSDOF 1
ENDMDL
