MODEL 1
REMARK VINA RESULT:      -4.9      0.000      0.000
REMARK  4 active torsions:
REMARK  status: ('A' for Active; 'I' for Inactive)
REMARK    1  A    between atoms: C1_1  and  C3_3 
REMARK    2  A    between atoms: C1_1  and  O10_10 
REMARK    3  A    between atoms: C4_4  and  C7_7 
REMARK    4  A    between atoms: C7_7  and  C8_8 
ROOT
HETATM    1  C2  UNL     1     -33.878   5.089   2.149  1.00 20.00     0.020 A 
HETATM    2  C3  UNL     1     -32.825   5.695   3.040  1.00 20.00     0.090 A 
HETATM    3  C4  UNL     1     -34.258   5.575   3.523  1.00 20.00    -0.000 A 
ENDROOT
BRANCH   2   4
HETATM    4  C1  UNL     1     -32.290   7.022   2.719  1.00 20.00     0.263 C 
HETATM    5  O9  UNL     1     -31.774   7.770   3.539  1.00 20.00    -0.265 OA
BRANCH   4   6
HETATM    6  O10 UNL     1     -32.462   7.274   1.389  1.00 20.00    -0.326 OA
HETATM    7  C6  UNL     1     -32.794   8.626   1.058  1.00 20.00     0.213 C 
ENDBRANCH   4   6
ENDBRANCH   2   4
BRANCH   3   8
HETATM    8  C7  UNL     1     -34.606   4.601   4.594  1.00 20.00     0.005 C 
BRANCH   8   9
HETATM    9  C8  UNL     1     -34.802   5.274   5.964  1.00 20.00    -0.004 C 
HETATM   10  C5  UNL     1     -34.153   6.647   6.037  1.00 20.00     0.005 C 
ENDBRANCH   8   9
ENDBRANCH   3   8
TORSDOF 4
ENDMDL
MODEL 2
REMARK VINA RESULT:      -4.8     11.057     11.947
REMARK  4 active torsions:
REMARK  status: ('A' for Active; 'I' for Inactive)
REMARK    1  A    between atoms: C1_1  and  C3_3 
REMARK    2  A    between atoms: C1_1  and  O10_10 
REMARK    3  A    between atoms: C4_4  and  C7_7 
REMARK    4  A    between atoms: C7_7  and  C8_8 
ROOT
HETATM    1  C2  UNL     1     -34.044  14.858  -4.542  1.00 20.00     0.020 A 
HETATM    2  C3  UNL     1     -35.532  14.867  -4.311  1.00 20.00     0.090 A 
HETATM    3  C4  UNL     1     -34.578  15.052  -3.148  1.00 20.00    -0.000 A 
ENDROOT
BRANCH   2   4
HETATM    4  C1  UNL     1     -36.284  13.613  -4.424  1.00 20.00     0.263 C 
HETATM    5  O9  UNL     1     -35.767  12.504  -4.457  1.00 20.00    -0.265 OA
BRANCH   4   6
HETATM    6  O10 UNL     1     -37.619  13.885  -4.484  1.00 20.00    -0.326 OA
HETATM    7  C6  UNL     1     -37.964  15.274  -4.467  1.00 20.00     0.213 C 
ENDBRANCH   4   6
ENDBRANCH   2   4
BRANCH   3   8
HETATM    8  C7  UNL     1     -34.463  16.377  -2.478  1.00 20.00     0.005 C 
BRANCH   8   9
HETATM    9  C8  UNL     1     -33.076  17.016  -2.668  1.00 20.00    -0.004 C 
HETATM   10  C5  UNL     1     -32.651  17.852  -1.471  1.00 20.00     0.005 C 
ENDBRANCH   8   9
ENDBRANCH   3   8
TORSDOF 4
ENDMDL
MODEL 3
REMARK VINA RESULT:      -4.8      2.189      4.372
REMARK  4 active torsions:
REMARK  status: ('A' for Active; 'I' for Inactive)
REMARK    1  A    between atoms: C1_1  and  C3_3 
REMARK    2  A    between atoms: C1_1  and  O10_10 
REMARK    3  A    between atoms: C4_4  and  C7_7 
REMARK    4  A    between atoms: C7_7  and  C8_8 
ROOT
HETATM    1  C2  UNL     1     -33.317   5.169   2.020  1.00 20.00     0.020 A 
HETATM    2  C3  UNL     1     -34.191   5.674   3.138  1.00 20.00     0.090 A 
HETATM    3  C4  UNL     1     -32.766   6.172   2.999  1.00 20.00    -0.000 A 
ENDROOT
BRANCH   2   4
HETATM    4  C1  UNL     1     -34.527   4.777   4.249  1.00 20.00     0.263 C 
HETATM    5  O9  UNL     1     -34.255   3.584   4.273  1.00 20.00    -0.265 OA
BRANCH   4   6
HETATM    6  O10 UNL     1     -35.175   5.479   5.222  1.00 20.00    -0.326 OA
HETATM    7  C6  UNL     1     -34.334   6.250   6.087  1.00 20.00     0.213 C 
ENDBRANCH   4   6
ENDBRANCH   2   4
BRANCH   3   8
HETATM    8  C7  UNL     1     -32.502   7.573   2.568  1.00 20.00     0.005 C 
BRANCH   8   9
HETATM    9  C8  UNL     1     -32.393   7.710   1.039  1.00 20.00    -0.004 C 
HETATM   10  C5  UNL     1     -32.935   9.036   0.532  1.00 20.00     0.005 C 
ENDBRANCH   8   9
ENDBRANCH   3   8
TORSDOF 4
ENDMDL
MODEL 4
REMARK VINA RESULT:      -4.6     11.064     11.805
REMARK  4 active torsions:
REMARK  status: ('A' for Active; 'I' for Inactive)
REMARK    1  A    between atoms: C1_1  and  C3_3 
REMARK    2  A    between atoms: C1_1  and  O10_10 
REMARK    3  A    between atoms: C4_4  and  C7_7 
REMARK    4  A    between atoms: C7_7  and  C8_8 
ROOT
HETATM    1  C2  UNL     1     -33.930  14.723  -4.530  1.00 20.00     0.020 A 
HETATM    2  C3  UNL     1     -35.423  14.837  -4.370  1.00 20.00     0.090 A 
HETATM    3  C4  UNL     1     -34.509  15.056  -3.180  1.00 20.00    -0.000 A 
ENDROOT
BRANCH   2   4
HETATM    4  C1  UNL     1     -36.246  13.624  -4.421  1.00 20.00     0.263 C 
HETATM    5  O9  UNL     1     -35.792  12.489  -4.482  1.00 20.00    -0.265 OA
BRANCH   4   6
HETATM    6  O10 UNL     1     -37.566  13.967  -4.391  1.00 20.00    -0.326 OA
HETATM    7  C6  UNL     1     -37.849  15.344  -4.658  1.00 20.00     0.213 C 
ENDBRANCH   4   6
ENDBRANCH   2   4
BRANCH   3   8
HETATM    8  C7  UNL     1     -34.340  16.421  -2.609  1.00 20.00     0.005 C 
BRANCH   8   9
HETATM    9  C8  UNL     1     -35.151  16.625  -1.317  1.00 20.00    -0.004 C 
HETATM   10  C5  UNL     1     -36.270  17.640  -1.485  1.00 20.00     0.005 C 
ENDBRANCH   8   9
ENDBRANCH   3   8
TORSDOF 4
ENDMDL
MODEL 5
REMARK VINA RESULT:      -4.2     10.928     11.494
REMARK  4 active torsions:
REMARK  status: ('A' for Active; 'I' for Inactive)
REMARK    1  A    between atoms: C1_1  and  C3_3 
REMARK    2  A    between atoms: C1_1  and  O10_10 
REMARK    3  A    between atoms: C4_4  and  C7_7 
REMARK    4  A    between atoms: C7_7  and  C8_8 
ROOT
HETATM    1  C2  UNL     1     -33.325  16.394  -3.302  1.00 20.00     0.020 A 
HETATM    2  C3  UNL     1     -34.418  15.481  -3.793  1.00 20.00     0.090 A 
HETATM    3  C4  UNL     1     -34.351  15.873  -2.330  1.00 20.00    -0.000 A 
ENDROOT
BRANCH   2   4
HETATM    4  C1  UNL     1     -34.087  14.105  -4.178  1.00 20.00     0.263 C 
HETATM    5  O9  UNL     1     -32.966  13.736  -4.504  1.00 20.00    -0.265 OA
BRANCH   4   6
HETATM    6  O10 UNL     1     -35.207  13.331  -4.113  1.00 20.00    -0.326 OA
HETATM    7  C6  UNL     1     -36.345  13.837  -4.818  1.00 20.00     0.213 C 
ENDBRANCH   4   6
ENDBRANCH   2   4
BRANCH   3   8
HETATM    8  C7  UNL     1     -35.372  16.791  -1.754  1.00 20.00     0.005 C 
BRANCH   8   9
HETATM    9  C8  UNL     1     -34.827  17.615  -0.574  1.00 20.00    -0.004 C 
HETATM   10  C5  UNL     1     -35.482  17.243   0.748  1.00 20.00     0.005 C 
ENDBRANCH   8   9
ENDBRANCH   3   8
TORSDOF 4
ENDMDL
MODEL 6
REMARK VINA RESULT:      -4.0     11.141     11.910
REMARK  4 active torsions:
REMARK  status: ('A' for Active; 'I' for Inactive)
REMARK    1  A    between atoms: C1_1  and  C3_3 
REMARK    2  A    between atoms: C1_1  and  O10_10 
REMARK    3  A    between atoms: C4_4  and  C7_7 
REMARK    4  A    between atoms: C7_7  and  C8_8 
ROOT
HETATM    1  C2  UNL     1     -35.987  15.406  -3.615  1.00 20.00     0.020 A 
HETATM    2  C3  UNL     1     -34.640  14.789  -3.347  1.00 20.00     0.090 A 
HETATM    3  C4  UNL     1     -34.926  16.215  -2.917  1.00 20.00    -0.000 A 
ENDROOT
BRANCH   2   4
HETATM    4  C1  UNL     1     -33.722  14.553  -4.466  1.00 20.00     0.263 C 
HETATM    5  O9  UNL     1     -32.502  14.559  -4.366  1.00 20.00    -0.265 OA
BRANCH   4   6
HETATM    6  O10 UNL     1     -34.439  14.332  -5.605  1.00 20.00    -0.326 OA
HETATM    7  C6  UNL     1     -34.003  15.063  -6.756  1.00 20.00     0.213 C 
ENDBRANCH   4   6
ENDBRANCH   2   4
BRANCH   3   8
HETATM    8  C7  UNL     1     -35.065  16.546  -1.472  1.00 20.00     0.005 C 
BRANCH   8   9
HETATM    9  C8  UNL     1     -34.029  17.581  -1.001  1.00 20.00    -0.004 C 
HETATM   10  C5  UNL     1     -32.818  17.652  -1.917  1.00 20.00     0.005 C 
ENDBRANCH   8   9
ENDBRANCH   3   8
TORSDOF 4
ENDMDL
MODEL 7
REMARK VINA RESULT:      -4.0     11.315     12.314
REMARK  4 active torsions:
REMARK  status: ('A' for Active; 'I' for Inactive)
REMARK    1  A    between atoms: C1_1  and  C3_3 
REMARK    2  A    between atoms: C1_1  and  O10_10 
REMARK    3  A    between atoms: C4_4  and  C7_7 
REMARK    4  A    between atoms: C7_7  and  C8_8 
ROOT
HETATM    1  C2  UNL     1     -35.133  15.886  -2.195  1.00 20.00     0.020 A 
HETATM    2  C3  UNL     1     -34.711  14.938  -3.287  1.00 20.00     0.090 A 
HETATM    3  C4  UNL     1     -34.377  16.414  -3.386  1.00 20.00    -0.000 A 
ENDROOT
BRANCH   2   4
HETATM    4  C1  UNL     1     -35.727  14.377  -4.183  1.00 20.00     0.263 C 
HETATM    5  O9  UNL     1     -36.913  14.272  -3.896  1.00 20.00    -0.265 OA
BRANCH   4   6
HETATM    6  O10 UNL     1     -35.143  14.001  -5.357  1.00 20.00    -0.326 OA
HETATM    7  C6  UNL     1     -35.609  14.688  -6.523  1.00 20.00     0.213 C 
ENDBRANCH   4   6
ENDBRANCH   2   4
BRANCH   3   8
HETATM    8  C7  UNL     1     -32.968  16.873  -3.236  1.00 20.00     0.005 C 
BRANCH   8   9
HETATM    9  C8  UNL     1     -32.861  18.225  -2.509  1.00 20.00    -0.004 C 
HETATM   10  C5  UNL     1     -32.029  18.141  -1.240  1.00 20.00     0.005 C 
ENDBRANCH   8   9
ENDBRANCH   3   8
TORSDOF 4
ENDMDL
MODEL 8
REMARK VINA RESULT:      -3.9     15.336     16.293
REMARK  4 active torsions:
REMARK  status: ('A' for Active; 'I' for Inactive)
REMARK    1  A    between atoms: C1_1  and  C3_3 
REMARK    2  A    between atoms: C1_1  and  O10_10 
REMARK    3  A    between atoms: C4_4  and  C7_7 
REMARK    4  A    between atoms: C7_7  and  C8_8 
ROOT
HETATM    1  C2  UNL     1     -21.971  17.795   8.715  1.00 20.00     0.020 A 
HETATM    2  C3  UNL     1     -23.149  18.716   8.898  1.00 20.00     0.090 A 
HETATM    3  C4  UNL     1     -23.056  17.427   9.692  1.00 20.00    -0.000 A 
ENDROOT
BRANCH   2   4
HETATM    4  C1  UNL     1     -24.148  18.824   7.830  1.00 20.00     0.263 C 
HETATM    5  O9  UNL     1     -23.878  18.843   6.637  1.00 20.00    -0.265 OA
BRANCH   4   6
HETATM    6  O10 UNL     1     -25.395  18.900   8.379  1.00 20.00    -0.326 OA
HETATM    7  C6  UNL     1     -26.443  19.263   7.474  1.00 20.00     0.213 C 
ENDBRANCH   4   6
ENDBRANCH   2   4
BRANCH   3   8
HETATM    8  C7  UNL     1     -22.792  17.469  11.157  1.00 20.00     0.005 C 
BRANCH   8   9
HETATM    9  C8  UNL     1     -24.066  17.256  11.993  1.00 20.00    -0.004 C 
HETATM   10  C5  UNL     1     -24.661  15.870  11.806  1.00 20.00     0.005 C 
ENDBRANCH   8   9
ENDBRANCH   3   8
TORSDOF 4
ENDMDL
MODEL 9
REMARK VINA RESULT:      -3.8      1.778      4.370
REMARK  4 active torsions:
REMARK  status: ('A' for Active; 'I' for Inactive)
REMARK    1  A    between atoms: C1_1  and  C3_3 
REMARK    2  A    between atoms: C1_1  and  O10_10 
REMARK    3  A    between atoms: C4_4  and  C7_7 
REMARK    4  A    between atoms: C7_7  and  C8_8 
ROOT
HETATM    1  C2  UNL     1     -33.215   5.220   2.532  1.00 20.00     0.020 A 
HETATM    2  C3  UNL     1     -33.880   6.425   3.143  1.00 20.00     0.090 A 
HETATM    3  C4  UNL     1     -32.480   6.533   2.570  1.00 20.00    -0.000 A 
ENDROOT
BRANCH   2   4
HETATM    4  C1  UNL     1     -34.062   6.486   4.597  1.00 20.00     0.263 C 
HETATM    5  O9  UNL     1     -33.426   7.225   5.337  1.00 20.00    -0.265 OA
BRANCH   4   6
HETATM    6  O10 UNL     1     -35.031   5.604   4.973  1.00 20.00    -0.326 OA
HETATM    7  C6  UNL     1     -34.782   4.900   6.194  1.00 20.00     0.213 C 
ENDBRANCH   4   6
ENDBRANCH   2   4
BRANCH   3   8
HETATM    8  C7  UNL     1     -32.243   7.297   1.314  1.00 20.00     0.005 C 
BRANCH   8   9
HETATM    9  C8  UNL     1     -32.860   8.706   1.354  1.00 20.00    -0.004 C 
HETATM   10  C5  UNL     1     -33.332   9.174  -0.013  1.00 20.00     0.005 C 
ENDBRANCH   8   9
ENDBRANCH   3   8
TORSDOF 4
ENDMDL
