MODEL 1
REMARK VINA RESULT:      -4.6      0.000      0.000
REMARK  3 active torsions:
REMARK  status: ('A' for Active; 'I' for Inactive)
REMARK    1  A    between atoms: C2_2  and  C5_5 
REMARK    2  A    between atoms: C3_3  and  C6_6 
REMARK    3  A    between atoms: C3_3  and  O10_10 
ROOT
HETATM    1  C4  UNL     1     -34.936  14.926  -6.305  1.00 20.00     0.025 A 
HETATM    2  C5  UNL     1     -34.946  15.775  -5.065  1.00 20.00     0.028 A 
HETATM    3  C6  UNL     1     -36.152  14.942  -5.422  1.00 20.00     0.094 A 
ENDROOT
BRANCH   3   4
HETATM    4  C3  UNL     1     -36.502  13.736  -4.660  1.00 20.00     0.263 C 
HETATM    5  O9  UNL     1     -35.859  12.697  -4.690  1.00 20.00    -0.265 OA
BRANCH   4   6
HETATM    6  O10 UNL     1     -37.633  13.968  -3.935  1.00 20.00    -0.326 OA
HETATM    7  C8  UNL     1     -38.466  15.028  -4.416  1.00 20.00     0.213 C 
ENDBRANCH   4   6
ENDBRANCH   3   4
BRANCH   2   8
HETATM    8  C2  UNL     1     -34.086  15.401  -3.950  1.00 20.00    -0.088 C 
HETATM    9  C1  UNL     1     -34.353  15.780  -2.692  1.00 20.00     0.014 C 
HETATM   10  C7  UNL     1     -32.888  14.566  -4.290  1.00 20.00     0.043 C 
ENDBRANCH   2   8
TORSDOF 3
ENDMDL
MODEL 2
REMARK VINA RESULT:      -4.6      0.059      1.113
REMARK  3 active torsions:
REMARK  status: ('A' for Active; 'I' for Inactive)
REMARK    1  A    between atoms: C2_2  and  C5_5 
REMARK    2  A    between atoms: C3_3  and  C6_6 
REMARK    3  A    between atoms: C3_3  and  O10_10 
ROOT
HETATM    1  C4  UNL     1     -34.975  14.891  -6.358  1.00 20.00     0.025 A 
HETATM    2  C5  UNL     1     -34.910  15.730  -5.112  1.00 20.00     0.028 A 
HETATM    3  C6  UNL     1     -36.152  14.931  -5.424  1.00 20.00     0.094 A 
ENDROOT
BRANCH   3   4
HETATM    4  C3  UNL     1     -36.501  13.729  -4.656  1.00 20.00     0.263 C 
HETATM    5  O9  UNL     1     -35.864  12.687  -4.689  1.00 20.00    -0.265 OA
BRANCH   4   6
HETATM    6  O10 UNL     1     -37.625  13.968  -3.921  1.00 20.00    -0.326 OA
HETATM    7  C8  UNL     1     -38.454  15.035  -4.394  1.00 20.00     0.213 C 
ENDBRANCH   4   6
ENDBRANCH   3   4
BRANCH   2   8
HETATM    8  C2  UNL     1     -34.015  15.324  -4.038  1.00 20.00    -0.088 C 
HETATM    9  C1  UNL     1     -32.926  14.576  -4.269  1.00 20.00     0.014 C 
HETATM   10  C7  UNL     1     -34.379  15.791  -2.661  1.00 20.00     0.043 C 
ENDBRANCH   2   8
TORSDOF 3
ENDMDL
MODEL 3
REMARK VINA RESULT:      -4.1      1.019      2.386
REMARK  3 active torsions:
REMARK  status: ('A' for Active; 'I' for Inactive)
REMARK    1  A    between atoms: C2_2  and  C5_5 
REMARK    2  A    between atoms: C3_3  and  C6_6 
REMARK    3  A    between atoms: C3_3  and  O10_10 
ROOT
HETATM    1  C4  UNL     1     -34.143  15.566  -3.320  1.00 20.00     0.025 A 
HETATM    2  C5  UNL     1     -33.613  15.139  -4.660  1.00 20.00     0.028 A 
HETATM    3  C6  UNL     1     -34.388  14.165  -3.807  1.00 20.00     0.094 A 
ENDROOT
BRANCH   3   4
HETATM    4  C3  UNL     1     -35.753  13.755  -4.161  1.00 20.00     0.263 C 
HETATM    5  O9  UNL     1     -36.021  12.751  -4.805  1.00 20.00    -0.265 OA
BRANCH   4   6
HETATM    6  O10 UNL     1     -36.644  14.659  -3.664  1.00 20.00    -0.326 OA
HETATM    7  C8  UNL     1     -37.888  14.747  -4.366  1.00 20.00     0.213 C 
ENDBRANCH   4   6
ENDBRANCH   3   4
BRANCH   2   8
HETATM    8  C2  UNL     1     -34.204  15.708  -5.863  1.00 20.00    -0.088 C 
HETATM    9  C1  UNL     1     -34.079  15.118  -7.061  1.00 20.00     0.014 C 
HETATM   10  C7  UNL     1     -34.962  16.990  -5.686  1.00 20.00     0.043 C 
ENDBRANCH   2   8
TORSDOF 3
ENDMDL
MODEL 4
REMARK VINA RESULT:      -3.9     17.865     19.738
REMARK  3 active torsions:
REMARK  status: ('A' for Active; 'I' for Inactive)
REMARK    1  A    between atoms: C2_2  and  C5_5 
REMARK    2  A    between atoms: C3_3  and  C6_6 
REMARK    3  A    between atoms: C3_3  and  O10_10 
ROOT
HETATM    1  C4  UNL     1     -22.749  17.055  12.222  1.00 20.00     0.025 A 
HETATM    2  C5  UNL     1     -23.762  18.160  12.332  1.00 20.00     0.028 A 
HETATM    3  C6  UNL     1     -22.795  18.132  11.174  1.00 20.00     0.094 A 
ENDROOT
BRANCH   3   4
HETATM    4  C3  UNL     1     -23.238  17.794   9.816  1.00 20.00     0.263 C 
HETATM    5  O9  UNL     1     -23.304  16.654   9.381  1.00 20.00    -0.265 OA
BRANCH   4   6
HETATM    6  O10 UNL     1     -23.554  18.937   9.142  1.00 20.00    -0.326 OA
HETATM    7  C8  UNL     1     -24.747  18.876   8.354  1.00 20.00     0.213 C 
ENDBRANCH   4   6
ENDBRANCH   3   4
BRANCH   2   8
HETATM    8  C2  UNL     1     -25.170  17.845  12.133  1.00 20.00    -0.088 C 
HETATM    9  C1  UNL     1     -25.634  16.589  12.222  1.00 20.00     0.014 C 
HETATM   10  C7  UNL     1     -26.070  19.004  11.826  1.00 20.00     0.043 C 
ENDBRANCH   2   8
TORSDOF 3
ENDMDL
MODEL 5
REMARK VINA RESULT:      -3.9      2.021      3.037
REMARK  3 active torsions:
REMARK  status: ('A' for Active; 'I' for Inactive)
REMARK    1  A    between atoms: C2_2  and  C5_5 
REMARK    2  A    between atoms: C3_3  and  C6_6 
REMARK    3  A    between atoms: C3_3  and  O10_10 
ROOT
HETATM    1  C4  UNL     1     -35.941  13.966  -4.180  1.00 20.00     0.025 A 
HETATM    2  C5  UNL     1     -34.525  14.398  -3.920  1.00 20.00     0.028 A 
HETATM    3  C6  UNL     1     -35.128  14.567  -5.293  1.00 20.00     0.094 A 
ENDROOT
BRANCH   3   4
HETATM    4  C3  UNL     1     -35.490  15.892  -5.812  1.00 20.00     0.263 C 
HETATM    5  O9  UNL     1     -36.528  16.475  -5.536  1.00 20.00    -0.265 OA
BRANCH   4   6
HETATM    6  O10 UNL     1     -34.499  16.347  -6.631  1.00 20.00    -0.326 OA
HETATM    7  C8  UNL     1     -33.955  15.379  -7.535  1.00 20.00     0.213 C 
ENDBRANCH   4   6
ENDBRANCH   3   4
BRANCH   2   8
HETATM    8  C2  UNL     1     -34.288  15.553  -3.065  1.00 20.00    -0.088 C 
HETATM    9  C1  UNL     1     -35.183  15.952  -2.150  1.00 20.00     0.014 C 
HETATM   10  C7  UNL     1     -32.985  16.268  -3.265  1.00 20.00     0.043 C 
ENDBRANCH   2   8
TORSDOF 3
ENDMDL
MODEL 6
REMARK VINA RESULT:      -3.9     10.048     11.671
REMARK  3 active torsions:
REMARK  status: ('A' for Active; 'I' for Inactive)
REMARK    1  A    between atoms: C2_2  and  C5_5 
REMARK    2  A    between atoms: C3_3  and  C6_6 
REMARK    3  A    between atoms: C3_3  and  O10_10 
ROOT
HETATM    1  C4  UNL     1     -40.959   5.869  -1.136  1.00 20.00     0.025 A 
HETATM    2  C5  UNL     1     -41.457   5.874   0.282  1.00 20.00     0.028 A 
HETATM    3  C6  UNL     1     -41.314   7.171  -0.476  1.00 20.00     0.094 A 
ENDROOT
BRANCH   3   4
HETATM    4  C3  UNL     1     -42.489   7.917  -0.944  1.00 20.00     0.263 C 
HETATM    5  O9  UNL     1     -43.185   7.575  -1.889  1.00 20.00    -0.265 OA
BRANCH   4   6
HETATM    6  O10 UNL     1     -42.667   9.024  -0.167  1.00 20.00    -0.326 OA
HETATM    7  C8  UNL     1     -41.478   9.553   0.429  1.00 20.00     0.213 C 
ENDBRANCH   4   6
ENDBRANCH   3   4
BRANCH   2   8
HETATM    8  C2  UNL     1     -42.773   5.320   0.566  1.00 20.00    -0.088 C 
HETATM    9  C1  UNL     1     -43.379   4.466  -0.273  1.00 20.00     0.014 C 
HETATM   10  C7  UNL     1     -43.412   5.756   1.851  1.00 20.00     0.043 C 
ENDBRANCH   2   8
TORSDOF 3
ENDMDL
MODEL 7
REMARK VINA RESULT:      -3.9      1.978      3.076
REMARK  3 active torsions:
REMARK  status: ('A' for Active; 'I' for Inactive)
REMARK    1  A    between atoms: C2_2  and  C5_5 
REMARK    2  A    between atoms: C3_3  and  C6_6 
REMARK    3  A    between atoms: C3_3  and  O10_10 
ROOT
HETATM    1  C4  UNL     1     -36.142  15.361  -3.641  1.00 20.00     0.025 A 
HETATM    2  C5  UNL     1     -35.018  15.729  -2.714  1.00 20.00     0.028 A 
HETATM    3  C6  UNL     1     -34.963  14.440  -3.496  1.00 20.00     0.094 A 
ENDROOT
BRANCH   3   4
HETATM    4  C3  UNL     1     -34.040  14.270  -4.626  1.00 20.00     0.263 C 
HETATM    5  O9  UNL     1     -32.850  14.021  -4.506  1.00 20.00    -0.265 OA
BRANCH   4   6
HETATM    6  O10 UNL     1     -34.719  14.433  -5.797  1.00 20.00    -0.326 OA
HETATM    7  C8  UNL     1     -34.022  15.156  -6.817  1.00 20.00     0.213 C 
ENDBRANCH   4   6
ENDBRANCH   3   4
BRANCH   2   8
HETATM    8  C2  UNL     1     -34.157  16.850  -3.064  1.00 20.00    -0.088 C 
HETATM    9  C1  UNL     1     -32.961  17.032  -2.485  1.00 20.00     0.014 C 
HETATM   10  C7  UNL     1     -34.683  17.788  -4.109  1.00 20.00     0.043 C 
ENDBRANCH   2   8
TORSDOF 3
ENDMDL
MODEL 8
REMARK VINA RESULT:      -3.8      2.153      2.649
REMARK  3 active torsions:
REMARK  status: ('A' for Active; 'I' for Inactive)
REMARK    1  A    between atoms: C2_2  and  C5_5 
REMARK    2  A    between atoms: C3_3  and  C6_6 
REMARK    3  A    between atoms: C3_3  and  O10_10 
ROOT
HETATM    1  C4  UNL     1     -35.258  14.072  -4.132  1.00 20.00     0.025 A 
HETATM    2  C5  UNL     1     -33.998  14.775  -3.711  1.00 20.00     0.028 A 
HETATM    3  C6  UNL     1     -34.493  14.896  -5.130  1.00 20.00     0.094 A 
ENDROOT
BRANCH   3   4
HETATM    4  C3  UNL     1     -35.082  16.145  -5.632  1.00 20.00     0.263 C 
HETATM    5  O9  UNL     1     -34.430  17.074  -6.086  1.00 20.00    -0.265 OA
BRANCH   4   6
HETATM    6  O10 UNL     1     -36.439  16.092  -5.507  1.00 20.00    -0.326 OA
HETATM    7  C8  UNL     1     -37.058  17.284  -5.013  1.00 20.00     0.213 C 
ENDBRANCH   4   6
ENDBRANCH   3   4
BRANCH   2   8
HETATM    8  C2  UNL     1     -34.095  15.899  -2.790  1.00 20.00    -0.088 C 
HETATM    9  C1  UNL     1     -35.158  16.071  -1.991  1.00 20.00     0.014 C 
HETATM   10  C7  UNL     1     -32.938  16.853  -2.787  1.00 20.00     0.043 C 
ENDBRANCH   2   8
TORSDOF 3
ENDMDL
MODEL 9
REMARK VINA RESULT:      -3.8      1.745      3.187
REMARK  3 active torsions:
REMARK  status: ('A' for Active; 'I' for Inactive)
REMARK    1  A    between atoms: C2_2  and  C5_5 
REMARK    2  A    between atoms: C3_3  and  C6_6 
REMARK    3  A    between atoms: C3_3  and  O10_10 
ROOT
HETATM    1  C4  UNL     1     -34.046  15.968  -2.561  1.00 20.00     0.025 A 
HETATM    2  C5  UNL     1     -33.670  16.910  -3.670  1.00 20.00     0.028 A 
HETATM    3  C6  UNL     1     -33.271  15.457  -3.743  1.00 20.00     0.094 A 
ENDROOT
BRANCH   3   4
HETATM    4  C3  UNL     1     -33.919  14.532  -4.683  1.00 20.00     0.263 C 
HETATM    5  O9  UNL     1     -33.681  14.497  -5.881  1.00 20.00    -0.265 OA
BRANCH   4   6
HETATM    6  O10 UNL     1     -34.804  13.744  -4.009  1.00 20.00    -0.326 OA
HETATM    7  C8  UNL     1     -36.114  13.662  -4.580  1.00 20.00     0.213 C 
ENDBRANCH   4   6
ENDBRANCH   3   4
BRANCH   2   8
HETATM    8  C2  UNL     1     -34.719  17.438  -4.530  1.00 20.00    -0.088 C 
HETATM    9  C1  UNL     1     -34.450  17.964  -5.735  1.00 20.00     0.014 C 
HETATM   10  C7  UNL     1     -36.117  17.360  -3.993  1.00 20.00     0.043 C 
ENDBRANCH   2   8
TORSDOF 3
ENDMDL
