MODEL 1
REMARK VINA RESULT:      -4.1      0.000      0.000
REMARK  1 active torsions:
REMARK  status: ('A' for Active; 'I' for Inactive)
REMARK    1  A    between atoms: C3_3  and  C4_4 
ROOT
HETATM    1  C1  UNL     1     -33.575   4.931   3.017  1.00 20.00     0.142 A 
HETATM    2  C2  UNL     1     -34.052   6.525   4.600  1.00 20.00     0.087 A 
HETATM    3  C3  UNL     1     -33.316   6.257   3.468  1.00 20.00     0.052 A 
HETATM    4  N5  UNL     1     -34.438   4.206   3.725  1.00 20.00    -0.223 NA
HETATM    5  S7  UNL     1     -34.976   5.137   4.992  1.00 20.00    -0.000 SA
ENDROOT
BRANCH   3   6
HETATM    6  C4  UNL     1     -32.427   7.207   2.858  1.00 20.00     0.254 C 
HETATM    7  O6  UNL     1     -31.431   7.631   3.499  1.00 20.00    -0.274 OA
HETATM    8 CL8  UNL     1     -32.692   7.813   1.203  1.00 20.00    -0.038 Cl
ENDBRANCH   3   6
TORSDOF 1
ENDMDL
MODEL 2
REMARK VINA RESULT:      -4.0     11.688     11.774
REMARK  1 active torsions:
REMARK  status: ('A' for Active; 'I' for Inactive)
REMARK    1  A    between atoms: C3_3  and  C4_4 
ROOT
HETATM    1  C1  UNL     1     -33.725  14.694  -4.260  1.00 20.00     0.142 A 
HETATM    2  C2  UNL     1     -35.235  15.664  -2.829  1.00 20.00     0.087 A 
HETATM    3  C3  UNL     1     -35.072  14.701  -3.799  1.00 20.00     0.052 A 
HETATM    4  N5  UNL     1     -32.888  15.571  -3.709  1.00 20.00    -0.223 NA
HETATM    5  S7  UNL     1     -33.735  16.453  -2.585  1.00 20.00    -0.000 SA
ENDROOT
BRANCH   3   6
HETATM    6  C4  UNL     1     -36.133  13.845  -4.253  1.00 20.00     0.254 C 
HETATM    7  O6  UNL     1     -35.879  12.657  -4.581  1.00 20.00    -0.274 OA
HETATM    8 CL8  UNL     1     -37.817  14.417  -4.368  1.00 20.00    -0.038 Cl
ENDBRANCH   3   6
TORSDOF 1
ENDMDL
MODEL 3
REMARK VINA RESULT:      -4.0     11.554     11.759
REMARK  1 active torsions:
REMARK  status: ('A' for Active; 'I' for Inactive)
REMARK    1  A    between atoms: C3_3  and  C4_4 
ROOT
HETATM    1  C1  UNL     1     -36.176  13.613  -4.445  1.00 20.00     0.142 A 
HETATM    2  C2  UNL     1     -36.177  15.862  -3.983  1.00 20.00     0.087 A 
HETATM    3  C3  UNL     1     -35.378  14.753  -4.143  1.00 20.00     0.052 A 
HETATM    4  N5  UNL     1     -37.493  13.794  -4.518  1.00 20.00    -0.223 NA
HETATM    5  S7  UNL     1     -37.809  15.397  -4.216  1.00 20.00    -0.000 SA
ENDROOT
BRANCH   3   6
HETATM    6  C4  UNL     1     -33.947  14.783  -4.018  1.00 20.00     0.254 C 
HETATM    7  O6  UNL     1     -33.257  13.858  -4.520  1.00 20.00    -0.274 OA
HETATM    8 CL8  UNL     1     -33.106  16.102  -3.164  1.00 20.00    -0.038 Cl
ENDBRANCH   3   6
TORSDOF 1
ENDMDL
MODEL 4
REMARK VINA RESULT:      -3.8     11.724     11.873
REMARK  1 active torsions:
REMARK  status: ('A' for Active; 'I' for Inactive)
REMARK    1  A    between atoms: C3_3  and  C4_4 
ROOT
HETATM    1  C1  UNL     1     -35.235  15.577  -2.564  1.00 20.00     0.142 A 
HETATM    2  C2  UNL     1     -33.953  14.967  -4.368  1.00 20.00     0.087 A 
HETATM    3  C3  UNL     1     -35.165  14.782  -3.743  1.00 20.00     0.052 A 
HETATM    4  N5  UNL     1     -34.174  16.327  -2.272  1.00 20.00    -0.223 NA
HETATM    5  S7  UNL     1     -33.031  16.084  -3.454  1.00 20.00    -0.000 SA
ENDROOT
BRANCH   3   6
HETATM    6  C4  UNL     1     -36.189  13.906  -4.243  1.00 20.00     0.254 C 
HETATM    7  O6  UNL     1     -35.891  12.734  -4.591  1.00 20.00    -0.274 OA
HETATM    8 CL8  UNL     1     -37.885  14.431  -4.389  1.00 20.00    -0.038 Cl
ENDBRANCH   3   6
TORSDOF 1
ENDMDL
MODEL 5
REMARK VINA RESULT:      -3.8      1.970      2.215
REMARK  1 active torsions:
REMARK  status: ('A' for Active; 'I' for Inactive)
REMARK    1  A    between atoms: C3_3  and  C4_4 
ROOT
HETATM    1  C1  UNL     1     -33.426   6.897   4.945  1.00 20.00     0.142 A 
HETATM    2  C2  UNL     1     -34.559   4.984   4.370  1.00 20.00     0.087 A 
HETATM    3  C3  UNL     1     -33.674   5.938   3.921  1.00 20.00     0.052 A 
HETATM    4  N5  UNL     1     -34.057   6.725   6.104  1.00 20.00    -0.223 NA
HETATM    5  S7  UNL     1     -34.993   5.358   5.984  1.00 20.00    -0.000 SA
ENDROOT
BRANCH   3   6
HETATM    6  C4  UNL     1     -33.103   5.931   2.603  1.00 20.00     0.254 C 
HETATM    7  O6  UNL     1     -33.019   4.849   1.965  1.00 20.00    -0.274 OA
HETATM    8 CL8  UNL     1     -32.499   7.420   1.832  1.00 20.00    -0.038 Cl
ENDBRANCH   3   6
TORSDOF 1
ENDMDL
MODEL 6
REMARK VINA RESULT:      -3.8     16.558     16.759
REMARK  1 active torsions:
REMARK  status: ('A' for Active; 'I' for Inactive)
REMARK    1  A    between atoms: C3_3  and  C4_4 
ROOT
HETATM    1  C1  UNL     1     -24.710  18.262  10.565  1.00 20.00     0.142 A 
HETATM    2  C2  UNL     1     -22.468  17.874  10.251  1.00 20.00     0.087 A 
HETATM    3  C3  UNL     1     -23.648  18.197   9.618  1.00 20.00     0.052 A 
HETATM    4  N5  UNL     1     -24.407  18.012  11.837  1.00 20.00    -0.223 NA
HETATM    5  S7  UNL     1     -22.780  17.684  11.924  1.00 20.00    -0.000 SA
ENDROOT
BRANCH   3   6
HETATM    6  C4  UNL     1     -23.750  18.430   8.204  1.00 20.00     0.254 C 
HETATM    7  O6  UNL     1     -22.783  18.142   7.453  1.00 20.00    -0.274 OA
HETATM    8 CL8  UNL     1     -25.219  19.122   7.470  1.00 20.00    -0.038 Cl
ENDBRANCH   3   6
TORSDOF 1
ENDMDL
MODEL 7
REMARK VINA RESULT:      -3.7      1.106      1.556
REMARK  1 active torsions:
REMARK  status: ('A' for Active; 'I' for Inactive)
REMARK    1  A    between atoms: C3_3  and  C4_4 
ROOT
HETATM    1  C1  UNL     1     -33.646   6.797   5.280  1.00 20.00     0.142 A 
HETATM    2  C2  UNL     1     -34.069   5.495   3.436  1.00 20.00     0.087 A 
HETATM    3  C3  UNL     1     -33.326   6.552   3.914  1.00 20.00     0.052 A 
HETATM    4  N5  UNL     1     -34.560   6.009   5.842  1.00 20.00    -0.223 NA
HETATM    5  S7  UNL     1     -35.072   4.918   4.698  1.00 20.00    -0.000 SA
ENDROOT
BRANCH   3   6
HETATM    6  C4  UNL     1     -32.375   7.275   3.118  1.00 20.00     0.254 C 
HETATM    7  O6  UNL     1     -31.285   7.642   3.628  1.00 20.00    -0.274 OA
HETATM    8 CL8  UNL     1     -32.690   7.678   1.410  1.00 20.00    -0.038 Cl
ENDBRANCH   3   6
TORSDOF 1
ENDMDL
MODEL 8
REMARK VINA RESULT:      -3.7     16.360     16.471
REMARK  1 active torsions:
REMARK  status: ('A' for Active; 'I' for Inactive)
REMARK    1  A    between atoms: C3_3  and  C4_4 
ROOT
HETATM    1  C1  UNL     1     -24.094  18.368   8.510  1.00 20.00     0.142 A 
HETATM    2  C2  UNL     1     -22.549  16.946   9.439  1.00 20.00     0.087 A 
HETATM    3  C3  UNL     1     -23.774  17.546   9.628  1.00 20.00     0.052 A 
HETATM    4  N5  UNL     1     -23.206  18.420   7.519  1.00 20.00    -0.223 NA
HETATM    5  S7  UNL     1     -21.923  17.446   7.926  1.00 20.00    -0.000 SA
ENDROOT
BRANCH   3   6
HETATM    6  C4  UNL     1     -24.583  17.345  10.798  1.00 20.00     0.254 C 
HETATM    7  O6  UNL     1     -25.254  18.302  11.264  1.00 20.00    -0.274 OA
HETATM    8 CL8  UNL     1     -24.668  15.768  11.623  1.00 20.00    -0.038 Cl
ENDBRANCH   3   6
TORSDOF 1
ENDMDL
MODEL 9
REMARK VINA RESULT:      -3.7     11.523     11.731
REMARK  1 active torsions:
REMARK  status: ('A' for Active; 'I' for Inactive)
REMARK    1  A    between atoms: C3_3  and  C4_4 
ROOT
HETATM    1  C1  UNL     1     -36.192  13.788  -4.282  1.00 20.00     0.142 A 
HETATM    2  C2  UNL     1     -36.591  15.983  -3.742  1.00 20.00     0.087 A 
HETATM    3  C3  UNL     1     -35.627  15.002  -3.799  1.00 20.00     0.052 A 
HETATM    4  N5  UNL     1     -37.489  13.797  -4.582  1.00 20.00    -0.223 NA
HETATM    5  S7  UNL     1     -38.076  15.322  -4.280  1.00 20.00    -0.000 SA
ENDROOT
BRANCH   3   6
HETATM    6  C4  UNL     1     -34.258  15.214  -3.420  1.00 20.00     0.254 C 
HETATM    7  O6  UNL     1     -33.992  15.897  -2.397  1.00 20.00    -0.274 OA
HETATM    8 CL8  UNL     1     -32.906  14.535  -4.361  1.00 20.00    -0.038 Cl
ENDBRANCH   3   6
TORSDOF 1
ENDMDL
