MODEL 1
REMARK VINA RESULT:      -5.2      0.000      0.000
REMARK  1 active torsions:
REMARK  status: ('A' for Active; 'I' for Inactive)
REMARK    1  A    between atoms: C6_6  and  C9_9 
ROOT
HETATM    1  C1  UNL     1     -35.360  13.813  -4.080  1.00 20.00     0.119 C 
HETATM    2  C2  UNL     1     -33.460  15.327  -3.766  1.00 20.00     0.043 A 
HETATM    3  C3  UNL     1     -32.938  16.442  -3.119  1.00 20.00     0.012 A 
HETATM    4  C4  UNL     1     -35.003  16.671  -1.961  1.00 20.00     0.125 A 
HETATM    5  C5  UNL     1     -34.756  14.946  -3.460  1.00 20.00     0.136 A 
HETATM    6  C6  UNL     1     -33.719  17.132  -2.197  1.00 20.00    -0.036 A 
HETATM    7  N10 UNL     1     -35.851  12.892  -4.586  1.00 20.00    -0.190 NA
HETATM    8  N11 UNL     1     -35.544  15.592  -2.570  1.00 20.00    -0.249 NA
ENDROOT
BRANCH   6   9
HETATM    9  C9  UNL     1     -33.191  18.328  -1.490  1.00 20.00     0.020 A 
HETATM   10  C7  UNL     1     -31.764  18.325  -1.002  1.00 20.00     0.010 A 
HETATM   11  C8  UNL     1     -32.887  18.240  -0.015  1.00 20.00     0.010 A 
ENDBRANCH   6   9
TORSDOF 1
ENDMDL
MODEL 2
REMARK VINA RESULT:      -4.8     15.657     16.248
REMARK  1 active torsions:
REMARK  status: ('A' for Active; 'I' for Inactive)
REMARK    1  A    between atoms: C6_6  and  C9_9 
ROOT
HETATM    1  C1  UNL     1     -22.263  17.316   7.956  1.00 20.00     0.119 C 
HETATM    2  C2  UNL     1     -23.302  16.979  10.148  1.00 20.00     0.043 A 
HETATM    3  C3  UNL     1     -24.248  17.395  11.079  1.00 20.00     0.012 A 
HETATM    4  C4  UNL     1     -24.886  19.126   9.577  1.00 20.00     0.125 A 
HETATM    5  C5  UNL     1     -23.207  17.683   8.959  1.00 20.00     0.136 A 
HETATM    6  C6  UNL     1     -25.059  18.488  10.794  1.00 20.00    -0.036 A 
HETATM    7  N10 UNL     1     -21.494  17.018   7.140  1.00 20.00    -0.190 NA
HETATM    8  N11 UNL     1     -23.978  18.750   8.649  1.00 20.00    -0.249 NA
ENDROOT
BRANCH   6   9
HETATM    9  C9  UNL     1     -26.078  18.959  11.769  1.00 20.00     0.020 A 
HETATM   10  C7  UNL     1     -27.070  17.972  12.332  1.00 20.00     0.010 A 
HETATM   11  C8  UNL     1     -27.528  19.010  11.355  1.00 20.00     0.010 A 
ENDBRANCH   6   9
TORSDOF 1
ENDMDL
MODEL 3
REMARK VINA RESULT:      -4.8      2.032      5.031
REMARK  1 active torsions:
REMARK  status: ('A' for Active; 'I' for Inactive)
REMARK    1  A    between atoms: C6_6  and  C9_9 
ROOT
HETATM    1  C1  UNL     1     -32.329  18.089  -1.769  1.00 20.00     0.119 C 
HETATM    2  C2  UNL     1     -34.427  16.829  -1.677  1.00 20.00     0.043 A 
HETATM    3  C3  UNL     1     -35.231  15.839  -2.233  1.00 20.00     0.012 A 
HETATM    4  C4  UNL     1     -33.560  15.487  -3.889  1.00 20.00     0.125 A 
HETATM    5  C5  UNL     1     -33.208  17.091  -2.281  1.00 20.00     0.136 A 
HETATM    6  C6  UNL     1     -34.795  15.151  -3.360  1.00 20.00    -0.036 A 
HETATM    7  N10 UNL     1     -31.613  18.903  -1.352  1.00 20.00    -0.190 NA
HETATM    8  N11 UNL     1     -32.752  16.443  -3.377  1.00 20.00    -0.249 NA
ENDROOT
BRANCH   6   9
HETATM    9  C9  UNL     1     -35.632  14.089  -3.979  1.00 20.00     0.020 A 
HETATM   10  C7  UNL     1     -35.980  14.187  -5.443  1.00 20.00     0.010 A 
HETATM   11  C8  UNL     1     -37.040  14.416  -4.411  1.00 20.00     0.010 A 
ENDBRANCH   6   9
TORSDOF 1
ENDMDL
MODEL 4
REMARK VINA RESULT:      -4.6      1.633      2.219
REMARK  1 active torsions:
REMARK  status: ('A' for Active; 'I' for Inactive)
REMARK    1  A    between atoms: C6_6  and  C9_9 
ROOT
HETATM    1  C1  UNL     1     -33.732  15.006  -4.209  1.00 20.00     0.119 C 
HETATM    2  C2  UNL     1     -35.063  15.848  -2.332  1.00 20.00     0.043 A 
HETATM    3  C3  UNL     1     -35.160  16.728  -1.260  1.00 20.00     0.012 A 
HETATM    4  C4  UNL     1     -32.995  17.548  -1.805  1.00 20.00     0.125 A 
HETATM    5  C5  UNL     1     -33.905  15.876  -3.093  1.00 20.00     0.136 A 
HETATM    6  C6  UNL     1     -34.110  17.598  -0.986  1.00 20.00    -0.036 A 
HETATM    7  N10 UNL     1     -33.591  14.297  -5.116  1.00 20.00    -0.190 NA
HETATM    8  N11 UNL     1     -32.865  16.707  -2.856  1.00 20.00    -0.249 NA
ENDROOT
BRANCH   6   9
HETATM    9  C9  UNL     1     -34.182  18.549   0.155  1.00 20.00     0.020 A 
HETATM   10  C7  UNL     1     -32.912  18.940   0.868  1.00 20.00     0.010 A 
HETATM   11  C8  UNL     1     -33.903  18.050   1.551  1.00 20.00     0.010 A 
ENDBRANCH   6   9
TORSDOF 1
ENDMDL
MODEL 5
REMARK VINA RESULT:      -4.6     10.988     13.191
REMARK  1 active torsions:
REMARK  status: ('A' for Active; 'I' for Inactive)
REMARK    1  A    between atoms: C6_6  and  C9_9 
ROOT
HETATM    1  C1  UNL     1     -26.820  19.233   3.917  1.00 20.00     0.119 C 
HETATM    2  C2  UNL     1     -27.106  19.143   6.348  1.00 20.00     0.043 A 
HETATM    3  C3  UNL     1     -26.508  19.117   7.603  1.00 20.00     0.012 A 
HETATM    4  C4  UNL     1     -24.385  19.209   6.535  1.00 20.00     0.125 A 
HETATM    5  C5  UNL     1     -26.282  19.202   5.237  1.00 20.00     0.136 A 
HETATM    6  C6  UNL     1     -25.122  19.151   7.706  1.00 20.00    -0.036 A 
HETATM    7  N10 UNL     1     -27.259  19.257   2.843  1.00 20.00    -0.190 NA
HETATM    8  N11 UNL     1     -24.931  19.235   5.298  1.00 20.00    -0.249 NA
ENDROOT
BRANCH   6   9
HETATM    9  C9  UNL     1     -24.452  19.122   9.033  1.00 20.00     0.020 A 
HETATM   10  C7  UNL     1     -23.051  18.572   9.138  1.00 20.00     0.010 A 
HETATM   11  C8  UNL     1     -24.199  17.795   9.704  1.00 20.00     0.010 A 
ENDBRANCH   6   9
TORSDOF 1
ENDMDL
MODEL 6
REMARK VINA RESULT:      -4.5     13.269     15.467
REMARK  1 active torsions:
REMARK  status: ('A' for Active; 'I' for Inactive)
REMARK    1  A    between atoms: C6_6  and  C9_9 
ROOT
HETATM    1  C1  UNL     1     -24.869  19.088   5.770  1.00 20.00     0.119 C 
HETATM    2  C2  UNL     1     -25.356  19.250   8.165  1.00 20.00     0.043 A 
HETATM    3  C3  UNL     1     -24.937  19.012   9.470  1.00 20.00     0.012 A 
HETATM    4  C4  UNL     1     -22.930  18.079   8.598  1.00 20.00     0.125 A 
HETATM    5  C5  UNL     1     -24.511  18.876   7.133  1.00 20.00     0.136 A 
HETATM    6  C6  UNL     1     -23.701  18.416   9.698  1.00 20.00    -0.036 A 
HETATM    7  N10 UNL     1     -25.162  19.261   4.660  1.00 20.00    -0.190 NA
HETATM    8  N11 UNL     1     -23.304  18.295   7.317  1.00 20.00    -0.249 NA
ENDROOT
BRANCH   6   9
HETATM    9  C9  UNL     1     -23.225  18.146  11.081  1.00 20.00     0.020 A 
HETATM   10  C7  UNL     1     -23.547  16.821  11.724  1.00 20.00     0.010 A 
HETATM   11  C8  UNL     1     -24.228  18.064  12.204  1.00 20.00     0.010 A 
ENDBRANCH   6   9
TORSDOF 1
ENDMDL
MODEL 7
REMARK VINA RESULT:      -4.5      1.089      1.367
REMARK  1 active torsions:
REMARK  status: ('A' for Active; 'I' for Inactive)
REMARK    1  A    between atoms: C6_6  and  C9_9 
ROOT
HETATM    1  C1  UNL     1     -34.408  14.661  -3.939  1.00 20.00     0.119 C 
HETATM    2  C2  UNL     1     -33.040  16.457  -2.989  1.00 20.00     0.043 A 
HETATM    3  C3  UNL     1     -32.907  17.450  -2.025  1.00 20.00     0.012 A 
HETATM    4  C4  UNL     1     -35.043  16.839  -1.176  1.00 20.00     0.125 A 
HETATM    5  C5  UNL     1     -34.199  15.698  -2.983  1.00 20.00     0.136 A 
HETATM    6  C6  UNL     1     -33.924  17.650  -1.097  1.00 20.00    -0.036 A 
HETATM    7  N10 UNL     1     -34.578  13.817  -4.717  1.00 20.00    -0.190 NA
HETATM    8  N11 UNL     1     -35.208  15.864  -2.099  1.00 20.00    -0.249 NA
ENDROOT
BRANCH   6   9
HETATM    9  C9  UNL     1     -33.813  18.705  -0.056  1.00 20.00     0.020 A 
HETATM   10  C7  UNL     1     -32.477  18.958   0.597  1.00 20.00     0.010 A 
HETATM   11  C8  UNL     1     -33.573  18.304   1.379  1.00 20.00     0.010 A 
ENDBRANCH   6   9
TORSDOF 1
ENDMDL
MODEL 8
REMARK VINA RESULT:      -4.5      1.415      1.869
REMARK  1 active torsions:
REMARK  status: ('A' for Active; 'I' for Inactive)
REMARK    1  A    between atoms: C6_6  and  C9_9 
ROOT
HETATM    1  C1  UNL     1     -35.496  14.617  -5.378  1.00 20.00     0.119 C 
HETATM    2  C2  UNL     1     -35.441  15.279  -3.020  1.00 20.00     0.043 A 
HETATM    3  C3  UNL     1     -34.856  16.062  -2.032  1.00 20.00     0.012 A 
HETATM    4  C4  UNL     1     -33.389  16.952  -3.678  1.00 20.00     0.125 A 
HETATM    5  C5  UNL     1     -34.947  15.386  -4.310  1.00 20.00     0.136 A 
HETATM    6  C6  UNL     1     -33.810  16.918  -2.360  1.00 20.00    -0.036 A 
HETATM    7  N10 UNL     1     -35.942  13.989  -6.247  1.00 20.00    -0.190 NA
HETATM    8  N11 UNL     1     -33.932  16.205  -4.666  1.00 20.00    -0.249 NA
ENDROOT
BRANCH   6   9
HETATM    9  C9  UNL     1     -33.162  17.767  -1.325  1.00 20.00     0.020 A 
HETATM   10  C7  UNL     1     -33.924  18.105  -0.068  1.00 20.00     0.010 A 
HETATM   11  C8  UNL     1     -33.674  19.167  -1.093  1.00 20.00     0.010 A 
ENDBRANCH   6   9
TORSDOF 1
ENDMDL
MODEL 9
REMARK VINA RESULT:      -4.4      2.828      4.289
REMARK  1 active torsions:
REMARK  status: ('A' for Active; 'I' for Inactive)
REMARK    1  A    between atoms: C6_6  and  C9_9 
ROOT
HETATM    1  C1  UNL     1     -39.771  15.253  -4.619  1.00 20.00     0.119 C 
HETATM    2  C2  UNL     1     -37.702  16.297  -3.824  1.00 20.00     0.043 A 
HETATM    3  C3  UNL     1     -36.347  16.159  -3.544  1.00 20.00     0.012 A 
HETATM    4  C4  UNL     1     -36.488  13.889  -4.240  1.00 20.00     0.125 A 
HETATM    5  C5  UNL     1     -38.381  15.190  -4.308  1.00 20.00     0.136 A 
HETATM    6  C6  UNL     1     -35.721  14.935  -3.754  1.00 20.00    -0.036 A 
HETATM    7  N10 UNL     1     -40.902  15.305  -4.872  1.00 20.00    -0.190 NA
HETATM    8  N11 UNL     1     -37.807  13.985  -4.523  1.00 20.00    -0.249 NA
ENDROOT
BRANCH   6   9
HETATM    9  C9  UNL     1     -34.275  14.754  -3.462  1.00 20.00     0.020 A 
HETATM   10  C7  UNL     1     -33.334  15.917  -3.659  1.00 20.00     0.010 A 
HETATM   11  C8  UNL     1     -33.286  14.755  -4.602  1.00 20.00     0.010 A 
ENDBRANCH   6   9
TORSDOF 1
ENDMDL
