MODEL 1
REMARK VINA RESULT:      -5.2      0.000      0.000
REMARK  2 active torsions:
REMARK  status: ('A' for Active; 'I' for Inactive)
REMARK    1  A    between atoms: C1_1  and  C8_8 
REMARK    2  A    between atoms: C2_2  and  C9_9 
ROOT
HETATM    1  C3  UNL     1     -34.146   4.937   4.031  1.00 20.00     0.142 C 
HETATM    2  C4  UNL     1     -35.034   5.403   5.199  1.00 20.00     0.081 C 
HETATM    3  C5  UNL     1     -34.255   6.737   5.157  1.00 20.00     0.032 C 
HETATM    4  C8  UNL     1     -33.162   6.111   4.243  1.00 20.00     0.135 C 
HETATM    5  O10 UNL     1     -34.205   4.008   3.253  1.00 20.00    -0.297 OA
ENDROOT
BRANCH   4   6
HETATM    6  C1  UNL     1     -32.866   6.838   3.034  1.00 20.00    -0.094 C 
HETATM    7  C2  UNL     1     -32.618   7.444   2.027  1.00 20.00    -0.101 C 
BRANCH   7   8
HETATM    8  C9  UNL     1     -32.317   8.183   0.802  1.00 20.00     0.065 A 
HETATM    9  C6  UNL     1     -32.904   9.546   0.647  1.00 20.00     0.018 A 
HETATM   10  C7  UNL     1     -33.427   8.402  -0.170  1.00 20.00     0.018 A 
ENDBRANCH   7   8
ENDBRANCH   4   6
TORSDOF 2
ENDMDL
MODEL 2
REMARK VINA RESULT:      -4.6     10.860     11.842
REMARK  2 active torsions:
REMARK  status: ('A' for Active; 'I' for Inactive)
REMARK    1  A    between atoms: C1_1  and  C8_8 
REMARK    2  A    between atoms: C2_2  and  C9_9 
ROOT
HETATM    1  C3  UNL     1     -31.829  18.348  -0.521  1.00 20.00     0.142 C 
HETATM    2  C4  UNL     1     -32.655  18.530   0.766  1.00 20.00     0.081 C 
HETATM    3  C5  UNL     1     -33.895  18.133  -0.067  1.00 20.00     0.032 C 
HETATM    4  C8  UNL     1     -33.104  18.311  -1.395  1.00 20.00     0.135 C 
HETATM    5  O10 UNL     1     -30.640  18.267  -0.748  1.00 20.00    -0.297 OA
ENDROOT
BRANCH   4   6
HETATM    6  C1  UNL     1     -33.146  17.191  -2.303  1.00 20.00    -0.094 C 
HETATM    7  C2  UNL     1     -33.182  16.259  -3.059  1.00 20.00    -0.101 C 
BRANCH   7   8
HETATM    8  C9  UNL     1     -33.225  15.124  -3.979  1.00 20.00     0.065 A 
HETATM    9  C6  UNL     1     -34.162  15.202  -5.139  1.00 20.00     0.018 A 
HETATM   10  C7  UNL     1     -34.457  14.283  -3.991  1.00 20.00     0.018 A 
ENDBRANCH   7   8
ENDBRANCH   4   6
TORSDOF 2
ENDMDL
MODEL 3
REMARK VINA RESULT:      -4.5     11.270     11.876
REMARK  2 active torsions:
REMARK  status: ('A' for Active; 'I' for Inactive)
REMARK    1  A    between atoms: C1_1  and  C8_8 
REMARK    2  A    between atoms: C2_2  and  C9_9 
ROOT
HETATM    1  C3  UNL     1     -31.499  18.423   0.058  1.00 20.00     0.142 C 
HETATM    2  C4  UNL     1     -31.844  18.526   1.555  1.00 20.00     0.081 C 
HETATM    3  C5  UNL     1     -33.324  18.350   1.147  1.00 20.00     0.032 C 
HETATM    4  C8  UNL     1     -32.979  18.612  -0.348  1.00 20.00     0.135 C 
HETATM    5  O10 UNL     1     -30.465  18.259  -0.554  1.00 20.00    -0.297 OA
ENDROOT
BRANCH   4   6
HETATM    6  C1  UNL     1     -33.450  17.619  -1.282  1.00 20.00    -0.094 C 
HETATM    7  C2  UNL     1     -33.843  16.792  -2.059  1.00 20.00    -0.101 C 
BRANCH   7   8
HETATM    8  C9  UNL     1     -34.321  15.785  -3.005  1.00 20.00     0.065 A 
HETATM    9  C6  UNL     1     -33.327  15.178  -3.938  1.00 20.00     0.018 A 
HETATM   10  C7  UNL     1     -34.350  16.146  -4.452  1.00 20.00     0.018 A 
ENDBRANCH   7   8
ENDBRANCH   4   6
TORSDOF 2
ENDMDL
MODEL 4
REMARK VINA RESULT:      -4.3     10.590     11.601
REMARK  2 active torsions:
REMARK  status: ('A' for Active; 'I' for Inactive)
REMARK    1  A    between atoms: C1_1  and  C8_8 
REMARK    2  A    between atoms: C2_2  and  C9_9 
ROOT
HETATM    1  C3  UNL     1     -34.240  14.493  -4.115  1.00 20.00     0.142 C 
HETATM    2  C4  UNL     1     -35.630  14.601  -4.769  1.00 20.00     0.081 C 
HETATM    3  C5  UNL     1     -35.960  15.675  -3.707  1.00 20.00     0.032 C 
HETATM    4  C8  UNL     1     -34.708  15.283  -2.871  1.00 20.00     0.135 C 
HETATM    5  O10 UNL     1     -33.193  13.984  -4.454  1.00 20.00    -0.297 OA
ENDROOT
BRANCH   4   6
HETATM    6  C1  UNL     1     -33.828  16.369  -2.515  1.00 20.00    -0.094 C 
HETATM    7  C2  UNL     1     -33.097  17.274  -2.218  1.00 20.00    -0.101 C 
BRANCH   7   8
HETATM    8  C9  UNL     1     -32.206  18.376  -1.859  1.00 20.00     0.065 A 
HETATM    9  C6  UNL     1     -31.405  18.244  -0.606  1.00 20.00     0.018 A 
HETATM   10  C7  UNL     1     -32.561  19.198  -0.666  1.00 20.00     0.018 A 
ENDBRANCH   7   8
ENDBRANCH   4   6
TORSDOF 2
ENDMDL
MODEL 5
REMARK VINA RESULT:      -4.2     10.664     11.926
REMARK  2 active torsions:
REMARK  status: ('A' for Active; 'I' for Inactive)
REMARK    1  A    between atoms: C1_1  and  C8_8 
REMARK    2  A    between atoms: C2_2  and  C9_9 
ROOT
HETATM    1  C3  UNL     1     -34.762  16.172  -2.444  1.00 20.00     0.142 C 
HETATM    2  C4  UNL     1     -34.411  14.949  -3.311  1.00 20.00     0.081 C 
HETATM    3  C5  UNL     1     -33.080  15.662  -3.642  1.00 20.00     0.032 C 
HETATM    4  C8  UNL     1     -33.617  17.005  -3.065  1.00 20.00     0.135 C 
HETATM    5  O10 UNL     1     -35.609  16.387  -1.603  1.00 20.00    -0.297 OA
ENDROOT
BRANCH   4   6
HETATM    6  C1  UNL     1     -32.774  17.645  -2.085  1.00 20.00    -0.094 C 
HETATM    7  C2  UNL     1     -32.073  18.178  -1.270  1.00 20.00    -0.101 C 
BRANCH   7   8
HETATM    8  C9  UNL     1     -31.219  18.828  -0.277  1.00 20.00     0.065 A 
HETATM    9  C6  UNL     1     -30.782  18.023   0.902  1.00 20.00     0.018 A 
HETATM   10  C7  UNL     1     -31.803  19.110   1.067  1.00 20.00     0.018 A 
ENDBRANCH   7   8
ENDBRANCH   4   6
TORSDOF 2
ENDMDL
MODEL 6
REMARK VINA RESULT:      -4.1     10.828     12.110
REMARK  2 active torsions:
REMARK  status: ('A' for Active; 'I' for Inactive)
REMARK    1  A    between atoms: C1_1  and  C8_8 
REMARK    2  A    between atoms: C2_2  and  C9_9 
ROOT
HETATM    1  C3  UNL     1     -34.509  15.707  -5.304  1.00 20.00     0.142 C 
HETATM    2  C4  UNL     1     -35.458  14.498  -5.221  1.00 20.00     0.081 C 
HETATM    3  C5  UNL     1     -34.814  14.184  -3.851  1.00 20.00     0.032 C 
HETATM    4  C8  UNL     1     -33.649  15.177  -4.133  1.00 20.00     0.135 C 
HETATM    5  O10 UNL     1     -34.462  16.687  -6.016  1.00 20.00    -0.297 OA
ENDROOT
BRANCH   4   6
HETATM    6  C1  UNL     1     -33.403  16.161  -3.108  1.00 20.00    -0.094 C 
HETATM    7  C2  UNL     1     -33.199  16.980  -2.254  1.00 20.00    -0.101 C 
BRANCH   7   8
HETATM    8  C9  UNL     1     -32.950  17.978  -1.215  1.00 20.00     0.065 A 
HETATM    9  C6  UNL     1     -32.297  19.257  -1.619  1.00 20.00     0.018 A 
HETATM   10  C7  UNL     1     -31.534  18.239  -0.825  1.00 20.00     0.018 A 
ENDBRANCH   7   8
ENDBRANCH   4   6
TORSDOF 2
ENDMDL
MODEL 7
REMARK VINA RESULT:      -4.1     10.809     11.324
REMARK  2 active torsions:
REMARK  status: ('A' for Active; 'I' for Inactive)
REMARK    1  A    between atoms: C1_1  and  C8_8 
REMARK    2  A    between atoms: C2_2  and  C9_9 
ROOT
HETATM    1  C3  UNL     1     -33.719  18.088   0.006  1.00 20.00     0.142 C 
HETATM    2  C4  UNL     1     -34.369  17.930   1.393  1.00 20.00     0.081 C 
HETATM    3  C5  UNL     1     -35.526  17.193   0.682  1.00 20.00     0.032 C 
HETATM    4  C8  UNL     1     -35.028  17.682  -0.710  1.00 20.00     0.135 C 
HETATM    5  O10 UNL     1     -32.610  18.408  -0.367  1.00 20.00    -0.297 OA
ENDROOT
BRANCH   4   6
HETATM    6  C1  UNL     1     -34.844  16.654  -1.705  1.00 20.00    -0.094 C 
HETATM    7  C2  UNL     1     -34.691  15.798  -2.533  1.00 20.00    -0.101 C 
BRANCH   7   8
HETATM    8  C9  UNL     1     -34.504  14.757  -3.541  1.00 20.00     0.065 A 
HETATM    9  C6  UNL     1     -33.199  14.711  -4.263  1.00 20.00     0.018 A 
HETATM   10  C7  UNL     1     -34.437  15.175  -4.972  1.00 20.00     0.018 A 
ENDBRANCH   7   8
ENDBRANCH   4   6
TORSDOF 2
ENDMDL
MODEL 8
REMARK VINA RESULT:      -4.1      9.599     10.392
REMARK  2 active torsions:
REMARK  status: ('A' for Active; 'I' for Inactive)
REMARK    1  A    between atoms: C1_1  and  C8_8 
REMARK    2  A    between atoms: C2_2  and  C9_9 
ROOT
HETATM    1  C3  UNL     1     -42.249   6.856   0.579  1.00 20.00     0.142 C 
HETATM    2  C4  UNL     1     -41.982   8.294   0.099  1.00 20.00     0.081 C 
HETATM    3  C5  UNL     1     -41.287   7.671  -1.133  1.00 20.00     0.032 C 
HETATM    4  C8  UNL     1     -41.254   6.273  -0.450  1.00 20.00     0.135 C 
HETATM    5  O10 UNL     1     -42.964   6.378   1.435  1.00 20.00    -0.297 OA
ENDROOT
BRANCH   4   6
HETATM    6  C1  UNL     1     -41.798   5.185  -1.225  1.00 20.00    -0.094 C 
HETATM    7  C2  UNL     1     -42.251   4.279  -1.869  1.00 20.00    -0.101 C 
BRANCH   7   8
HETATM    8  C9  UNL     1     -42.803   3.177  -2.655  1.00 20.00     0.065 A 
HETATM    9  C6  UNL     1     -42.044   2.731  -3.860  1.00 20.00     0.018 A 
HETATM   10  C7  UNL     1     -43.330   3.486  -4.016  1.00 20.00     0.018 A 
ENDBRANCH   7   8
ENDBRANCH   4   6
TORSDOF 2
ENDMDL
MODEL 9
REMARK VINA RESULT:      -4.1     10.172     10.981
REMARK  2 active torsions:
REMARK  status: ('A' for Active; 'I' for Inactive)
REMARK    1  A    between atoms: C1_1  and  C8_8 
REMARK    2  A    between atoms: C2_2  and  C9_9 
ROOT
HETATM    1  C3  UNL     1     -42.615   7.129  -1.356  1.00 20.00     0.142 C 
HETATM    2  C4  UNL     1     -41.333   7.628  -0.664  1.00 20.00     0.081 C 
HETATM    3  C5  UNL     1     -41.026   6.148  -0.338  1.00 20.00     0.032 C 
HETATM    4  C8  UNL     1     -42.476   5.728  -0.717  1.00 20.00     0.135 C 
HETATM    5  O10 UNL     1     -43.414   7.643  -2.109  1.00 20.00    -0.297 OA
ENDROOT
BRANCH   4   6
HETATM    6  C1  UNL     1     -42.586   4.648  -1.666  1.00 20.00    -0.094 C 
HETATM    7  C2  UNL     1     -42.677   3.749  -2.457  1.00 20.00    -0.101 C 
BRANCH   7   8
HETATM    8  C9  UNL     1     -42.789   2.655  -3.420  1.00 20.00     0.065 A 
HETATM    9  C6  UNL     1     -41.624   2.392  -4.314  1.00 20.00     0.018 A 
HETATM   10  C7  UNL     1     -42.876   3.006  -4.867  1.00 20.00     0.018 A 
ENDBRANCH   7   8
ENDBRANCH   4   6
TORSDOF 2
ENDMDL
