MODEL 1
REMARK VINA RESULT:      -5.2      0.000      0.000
REMARK  3 active torsions:
REMARK  status: ('A' for Active; 'I' for Inactive)
REMARK    1  A    between atoms: C3_3  and  C7_7 
REMARK    2  A    between atoms: C5_5  and  C8_8 
REMARK    3  A    between atoms: C6_6  and  C9_9 
ROOT
HETATM    1  C7  UNL     1     -35.442  14.708  -4.671  1.00 20.00     0.097 A 
HETATM    2  C8  UNL     1     -35.017  15.444  -3.416  1.00 20.00     0.013 A 
HETATM    3  C9  UNL     1     -34.028  14.560  -4.142  1.00 20.00     0.013 A 
ENDROOT
BRANCH   1   4
HETATM    4  C3  UNL     1     -36.328  13.571  -4.494  1.00 20.00     0.177 C 
HETATM    5  O10 UNL     1     -35.757  12.449  -4.417  1.00 20.00    -0.648 OA
HETATM    6  O11 UNL     1     -37.557  13.860  -4.442  1.00 20.00    -0.648 OA
ENDBRANCH   1   4
BRANCH   2   7
HETATM    7  C5  UNL     1     -34.320  16.813  -3.383  1.00 20.00     0.014 C 
HETATM    8  C1  UNL     1     -35.380  17.895  -3.228  1.00 20.00    -0.025 C 
HETATM    9  C2  UNL     1     -35.887  17.770  -1.988  1.00 20.00    -0.025 C 
HETATM   10  C6  UNL     1     -35.161  16.606  -1.327  1.00 20.00     0.014 C 
HETATM   11  C4  UNL     1     -33.777  16.890  -1.943  1.00 20.00     0.017 C 
ENDBRANCH   2   7
TORSDOF 3
ENDMDL
MODEL 2
REMARK VINA RESULT:      -5.2     16.441     17.988
REMARK  3 active torsions:
REMARK  status: ('A' for Active; 'I' for Inactive)
REMARK    1  A    between atoms: C3_3  and  C7_7 
REMARK    2  A    between atoms: C5_5  and  C8_8 
REMARK    3  A    between atoms: C6_6  and  C9_9 
ROOT
HETATM    1  C7  UNL     1     -23.115  18.339   9.046  1.00 20.00     0.097 A 
HETATM    2  C8  UNL     1     -23.641  17.230   9.937  1.00 20.00     0.013 A 
HETATM    3  C9  UNL     1     -22.386  17.010   9.123  1.00 20.00     0.013 A 
ENDROOT
BRANCH   1   4
HETATM    4  C3  UNL     1     -23.859  18.607   7.828  1.00 20.00     0.177 C 
HETATM    5  O10 UNL     1     -23.194  18.516   6.759  1.00 20.00    -0.648 OA
HETATM    6  O11 UNL     1     -25.076  18.896   8.004  1.00 20.00    -0.648 OA
ENDBRANCH   1   4
BRANCH   2   7
HETATM    7  C5  UNL     1     -23.185  16.960  11.379  1.00 20.00     0.014 C 
HETATM    8  C1  UNL     1     -23.590  18.144  12.247  1.00 20.00    -0.025 C 
HETATM    9  C2  UNL     1     -24.933  18.123  12.332  1.00 20.00    -0.025 C 
HETATM   10  C6  UNL     1     -25.411  16.927  11.521  1.00 20.00     0.014 C 
HETATM   11  C4  UNL     1     -24.255  15.982  11.902  1.00 20.00     0.017 C 
ENDBRANCH   2   7
TORSDOF 3
ENDMDL
MODEL 3
REMARK VINA RESULT:      -4.7      1.025      1.414
REMARK  3 active torsions:
REMARK  status: ('A' for Active; 'I' for Inactive)
REMARK    1  A    between atoms: C3_3  and  C7_7 
REMARK    2  A    between atoms: C5_5  and  C8_8 
REMARK    3  A    between atoms: C6_6  and  C9_9 
ROOT
HETATM    1  C7  UNL     1     -35.065  14.770  -4.817  1.00 20.00     0.097 A 
HETATM    2  C8  UNL     1     -35.140  15.087  -3.336  1.00 20.00     0.013 A 
HETATM    3  C9  UNL     1     -34.271  13.947  -3.819  1.00 20.00     0.013 A 
ENDROOT
BRANCH   1   4
HETATM    4  C3  UNL     1     -36.229  14.134  -5.409  1.00 20.00     0.177 C 
HETATM    5  O10 UNL     1     -37.077  13.688  -4.587  1.00 20.00    -0.648 OA
HETATM    6  O11 UNL     1     -36.236  14.112  -6.672  1.00 20.00    -0.648 OA
ENDBRANCH   1   4
BRANCH   2   7
HETATM    7  C5  UNL     1     -34.157  15.988  -2.572  1.00 20.00     0.014 C 
HETATM    8  C1  UNL     1     -34.004  17.297  -3.336  1.00 20.00    -0.025 C 
HETATM    9  C2  UNL     1     -35.177  17.949  -3.231  1.00 20.00    -0.025 C 
HETATM   10  C6  UNL     1     -36.101  17.070  -2.400  1.00 20.00     0.014 C 
HETATM   11  C4  UNL     1     -35.023  16.551  -1.428  1.00 20.00     0.017 C 
ENDBRANCH   2   7
TORSDOF 3
ENDMDL
MODEL 4
REMARK VINA RESULT:      -4.6      1.108      1.769
REMARK  3 active torsions:
REMARK  status: ('A' for Active; 'I' for Inactive)
REMARK    1  A    between atoms: C3_3  and  C7_7 
REMARK    2  A    between atoms: C5_5  and  C8_8 
REMARK    3  A    between atoms: C6_6  and  C9_9 
ROOT
HETATM    1  C7  UNL     1     -35.657  14.763  -3.926  1.00 20.00     0.097 A 
HETATM    2  C8  UNL     1     -34.727  15.955  -4.037  1.00 20.00     0.013 A 
HETATM    3  C9  UNL     1     -35.772  15.713  -5.103  1.00 20.00     0.013 A 
ENDROOT
BRANCH   1   4
HETATM    4  C3  UNL     1     -35.081  13.457  -4.194  1.00 20.00     0.177 C 
HETATM    5  O10 UNL     1     -33.822  13.400  -4.132  1.00 20.00    -0.648 OA
HETATM    6  O11 UNL     1     -35.922  12.551  -4.454  1.00 20.00    -0.648 OA
ENDBRANCH   1   4
BRANCH   2   7
HETATM    7  C5  UNL     1     -35.042  17.375  -3.541  1.00 20.00     0.014 C 
HETATM    8  C1  UNL     1     -35.234  17.331  -2.031  1.00 20.00    -0.025 C 
HETATM    9  C2  UNL     1     -34.029  17.068  -1.491  1.00 20.00    -0.025 C 
HETATM   10  C6  UNL     1     -33.045  16.940  -2.646  1.00 20.00     0.014 C 
HETATM   11  C4  UNL     1     -33.656  18.050  -3.523  1.00 20.00     0.017 C 
ENDBRANCH   2   7
TORSDOF 3
ENDMDL
MODEL 5
REMARK VINA RESULT:      -4.5      2.395      4.132
REMARK  3 active torsions:
REMARK  status: ('A' for Active; 'I' for Inactive)
REMARK    1  A    between atoms: C3_3  and  C7_7 
REMARK    2  A    between atoms: C5_5  and  C8_8 
REMARK    3  A    between atoms: C6_6  and  C9_9 
ROOT
HETATM    1  C7  UNL     1     -34.721  16.089  -1.982  1.00 20.00     0.097 A 
HETATM    2  C8  UNL     1     -34.643  15.877  -3.481  1.00 20.00     0.013 A 
HETATM    3  C9  UNL     1     -33.460  16.459  -2.740  1.00 20.00     0.013 A 
ENDROOT
BRANCH   1   4
HETATM    4  C3  UNL     1     -35.551  17.188  -1.519  1.00 20.00     0.177 C 
HETATM    5  O10 UNL     1     -35.239  17.662  -0.392  1.00 20.00    -0.648 OA
HETATM    6  O11 UNL     1     -36.477  17.521  -2.311  1.00 20.00    -0.648 OA
ENDBRANCH   1   4
BRANCH   2   7
HETATM    7  C5  UNL     1     -34.058  14.635  -4.172  1.00 20.00     0.014 C 
HETATM    8  C1  UNL     1     -35.024  13.474  -3.980  1.00 20.00    -0.025 C 
HETATM    9  C2  UNL     1     -36.120  13.753  -4.709  1.00 20.00    -0.025 C 
HETATM   10  C6  UNL     1     -35.876  15.098  -5.380  1.00 20.00     0.014 C 
HETATM   11  C4  UNL     1     -34.376  14.886  -5.659  1.00 20.00     0.017 C 
ENDBRANCH   2   7
TORSDOF 3
ENDMDL
MODEL 6
REMARK VINA RESULT:      -4.5      1.069      1.618
REMARK  3 active torsions:
REMARK  status: ('A' for Active; 'I' for Inactive)
REMARK    1  A    between atoms: C3_3  and  C7_7 
REMARK    2  A    between atoms: C5_5  and  C8_8 
REMARK    3  A    between atoms: C6_6  and  C9_9 
ROOT
HETATM    1  C7  UNL     1     -35.583  14.824  -4.534  1.00 20.00     0.097 A 
HETATM    2  C8  UNL     1     -35.859  15.871  -3.473  1.00 20.00     0.013 A 
HETATM    3  C9  UNL     1     -34.611  15.022  -3.386  1.00 20.00     0.013 A 
ENDROOT
BRANCH   1   4
HETATM    4  C3  UNL     1     -36.402  13.624  -4.497  1.00 20.00     0.177 C 
HETATM    5  O10 UNL     1     -35.763  12.536  -4.472  1.00 20.00    -0.648 OA
HETATM    6  O11 UNL     1     -37.647  13.834  -4.496  1.00 20.00    -0.648 OA
ENDBRANCH   1   4
BRANCH   2   7
HETATM    7  C5  UNL     1     -35.315  17.308  -3.483  1.00 20.00     0.014 C 
HETATM    8  C1  UNL     1     -35.970  18.067  -4.630  1.00 20.00    -0.025 C 
HETATM    9  C2  UNL     1     -37.267  18.223  -4.304  1.00 20.00    -0.025 C 
HETATM   10  C6  UNL     1     -37.465  17.567  -2.945  1.00 20.00     0.014 C 
HETATM   11  C4  UNL     1     -36.107  17.985  -2.348  1.00 20.00     0.017 C 
ENDBRANCH   2   7
TORSDOF 3
ENDMDL
MODEL 7
REMARK VINA RESULT:      -4.5      1.106      1.860
REMARK  3 active torsions:
REMARK  status: ('A' for Active; 'I' for Inactive)
REMARK    1  A    between atoms: C3_3  and  C7_7 
REMARK    2  A    between atoms: C5_5  and  C8_8 
REMARK    3  A    between atoms: C6_6  and  C9_9 
ROOT
HETATM    1  C7  UNL     1     -36.643  15.551  -4.249  1.00 20.00     0.097 A 
HETATM    2  C8  UNL     1     -35.239  16.122  -4.231  1.00 20.00     0.013 A 
HETATM    3  C9  UNL     1     -36.122  16.333  -5.440  1.00 20.00     0.013 A 
ENDROOT
BRANCH   1   4
HETATM    4  C3  UNL     1     -36.762  14.113  -4.412  1.00 20.00     0.177 C 
HETATM    5  O10 UNL     1     -37.943  13.670  -4.444  1.00 20.00    -0.648 OA
HETATM    6  O11 UNL     1     -35.663  13.497  -4.501  1.00 20.00    -0.648 OA
ENDBRANCH   1   4
BRANCH   2   7
HETATM    7  C5  UNL     1     -34.868  17.550  -3.804  1.00 20.00     0.014 C 
HETATM    8  C1  UNL     1     -35.117  17.691  -2.308  1.00 20.00    -0.025 C 
HETATM    9  C2  UNL     1     -34.200  16.927  -1.686  1.00 20.00    -0.025 C 
HETATM   10  C6  UNL     1     -33.347  16.285  -2.772  1.00 20.00     0.014 C 
HETATM   11  C4  UNL     1     -33.329  17.498  -3.722  1.00 20.00     0.017 C 
ENDBRANCH   2   7
TORSDOF 3
ENDMDL
MODEL 8
REMARK VINA RESULT:      -4.4      1.613      2.397
REMARK  3 active torsions:
REMARK  status: ('A' for Active; 'I' for Inactive)
REMARK    1  A    between atoms: C3_3  and  C7_7 
REMARK    2  A    between atoms: C5_5  and  C8_8 
REMARK    3  A    between atoms: C6_6  and  C9_9 
ROOT
HETATM    1  C7  UNL     1     -37.700  15.910  -4.217  1.00 20.00     0.097 A 
HETATM    2  C8  UNL     1     -36.194  16.015  -4.362  1.00 20.00     0.013 A 
HETATM    3  C9  UNL     1     -37.096  16.626  -5.411  1.00 20.00     0.013 A 
ENDROOT
BRANCH   1   4
HETATM    4  C3  UNL     1     -38.292  14.608  -4.466  1.00 20.00     0.177 C 
HETATM    5  O10 UNL     1     -39.534  14.614  -4.689  1.00 20.00    -0.648 OA
HETATM    6  O11 UNL     1     -37.480  13.641  -4.425  1.00 20.00    -0.648 OA
ENDBRANCH   1   4
BRANCH   2   7
HETATM    7  C5  UNL     1     -35.338  17.200  -3.890  1.00 20.00     0.014 C 
HETATM    8  C1  UNL     1     -35.479  17.330  -2.379  1.00 20.00    -0.025 C 
HETATM    9  C2  UNL     1     -34.865  16.262  -1.837  1.00 20.00    -0.025 C 
HETATM   10  C6  UNL     1     -34.321  15.430  -2.990  1.00 20.00     0.014 C 
HETATM   11  C4  UNL     1     -33.912  16.616  -3.885  1.00 20.00     0.017 C 
ENDBRANCH   2   7
TORSDOF 3
ENDMDL
MODEL 9
REMARK VINA RESULT:      -4.3      3.215      4.551
REMARK  3 active torsions:
REMARK  status: ('A' for Active; 'I' for Inactive)
REMARK    1  A    between atoms: C3_3  and  C7_7 
REMARK    2  A    between atoms: C5_5  and  C8_8 
REMARK    3  A    between atoms: C6_6  and  C9_9 
ROOT
HETATM    1  C7  UNL     1     -34.497  17.555  -2.107  1.00 20.00     0.097 A 
HETATM    2  C8  UNL     1     -34.374  16.101  -2.519  1.00 20.00     0.013 A 
HETATM    3  C9  UNL     1     -35.183  16.472  -1.296  1.00 20.00     0.013 A 
ENDROOT
BRANCH   1   4
HETATM    4  C3  UNL     1     -33.321  18.168  -1.515  1.00 20.00     0.177 C 
HETATM    5  O10 UNL     1     -32.224  17.611  -1.794  1.00 20.00    -0.648 OA
HETATM    6  O11 UNL     1     -33.557  19.181  -0.798  1.00 20.00    -0.648 OA
ENDBRANCH   1   4
BRANCH   2   7
HETATM    7  C5  UNL     1     -35.379  15.340  -3.398  1.00 20.00     0.014 C 
HETATM    8  C1  UNL     1     -35.399  15.981  -4.779  1.00 20.00    -0.025 C 
HETATM    9  C2  UNL     1     -34.212  15.711  -5.352  1.00 20.00    -0.025 C 
HETATM   10  C6  UNL     1     -33.411  14.893  -4.348  1.00 20.00     0.014 C 
HETATM   11  C4  UNL     1     -34.597  14.075  -3.801  1.00 20.00     0.017 C 
ENDBRANCH   2   7
TORSDOF 3
ENDMDL
