MODEL 1
REMARK VINA RESULT:      -3.9      0.000      0.000
REMARK  3 active torsions:
REMARK  status: ('A' for Active; 'I' for Inactive)
REMARK    1  A    between atoms: C1_1  and  C3_3 
REMARK    2  A    between atoms: C2_2  and  N8_8 
REMARK    3  A    between atoms: C4_4  and  C5_5 
ROOT
HETATM    1  C1  UNL     1     -34.690  15.197  -3.093  1.00 20.00    -0.056 C 
HETATM    2  C2  UNL     1     -34.645  16.110  -2.313  1.00 20.00     0.012 C 
ENDROOT
BRANCH   1   3
HETATM    3  C3  UNL     1     -34.743  14.113  -4.009  1.00 20.00     0.069 C 
HETATM    4  C4  UNL     1     -35.901  13.717  -4.550  1.00 20.00     0.050 C 
BRANCH   4   5
HETATM    5  C5  UNL     1     -37.140  14.427  -4.180  1.00 20.00     0.259 C 
HETATM    6  O9  UNL     1     -38.248  13.946  -4.386  1.00 20.00    -0.302 OA
ENDBRANCH   4   5
ENDBRANCH   1   3
BRANCH   2   7
HETATM    7  N8  UNL     1     -34.592  17.202  -1.381  1.00 20.00    -0.350 N 
HETATM    8  C6  UNL     1     -33.347  17.947  -1.270  1.00 20.00     0.159 C 
HETATM    9  C7  UNL     1     -35.446  17.138  -0.204  1.00 20.00     0.159 C 
ENDBRANCH   2   7
TORSDOF 3
ENDMDL
MODEL 2
REMARK VINA RESULT:      -3.8      1.508      1.945
REMARK  3 active torsions:
REMARK  status: ('A' for Active; 'I' for Inactive)
REMARK    1  A    between atoms: C1_1  and  C3_3 
REMARK    2  A    between atoms: C2_2  and  N8_8 
REMARK    3  A    between atoms: C4_4  and  C5_5 
ROOT
HETATM    1  C1  UNL     1     -34.387  15.977  -2.571  1.00 20.00    -0.056 C 
HETATM    2  C2  UNL     1     -35.059  16.504  -1.727  1.00 20.00     0.012 C 
ENDROOT
BRANCH   1   3
HETATM    3  C3  UNL     1     -33.586  15.353  -3.564  1.00 20.00     0.069 C 
HETATM    4  C4  UNL     1     -34.063  14.351  -4.312  1.00 20.00     0.050 C 
BRANCH   4   5
HETATM    5  C5  UNL     1     -35.449  13.895  -4.093  1.00 20.00     0.259 C 
HETATM    6  O9  UNL     1     -35.831  12.788  -4.455  1.00 20.00    -0.302 OA
ENDBRANCH   4   5
ENDBRANCH   1   3
BRANCH   2   7
HETATM    7  N8  UNL     1     -35.864  17.134  -0.717  1.00 20.00    -0.350 N 
HETATM    8  C6  UNL     1     -36.858  18.109  -1.143  1.00 20.00     0.159 C 
HETATM    9  C7  UNL     1     -35.294  17.291   0.613  1.00 20.00     0.159 C 
ENDBRANCH   2   7
TORSDOF 3
ENDMDL
MODEL 3
REMARK VINA RESULT:      -3.5      3.512      5.519
REMARK  3 active torsions:
REMARK  status: ('A' for Active; 'I' for Inactive)
REMARK    1  A    between atoms: C1_1  and  C3_3 
REMARK    2  A    between atoms: C2_2  and  N8_8 
REMARK    3  A    between atoms: C4_4  and  C5_5 
ROOT
HETATM    1  C1  UNL     1     -34.232  16.961  -1.512  1.00 20.00    -0.056 C 
HETATM    2  C2  UNL     1     -34.308  16.107  -2.352  1.00 20.00     0.012 C 
ENDROOT
BRANCH   1   3
HETATM    3  C3  UNL     1     -34.136  17.972  -0.519  1.00 20.00     0.069 C 
HETATM    4  C4  UNL     1     -32.980  18.602  -0.280  1.00 20.00     0.050 C 
BRANCH   4   5
HETATM    5  C5  UNL     1     -31.789  18.233  -1.069  1.00 20.00     0.259 C 
HETATM    6  O9  UNL     1     -30.653  18.374  -0.631  1.00 20.00    -0.302 OA
ENDBRANCH   4   5
ENDBRANCH   1   3
BRANCH   2   7
HETATM    7  N8  UNL     1     -34.398  15.085  -3.359  1.00 20.00    -0.350 N 
HETATM    8  C6  UNL     1     -33.253  14.882  -4.233  1.00 20.00     0.159 C 
HETATM    9  C7  UNL     1     -35.715  14.761  -3.887  1.00 20.00     0.159 C 
ENDBRANCH   2   7
TORSDOF 3
ENDMDL
MODEL 4
REMARK VINA RESULT:      -3.5      1.596      2.180
REMARK  3 active torsions:
REMARK  status: ('A' for Active; 'I' for Inactive)
REMARK    1  A    between atoms: C1_1  and  C3_3 
REMARK    2  A    between atoms: C2_2  and  N8_8 
REMARK    3  A    between atoms: C4_4  and  C5_5 
ROOT
HETATM    1  C1  UNL     1     -33.981  16.376  -2.475  1.00 20.00    -0.056 C 
HETATM    2  C2  UNL     1     -34.689  16.934  -1.680  1.00 20.00     0.012 C 
ENDROOT
BRANCH   1   3
HETATM    3  C3  UNL     1     -33.145  15.722  -3.419  1.00 20.00     0.069 C 
HETATM    4  C4  UNL     1     -33.593  14.691  -4.145  1.00 20.00     0.050 C 
BRANCH   4   5
HETATM    5  C5  UNL     1     -34.983  14.234  -3.954  1.00 20.00     0.259 C 
HETATM    6  O9  UNL     1     -35.351  13.118  -4.301  1.00 20.00    -0.302 OA
ENDBRANCH   4   5
ENDBRANCH   1   3
BRANCH   2   7
HETATM    7  N8  UNL     1     -35.535  17.601  -0.730  1.00 20.00    -0.350 N 
HETATM    8  C6  UNL     1     -35.388  17.257   0.677  1.00 20.00     0.159 C 
HETATM    9  C7  UNL     1     -36.842  18.057  -1.180  1.00 20.00     0.159 C 
ENDBRANCH   2   7
TORSDOF 3
ENDMDL
MODEL 5
REMARK VINA RESULT:      -3.4      1.559      1.989
REMARK  3 active torsions:
REMARK  status: ('A' for Active; 'I' for Inactive)
REMARK    1  A    between atoms: C1_1  and  C3_3 
REMARK    2  A    between atoms: C2_2  and  N8_8 
REMARK    3  A    between atoms: C4_4  and  C5_5 
ROOT
HETATM    1  C1  UNL     1     -34.486  15.927  -4.480  1.00 20.00    -0.056 C 
HETATM    2  C2  UNL     1     -34.232  16.304  -3.368  1.00 20.00     0.012 C 
ENDROOT
BRANCH   1   3
HETATM    3  C3  UNL     1     -34.780  15.477  -5.795  1.00 20.00     0.069 C 
HETATM    4  C4  UNL     1     -35.613  14.452  -6.008  1.00 20.00     0.050 C 
BRANCH   4   5
HETATM    5  C5  UNL     1     -36.233  13.784  -4.848  1.00 20.00     0.259 C 
HETATM    6  O9  UNL     1     -35.907  12.655  -4.500  1.00 20.00    -0.302 OA
ENDBRANCH   4   5
ENDBRANCH   1   3
BRANCH   2   7
HETATM    7  N8  UNL     1     -33.929  16.754  -2.037  1.00 20.00    -0.350 N 
HETATM    8  C6  UNL     1     -35.031  16.903  -1.099  1.00 20.00     0.159 C 
HETATM    9  C7  UNL     1     -32.766  17.609  -1.853  1.00 20.00     0.159 C 
ENDBRANCH   2   7
TORSDOF 3
ENDMDL
MODEL 6
REMARK VINA RESULT:      -3.4      2.022      2.547
REMARK  3 active torsions:
REMARK  status: ('A' for Active; 'I' for Inactive)
REMARK    1  A    between atoms: C1_1  and  C3_3 
REMARK    2  A    between atoms: C2_2  and  N8_8 
REMARK    3  A    between atoms: C4_4  and  C5_5 
ROOT
HETATM    1  C1  UNL     1     -35.152  16.239  -2.861  1.00 20.00    -0.056 C 
HETATM    2  C2  UNL     1     -36.070  16.939  -2.531  1.00 20.00     0.012 C 
ENDROOT
BRANCH   1   3
HETATM    3  C3  UNL     1     -34.069  15.409  -3.258  1.00 20.00     0.069 C 
HETATM    4  C4  UNL     1     -34.276  14.278  -3.941  1.00 20.00     0.050 C 
BRANCH   4   5
HETATM    5  C5  UNL     1     -35.659  13.893  -4.284  1.00 20.00     0.259 C 
HETATM    6  O9  UNL     1     -35.966  12.734  -4.533  1.00 20.00    -0.302 OA
ENDBRANCH   4   5
ENDBRANCH   1   3
BRANCH   2   7
HETATM    7  N8  UNL     1     -37.168  17.778  -2.136  1.00 20.00    -0.350 N 
HETATM    8  C6  UNL     1     -37.223  18.228  -0.753  1.00 20.00     0.159 C 
HETATM    9  C7  UNL     1     -38.429  17.634  -2.848  1.00 20.00     0.159 C 
ENDBRANCH   2   7
TORSDOF 3
ENDMDL
MODEL 7
REMARK VINA RESULT:      -3.3      2.284      2.698
REMARK  3 active torsions:
REMARK  status: ('A' for Active; 'I' for Inactive)
REMARK    1  A    between atoms: C1_1  and  C3_3 
REMARK    2  A    between atoms: C2_2  and  N8_8 
REMARK    3  A    between atoms: C4_4  and  C5_5 
ROOT
HETATM    1  C1  UNL     1     -34.669  16.375  -2.132  1.00 20.00    -0.056 C 
HETATM    2  C2  UNL     1     -34.015  17.167  -1.508  1.00 20.00     0.012 C 
ENDROOT
BRANCH   1   3
HETATM    3  C3  UNL     1     -35.438  15.433  -2.866  1.00 20.00     0.069 C 
HETATM    4  C4  UNL     1     -34.885  14.681  -3.823  1.00 20.00     0.050 C 
BRANCH   4   5
HETATM    5  C5  UNL     1     -33.447  14.840  -4.114  1.00 20.00     0.259 C 
HETATM    6  O9  UNL     1     -32.762  13.909  -4.521  1.00 20.00    -0.302 OA
ENDBRANCH   4   5
ENDBRANCH   1   3
BRANCH   2   7
HETATM    7  N8  UNL     1     -33.233  18.114  -0.762  1.00 20.00    -0.350 N 
HETATM    8  C6  UNL     1     -31.830  18.271  -1.114  1.00 20.00     0.159 C 
HETATM    9  C7  UNL     1     -33.616  18.381   0.616  1.00 20.00     0.159 C 
ENDBRANCH   2   7
TORSDOF 3
ENDMDL
MODEL 8
REMARK VINA RESULT:      -3.3     10.209     10.671
REMARK  3 active torsions:
REMARK  status: ('A' for Active; 'I' for Inactive)
REMARK    1  A    between atoms: C1_1  and  C3_3 
REMARK    2  A    between atoms: C2_2  and  N8_8 
REMARK    3  A    between atoms: C4_4  and  C5_5 
ROOT
HETATM    1  C1  UNL     1     -32.636   6.977   2.731  1.00 20.00    -0.056 C 
HETATM    2  C2  UNL     1     -33.433   6.658   3.570  1.00 20.00     0.012 C 
ENDROOT
BRANCH   1   3
HETATM    3  C3  UNL     1     -31.687   7.351   1.742  1.00 20.00     0.069 C 
HETATM    4  C4  UNL     1     -32.013   8.185   0.748  1.00 20.00     0.050 C 
BRANCH   4   5
HETATM    5  C5  UNL     1     -33.386   8.722   0.688  1.00 20.00     0.259 C 
HETATM    6  O9  UNL     1     -33.968   8.895  -0.377  1.00 20.00    -0.302 OA
ENDBRANCH   4   5
ENDBRANCH   1   3
BRANCH   2   7
HETATM    7  N8  UNL     1     -34.388   6.277   4.574  1.00 20.00    -0.350 N 
HETATM    8  C6  UNL     1     -34.115   6.649   5.955  1.00 20.00     0.159 C 
HETATM    9  C7  UNL     1     -35.180   5.078   4.344  1.00 20.00     0.159 C 
ENDBRANCH   2   7
TORSDOF 3
ENDMDL
MODEL 9
REMARK VINA RESULT:      -3.2      2.820      4.672
REMARK  3 active torsions:
REMARK  status: ('A' for Active; 'I' for Inactive)
REMARK    1  A    between atoms: C1_1  and  C3_3 
REMARK    2  A    between atoms: C2_2  and  N8_8 
REMARK    3  A    between atoms: C4_4  and  C5_5 
ROOT
HETATM    1  C1  UNL     1     -33.838  16.029  -3.522  1.00 20.00    -0.056 C 
HETATM    2  C2  UNL     1     -34.448  15.315  -4.272  1.00 20.00     0.012 C 
ENDROOT
BRANCH   1   3
HETATM    3  C3  UNL     1     -33.119  16.868  -2.630  1.00 20.00     0.069 C 
HETATM    4  C4  UNL     1     -33.673  17.312  -1.497  1.00 20.00     0.050 C 
BRANCH   4   5
HETATM    5  C5  UNL     1     -35.058  16.917  -1.177  1.00 20.00     0.259 C 
HETATM    6  O9  UNL     1     -35.501  16.974  -0.035  1.00 20.00    -0.302 OA
ENDBRANCH   4   5
ENDBRANCH   1   3
BRANCH   2   7
HETATM    7  N8  UNL     1     -35.176  14.462  -5.170  1.00 20.00    -0.350 N 
HETATM    8  C6  UNL     1     -35.260  14.853  -6.569  1.00 20.00     0.159 C 
HETATM    9  C7  UNL     1     -36.269  13.670  -4.624  1.00 20.00     0.159 C 
ENDBRANCH   2   7
TORSDOF 3
ENDMDL
