MODEL 1
REMARK VINA RESULT:      -4.8      0.000      0.000
REMARK  1 active torsions:
REMARK  status: ('A' for Active; 'I' for Inactive)
REMARK    1  A    between atoms: C4_4  and  C7_7 
ROOT
HETATM    1  C1  UNL     1     -33.408  14.554  -4.240  1.00 20.00     0.047 C 
HETATM    2  C2  UNL     1     -32.927  15.740  -3.854  1.00 20.00    -0.006 C 
HETATM    3  C3  UNL     1     -34.785  14.150  -3.878  1.00 20.00     0.149 C 
HETATM    4  C5  UNL     1     -35.664  15.145  -3.154  1.00 20.00     0.088 C 
HETATM    5  C6  UNL     1     -34.846  16.065  -2.239  1.00 20.00     0.007 C 
HETATM    6  C7  UNL     1     -33.666  16.739  -2.992  1.00 20.00     0.031 C 
HETATM    7  C8  UNL     1     -35.780  17.052  -1.529  1.00 20.00     0.012 C 
HETATM    8  C9  UNL     1     -32.685  17.388  -2.003  1.00 20.00     0.027 C 
HETATM    9  O10 UNL     1     -35.207  13.046  -4.221  1.00 20.00    -0.293 OA
ENDROOT
BRANCH   6  10
HETATM   10  C4  UNL     1     -34.133  17.794  -3.962  1.00 20.00     0.244 C 
HETATM   11  O11 UNL     1     -34.102  17.653  -5.180  1.00 20.00    -0.306 OA
ENDBRANCH   6  10
TORSDOF 1
ENDMDL
MODEL 2
REMARK VINA RESULT:      -4.7     16.097     17.783
REMARK  1 active torsions:
REMARK  status: ('A' for Active; 'I' for Inactive)
REMARK    1  A    between atoms: C4_4  and  C7_7 
ROOT
HETATM    1  C1  UNL     1     -24.429  18.205   8.642  1.00 20.00     0.047 C 
HETATM    2  C2  UNL     1     -24.984  18.060   9.850  1.00 20.00    -0.006 C 
HETATM    3  C3  UNL     1     -22.973  18.010   8.458  1.00 20.00     0.149 C 
HETATM    4  C5  UNL     1     -22.152  17.544   9.639  1.00 20.00     0.088 C 
HETATM    5  C6  UNL     1     -22.715  18.071  10.966  1.00 20.00     0.007 C 
HETATM    6  C7  UNL     1     -24.228  17.756  11.124  1.00 20.00     0.031 C 
HETATM    7  C8  UNL     1     -21.849  17.574  12.129  1.00 20.00     0.012 C 
HETATM    8  C9  UNL     1     -24.836  18.559  12.284  1.00 20.00     0.027 C 
HETATM    9  O10 UNL     1     -22.473  18.168   7.346  1.00 20.00    -0.293 OA
ENDROOT
BRANCH   6  10
HETATM   10  C4  UNL     1     -24.487  16.291  11.369  1.00 20.00     0.244 C 
HETATM   11  O11 UNL     1     -25.172  15.872  12.295  1.00 20.00    -0.306 OA
ENDBRANCH   6  10
TORSDOF 1
ENDMDL
MODEL 3
REMARK VINA RESULT:      -4.6      1.566      2.170
REMARK  1 active torsions:
REMARK  status: ('A' for Active; 'I' for Inactive)
REMARK    1  A    between atoms: C4_4  and  C7_7 
ROOT
HETATM    1  C1  UNL     1     -36.060  14.103  -5.501  1.00 20.00     0.047 C 
HETATM    2  C2  UNL     1     -34.825  14.617  -5.478  1.00 20.00    -0.006 C 
HETATM    3  C3  UNL     1     -37.016  14.401  -4.410  1.00 20.00     0.149 C 
HETATM    4  C5  UNL     1     -36.601  15.377  -3.332  1.00 20.00     0.088 C 
HETATM    5  C6  UNL     1     -35.092  15.318  -3.063  1.00 20.00     0.007 C 
HETATM    6  C7  UNL     1     -34.260  15.471  -4.366  1.00 20.00     0.031 C 
HETATM    7  C8  UNL     1     -34.723  16.322  -1.964  1.00 20.00     0.012 C 
HETATM    8  C9  UNL     1     -32.790  15.091  -4.125  1.00 20.00     0.027 C 
HETATM    9  O10 UNL     1     -38.140  13.904  -4.433  1.00 20.00    -0.293 OA
ENDROOT
BRANCH   6  10
HETATM   10  C4  UNL     1     -34.306  16.875  -4.914  1.00 20.00     0.244 C 
HETATM   11  O11 UNL     1     -34.395  17.129  -6.110  1.00 20.00    -0.306 OA
ENDBRANCH   6  10
TORSDOF 1
ENDMDL
MODEL 4
REMARK VINA RESULT:      -4.6      1.865      3.706
REMARK  1 active torsions:
REMARK  status: ('A' for Active; 'I' for Inactive)
REMARK    1  A    between atoms: C4_4  and  C7_7 
ROOT
HETATM    1  C1  UNL     1     -33.359  15.259  -3.766  1.00 20.00     0.047 C 
HETATM    2  C2  UNL     1     -34.038  14.635  -4.734  1.00 20.00    -0.006 C 
HETATM    3  C3  UNL     1     -34.041  16.226  -2.877  1.00 20.00     0.149 C 
HETATM    4  C5  UNL     1     -35.534  16.413  -3.022  1.00 20.00     0.088 C 
HETATM    5  C6  UNL     1     -35.993  16.218  -4.472  1.00 20.00     0.007 C 
HETATM    6  C7  UNL     1     -35.494  14.872  -5.067  1.00 20.00     0.031 C 
HETATM    7  C8  UNL     1     -37.510  16.419  -4.568  1.00 20.00     0.012 C 
HETATM    8  C9  UNL     1     -35.683  14.842  -6.591  1.00 20.00     0.027 C 
HETATM    9  O10 UNL     1     -33.399  16.809  -2.004  1.00 20.00    -0.293 OA
ENDROOT
BRANCH   6  10
HETATM   10  C4  UNL     1     -36.209  13.684  -4.474  1.00 20.00     0.244 C 
HETATM   11  O11 UNL     1     -35.736  12.553  -4.452  1.00 20.00    -0.306 OA
ENDBRANCH   6  10
TORSDOF 1
ENDMDL
MODEL 5
REMARK VINA RESULT:      -4.6      1.994      2.614
REMARK  1 active torsions:
REMARK  status: ('A' for Active; 'I' for Inactive)
REMARK    1  A    between atoms: C4_4  and  C7_7 
ROOT
HETATM    1  C1  UNL     1     -35.990  13.535  -4.180  1.00 20.00     0.047 C 
HETATM    2  C2  UNL     1     -34.762  14.065  -4.171  1.00 20.00    -0.006 C 
HETATM    3  C3  UNL     1     -37.174  14.391  -4.419  1.00 20.00     0.149 C 
HETATM    4  C5  UNL     1     -36.955  15.850  -4.754  1.00 20.00     0.088 C 
HETATM    5  C6  UNL     1     -35.704  16.409  -4.065  1.00 20.00     0.007 C 
HETATM    6  C7  UNL     1     -34.448  15.535  -4.334  1.00 20.00     0.031 C 
HETATM    7  C8  UNL     1     -35.527  17.887  -4.434  1.00 20.00     0.012 C 
HETATM    8  C9  UNL     1     -33.299  15.921  -3.390  1.00 20.00     0.027 C 
HETATM    9  O10 UNL     1     -38.299  13.895  -4.402  1.00 20.00    -0.293 OA
ENDROOT
BRANCH   6  10
HETATM   10  C4  UNL     1     -33.960  15.656  -5.755  1.00 20.00     0.244 C 
HETATM   11  O11 UNL     1     -33.708  14.690  -6.467  1.00 20.00    -0.306 OA
ENDBRANCH   6  10
TORSDOF 1
ENDMDL
MODEL 6
REMARK VINA RESULT:      -4.6      1.877      3.041
REMARK  1 active torsions:
REMARK  status: ('A' for Active; 'I' for Inactive)
REMARK    1  A    between atoms: C4_4  and  C7_7 
ROOT
HETATM    1  C1  UNL     1     -37.169  15.869  -3.957  1.00 20.00     0.047 C 
HETATM    2  C2  UNL     1     -36.168  16.720  -3.707  1.00 20.00    -0.006 C 
HETATM    3  C3  UNL     1     -36.888  14.441  -4.228  1.00 20.00     0.149 C 
HETATM    4  C5  UNL     1     -35.462  13.951  -4.114  1.00 20.00     0.088 C 
HETATM    5  C6  UNL     1     -34.454  15.040  -4.503  1.00 20.00     0.007 C 
HETATM    6  C7  UNL     1     -34.698  16.365  -3.730  1.00 20.00     0.031 C 
HETATM    7  C8  UNL     1     -33.027  14.495  -4.373  1.00 20.00     0.012 C 
HETATM    8  C9  UNL     1     -33.902  17.520  -4.357  1.00 20.00     0.027 C 
HETATM    9  O10 UNL     1     -37.816  13.674  -4.478  1.00 20.00    -0.293 OA
ENDROOT
BRANCH   6  10
HETATM   10  C4  UNL     1     -34.319  16.258  -2.274  1.00 20.00     0.244 C 
HETATM   11  O11 UNL     1     -35.132  16.315  -1.359  1.00 20.00    -0.306 OA
ENDBRANCH   6  10
TORSDOF 1
ENDMDL
MODEL 7
REMARK VINA RESULT:      -4.5      2.127      3.854
REMARK  1 active torsions:
REMARK  status: ('A' for Active; 'I' for Inactive)
REMARK    1  A    between atoms: C4_4  and  C7_7 
ROOT
HETATM    1  C1  UNL     1     -34.454  15.616  -2.667  1.00 20.00     0.047 C 
HETATM    2  C2  UNL     1     -34.398  14.892  -3.790  1.00 20.00    -0.006 C 
HETATM    3  C3  UNL     1     -35.574  16.556  -2.437  1.00 20.00     0.149 C 
HETATM    4  C5  UNL     1     -36.699  16.601  -3.446  1.00 20.00     0.088 C 
HETATM    5  C6  UNL     1     -36.201  16.302  -4.866  1.00 20.00     0.007 C 
HETATM    6  C7  UNL     1     -35.385  14.982  -4.933  1.00 20.00     0.031 C 
HETATM    7  C8  UNL     1     -37.375  16.361  -5.850  1.00 20.00     0.012 C 
HETATM    8  C9  UNL     1     -34.634  14.869  -6.268  1.00 20.00     0.027 C 
HETATM    9  O10 UNL     1     -35.601  17.232  -1.409  1.00 20.00    -0.293 OA
ENDROOT
BRANCH   6  10
HETATM   10  C4  UNL     1     -36.255  13.761  -4.769  1.00 20.00     0.244 C 
HETATM   11  O11 UNL     1     -35.816  12.653  -4.483  1.00 20.00    -0.306 OA
ENDBRANCH   6  10
TORSDOF 1
ENDMDL
MODEL 8
REMARK VINA RESULT:      -4.4      2.440      3.795
REMARK  1 active torsions:
REMARK  status: ('A' for Active; 'I' for Inactive)
REMARK    1  A    between atoms: C4_4  and  C7_7 
ROOT
HETATM    1  C1  UNL     1     -35.675  15.405  -7.012  1.00 20.00     0.047 C 
HETATM    2  C2  UNL     1     -36.591  15.631  -6.064  1.00 20.00    -0.006 C 
HETATM    3  C3  UNL     1     -34.276  15.093  -6.642  1.00 20.00     0.149 C 
HETATM    4  C5  UNL     1     -33.933  14.935  -5.177  1.00 20.00     0.088 C 
HETATM    5  C6  UNL     1     -34.800  15.839  -4.291  1.00 20.00     0.007 C 
HETATM    6  C7  UNL     1     -36.316  15.658  -4.578  1.00 20.00     0.031 C 
HETATM    7  C8  UNL     1     -34.415  15.644  -2.820  1.00 20.00     0.012 C 
HETATM    8  C9  UNL     1     -37.136  16.782  -3.925  1.00 20.00     0.027 C 
HETATM    9  O10 UNL     1     -33.438  14.909  -7.524  1.00 20.00    -0.293 OA
ENDROOT
BRANCH   6  10
HETATM   10  C4  UNL     1     -36.840  14.334  -4.080  1.00 20.00     0.244 C 
HETATM   11  O11 UNL     1     -37.893  13.837  -4.463  1.00 20.00    -0.306 OA
ENDBRANCH   6  10
TORSDOF 1
ENDMDL
MODEL 9
REMARK VINA RESULT:      -4.3      1.799      4.001
REMARK  1 active torsions:
REMARK  status: ('A' for Active; 'I' for Inactive)
REMARK    1  A    between atoms: C4_4  and  C7_7 
ROOT
HETATM    1  C1  UNL     1     -35.270  16.598  -2.466  1.00 20.00     0.047 C 
HETATM    2  C2  UNL     1     -34.796  15.389  -2.786  1.00 20.00    -0.006 C 
HETATM    3  C3  UNL     1     -35.822  17.488  -3.513  1.00 20.00     0.149 C 
HETATM    4  C5  UNL     1     -35.932  16.960  -4.925  1.00 20.00     0.088 C 
HETATM    5  C6  UNL     1     -34.811  15.964  -5.249  1.00 20.00     0.007 C 
HETATM    6  C7  UNL     1     -34.712  14.832  -4.189  1.00 20.00     0.031 C 
HETATM    7  C8  UNL     1     -34.965  15.460  -6.688  1.00 20.00     0.012 C 
HETATM    8  C9  UNL     1     -33.402  14.045  -4.349  1.00 20.00     0.027 C 
HETATM    9  O10 UNL     1     -36.234  18.606  -3.207  1.00 20.00    -0.293 OA
ENDROOT
BRANCH   6  10
HETATM   10  C4  UNL     1     -35.865  13.864  -4.275  1.00 20.00     0.244 C 
HETATM   11  O11 UNL     1     -35.727  12.670  -4.519  1.00 20.00    -0.306 OA
ENDBRANCH   6  10
TORSDOF 1
ENDMDL
