MODEL 1
REMARK VINA RESULT:      -5.4      0.000      0.000
REMARK  2 active torsions:
REMARK  status: ('A' for Active; 'I' for Inactive)
REMARK    1  A    between atoms: C4_4  and  O11_11 
REMARK    2  A    between atoms: C10_10  and  O11_11 
ROOT
HETATM    1  C1  UNL     1     -34.210   5.141   4.534  1.00 20.00    -0.075 C 
HETATM    2  C2  UNL     1     -33.873   6.364   4.145  1.00 20.00    -0.049 C 
HETATM    3  C5  UNL     1     -34.683   5.081   5.930  1.00 20.00     0.034 C 
HETATM    4  C6  UNL     1     -34.134   4.141   3.453  1.00 20.00     0.037 C 
HETATM    5  C7  UNL     1     -34.051   7.380   5.200  1.00 20.00     0.037 C 
HETATM    6  C8  UNL     1     -34.326   6.495   6.433  1.00 20.00     0.009 C 
HETATM    7  C9  UNL     1     -33.408   4.940   2.349  1.00 20.00     0.041 C 
HETATM    8  C10 UNL     1     -33.509   6.438   2.718  1.00 20.00     0.157 C 
ENDROOT
BRANCH   8   9
HETATM    9  O11 UNL     1     -32.264   7.088   2.550  1.00 20.00    -0.354 OA
BRANCH   9  10
HETATM   10  C4  UNL     1     -32.112   7.735   1.398  1.00 20.00     0.125 C 
HETATM   11  C3  UNL     1     -32.882   8.741   0.978  1.00 20.00     0.037 C 
ENDBRANCH   9  10
ENDBRANCH   8   9
TORSDOF 2
ENDMDL
MODEL 2
REMARK VINA RESULT:      -5.0      1.130      2.194
REMARK  2 active torsions:
REMARK  status: ('A' for Active; 'I' for Inactive)
REMARK    1  A    between atoms: C4_4  and  O11_11 
REMARK    2  A    between atoms: C10_10  and  O11_11 
ROOT
HETATM    1  C1  UNL     1     -33.659   6.544   4.904  1.00 20.00    -0.075 C 
HETATM    2  C2  UNL     1     -33.519   6.009   3.698  1.00 20.00    -0.049 C 
HETATM    3  C5  UNL     1     -34.635   5.832   5.750  1.00 20.00     0.034 C 
HETATM    4  C6  UNL     1     -32.733   7.663   5.159  1.00 20.00     0.037 C 
HETATM    5  C7  UNL     1     -34.372   4.824   3.484  1.00 20.00     0.037 C 
HETATM    6  C8  UNL     1     -35.285   4.876   4.727  1.00 20.00     0.009 C 
HETATM    7  C9  UNL     1     -32.154   7.907   3.748  1.00 20.00     0.041 C 
HETATM    8  C10 UNL     1     -32.463   6.654   2.897  1.00 20.00     0.157 C 
ENDROOT
BRANCH   8   9
HETATM    9  O11 UNL     1     -32.950   7.015   1.619  1.00 20.00    -0.354 OA
BRANCH   9  10
HETATM   10  C4  UNL     1     -32.612   8.232   1.204  1.00 20.00     0.125 C 
HETATM   11  C3  UNL     1     -33.116   8.841   0.128  1.00 20.00     0.037 C 
ENDBRANCH   9  10
ENDBRANCH   8   9
TORSDOF 2
ENDMDL
MODEL 3
REMARK VINA RESULT:      -4.6     11.278     12.185
REMARK  2 active torsions:
REMARK  status: ('A' for Active; 'I' for Inactive)
REMARK    1  A    between atoms: C4_4  and  O11_11 
REMARK    2  A    between atoms: C10_10  and  O11_11 
ROOT
HETATM    1  C1  UNL     1     -33.523  16.134  -2.940  1.00 20.00    -0.075 C 
HETATM    2  C2  UNL     1     -34.750  15.819  -2.546  1.00 20.00    -0.049 C 
HETATM    3  C5  UNL     1     -32.910  17.211  -2.140  1.00 20.00     0.034 C 
HETATM    4  C6  UNL     1     -33.014  15.266  -4.018  1.00 20.00     0.037 C 
HETATM    5  C7  UNL     1     -35.216  16.619  -1.398  1.00 20.00     0.037 C 
HETATM    6  C8  UNL     1     -34.118  17.698  -1.311  1.00 20.00     0.009 C 
HETATM    7  C9  UNL     1     -34.291  14.497  -4.420  1.00 20.00     0.041 C 
HETATM    8  C10 UNL     1     -35.314  14.667  -3.274  1.00 20.00     0.157 C 
ENDROOT
BRANCH   8   9
HETATM    9  O11 UNL     1     -36.599  14.973  -3.781  1.00 20.00    -0.354 OA
BRANCH   9  10
HETATM   10  C4  UNL     1     -36.615  15.565  -4.972  1.00 20.00     0.125 C 
HETATM   11  C3  UNL     1     -37.127  16.772  -5.218  1.00 20.00     0.037 C 
ENDBRANCH   9  10
ENDBRANCH   8   9
TORSDOF 2
ENDMDL
MODEL 4
REMARK VINA RESULT:      -4.5     11.251     12.349
REMARK  2 active torsions:
REMARK  status: ('A' for Active; 'I' for Inactive)
REMARK    1  A    between atoms: C4_4  and  O11_11 
REMARK    2  A    between atoms: C10_10  and  O11_11 
ROOT
HETATM    1  C1  UNL     1     -33.380  16.392  -2.828  1.00 20.00    -0.075 C 
HETATM    2  C2  UNL     1     -34.619  16.294  -2.365  1.00 20.00    -0.049 C 
HETATM    3  C5  UNL     1     -33.083  15.436  -3.912  1.00 20.00     0.034 C 
HETATM    4  C6  UNL     1     -32.616  17.500  -2.226  1.00 20.00     0.037 C 
HETATM    5  C7  UNL     1     -35.414  15.253  -3.043  1.00 20.00     0.037 C 
HETATM    6  C8  UNL     1     -34.328  14.525  -3.863  1.00 20.00     0.009 C 
HETATM    7  C9  UNL     1     -33.551  17.924  -1.072  1.00 20.00     0.041 C 
HETATM    8  C10 UNL     1     -34.945  17.325  -1.362  1.00 20.00     0.157 C 
ENDROOT
BRANCH   8   9
HETATM    9  O11 UNL     1     -35.498  16.738  -0.199  1.00 20.00    -0.354 OA
BRANCH   9  10
HETATM   10  C4  UNL     1     -35.375  17.455   0.913  1.00 20.00     0.125 C 
HETATM   11  C3  UNL     1     -36.391  17.997   1.590  1.00 20.00     0.037 C 
ENDBRANCH   9  10
ENDBRANCH   8   9
TORSDOF 2
ENDMDL
MODEL 5
REMARK VINA RESULT:      -4.5     11.300     12.675
REMARK  2 active torsions:
REMARK  status: ('A' for Active; 'I' for Inactive)
REMARK    1  A    between atoms: C4_4  and  O11_11 
REMARK    2  A    between atoms: C10_10  and  O11_11 
ROOT
HETATM    1  C1  UNL     1     -33.067  17.434  -1.994  1.00 20.00    -0.075 C 
HETATM    2  C2  UNL     1     -34.064  17.446  -1.118  1.00 20.00    -0.049 C 
HETATM    3  C5  UNL     1     -33.272  16.482  -3.101  1.00 20.00     0.034 C 
HETATM    4  C6  UNL     1     -32.032  18.448  -1.716  1.00 20.00     0.037 C 
HETATM    5  C7  UNL     1     -35.147  16.505  -1.457  1.00 20.00     0.037 C 
HETATM    6  C8  UNL     1     -34.502  15.695  -2.601  1.00 20.00     0.009 C 
HETATM    7  C9  UNL     1     -32.448  18.932  -0.310  1.00 20.00     0.041 C 
HETATM    8  C10 UNL     1     -33.907  18.478  -0.076  1.00 20.00     0.157 C 
ENDROOT
BRANCH   8   9
HETATM    9  O11 UNL     1     -34.066  17.919   1.213  1.00 20.00    -0.354 OA
BRANCH   9  10
HETATM   10  C4  UNL     1     -33.214  18.362   2.134  1.00 20.00     0.125 C 
HETATM   11  C3  UNL     1     -32.685  17.618   3.107  1.00 20.00     0.037 C 
ENDBRANCH   9  10
ENDBRANCH   8   9
TORSDOF 2
ENDMDL
MODEL 6
REMARK VINA RESULT:      -4.3     11.673     12.511
REMARK  2 active torsions:
REMARK  status: ('A' for Active; 'I' for Inactive)
REMARK    1  A    between atoms: C4_4  and  O11_11 
REMARK    2  A    between atoms: C10_10  and  O11_11 
ROOT
HETATM    1  C1  UNL     1     -34.916  16.031  -2.467  1.00 20.00    -0.075 C 
HETATM    2  C2  UNL     1     -33.641  16.386  -2.563  1.00 20.00    -0.049 C 
HETATM    3  C5  UNL     1     -35.304  14.980  -3.427  1.00 20.00     0.034 C 
HETATM    4  C6  UNL     1     -35.625  16.691  -1.356  1.00 20.00     0.037 C 
HETATM    5  C7  UNL     1     -32.907  15.646  -3.607  1.00 20.00     0.037 C 
HETATM    6  C8  UNL     1     -34.060  14.926  -4.338  1.00 20.00     0.009 C 
HETATM    7  C9  UNL     1     -34.595  17.759  -0.927  1.00 20.00     0.041 C 
HETATM    8  C10 UNL     1     -33.230  17.353  -1.529  1.00 20.00     0.157 C 
ENDROOT
BRANCH   8   9
HETATM    9  O11 UNL     1     -32.579  18.466  -2.111  1.00 20.00    -0.354 OA
BRANCH   9  10
HETATM   10  C4  UNL     1     -31.777  19.146  -1.296  1.00 20.00     0.125 C 
HETATM   11  C3  UNL     1     -31.113  18.621  -0.265  1.00 20.00     0.037 C 
ENDBRANCH   9  10
ENDBRANCH   8   9
TORSDOF 2
ENDMDL
MODEL 7
REMARK VINA RESULT:      -4.3     11.724     12.330
REMARK  2 active torsions:
REMARK  status: ('A' for Active; 'I' for Inactive)
REMARK    1  A    between atoms: C4_4  and  O11_11 
REMARK    2  A    between atoms: C10_10  and  O11_11 
ROOT
HETATM    1  C1  UNL     1     -34.008  15.619  -3.778  1.00 20.00    -0.075 C 
HETATM    2  C2  UNL     1     -35.182  15.563  -3.162  1.00 20.00    -0.049 C 
HETATM    3  C5  UNL     1     -32.979  16.346  -3.013  1.00 20.00     0.034 C 
HETATM    4  C6  UNL     1     -33.972  14.852  -5.038  1.00 20.00     0.037 C 
HETATM    5  C7  UNL     1     -35.184  16.242  -1.853  1.00 20.00     0.037 C 
HETATM    6  C8  UNL     1     -33.826  16.973  -1.884  1.00 20.00     0.009 C 
HETATM    7  C9  UNL     1     -35.466  14.517  -5.235  1.00 20.00     0.041 C 
HETATM    8  C10 UNL     1     -36.173  14.740  -3.879  1.00 20.00     0.157 C 
ENDROOT
BRANCH   8   9
HETATM    9  O11 UNL     1     -37.387  15.447  -4.048  1.00 20.00    -0.354 OA
BRANCH   9  10
HETATM   10  C4  UNL     1     -38.463  14.691  -4.245  1.00 20.00     0.125 C 
HETATM   11  C3  UNL     1     -39.721  15.138  -4.250  1.00 20.00     0.037 C 
ENDBRANCH   9  10
ENDBRANCH   8   9
TORSDOF 2
ENDMDL
MODEL 8
REMARK VINA RESULT:      -4.2     11.483     12.414
REMARK  2 active torsions:
REMARK  status: ('A' for Active; 'I' for Inactive)
REMARK    1  A    between atoms: C4_4  and  O11_11 
REMARK    2  A    between atoms: C10_10  and  O11_11 
ROOT
HETATM    1  C1  UNL     1     -33.002  18.286   0.979  1.00 20.00    -0.075 C 
HETATM    2  C2  UNL     1     -32.646  18.203  -0.296  1.00 20.00    -0.049 C 
HETATM    3  C5  UNL     1     -31.892  18.659   1.874  1.00 20.00     0.034 C 
HETATM    4  C6  UNL     1     -34.448  18.087   1.197  1.00 20.00     0.037 C 
HETATM    5  C7  UNL     1     -31.220  18.506  -0.523  1.00 20.00     0.037 C 
HETATM    6  C8  UNL     1     -30.682  18.542   0.923  1.00 20.00     0.009 C 
HETATM    7  C9  UNL     1     -34.899  17.586  -0.192  1.00 20.00     0.041 C 
HETATM    8  C10 UNL     1     -33.782  17.941  -1.199  1.00 20.00     0.157 C 
ENDROOT
BRANCH   8   9
HETATM    9  O11 UNL     1     -33.503  16.849  -2.055  1.00 20.00    -0.354 OA
BRANCH   9  10
HETATM   10  C4  UNL     1     -34.539  16.063  -2.330  1.00 20.00     0.125 C 
HETATM   11  C3  UNL     1     -34.559  15.131  -3.285  1.00 20.00     0.037 C 
ENDBRANCH   9  10
ENDBRANCH   8   9
TORSDOF 2
ENDMDL
MODEL 9
REMARK VINA RESULT:      -4.2      9.794     10.448
REMARK  2 active torsions:
REMARK  status: ('A' for Active; 'I' for Inactive)
REMARK    1  A    between atoms: C4_4  and  O11_11 
REMARK    2  A    between atoms: C10_10  and  O11_11 
ROOT
HETATM    1  C1  UNL     1     -42.426   6.853   0.557  1.00 20.00    -0.075 C 
HETATM    2  C2  UNL     1     -42.417   6.562  -0.737  1.00 20.00    -0.049 C 
HETATM    3  C5  UNL     1     -41.798   8.150   0.869  1.00 20.00     0.034 C 
HETATM    4  C6  UNL     1     -43.152   5.863   1.375  1.00 20.00     0.037 C 
HETATM    5  C7  UNL     1     -41.782   7.605  -1.565  1.00 20.00     0.037 C 
HETATM    6  C8  UNL     1     -41.149   8.507  -0.485  1.00 20.00     0.009 C 
HETATM    7  C9  UNL     1     -43.374   4.727   0.353  1.00 20.00     0.041 C 
HETATM    8  C10 UNL     1     -43.145   5.319  -1.056  1.00 20.00     0.157 C 
ENDROOT
BRANCH   8   9
HETATM    9  O11 UNL     1     -42.348   4.458  -1.847  1.00 20.00    -0.354 OA
BRANCH   9  10
HETATM   10  C4  UNL     1     -43.017   3.542  -2.540  1.00 20.00     0.125 C 
HETATM   11  C3  UNL     1     -42.456   2.577  -3.273  1.00 20.00     0.037 C 
ENDBRANCH   9  10
ENDBRANCH   8   9
TORSDOF 2
ENDMDL
