MODEL 1
REMARK VINA RESULT:      -5.2      0.000      0.000
REMARK  3 active torsions:
REMARK  status: ('A' for Active; 'I' for Inactive)
REMARK    1  A    between atoms: C1_1  and  C2_2 
REMARK    2  A    between atoms: C4_4  and  C9_9 
REMARK    3  A    between atoms: C5_5  and  C9_9 
ROOT
HETATM    1  C2  UNL     1     -33.137   6.842   2.176  1.00 20.00    -0.004 C 
HETATM    2  C4  UNL     1     -33.304   6.535   3.471  1.00 20.00    -0.015 C 
ENDROOT
BRANCH   2   3
HETATM    3  C9  UNL     1     -34.389   5.621   3.975  1.00 20.00     0.073 C 
HETATM    4  C8  UNL     1     -34.086   4.165   3.642  1.00 20.00     0.022 C 
BRANCH   3   5
HETATM    5  C5  UNL     1     -34.527   5.789   5.486  1.00 20.00     0.130 C 
HETATM    6  C7  UNL     1     -33.864   7.001   6.093  1.00 20.00     0.091 C 
HETATM    7  O10 UNL     1     -35.112   4.972   6.197  1.00 20.00    -0.298 OA
ENDBRANCH   3   5
ENDBRANCH   2   3
BRANCH   1   8
HETATM    8  C1  UNL     1     -32.092   7.721   1.700  1.00 20.00    -0.005 C 
HETATM    9  C3  UNL     1     -32.238   8.524   0.636  1.00 20.00    -0.031 C 
HETATM   10  C6  UNL     1     -33.488   8.604  -0.177  1.00 20.00     0.036 C 
ENDBRANCH   1   8
TORSDOF 3
ENDMDL
MODEL 2
REMARK VINA RESULT:      -4.7     10.959     11.699
REMARK  3 active torsions:
REMARK  status: ('A' for Active; 'I' for Inactive)
REMARK    1  A    between atoms: C1_1  and  C2_2 
REMARK    2  A    between atoms: C4_4  and  C9_9 
REMARK    3  A    between atoms: C5_5  and  C9_9 
ROOT
HETATM    1  C2  UNL     1     -34.702  15.900  -2.246  1.00 20.00    -0.004 C 
HETATM    2  C4  UNL     1     -35.198  15.968  -3.490  1.00 20.00    -0.015 C 
ENDROOT
BRANCH   2   3
HETATM    3  C9  UNL     1     -34.947  14.920  -4.542  1.00 20.00     0.073 C 
HETATM    4  C8  UNL     1     -33.586  14.260  -4.355  1.00 20.00     0.022 C 
BRANCH   3   5
HETATM    5  C5  UNL     1     -36.048  13.864  -4.473  1.00 20.00     0.130 C 
HETATM    6  C7  UNL     1     -37.460  14.372  -4.314  1.00 20.00     0.091 C 
HETATM    7  O10 UNL     1     -35.816  12.656  -4.507  1.00 20.00    -0.298 OA
ENDBRANCH   3   5
ENDBRANCH   2   3
BRANCH   1   8
HETATM    8  C1  UNL     1     -34.948  16.910  -1.241  1.00 20.00    -0.005 C 
HETATM    9  C3  UNL     1     -34.032  17.820  -0.877  1.00 20.00    -0.031 C 
HETATM   10  C6  UNL     1     -32.660  17.895  -1.461  1.00 20.00     0.036 C 
ENDBRANCH   1   8
TORSDOF 3
ENDMDL
MODEL 3
REMARK VINA RESULT:      -4.4      1.232      1.793
REMARK  3 active torsions:
REMARK  status: ('A' for Active; 'I' for Inactive)
REMARK    1  A    between atoms: C1_1  and  C2_2 
REMARK    2  A    between atoms: C4_4  and  C9_9 
REMARK    3  A    between atoms: C5_5  and  C9_9 
ROOT
HETATM    1  C2  UNL     1     -32.421   7.213   2.299  1.00 20.00    -0.004 C 
HETATM    2  C4  UNL     1     -33.258   6.338   2.879  1.00 20.00    -0.015 C 
ENDROOT
BRANCH   2   3
HETATM    3  C9  UNL     1     -33.270   6.055   4.357  1.00 20.00     0.073 C 
HETATM    4  C8  UNL     1     -33.510   7.326   5.163  1.00 20.00     0.022 C 
BRANCH   3   5
HETATM    5  C5  UNL     1     -34.362   5.034   4.665  1.00 20.00     0.130 C 
HETATM    6  C7  UNL     1     -35.129   5.233   5.948  1.00 20.00     0.091 C 
HETATM    7  O10 UNL     1     -34.597   4.069   3.937  1.00 20.00    -0.298 OA
ENDBRANCH   3   5
ENDBRANCH   2   3
BRANCH   1   8
HETATM    8  C1  UNL     1     -32.416   7.480   0.879  1.00 20.00    -0.005 C 
HETATM    9  C3  UNL     1     -32.755   8.667   0.354  1.00 20.00    -0.031 C 
HETATM   10  C6  UNL     1     -33.175   9.844   1.172  1.00 20.00     0.036 C 
ENDBRANCH   1   8
TORSDOF 3
ENDMDL
MODEL 4
REMARK VINA RESULT:      -4.4     11.169     11.975
REMARK  3 active torsions:
REMARK  status: ('A' for Active; 'I' for Inactive)
REMARK    1  A    between atoms: C1_1  and  C2_2 
REMARK    2  A    between atoms: C4_4  and  C9_9 
REMARK    3  A    between atoms: C5_5  and  C9_9 
ROOT
HETATM    1  C2  UNL     1     -34.242  16.546  -2.611  1.00 20.00    -0.004 C 
HETATM    2  C4  UNL     1     -34.488  15.411  -3.282  1.00 20.00    -0.015 C 
ENDROOT
BRANCH   2   3
HETATM    3  C9  UNL     1     -35.872  14.865  -3.512  1.00 20.00     0.073 C 
HETATM    4  C8  UNL     1     -36.865  15.980  -3.814  1.00 20.00     0.022 C 
BRANCH   3   5
HETATM    5  C5  UNL     1     -35.835  13.876  -4.675  1.00 20.00     0.130 C 
HETATM    6  C7  UNL     1     -35.788  14.468  -6.062  1.00 20.00     0.091 C 
HETATM    7  O10 UNL     1     -35.880  12.656  -4.515  1.00 20.00    -0.298 OA
ENDBRANCH   3   5
ENDBRANCH   2   3
BRANCH   1   8
HETATM    8  C1  UNL     1     -32.910  17.064  -2.394  1.00 20.00    -0.005 C 
HETATM    9  C3  UNL     1     -32.597  17.881  -1.378  1.00 20.00    -0.031 C 
HETATM   10  C6  UNL     1     -33.583  18.350  -0.358  1.00 20.00     0.036 C 
ENDBRANCH   1   8
TORSDOF 3
ENDMDL
MODEL 5
REMARK VINA RESULT:      -4.4     11.489     12.193
REMARK  3 active torsions:
REMARK  status: ('A' for Active; 'I' for Inactive)
REMARK    1  A    between atoms: C1_1  and  C2_2 
REMARK    2  A    between atoms: C4_4  and  C9_9 
REMARK    3  A    between atoms: C5_5  and  C9_9 
ROOT
HETATM    1  C2  UNL     1     -33.495  16.651  -2.411  1.00 20.00    -0.004 C 
HETATM    2  C4  UNL     1     -32.621  17.603  -2.055  1.00 20.00    -0.015 C 
ENDROOT
BRANCH   2   3
HETATM    3  C9  UNL     1     -32.796  18.482  -0.845  1.00 20.00     0.073 C 
HETATM    4  C8  UNL     1     -34.013  18.065  -0.028  1.00 20.00     0.022 C 
BRANCH   3   5
HETATM    5  C5  UNL     1     -31.541  18.402   0.021  1.00 20.00     0.130 C 
HETATM    6  C7  UNL     1     -31.750  18.408   1.515  1.00 20.00     0.091 C 
HETATM    7  O10 UNL     1     -30.405  18.372  -0.453  1.00 20.00    -0.298 OA
ENDBRANCH   3   5
ENDBRANCH   2   3
BRANCH   1   8
HETATM    8  C1  UNL     1     -33.319  15.811  -3.575  1.00 20.00    -0.005 C 
HETATM    9  C3  UNL     1     -34.288  15.021  -4.062  1.00 20.00    -0.031 C 
HETATM   10  C6  UNL     1     -35.651  14.916  -3.462  1.00 20.00     0.036 C 
ENDBRANCH   1   8
TORSDOF 3
ENDMDL
MODEL 6
REMARK VINA RESULT:      -4.3     11.009     11.956
REMARK  3 active torsions:
REMARK  status: ('A' for Active; 'I' for Inactive)
REMARK    1  A    between atoms: C1_1  and  C2_2 
REMARK    2  A    between atoms: C4_4  and  C9_9 
REMARK    3  A    between atoms: C5_5  and  C9_9 
ROOT
HETATM    1  C2  UNL     1     -33.524  17.226  -1.964  1.00 20.00    -0.004 C 
HETATM    2  C4  UNL     1     -33.642  16.120  -2.714  1.00 20.00    -0.015 C 
ENDROOT
BRANCH   2   3
HETATM    3  C9  UNL     1     -34.933  15.363  -2.881  1.00 20.00     0.073 C 
HETATM    4  C8  UNL     1     -36.080  16.296  -3.250  1.00 20.00     0.022 C 
BRANCH   3   5
HETATM    5  C5  UNL     1     -34.758  14.303  -3.966  1.00 20.00     0.130 C 
HETATM    6  C7  UNL     1     -36.017  13.642  -4.471  1.00 20.00     0.091 C 
HETATM    7  O10 UNL     1     -33.656  13.963  -4.394  1.00 20.00    -0.298 OA
ENDBRANCH   3   5
ENDBRANCH   2   3
BRANCH   1   8
HETATM    8  C1  UNL     1     -32.281  17.947  -1.809  1.00 20.00    -0.005 C 
HETATM    9  C3  UNL     1     -31.891  18.496  -0.649  1.00 20.00    -0.031 C 
HETATM   10  C6  UNL     1     -32.690  18.426   0.610  1.00 20.00     0.036 C 
ENDBRANCH   1   8
TORSDOF 3
ENDMDL
MODEL 7
REMARK VINA RESULT:      -4.2     15.857     16.873
REMARK  3 active torsions:
REMARK  status: ('A' for Active; 'I' for Inactive)
REMARK    1  A    between atoms: C1_1  and  C2_2 
REMARK    2  A    between atoms: C4_4  and  C9_9 
REMARK    3  A    between atoms: C5_5  and  C9_9 
ROOT
HETATM    1  C2  UNL     1     -23.931  16.624  10.409  1.00 20.00    -0.004 C 
HETATM    2  C4  UNL     1     -23.047  17.629  10.508  1.00 20.00    -0.015 C 
ENDROOT
BRANCH   2   3
HETATM    3  C9  UNL     1     -22.402  18.288   9.318  1.00 20.00     0.073 C 
HETATM    4  C8  UNL     1     -21.407  17.355   8.639  1.00 20.00     0.022 C 
BRANCH   3   5
HETATM    5  C5  UNL     1     -23.485  18.701   8.324  1.00 20.00     0.130 C 
HETATM    6  C7  UNL     1     -24.757  19.262   8.908  1.00 20.00     0.091 C 
HETATM    7  O10 UNL     1     -23.363  18.559   7.108  1.00 20.00    -0.298 OA
ENDBRANCH   3   5
ENDBRANCH   2   3
BRANCH   1   8
HETATM    8  C1  UNL     1     -24.546  15.997  11.557  1.00 20.00    -0.005 C 
HETATM    9  C3  UNL     1     -25.451  16.614  12.332  1.00 20.00    -0.031 C 
HETATM   10  C6  UNL     1     -25.925  18.010  12.101  1.00 20.00     0.036 C 
ENDBRANCH   1   8
TORSDOF 3
ENDMDL
MODEL 8
REMARK VINA RESULT:      -4.2     11.072     12.405
REMARK  3 active torsions:
REMARK  status: ('A' for Active; 'I' for Inactive)
REMARK    1  A    between atoms: C1_1  and  C2_2 
REMARK    2  A    between atoms: C4_4  and  C9_9 
REMARK    3  A    between atoms: C5_5  and  C9_9 
ROOT
HETATM    1  C2  UNL     1     -33.965  16.241  -2.493  1.00 20.00    -0.004 C 
HETATM    2  C4  UNL     1     -33.310  15.815  -3.583  1.00 20.00    -0.015 C 
ENDROOT
BRANCH   2   3
HETATM    3  C9  UNL     1     -33.760  14.648  -4.420  1.00 20.00     0.073 C 
HETATM    4  C8  UNL     1     -34.978  13.965  -3.810  1.00 20.00     0.022 C 
BRANCH   3   5
HETATM    5  C5  UNL     1     -34.093  15.137  -5.828  1.00 20.00     0.130 C 
HETATM    6  C7  UNL     1     -35.159  16.198  -5.939  1.00 20.00     0.091 C 
HETATM    7  O10 UNL     1     -33.559  14.677  -6.837  1.00 20.00    -0.298 OA
ENDBRANCH   3   5
ENDBRANCH   2   3
BRANCH   1   8
HETATM    8  C1  UNL     1     -33.526  17.363  -1.695  1.00 20.00    -0.005 C 
HETATM    9  C3  UNL     1     -34.177  17.784  -0.600  1.00 20.00    -0.031 C 
HETATM   10  C6  UNL     1     -35.424  17.147  -0.082  1.00 20.00     0.036 C 
ENDBRANCH   1   8
TORSDOF 3
ENDMDL
MODEL 9
REMARK VINA RESULT:      -4.2     11.391     12.331
REMARK  3 active torsions:
REMARK  status: ('A' for Active; 'I' for Inactive)
REMARK    1  A    between atoms: C1_1  and  C2_2 
REMARK    2  A    between atoms: C4_4  and  C9_9 
REMARK    3  A    between atoms: C5_5  and  C9_9 
ROOT
HETATM    1  C2  UNL     1     -35.253  15.719  -2.918  1.00 20.00    -0.004 C 
HETATM    2  C4  UNL     1     -34.959  14.630  -3.644  1.00 20.00    -0.015 C 
ENDROOT
BRANCH   2   3
HETATM    3  C9  UNL     1     -35.896  14.030  -4.659  1.00 20.00     0.073 C 
HETATM    4  C8  UNL     1     -37.344  14.407  -4.368  1.00 20.00     0.022 C 
BRANCH   3   5
HETATM    5  C5  UNL     1     -35.505  14.515  -6.052  1.00 20.00     0.130 C 
HETATM    6  C7  UNL     1     -34.089  15.006  -6.223  1.00 20.00     0.091 C 
HETATM    7  O10 UNL     1     -36.298  14.549  -6.993  1.00 20.00    -0.298 OA
ENDBRANCH   3   5
ENDBRANCH   2   3
BRANCH   1   8
HETATM    8  C1  UNL     1     -34.348  16.289  -1.946  1.00 20.00    -0.005 C 
HETATM    9  C3  UNL     1     -33.413  17.198  -2.260  1.00 20.00    -0.031 C 
HETATM   10  C6  UNL     1     -33.199  17.723  -3.641  1.00 20.00     0.036 C 
ENDBRANCH   1   8
TORSDOF 3
ENDMDL
