MODEL 1
REMARK VINA RESULT:      -4.7      0.000      0.000
REMARK  1 active torsions:
REMARK  status: ('A' for Active; 'I' for Inactive)
REMARK    1  A    between atoms: C3_3  and  C7_7 
ROOT
HETATM    1  C1  UNL     1     -25.345  19.119  10.005  1.00 20.00    -0.020 C 
HETATM    2  C2  UNL     1     -24.677  18.602   8.959  1.00 20.00    -0.086 C 
HETATM    3  C4  UNL     1     -23.832  17.356   9.077  1.00 20.00     0.045 C 
HETATM    4  C5  UNL     1     -24.813  17.069  11.399  1.00 20.00     0.020 C 
HETATM    5  C6  UNL     1     -25.354  18.510  11.384  1.00 20.00     0.005 C 
HETATM    6  C7  UNL     1     -23.576  16.895  10.517  1.00 20.00     0.059 C 
HETATM    7  C8  UNL     1     -24.725  19.237   7.600  1.00 20.00     0.043 C 
HETATM    8  C10 UNL     1     -26.761  18.545  11.983  1.00 20.00     0.014 C 
ENDROOT
BRANCH   6   9
HETATM    9  C3  UNL     1     -22.403  17.618  11.116  1.00 20.00     0.127 C 
HETATM   10  C9  UNL     1     -21.365  18.135  10.159  1.00 20.00     0.091 C 
HETATM   11  O11 UNL     1     -22.300  17.782  12.332  1.00 20.00    -0.298 OA
ENDBRANCH   6   9
TORSDOF 1
ENDMDL
MODEL 2
REMARK VINA RESULT:      -4.5     15.842     17.913
REMARK  1 active torsions:
REMARK  status: ('A' for Active; 'I' for Inactive)
REMARK    1  A    between atoms: C3_3  and  C7_7 
ROOT
HETATM    1  C1  UNL     1     -33.004  16.333  -3.185  1.00 20.00    -0.020 C 
HETATM    2  C2  UNL     1     -33.728  16.815  -2.159  1.00 20.00    -0.086 C 
HETATM    3  C4  UNL     1     -35.143  16.365  -1.887  1.00 20.00     0.045 C 
HETATM    4  C5  UNL     1     -34.772  14.574  -3.644  1.00 20.00     0.020 C 
HETATM    5  C6  UNL     1     -33.501  15.284  -4.146  1.00 20.00     0.005 C 
HETATM    6  C7  UNL     1     -35.775  15.539  -3.014  1.00 20.00     0.059 C 
HETATM    7  C8  UNL     1     -33.172  17.842  -1.216  1.00 20.00     0.043 C 
HETATM    8  C10 UNL     1     -32.409  14.253  -4.437  1.00 20.00     0.014 C 
ENDROOT
BRANCH   6   9
HETATM    9  C3  UNL     1     -36.374  16.429  -4.065  1.00 20.00     0.127 C 
HETATM   10  C9  UNL     1     -36.927  15.753  -5.291  1.00 20.00     0.091 C 
HETATM   11  O11 UNL     1     -36.413  17.651  -3.929  1.00 20.00    -0.298 OA
ENDBRANCH   6   9
TORSDOF 1
ENDMDL
MODEL 3
REMARK VINA RESULT:      -4.5     16.926     18.837
REMARK  1 active torsions:
REMARK  status: ('A' for Active; 'I' for Inactive)
REMARK    1  A    between atoms: C3_3  and  C7_7 
ROOT
HETATM    1  C1  UNL     1     -34.338  15.497  -2.798  1.00 20.00    -0.020 C 
HETATM    2  C2  UNL     1     -34.061  15.129  -4.061  1.00 20.00    -0.086 C 
HETATM    3  C4  UNL     1     -35.027  15.354  -5.199  1.00 20.00     0.045 C 
HETATM    4  C5  UNL     1     -36.401  16.744  -3.582  1.00 20.00     0.020 C 
HETATM    5  C6  UNL     1     -35.610  16.192  -2.384  1.00 20.00     0.005 C 
HETATM    6  C7  UNL     1     -36.437  15.774  -4.763  1.00 20.00     0.059 C 
HETATM    7  C8  UNL     1     -32.766  14.461  -4.422  1.00 20.00     0.043 C 
HETATM    8  C10 UNL     1     -35.313  17.318  -1.391  1.00 20.00     0.014 C 
ENDROOT
BRANCH   6   9
HETATM    9  C3  UNL     1     -37.278  14.575  -4.427  1.00 20.00     0.127 C 
HETATM   10  C9  UNL     1     -38.735  14.826  -4.149  1.00 20.00     0.091 C 
HETATM   11  O11 UNL     1     -36.797  13.442  -4.384  1.00 20.00    -0.298 OA
ENDBRANCH   6   9
TORSDOF 1
ENDMDL
MODEL 4
REMARK VINA RESULT:      -4.5     15.100     17.205
REMARK  1 active torsions:
REMARK  status: ('A' for Active; 'I' for Inactive)
REMARK    1  A    between atoms: C3_3  and  C7_7 
ROOT
HETATM    1  C1  UNL     1     -32.852  16.757  -3.123  1.00 20.00    -0.020 C 
HETATM    2  C2  UNL     1     -33.061  17.383  -1.951  1.00 20.00    -0.086 C 
HETATM    3  C4  UNL     1     -34.340  17.220  -1.166  1.00 20.00     0.045 C 
HETATM    4  C5  UNL     1     -34.949  15.372  -2.793  1.00 20.00     0.020 C 
HETATM    5  C6  UNL     1     -33.838  15.815  -3.762  1.00 20.00     0.005 C 
HETATM    6  C7  UNL     1     -35.471  16.520  -1.931  1.00 20.00     0.059 C 
HETATM    7  C8  UNL     1     -32.031  18.292  -1.347  1.00 20.00     0.043 C 
HETATM    8  C10 UNL     1     -33.125  14.588  -4.333  1.00 20.00     0.014 C 
ENDROOT
BRANCH   6   9
HETATM    9  C3  UNL     1     -36.238  17.498  -2.774  1.00 20.00     0.127 C 
HETATM   10  C9  UNL     1     -37.311  16.931  -3.664  1.00 20.00     0.091 C 
HETATM   11  O11 UNL     1     -36.002  18.706  -2.737  1.00 20.00    -0.298 OA
ENDBRANCH   6   9
TORSDOF 1
ENDMDL
MODEL 5
REMARK VINA RESULT:      -4.4     15.954     17.167
REMARK  1 active torsions:
REMARK  status: ('A' for Active; 'I' for Inactive)
REMARK    1  A    between atoms: C3_3  and  C7_7 
ROOT
HETATM    1  C1  UNL     1     -35.570  15.858  -2.564  1.00 20.00    -0.020 C 
HETATM    2  C2  UNL     1     -34.851  15.124  -3.432  1.00 20.00    -0.086 C 
HETATM    3  C4  UNL     1     -33.415  15.447  -3.767  1.00 20.00     0.045 C 
HETATM    4  C5  UNL     1     -33.490  17.135  -1.876  1.00 20.00     0.020 C 
HETATM    5  C6  UNL     1     -35.026  17.048  -1.815  1.00 20.00     0.005 C 
HETATM    6  C7  UNL     1     -32.936  16.814  -3.263  1.00 20.00     0.059 C 
HETATM    7  C8  UNL     1     -35.437  13.932  -4.131  1.00 20.00     0.043 C 
HETATM    8  C10 UNL     1     -35.490  17.030  -0.358  1.00 20.00     0.014 C 
ENDROOT
BRANCH   6   9
HETATM    9  C3  UNL     1     -33.295  17.904  -4.233  1.00 20.00     0.127 C 
HETATM   10  C9  UNL     1     -32.695  19.260  -3.981  1.00 20.00     0.091 C 
HETATM   11  O11 UNL     1     -34.043  17.695  -5.188  1.00 20.00    -0.298 OA
ENDBRANCH   6   9
TORSDOF 1
ENDMDL
MODEL 6
REMARK VINA RESULT:      -4.4     12.693     14.809
REMARK  1 active torsions:
REMARK  status: ('A' for Active; 'I' for Inactive)
REMARK    1  A    between atoms: C3_3  and  C7_7 
ROOT
HETATM    1  C1  UNL     1     -34.255  16.893  -1.404  1.00 20.00    -0.020 C 
HETATM    2  C2  UNL     1     -34.663  17.806  -0.505  1.00 20.00    -0.086 C 
HETATM    3  C4  UNL     1     -33.922  19.102  -0.278  1.00 20.00     0.045 C 
HETATM    4  C5  UNL     1     -32.540  18.518  -2.323  1.00 20.00     0.020 C 
HETATM    5  C6  UNL     1     -33.052  17.066  -2.295  1.00 20.00     0.005 C 
HETATM    6  C7  UNL     1     -32.541  19.170  -0.941  1.00 20.00     0.059 C 
HETATM    7  C8  UNL     1     -35.885  17.591   0.340  1.00 20.00     0.043 C 
HETATM    8  C10 UNL     1     -33.358  16.594  -3.717  1.00 20.00     0.014 C 
ENDROOT
BRANCH   6   9
HETATM    9  C3  UNL     1     -31.491  18.541  -0.068  1.00 20.00     0.127 C 
HETATM   10  C9  UNL     1     -31.829  18.381   1.389  1.00 20.00     0.091 C 
HETATM   11  O11 UNL     1     -30.409  18.174  -0.525  1.00 20.00    -0.298 OA
ENDBRANCH   6   9
TORSDOF 1
ENDMDL
MODEL 7
REMARK VINA RESULT:      -4.3      1.344      3.287
REMARK  1 active torsions:
REMARK  status: ('A' for Active; 'I' for Inactive)
REMARK    1  A    between atoms: C3_3  and  C7_7 
ROOT
HETATM    1  C1  UNL     1     -23.824  17.851   8.875  1.00 20.00    -0.020 C 
HETATM    2  C2  UNL     1     -24.828  18.620   9.332  1.00 20.00    -0.086 C 
HETATM    3  C4  UNL     1     -25.036  18.886  10.803  1.00 20.00     0.045 C 
HETATM    4  C5  UNL     1     -22.788  17.777  11.187  1.00 20.00     0.020 C 
HETATM    5  C6  UNL     1     -22.790  17.203   9.759  1.00 20.00     0.005 C 
HETATM    6  C7  UNL     1     -24.197  18.002  11.734  1.00 20.00     0.059 C 
HETATM    7  C8  UNL     1     -25.816  19.263   8.402  1.00 20.00     0.043 C 
HETATM    8  C10 UNL     1     -21.395  17.328   9.145  1.00 20.00     0.014 C 
ENDROOT
BRANCH   6   9
HETATM    9  C3  UNL     1     -24.875  16.685  11.986  1.00 20.00     0.127 C 
HETATM   10  C9  UNL     1     -26.339  16.732  12.330  1.00 20.00     0.091 C 
HETATM   11  O11 UNL     1     -24.262  15.621  11.910  1.00 20.00    -0.298 OA
ENDBRANCH   6   9
TORSDOF 1
ENDMDL
MODEL 8
REMARK VINA RESULT:      -4.2     23.680     24.441
REMARK  1 active torsions:
REMARK  status: ('A' for Active; 'I' for Inactive)
REMARK    1  A    between atoms: C3_3  and  C7_7 
ROOT
HETATM    1  C1  UNL     1     -43.407   4.922  -0.298  1.00 20.00    -0.020 C 
HETATM    2  C2  UNL     1     -42.615   4.795  -1.377  1.00 20.00    -0.086 C 
HETATM    3  C4  UNL     1     -41.306   5.536  -1.510  1.00 20.00     0.045 C 
HETATM    4  C5  UNL     1     -41.598   6.220   0.915  1.00 20.00     0.020 C 
HETATM    5  C6  UNL     1     -43.073   5.779   0.896  1.00 20.00     0.005 C 
HETATM    6  C7  UNL     1     -41.090   6.637  -0.464  1.00 20.00     0.059 C 
HETATM    7  C8  UNL     1     -42.986   3.905  -2.528  1.00 20.00     0.043 C 
HETATM    8  C10 UNL     1     -43.417   5.054   2.198  1.00 20.00     0.014 C 
ENDROOT
BRANCH   6   9
HETATM    9  C3  UNL     1     -41.739   7.923  -0.892  1.00 20.00     0.127 C 
HETATM   10  C9  UNL     1     -41.540   9.114   0.006  1.00 20.00     0.091 C 
HETATM   11  O11 UNL     1     -42.399   7.998  -1.928  1.00 20.00    -0.298 OA
ENDBRANCH   6   9
TORSDOF 1
ENDMDL
MODEL 9
REMARK VINA RESULT:      -4.2     16.670     18.490
REMARK  1 active torsions:
REMARK  status: ('A' for Active; 'I' for Inactive)
REMARK    1  A    between atoms: C3_3  and  C7_7 
ROOT
HETATM    1  C1  UNL     1     -35.748  15.435  -5.712  1.00 20.00    -0.020 C 
HETATM    2  C2  UNL     1     -34.461  15.165  -5.991  1.00 20.00    -0.086 C 
HETATM    3  C4  UNL     1     -33.465  14.786  -4.922  1.00 20.00     0.045 C 
HETATM    4  C5  UNL     1     -35.434  14.623  -3.331  1.00 20.00     0.020 C 
HETATM    5  C6  UNL     1     -36.343  15.361  -4.330  1.00 20.00     0.005 C 
HETATM    6  C7  UNL     1     -33.961  15.000  -3.486  1.00 20.00     0.059 C 
HETATM    7  C8  UNL     1     -33.927  15.229  -7.393  1.00 20.00     0.043 C 
HETATM    8  C10 UNL     1     -37.722  14.699  -4.367  1.00 20.00     0.014 C 
ENDROOT
BRANCH   6   9
HETATM    9  C3  UNL     1     -33.736  16.418  -3.043  1.00 20.00     0.127 C 
HETATM   10  C9  UNL     1     -34.382  16.834  -1.750  1.00 20.00     0.091 C 
HETATM   11  O11 UNL     1     -33.053  17.199  -3.705  1.00 20.00    -0.298 OA
ENDBRANCH   6   9
TORSDOF 1
ENDMDL
