MODEL 1
REMARK VINA RESULT:      -5.2      0.000      0.000
REMARK  1 active torsions:
REMARK  status: ('A' for Active; 'I' for Inactive)
REMARK    1  A    between atoms: C1_1  and  C8_8 
ROOT
HETATM    1  C2  UNL     1     -33.379  17.004  -3.775  1.00 20.00     0.005 C 
HETATM    2  C3  UNL     1     -34.757  17.367  -4.348  1.00 20.00     0.006 C 
HETATM    3  C4  UNL     1     -35.072  15.839  -2.575  1.00 20.00     0.010 C 
HETATM    4  C5  UNL     1     -33.796  14.554  -4.133  1.00 20.00     0.023 C 
HETATM    5  C6  UNL     1     -33.638  15.661  -3.068  1.00 20.00    -0.013 C 
HETATM    6  C7  UNL     1     -35.613  16.140  -3.981  1.00 20.00     0.003 C 
HETATM    7  C8  UNL     1     -35.167  14.879  -4.773  1.00 20.00     0.036 C 
HETATM    8  C9  UNL     1     -35.075  15.064  -6.288  1.00 20.00     0.025 C 
ENDROOT
BRANCH   7   9
HETATM    9  C1  UNL     1     -36.165  13.775  -4.521  1.00 20.00     0.227 C 
HETATM   10  O10 UNL     1     -35.821  12.598  -4.453  1.00 20.00    -0.279 OA
HETATM   11 CL11 UNL     1     -37.784  14.381  -4.352  1.00 20.00    -0.043 Cl
ENDBRANCH   7   9
TORSDOF 1
ENDMDL
MODEL 2
REMARK VINA RESULT:      -4.7      1.392      2.078
REMARK  1 active torsions:
REMARK  status: ('A' for Active; 'I' for Inactive)
REMARK    1  A    between atoms: C1_1  and  C8_8 
ROOT
HETATM    1  C2  UNL     1     -34.333  17.336  -2.815  1.00 20.00     0.005 C 
HETATM    2  C3  UNL     1     -34.940  16.142  -2.064  1.00 20.00     0.006 C 
HETATM    3  C4  UNL     1     -33.518  15.307  -3.754  1.00 20.00     0.010 C 
HETATM    4  C5  UNL     1     -35.178  16.473  -5.016  1.00 20.00     0.023 C 
HETATM    5  C6  UNL     1     -33.914  16.723  -4.164  1.00 20.00    -0.013 C 
HETATM    6  C7  UNL     1     -34.882  15.015  -3.112  1.00 20.00     0.003 C 
HETATM    7  C8  UNL     1     -35.858  15.286  -4.292  1.00 20.00     0.036 C 
HETATM    8  C9  UNL     1     -37.298  15.598  -3.884  1.00 20.00     0.025 C 
ENDROOT
BRANCH   7   9
HETATM    9  C1  UNL     1     -35.901  14.060  -5.172  1.00 20.00     0.227 C 
HETATM   10  O10 UNL     1     -36.075  12.937  -4.706  1.00 20.00    -0.279 OA
HETATM   11 CL11 UNL     1     -35.679  14.452  -6.850  1.00 20.00    -0.043 Cl
ENDBRANCH   7   9
TORSDOF 1
ENDMDL
MODEL 3
REMARK VINA RESULT:      -4.6      1.826      2.359
REMARK  1 active torsions:
REMARK  status: ('A' for Active; 'I' for Inactive)
REMARK    1  A    between atoms: C1_1  and  C8_8 
ROOT
HETATM    1  C2  UNL     1     -34.188  16.533  -2.043  1.00 20.00     0.005 C 
HETATM    2  C3  UNL     1     -33.286  16.966  -3.209  1.00 20.00     0.006 C 
HETATM    3  C4  UNL     1     -35.521  16.945  -3.972  1.00 20.00     0.010 C 
HETATM    4  C5  UNL     1     -35.157  14.655  -3.398  1.00 20.00     0.023 C 
HETATM    5  C6  UNL     1     -35.456  16.026  -2.754  1.00 20.00    -0.013 C 
HETATM    6  C7  UNL     1     -34.110  16.564  -4.446  1.00 20.00     0.003 C 
HETATM    7  C8  UNL     1     -34.221  15.019  -4.576  1.00 20.00     0.036 C 
HETATM    8  C9  UNL     1     -32.892  14.266  -4.520  1.00 20.00     0.025 C 
ENDROOT
BRANCH   7   9
HETATM    9  C1  UNL     1     -34.860  14.692  -5.904  1.00 20.00     0.227 C 
HETATM   10  O10 UNL     1     -35.858  13.980  -5.982  1.00 20.00    -0.279 OA
HETATM   11 CL11 UNL     1     -34.022  15.432  -7.233  1.00 20.00    -0.043 Cl
ENDBRANCH   7   9
TORSDOF 1
ENDMDL
MODEL 4
REMARK VINA RESULT:      -4.5      1.504      2.087
REMARK  1 active torsions:
REMARK  status: ('A' for Active; 'I' for Inactive)
REMARK    1  A    between atoms: C1_1  and  C8_8 
ROOT
HETATM    1  C2  UNL     1     -33.268  16.210  -3.030  1.00 20.00     0.005 C 
HETATM    2  C3  UNL     1     -34.581  16.055  -2.248  1.00 20.00     0.006 C 
HETATM    3  C4  UNL     1     -34.414  14.262  -3.775  1.00 20.00     0.010 C 
HETATM    4  C5  UNL     1     -34.487  16.159  -5.224  1.00 20.00     0.023 C 
HETATM    5  C6  UNL     1     -33.521  15.382  -4.303  1.00 20.00    -0.013 C 
HETATM    6  C7  UNL     1     -35.459  15.238  -3.213  1.00 20.00     0.003 C 
HETATM    7  C8  UNL     1     -35.837  16.064  -4.474  1.00 20.00     0.036 C 
HETATM    8  C9  UNL     1     -36.446  17.438  -4.191  1.00 20.00     0.025 C 
ENDROOT
BRANCH   7   9
HETATM    9  C1  UNL     1     -36.854  15.285  -5.273  1.00 20.00     0.227 C 
HETATM   10  O10 UNL     1     -36.753  15.150  -6.489  1.00 20.00    -0.279 OA
HETATM   11 CL11 UNL     1     -38.120  14.642  -4.271  1.00 20.00    -0.043 Cl
ENDBRANCH   7   9
TORSDOF 1
ENDMDL
MODEL 5
REMARK VINA RESULT:      -4.4      1.535      1.717
REMARK  1 active torsions:
REMARK  status: ('A' for Active; 'I' for Inactive)
REMARK    1  A    between atoms: C1_1  and  C8_8 
ROOT
HETATM    1  C2  UNL     1     -34.460  18.260  -2.488  1.00 20.00     0.005 C 
HETATM    2  C3  UNL     1     -35.739  17.807  -3.208  1.00 20.00     0.006 C 
HETATM    3  C4  UNL     1     -34.992  16.031  -1.843  1.00 20.00     0.010 C 
HETATM    4  C5  UNL     1     -33.179  16.292  -3.376  1.00 20.00     0.023 C 
HETATM    5  C6  UNL     1     -33.785  16.929  -2.107  1.00 20.00    -0.013 C 
HETATM    6  C7  UNL     1     -35.591  16.274  -3.236  1.00 20.00     0.003 C 
HETATM    7  C8  UNL     1     -34.427  15.834  -4.168  1.00 20.00     0.036 C 
HETATM    8  C9  UNL     1     -34.469  16.418  -5.580  1.00 20.00     0.025 C 
ENDROOT
BRANCH   7   9
HETATM    9  C1  UNL     1     -34.465  14.331  -4.308  1.00 20.00     0.227 C 
HETATM   10  O10 UNL     1     -33.437  13.663  -4.374  1.00 20.00    -0.279 OA
HETATM   11 CL11 UNL     1     -36.090  13.720  -4.360  1.00 20.00    -0.043 Cl
ENDBRANCH   7   9
TORSDOF 1
ENDMDL
MODEL 6
REMARK VINA RESULT:      -4.3     10.678     11.987
REMARK  1 active torsions:
REMARK  status: ('A' for Active; 'I' for Inactive)
REMARK    1  A    between atoms: C1_1  and  C8_8 
ROOT
HETATM    1  C2  UNL     1     -42.754   8.745   0.174  1.00 20.00     0.005 C 
HETATM    2  C3  UNL     1     -41.554   8.014   0.796  1.00 20.00     0.006 C 
HETATM    3  C4  UNL     1     -41.376   7.863  -1.554  1.00 20.00     0.010 C 
HETATM    4  C5  UNL     1     -43.417   6.701  -1.124  1.00 20.00     0.023 C 
HETATM    5  C6  UNL     1     -42.844   8.131  -1.235  1.00 20.00    -0.013 C 
HETATM    6  C7  UNL     1     -41.167   7.002  -0.299  1.00 20.00     0.003 C 
HETATM    7  C8  UNL     1     -42.258   5.909  -0.474  1.00 20.00     0.036 C 
HETATM    8  C9  UNL     1     -42.682   5.204   0.815  1.00 20.00     0.025 C 
ENDROOT
BRANCH   7   9
HETATM    9  C1  UNL     1     -41.730   4.847  -1.408  1.00 20.00     0.227 C 
HETATM   10  O10 UNL     1     -40.527   4.622  -1.515  1.00 20.00    -0.279 OA
HETATM   11 CL11 UNL     1     -43.005   4.035  -2.263  1.00 20.00    -0.043 Cl
ENDBRANCH   7   9
TORSDOF 1
ENDMDL
MODEL 7
REMARK VINA RESULT:      -4.2      2.475      3.655
REMARK  1 active torsions:
REMARK  status: ('A' for Active; 'I' for Inactive)
REMARK    1  A    between atoms: C1_1  and  C8_8 
ROOT
HETATM    1  C2  UNL     1     -37.393  14.527  -4.382  1.00 20.00     0.005 C 
HETATM    2  C3  UNL     1     -37.172  16.037  -4.206  1.00 20.00     0.006 C 
HETATM    3  C4  UNL     1     -35.552  15.225  -5.719  1.00 20.00     0.010 C 
HETATM    4  C5  UNL     1     -35.023  14.032  -3.719  1.00 20.00     0.023 C 
HETATM    5  C6  UNL     1     -36.027  14.033  -4.892  1.00 20.00    -0.013 C 
HETATM    6  C7  UNL     1     -35.680  16.206  -4.544  1.00 20.00     0.003 C 
HETATM    7  C8  UNL     1     -34.776  15.539  -3.469  1.00 20.00     0.036 C 
HETATM    8  C9  UNL     1     -35.072  15.949  -2.027  1.00 20.00     0.025 C 
ENDROOT
BRANCH   7   9
HETATM    9  C1  UNL     1     -33.340  15.912  -3.750  1.00 20.00     0.227 C 
HETATM   10  O10 UNL     1     -32.926  17.056  -3.584  1.00 20.00    -0.279 OA
HETATM   11 CL11 UNL     1     -32.410  14.557  -4.314  1.00 20.00    -0.043 Cl
ENDBRANCH   7   9
TORSDOF 1
ENDMDL
MODEL 8
REMARK VINA RESULT:      -4.2      1.454      2.315
REMARK  1 active torsions:
REMARK  status: ('A' for Active; 'I' for Inactive)
REMARK    1  A    between atoms: C1_1  and  C8_8 
ROOT
HETATM    1  C2  UNL     1     -33.845  17.422  -2.136  1.00 20.00     0.005 C 
HETATM    2  C3  UNL     1     -34.792  16.269  -1.771  1.00 20.00     0.006 C 
HETATM    3  C4  UNL     1     -33.293  15.499  -3.425  1.00 20.00     0.010 C 
HETATM    4  C5  UNL     1     -34.455  17.247  -4.565  1.00 20.00     0.023 C 
HETATM    5  C6  UNL     1     -33.331  17.022  -3.531  1.00 20.00    -0.013 C 
HETATM    6  C7  UNL     1     -34.777  15.400  -3.042  1.00 20.00     0.003 C 
HETATM    7  C8  UNL     1     -35.466  16.124  -4.233  1.00 20.00     0.036 C 
HETATM    8  C9  UNL     1     -36.865  16.665  -3.942  1.00 20.00     0.025 C 
ENDROOT
BRANCH   7   9
HETATM    9  C1  UNL     1     -35.596  15.149  -5.378  1.00 20.00     0.227 C 
HETATM   10  O10 UNL     1     -35.238  15.439  -6.517  1.00 20.00    -0.279 OA
HETATM   11 CL11 UNL     1     -36.292  13.638  -4.876  1.00 20.00    -0.043 Cl
ENDBRANCH   7   9
TORSDOF 1
ENDMDL
MODEL 9
REMARK VINA RESULT:      -4.1      2.358      3.467
REMARK  1 active torsions:
REMARK  status: ('A' for Active; 'I' for Inactive)
REMARK    1  A    between atoms: C1_1  and  C8_8 
ROOT
HETATM    1  C2  UNL     1     -35.754  14.448  -5.823  1.00 20.00     0.005 C 
HETATM    2  C3  UNL     1     -34.341  15.025  -6.000  1.00 20.00     0.006 C 
HETATM    3  C4  UNL     1     -34.437  13.933  -3.909  1.00 20.00     0.010 C 
HETATM    4  C5  UNL     1     -36.058  15.669  -3.651  1.00 20.00     0.023 C 
HETATM    5  C6  UNL     1     -35.873  14.279  -4.297  1.00 20.00    -0.013 C 
HETATM    6  C7  UNL     1     -33.862  15.206  -4.548  1.00 20.00     0.003 C 
HETATM    7  C8  UNL     1     -34.665  16.322  -3.821  1.00 20.00     0.036 C 
HETATM    8  C9  UNL     1     -34.732  17.659  -4.559  1.00 20.00     0.025 C 
ENDROOT
BRANCH   7   9
HETATM    9  C1  UNL     1     -34.017  16.585  -2.483  1.00 20.00     0.227 C 
HETATM   10  O10 UNL     1     -32.819  16.834  -2.383  1.00 20.00    -0.279 OA
HETATM   11 CL11 UNL     1     -35.156  16.489  -1.175  1.00 20.00    -0.043 Cl
ENDBRANCH   7   9
TORSDOF 1
ENDMDL
