MODEL 1
REMARK VINA RESULT:      -4.1      0.000      0.000
REMARK  3 active torsions:
REMARK  status: ('A' for Active; 'I' for Inactive)
REMARK    1  A    between atoms: C1_1  and  C7_7 
REMARK    2  A    between atoms: C7_7  and  O10_10 
REMARK    3  A    between atoms: C8_8  and  N9_9 
ROOT
HETATM    1  C1  UNL     1     -33.092   6.092   2.898  1.00 20.00     0.032 C 
HETATM    2  C2  UNL     1     -33.298   4.816   2.112  1.00 20.00     0.068 C 
HETATM    3  N9  UNL     1     -33.690   6.368   4.007  1.00 20.00    -0.287 NA
ENDROOT
BRANCH   1   4
HETATM    4  C7  UNL     1     -32.082   7.107   2.378  1.00 20.00     0.161 C 
HETATM    5  C3  UNL     1     -32.729   8.076   1.404  1.00 20.00     0.045 C 
BRANCH   4   6
HETATM    6  O10 UNL     1     -31.540   7.829   3.468  1.00 20.00    -0.390 OA
HETATM    7  H27 UNL     1     -31.811   8.757   3.361  1.00 20.00     0.210 HD
ENDBRANCH   4   6
ENDBRANCH   1   4
BRANCH   3   8
HETATM    8  C8  UNL     1     -34.635   5.405   4.549  1.00 20.00     0.043 C 
HETATM    9  C4  UNL     1     -34.119   4.000   4.245  1.00 20.00     0.039 C 
HETATM   10  C5  UNL     1     -34.721   5.631   6.058  1.00 20.00     0.039 C 
HETATM   11  C6  UNL     1     -35.995   5.639   3.891  1.00 20.00     0.039 C 
ENDBRANCH   3   8
TORSDOF 3
ENDMDL
MODEL 2
REMARK VINA RESULT:      -4.1     11.951     13.149
REMARK  3 active torsions:
REMARK  status: ('A' for Active; 'I' for Inactive)
REMARK    1  A    between atoms: C1_1  and  C7_7 
REMARK    2  A    between atoms: C7_7  and  O10_10 
REMARK    3  A    between atoms: C8_8  and  N9_9 
ROOT
HETATM    1  C1  UNL     1     -34.104  15.539  -5.067  1.00 20.00     0.032 C 
HETATM    2  C2  UNL     1     -33.305  14.561  -4.234  1.00 20.00     0.068 C 
HETATM    3  N9  UNL     1     -34.635  16.622  -4.608  1.00 20.00    -0.287 NA
ENDROOT
BRANCH   1   4
HETATM    4  C7  UNL     1     -34.266  15.259  -6.556  1.00 20.00     0.161 C 
HETATM    5  C3  UNL     1     -34.379  16.550  -7.347  1.00 20.00     0.045 C 
BRANCH   4   6
HETATM    6  O10 UNL     1     -33.150  14.520  -7.017  1.00 20.00    -0.390 OA
HETATM    7  H27 UNL     1     -32.742  14.103  -6.240  1.00 20.00     0.210 HD
ENDBRANCH   4   6
ENDBRANCH   1   4
BRANCH   3   8
HETATM    8  C8  UNL     1     -34.469  16.937  -3.199  1.00 20.00     0.043 C 
HETATM    9  C4  UNL     1     -32.976  17.088  -2.910  1.00 20.00     0.039 C 
HETATM   10  C5  UNL     1     -35.206  18.247  -2.921  1.00 20.00     0.039 C 
HETATM   11  C6  UNL     1     -35.069  15.797  -2.375  1.00 20.00     0.039 C 
ENDBRANCH   3   8
TORSDOF 3
ENDMDL
MODEL 3
REMARK VINA RESULT:      -4.1     11.960     13.188
REMARK  3 active torsions:
REMARK  status: ('A' for Active; 'I' for Inactive)
REMARK    1  A    between atoms: C1_1  and  C7_7 
REMARK    2  A    between atoms: C7_7  and  O10_10 
REMARK    3  A    between atoms: C8_8  and  N9_9 
ROOT
HETATM    1  C1  UNL     1     -34.096  15.554  -5.059  1.00 20.00     0.032 C 
HETATM    2  C2  UNL     1     -33.266  14.595  -4.234  1.00 20.00     0.068 C 
HETATM    3  N9  UNL     1     -34.643  16.627  -4.596  1.00 20.00    -0.287 NA
ENDROOT
BRANCH   1   4
HETATM    4  C7  UNL     1     -34.270  15.267  -6.545  1.00 20.00     0.161 C 
HETATM    5  C3  UNL     1     -34.391  16.554  -7.342  1.00 20.00     0.045 C 
BRANCH   4   6
HETATM    6  O10 UNL     1     -33.157  14.527  -7.013  1.00 20.00    -0.390 OA
HETATM    7  H27 UNL     1     -33.251  14.449  -7.978  1.00 20.00     0.210 HD
ENDBRANCH   4   6
ENDBRANCH   1   4
BRANCH   3   8
HETATM    8  C8  UNL     1     -34.467  16.949  -3.190  1.00 20.00     0.043 C 
HETATM    9  C4  UNL     1     -35.207  18.254  -2.897  1.00 20.00     0.039 C 
HETATM   10  C5  UNL     1     -35.053  15.802  -2.368  1.00 20.00     0.039 C 
HETATM   11  C6  UNL     1     -32.971  17.100  -2.912  1.00 20.00     0.039 C 
ENDBRANCH   3   8
TORSDOF 3
ENDMDL
MODEL 4
REMARK VINA RESULT:      -4.1     11.930     13.128
REMARK  3 active torsions:
REMARK  status: ('A' for Active; 'I' for Inactive)
REMARK    1  A    between atoms: C1_1  and  C7_7 
REMARK    2  A    between atoms: C7_7  and  O10_10 
REMARK    3  A    between atoms: C8_8  and  N9_9 
ROOT
HETATM    1  C1  UNL     1     -34.132  15.513  -5.077  1.00 20.00     0.032 C 
HETATM    2  C2  UNL     1     -33.405  14.489  -4.233  1.00 20.00     0.068 C 
HETATM    3  N9  UNL     1     -34.613  16.621  -4.622  1.00 20.00    -0.287 NA
ENDROOT
BRANCH   1   4
HETATM    4  C7  UNL     1     -34.274  15.252  -6.571  1.00 20.00     0.161 C 
HETATM    5  C3  UNL     1     -34.382  16.552  -7.348  1.00 20.00     0.045 C 
BRANCH   4   6
HETATM    6  O10 UNL     1     -33.149  14.524  -7.028  1.00 20.00    -0.390 OA
HETATM    7  H27 UNL     1     -33.397  14.116  -7.875  1.00 20.00     0.210 HD
ENDBRANCH   4   6
ENDBRANCH   1   4
BRANCH   3   8
HETATM    8  C8  UNL     1     -34.463  16.918  -3.207  1.00 20.00     0.043 C 
HETATM    9  C4  UNL     1     -35.091  15.779  -2.406  1.00 20.00     0.039 C 
HETATM   10  C5  UNL     1     -32.969  17.028  -2.906  1.00 20.00     0.039 C 
HETATM   11  C6  UNL     1     -35.170  18.242  -2.914  1.00 20.00     0.039 C 
ENDBRANCH   3   8
TORSDOF 3
ENDMDL
MODEL 5
REMARK VINA RESULT:      -3.9     11.833     12.589
REMARK  3 active torsions:
REMARK  status: ('A' for Active; 'I' for Inactive)
REMARK    1  A    between atoms: C1_1  and  C7_7 
REMARK    2  A    between atoms: C7_7  and  O10_10 
REMARK    3  A    between atoms: C8_8  and  N9_9 
ROOT
HETATM    1  C1  UNL     1     -33.936  15.656  -3.600  1.00 20.00     0.032 C 
HETATM    2  C2  UNL     1     -35.390  15.627  -3.184  1.00 20.00     0.068 C 
HETATM    3  N9  UNL     1     -33.075  16.517  -3.176  1.00 20.00    -0.287 NA
ENDROOT
BRANCH   1   4
HETATM    4  C7  UNL     1     -33.433  14.576  -4.550  1.00 20.00     0.161 C 
HETATM    5  C3  UNL     1     -33.880  14.849  -5.976  1.00 20.00     0.045 C 
BRANCH   4   6
HETATM    6  O10 UNL     1     -32.019  14.530  -4.502  1.00 20.00    -0.390 OA
HETATM    7  H27 UNL     1     -31.772  14.294  -3.591  1.00 20.00     0.210 HD
ENDBRANCH   4   6
ENDBRANCH   1   4
BRANCH   3   8
HETATM    8  C8  UNL     1     -33.513  17.540  -2.240  1.00 20.00     0.043 C 
HETATM    9  C4  UNL     1     -34.502  16.908  -1.263  1.00 20.00     0.039 C 
HETATM   10  C5  UNL     1     -32.281  18.058  -1.499  1.00 20.00     0.039 C 
HETATM   11  C6  UNL     1     -34.178  18.666  -3.033  1.00 20.00     0.039 C 
ENDBRANCH   3   8
TORSDOF 3
ENDMDL
MODEL 6
REMARK VINA RESULT:      -3.9     11.922     12.970
REMARK  3 active torsions:
REMARK  status: ('A' for Active; 'I' for Inactive)
REMARK    1  A    between atoms: C1_1  and  C7_7 
REMARK    2  A    between atoms: C7_7  and  O10_10 
REMARK    3  A    between atoms: C8_8  and  N9_9 
ROOT
HETATM    1  C1  UNL     1     -32.951  18.202  -0.994  1.00 20.00     0.032 C 
HETATM    2  C2  UNL     1     -34.346  18.709  -0.703  1.00 20.00     0.068 C 
HETATM    3  N9  UNL     1     -32.664  17.349  -1.918  1.00 20.00    -0.287 NA
ENDROOT
BRANCH   1   4
HETATM    4  C7  UNL     1     -31.793  18.759  -0.175  1.00 20.00     0.161 C 
HETATM    5  C3  UNL     1     -31.931  18.390   1.292  1.00 20.00     0.045 C 
BRANCH   4   6
HETATM    6  O10 UNL     1     -30.574  18.242  -0.677  1.00 20.00    -0.390 OA
HETATM    7  H27 UNL     1     -29.864  18.574  -0.101  1.00 20.00     0.210 HD
ENDBRANCH   4   6
ENDBRANCH   1   4
BRANCH   3   8
HETATM    8  C8  UNL     1     -33.742  16.824  -2.741  1.00 20.00     0.043 C 
HETATM    9  C4  UNL     1     -34.287  17.960  -3.604  1.00 20.00     0.039 C 
HETATM   10  C5  UNL     1     -33.165  15.712  -3.617  1.00 20.00     0.039 C 
HETATM   11  C6  UNL     1     -34.829  16.272  -1.819  1.00 20.00     0.039 C 
ENDBRANCH   3   8
TORSDOF 3
ENDMDL
MODEL 7
REMARK VINA RESULT:      -3.8     11.469     12.225
REMARK  3 active torsions:
REMARK  status: ('A' for Active; 'I' for Inactive)
REMARK    1  A    between atoms: C1_1  and  C7_7 
REMARK    2  A    between atoms: C7_7  and  O10_10 
REMARK    3  A    between atoms: C8_8  and  N9_9 
ROOT
HETATM    1  C1  UNL     1     -34.728  16.189  -2.357  1.00 20.00     0.032 C 
HETATM    2  C2  UNL     1     -33.334  16.512  -2.848  1.00 20.00     0.068 C 
HETATM    3  N9  UNL     1     -35.563  15.433  -2.986  1.00 20.00    -0.287 NA
ENDROOT
BRANCH   1   4
HETATM    4  C7  UNL     1     -35.171  16.752  -1.014  1.00 20.00     0.161 C 
HETATM    5  C3  UNL     1     -34.242  17.861  -0.550  1.00 20.00     0.045 C 
BRANCH   4   6
HETATM    6  O10 UNL     1     -36.488  17.260  -1.130  1.00 20.00    -0.390 OA
HETATM    7  H27 UNL     1     -37.086  16.593  -0.751  1.00 20.00     0.210 HD
ENDBRANCH   4   6
ENDBRANCH   1   4
BRANCH   3   8
HETATM    8  C8  UNL     1     -35.158  14.850  -4.255  1.00 20.00     0.043 C 
HETATM    9  C4  UNL     1     -33.777  14.223  -4.079  1.00 20.00     0.039 C 
HETATM   10  C5  UNL     1     -36.188  13.786  -4.633  1.00 20.00     0.039 C 
HETATM   11  C6  UNL     1     -35.121  15.960  -5.306  1.00 20.00     0.039 C 
ENDBRANCH   3   8
TORSDOF 3
ENDMDL
MODEL 8
REMARK VINA RESULT:      -3.8     11.201     12.168
REMARK  3 active torsions:
REMARK  status: ('A' for Active; 'I' for Inactive)
REMARK    1  A    between atoms: C1_1  and  C7_7 
REMARK    2  A    between atoms: C7_7  and  O10_10 
REMARK    3  A    between atoms: C8_8  and  N9_9 
ROOT
HETATM    1  C1  UNL     1     -34.201  15.534  -3.219  1.00 20.00     0.032 C 
HETATM    2  C2  UNL     1     -33.263  16.517  -3.885  1.00 20.00     0.068 C 
HETATM    3  N9  UNL     1     -34.922  15.804  -2.184  1.00 20.00    -0.287 NA
ENDROOT
BRANCH   1   4
HETATM    4  C7  UNL     1     -34.345  14.145  -3.828  1.00 20.00     0.161 C 
HETATM    5  C3  UNL     1     -35.741  13.935  -4.389  1.00 20.00     0.045 C 
BRANCH   4   6
HETATM    6  O10 UNL     1     -33.393  13.986  -4.864  1.00 20.00    -0.390 OA
HETATM    7  H27 UNL     1     -32.601  14.488  -4.604  1.00 20.00     0.210 HD
ENDBRANCH   4   6
ENDBRANCH   1   4
BRANCH   3   8
HETATM    8  C8  UNL     1     -34.835  17.132  -1.599  1.00 20.00     0.043 C 
HETATM    9  C4  UNL     1     -35.599  18.105  -2.495  1.00 20.00     0.039 C 
HETATM   10  C5  UNL     1     -35.464  17.075  -0.207  1.00 20.00     0.039 C 
HETATM   11  C6  UNL     1     -33.360  17.524  -1.507  1.00 20.00     0.039 C 
ENDBRANCH   3   8
TORSDOF 3
ENDMDL
MODEL 9
REMARK VINA RESULT:      -3.8     11.597     12.521
REMARK  3 active torsions:
REMARK  status: ('A' for Active; 'I' for Inactive)
REMARK    1  A    between atoms: C1_1  and  C7_7 
REMARK    2  A    between atoms: C7_7  and  O10_10 
REMARK    3  A    between atoms: C8_8  and  N9_9 
ROOT
HETATM    1  C1  UNL     1     -35.634  15.061  -3.904  1.00 20.00     0.032 C 
HETATM    2  C2  UNL     1     -34.171  14.913  -3.548  1.00 20.00     0.068 C 
HETATM    3  N9  UNL     1     -36.383  16.037  -3.515  1.00 20.00    -0.287 NA
ENDROOT
BRANCH   1   4
HETATM    4  C7  UNL     1     -36.266  14.016  -4.815  1.00 20.00     0.161 C 
HETATM    5  C3  UNL     1     -35.943  14.292  -6.273  1.00 20.00     0.045 C 
BRANCH   4   6
HETATM    6  O10 UNL     1     -35.785  12.733  -4.461  1.00 20.00    -0.390 OA
HETATM    7  H27 UNL     1     -35.904  12.159  -5.237  1.00 20.00     0.210 HD
ENDBRANCH   4   6
ENDBRANCH   1   4
BRANCH   3   8
HETATM    8  C8  UNL     1     -35.801  17.070  -2.674  1.00 20.00     0.043 C 
HETATM    9  C4  UNL     1     -36.925  17.979  -2.179  1.00 20.00     0.039 C 
HETATM   10  C5  UNL     1     -35.108  16.383  -1.498  1.00 20.00     0.039 C 
HETATM   11  C6  UNL     1     -34.791  17.860  -3.507  1.00 20.00     0.039 C 
ENDBRANCH   3   8
TORSDOF 3
ENDMDL
