MODEL 1
REMARK VINA RESULT:      -4.4      0.000      0.000
REMARK  0 active torsions:
REMARK  status: ('A' for Active; 'I' for Inactive)
ROOT
HETATM    1  C1  UNL     1     -24.675  18.247   9.461  1.00 20.00    -0.013 C 
HETATM    2  C2  UNL     1     -24.202  17.107  10.010  1.00 20.00     0.004 C 
HETATM    3  C3  UNL     1     -22.174  17.613   7.978  1.00 20.00     0.341 C 
HETATM    4  C4  UNL     1     -23.731  19.262   8.824  1.00 20.00     0.127 C 
HETATM    5  C5  UNL     1     -21.988  18.191  10.156  1.00 20.00     0.137 C 
HETATM    6  C6  UNL     1     -22.698  16.861  10.045  1.00 20.00     0.169 C 
HETATM    7  N7  UNL     1     -22.378  18.695   8.861  1.00 20.00    -0.222 NA
HETATM    8  O8  UNL     1     -22.057  17.648   6.763  1.00 20.00    -0.245 OA
HETATM    9  O9  UNL     1     -22.261  16.446   8.725  1.00 20.00    -0.298 OA
ENDROOT
TORSDOF 0
ENDMDL
MODEL 2
REMARK VINA RESULT:      -4.4     18.031     18.674
REMARK  0 active torsions:
REMARK  status: ('A' for Active; 'I' for Inactive)
ROOT
HETATM    1  C1  UNL     1     -35.256  16.277  -3.084  1.00 20.00    -0.013 C 
HETATM    2  C2  UNL     1     -34.315  15.308  -3.068  1.00 20.00     0.004 C 
HETATM    3  C3  UNL     1     -36.416  13.997  -4.605  1.00 20.00     0.341 C 
HETATM    4  C4  UNL     1     -36.252  16.384  -4.235  1.00 20.00     0.127 C 
HETATM    5  C5  UNL     1     -34.637  15.066  -5.504  1.00 20.00     0.137 C 
HETATM    6  C6  UNL     1     -34.211  14.346  -4.244  1.00 20.00     0.169 C 
HETATM    7  N7  UNL     1     -36.020  15.246  -5.131  1.00 20.00    -0.222 NA
HETATM    8  O8  UNL     1     -37.551  13.569  -4.461  1.00 20.00    -0.245 OA
HETATM    9  O9  UNL     1     -35.273  13.362  -4.140  1.00 20.00    -0.298 OA
ENDROOT
TORSDOF 0
ENDMDL
MODEL 3
REMARK VINA RESULT:      -4.1     18.483     19.210
REMARK  0 active torsions:
REMARK  status: ('A' for Active; 'I' for Inactive)
ROOT
HETATM    1  C1  UNL     1     -34.108  15.797  -4.400  1.00 20.00    -0.013 C 
HETATM    2  C2  UNL     1     -34.494  15.837  -5.694  1.00 20.00     0.004 C 
HETATM    3  C3  UNL     1     -36.082  13.593  -4.726  1.00 20.00     0.341 C 
HETATM    4  C4  UNL     1     -35.046  15.268  -3.318  1.00 20.00     0.127 C 
HETATM    5  C5  UNL     1     -36.834  15.717  -4.918  1.00 20.00     0.137 C 
HETATM    6  C6  UNL     1     -35.905  15.404  -6.069  1.00 20.00     0.169 C 
HETATM    7  N7  UNL     1     -36.260  14.780  -3.982  1.00 20.00    -0.222 NA
HETATM    8  O8  UNL     1     -35.934  12.457  -4.303  1.00 20.00    -0.245 OA
HETATM    9  O9  UNL     1     -35.967  13.954  -6.062  1.00 20.00    -0.298 OA
ENDROOT
TORSDOF 0
ENDMDL
MODEL 4
REMARK VINA RESULT:      -4.1      2.616      3.409
REMARK  0 active torsions:
REMARK  status: ('A' for Active; 'I' for Inactive)
ROOT
HETATM    1  C1  UNL     1     -22.182  17.755  11.208  1.00 20.00    -0.013 C 
HETATM    2  C2  UNL     1     -22.925  17.855  12.331  1.00 20.00     0.004 C 
HETATM    3  C3  UNL     1     -24.939  18.407  10.297  1.00 20.00     0.341 C 
HETATM    4  C4  UNL     1     -22.811  17.328   9.886  1.00 20.00     0.127 C 
HETATM    5  C5  UNL     1     -24.597  16.389  11.259  1.00 20.00     0.137 C 
HETATM    6  C6  UNL     1     -24.401  17.479  12.289  1.00 20.00     0.169 C 
HETATM    7  N7  UNL     1     -24.255  17.187  10.106  1.00 20.00    -0.222 NA
HETATM    8  O8  UNL     1     -25.214  19.253   9.461  1.00 20.00    -0.245 OA
HETATM    9  O9  UNL     1     -25.142  18.559  11.663  1.00 20.00    -0.298 OA
ENDROOT
TORSDOF 0
ENDMDL
MODEL 5
REMARK VINA RESULT:      -4.0     16.379     17.067
REMARK  0 active torsions:
REMARK  status: ('A' for Active; 'I' for Inactive)
ROOT
HETATM    1  C1  UNL     1     -35.170  15.961  -2.131  1.00 20.00    -0.013 C 
HETATM    2  C2  UNL     1     -34.004  16.643  -2.146  1.00 20.00     0.004 C 
HETATM    3  C3  UNL     1     -33.513  14.683  -4.247  1.00 20.00     0.341 C 
HETATM    4  C4  UNL     1     -35.697  15.280  -3.391  1.00 20.00     0.127 C 
HETATM    5  C5  UNL     1     -34.220  16.802  -4.600  1.00 20.00     0.137 C 
HETATM    6  C6  UNL     1     -33.235  16.783  -3.454  1.00 20.00     0.169 C 
HETATM    7  N7  UNL     1     -34.686  15.445  -4.441  1.00 20.00    -0.222 NA
HETATM    8  O8  UNL     1     -33.368  13.478  -4.386  1.00 20.00    -0.245 OA
HETATM    9  O9  UNL     1     -32.547  15.534  -3.728  1.00 20.00    -0.298 OA
ENDROOT
TORSDOF 0
ENDMDL
MODEL 6
REMARK VINA RESULT:      -3.9      2.337      3.200
REMARK  0 active torsions:
REMARK  status: ('A' for Active; 'I' for Inactive)
ROOT
HETATM    1  C1  UNL     1     -23.590  19.245   8.840  1.00 20.00    -0.013 C 
HETATM    2  C2  UNL     1     -22.416  18.792   9.330  1.00 20.00     0.004 C 
HETATM    3  C3  UNL     1     -24.230  18.034  11.482  1.00 20.00     0.341 C 
HETATM    4  C4  UNL     1     -24.909  18.582   9.224  1.00 20.00     0.127 C 
HETATM    5  C5  UNL     1     -23.542  16.652   9.829  1.00 20.00     0.137 C 
HETATM    6  C6  UNL     1     -22.405  17.564  10.231  1.00 20.00     0.169 C 
HETATM    7  N7  UNL     1     -24.611  17.542  10.215  1.00 20.00    -0.222 NA
HETATM    8  O8  UNL     1     -24.939  18.551  12.332  1.00 20.00    -0.245 OA
HETATM    9  O9  UNL     1     -22.846  17.954  11.559  1.00 20.00    -0.298 OA
ENDROOT
TORSDOF 0
ENDMDL
MODEL 7
REMARK VINA RESULT:      -3.9      2.209      3.466
REMARK  0 active torsions:
REMARK  status: ('A' for Active; 'I' for Inactive)
ROOT
HETATM    1  C1  UNL     1     -21.869  17.999  11.411  1.00 20.00    -0.013 C 
HETATM    2  C2  UNL     1     -22.006  17.730  10.094  1.00 20.00     0.004 C 
HETATM    3  C3  UNL     1     -24.328  16.339  11.176  1.00 20.00     0.341 C 
HETATM    4  C4  UNL     1     -23.087  18.069  12.328  1.00 20.00     0.127 C 
HETATM    5  C5  UNL     1     -24.370  18.415  10.281  1.00 20.00     0.137 C 
HETATM    6  C6  UNL     1     -23.400  17.551   9.507  1.00 20.00     0.169 C 
HETATM    7  N7  UNL     1     -24.264  17.703  11.532  1.00 20.00    -0.222 NA
HETATM    8  O8  UNL     1     -24.597  15.387  11.893  1.00 20.00    -0.245 OA
HETATM    9  O9  UNL     1     -23.892  16.232   9.862  1.00 20.00    -0.298 OA
ENDROOT
TORSDOF 0
ENDMDL
MODEL 8
REMARK VINA RESULT:      -3.8     18.324     18.975
REMARK  0 active torsions:
REMARK  status: ('A' for Active; 'I' for Inactive)
ROOT
HETATM    1  C1  UNL     1     -35.094  16.243  -6.040  1.00 20.00    -0.013 C 
HETATM    2  C2  UNL     1     -34.905  16.653  -4.767  1.00 20.00     0.004 C 
HETATM    3  C3  UNL     1     -36.388  14.184  -4.324  1.00 20.00     0.341 C 
HETATM    4  C4  UNL     1     -35.235  14.761  -6.373  1.00 20.00     0.127 C 
HETATM    5  C5  UNL     1     -34.137  14.370  -4.228  1.00 20.00     0.137 C 
HETATM    6  C6  UNL     1     -34.771  15.618  -3.657  1.00 20.00     0.169 C 
HETATM    7  N7  UNL     1     -35.226  14.018  -5.108  1.00 20.00    -0.222 NA
HETATM    8  O8  UNL     1     -37.499  13.713  -4.518  1.00 20.00    -0.245 OA
HETATM    9  O9  UNL     1     -36.091  15.108  -3.332  1.00 20.00    -0.298 OA
ENDROOT
TORSDOF 0
ENDMDL
MODEL 9
REMARK VINA RESULT:      -3.7     23.874     24.508
REMARK  0 active torsions:
REMARK  status: ('A' for Active; 'I' for Inactive)
ROOT
HETATM    1  C1  UNL     1     -43.033   6.476   1.237  1.00 20.00    -0.013 C 
HETATM    2  C2  UNL     1     -42.691   7.666   0.697  1.00 20.00     0.004 C 
HETATM    3  C3  UNL     1     -41.395   5.835  -1.164  1.00 20.00     0.341 C 
HETATM    4  C4  UNL     1     -43.171   5.230   0.366  1.00 20.00     0.127 C 
HETATM    5  C5  UNL     1     -43.417   6.791  -1.494  1.00 20.00     0.137 C 
HETATM    6  C6  UNL     1     -42.498   7.778  -0.810  1.00 20.00     0.169 C 
HETATM    7  N7  UNL     1     -42.777   5.597  -0.999  1.00 20.00    -0.222 NA
HETATM    8  O8  UNL     1     -40.489   5.016  -1.191  1.00 20.00    -0.245 OA
HETATM    9  O9  UNL     1     -41.208   7.211  -1.160  1.00 20.00    -0.298 OA
ENDROOT
TORSDOF 0
ENDMDL
