MODEL 1
REMARK VINA RESULT:      -4.4      0.000      0.000
REMARK  1 active torsions:
REMARK  status: ('A' for Active; 'I' for Inactive)
REMARK    1  A    between atoms: C2_2  and  C4_4 
ROOT
HETATM    1  C1  UNL     1     -34.077  16.509  -2.653  1.00 20.00     0.065 C 
HETATM    2  C3  UNL     1     -34.623  15.843  -3.801  1.00 20.00     0.113 A 
HETATM    3  C4  UNL     1     -34.804  14.343  -3.750  1.00 20.00     0.082 A 
HETATM    4  C5  UNL     1     -33.753  14.946  -4.663  1.00 20.00    -0.019 A 
HETATM    5  C7  UNL     1     -33.992  14.989  -6.153  1.00 20.00     0.017 C 
HETATM    6  C8  UNL     1     -32.307  14.705  -4.299  1.00 20.00     0.017 C 
HETATM    7  N9  UNL     1     -33.637  17.048  -1.723  1.00 20.00    -0.197 NA
ENDROOT
BRANCH   3   8
HETATM    8  C2  UNL     1     -36.031  13.750  -4.300  1.00 20.00     0.129 C 
HETATM    9  C6  UNL     1     -37.260  14.620  -4.305  1.00 20.00     0.091 C 
HETATM   10  O10 UNL     1     -36.053  12.600  -4.737  1.00 20.00    -0.298 OA
ENDBRANCH   3   8
TORSDOF 1
ENDMDL
MODEL 2
REMARK VINA RESULT:      -4.4      1.114      1.176
REMARK  1 active torsions:
REMARK  status: ('A' for Active; 'I' for Inactive)
REMARK    1  A    between atoms: C2_2  and  C4_4 
ROOT
HETATM    1  C1  UNL     1     -35.318  16.562  -1.727  1.00 20.00     0.065 C 
HETATM    2  C3  UNL     1     -35.552  16.084  -3.060  1.00 20.00     0.113 A 
HETATM    3  C4  UNL     1     -35.254  14.635  -3.372  1.00 20.00     0.082 A 
HETATM    4  C5  UNL     1     -34.391  15.729  -3.972  1.00 20.00    -0.019 A 
HETATM    5  C7  UNL     1     -34.537  16.081  -5.433  1.00 20.00     0.017 C 
HETATM    6  C8  UNL     1     -32.969  15.833  -3.474  1.00 20.00     0.017 C 
HETATM    7  N9  UNL     1     -35.129  16.949  -0.649  1.00 20.00    -0.197 NA
ENDROOT
BRANCH   3   8
HETATM    8  C2  UNL     1     -36.195  13.873  -4.206  1.00 20.00     0.129 C 
HETATM    9  C6  UNL     1     -37.553  14.483  -4.424  1.00 20.00     0.091 C 
HETATM   10  O10 UNL     1     -35.886  12.790  -4.702  1.00 20.00    -0.298 OA
ENDBRANCH   3   8
TORSDOF 1
ENDMDL
MODEL 3
REMARK VINA RESULT:      -4.4     16.980     18.308
REMARK  1 active torsions:
REMARK  status: ('A' for Active; 'I' for Inactive)
REMARK    1  A    between atoms: C2_2  and  C4_4 
ROOT
HETATM    1  C1  UNL     1     -24.583  16.199  11.291  1.00 20.00     0.065 C 
HETATM    2  C3  UNL     1     -24.230  16.925  10.105  1.00 20.00     0.113 A 
HETATM    3  C4  UNL     1     -23.252  18.072  10.222  1.00 20.00     0.082 A 
HETATM    4  C5  UNL     1     -24.708  18.351   9.897  1.00 20.00    -0.019 A 
HETATM    5  C7  UNL     1     -25.100  18.743   8.493  1.00 20.00     0.017 C 
HETATM    6  C8  UNL     1     -25.528  19.044  10.959  1.00 20.00     0.017 C 
HETATM    7  N9  UNL     1     -24.867  15.611  12.251  1.00 20.00    -0.197 NA
ENDROOT
BRANCH   3   8
HETATM    8  C2  UNL     1     -22.208  18.230   9.200  1.00 20.00     0.129 C 
HETATM    9  C6  UNL     1     -21.993  17.070   8.266  1.00 20.00     0.091 C 
HETATM   10  O10 UNL     1     -21.543  19.262   9.111  1.00 20.00    -0.298 OA
ENDBRANCH   3   8
TORSDOF 1
ENDMDL
MODEL 4
REMARK VINA RESULT:      -4.3     17.824     18.532
REMARK  1 active torsions:
REMARK  status: ('A' for Active; 'I' for Inactive)
REMARK    1  A    between atoms: C2_2  and  C4_4 
ROOT
HETATM    1  C1  UNL     1     -26.164  18.795  11.294  1.00 20.00     0.065 C 
HETATM    2  C3  UNL     1     -24.753  18.615  11.109  1.00 20.00     0.113 A 
HETATM    3  C4  UNL     1     -24.279  17.682  10.017  1.00 20.00     0.082 A 
HETATM    4  C5  UNL     1     -24.084  17.301  11.473  1.00 20.00    -0.019 A 
HETATM    5  C7  UNL     1     -22.709  17.381  12.090  1.00 20.00     0.017 C 
HETATM    6  C8  UNL     1     -24.905  16.146  11.996  1.00 20.00     0.017 C 
HETATM    7  N9  UNL     1     -27.306  18.942  11.443  1.00 20.00    -0.197 NA
ENDROOT
BRANCH   3   8
HETATM    8  C2  UNL     1     -23.137  18.078   9.182  1.00 20.00     0.129 C 
HETATM    9  C6  UNL     1     -22.296  16.966   8.614  1.00 20.00     0.091 C 
HETATM   10  O10 UNL     1     -22.881  19.260   8.956  1.00 20.00    -0.298 OA
ENDBRANCH   3   8
TORSDOF 1
ENDMDL
MODEL 5
REMARK VINA RESULT:      -4.3      2.733      3.700
REMARK  1 active torsions:
REMARK  status: ('A' for Active; 'I' for Inactive)
REMARK    1  A    between atoms: C2_2  and  C4_4 
ROOT
HETATM    1  C1  UNL     1     -36.744  14.310  -4.162  1.00 20.00     0.065 C 
HETATM    2  C3  UNL     1     -35.444  14.759  -3.754  1.00 20.00     0.113 A 
HETATM    3  C4  UNL     1     -35.031  16.176  -4.080  1.00 20.00     0.082 A 
HETATM    4  C5  UNL     1     -34.353  15.013  -4.780  1.00 20.00    -0.019 A 
HETATM    5  C7  UNL     1     -32.947  14.624  -4.393  1.00 20.00     0.017 C 
HETATM    6  C8  UNL     1     -34.635  14.839  -6.253  1.00 20.00     0.017 C 
HETATM    7  N9  UNL     1     -37.797  13.947  -4.492  1.00 20.00    -0.197 NA
ENDROOT
BRANCH   3   8
HETATM    8  C2  UNL     1     -34.318  16.967  -3.067  1.00 20.00     0.129 C 
HETATM    9  C6  UNL     1     -34.635  16.665  -1.627  1.00 20.00     0.091 C 
HETATM   10  O10 UNL     1     -33.501  17.831  -3.380  1.00 20.00    -0.298 OA
ENDBRANCH   3   8
TORSDOF 1
ENDMDL
MODEL 6
REMARK VINA RESULT:      -4.3      1.917      2.549
REMARK  1 active torsions:
REMARK  status: ('A' for Active; 'I' for Inactive)
REMARK    1  A    between atoms: C2_2  and  C4_4 
ROOT
HETATM    1  C1  UNL     1     -36.566  17.615  -3.973  1.00 20.00     0.065 C 
HETATM    2  C3  UNL     1     -35.717  16.519  -4.344  1.00 20.00     0.113 A 
HETATM    3  C4  UNL     1     -36.112  15.122  -3.921  1.00 20.00     0.082 A 
HETATM    4  C5  UNL     1     -34.897  15.784  -3.298  1.00 20.00    -0.019 A 
HETATM    5  C7  UNL     1     -33.512  15.340  -3.703  1.00 20.00     0.017 C 
HETATM    6  C8  UNL     1     -34.996  16.169  -1.841  1.00 20.00     0.017 C 
HETATM    7  N9  UNL     1     -37.253  18.502  -3.673  1.00 20.00    -0.197 NA
ENDROOT
BRANCH   3   8
HETATM    8  C2  UNL     1     -35.961  14.015  -4.876  1.00 20.00     0.129 C 
HETATM    9  C6  UNL     1     -35.767  14.389  -6.320  1.00 20.00     0.091 C 
HETATM   10  O10 UNL     1     -35.990  12.840  -4.511  1.00 20.00    -0.298 OA
ENDBRANCH   3   8
TORSDOF 1
ENDMDL
MODEL 7
REMARK VINA RESULT:      -4.2      2.776      3.645
REMARK  1 active torsions:
REMARK  status: ('A' for Active; 'I' for Inactive)
REMARK    1  A    between atoms: C2_2  and  C4_4 
ROOT
HETATM    1  C1  UNL     1     -35.645  13.823  -4.177  1.00 20.00     0.065 C 
HETATM    2  C3  UNL     1     -35.319  15.138  -3.703  1.00 20.00     0.113 A 
HETATM    3  C4  UNL     1     -34.891  16.184  -4.708  1.00 20.00     0.082 A 
HETATM    4  C5  UNL     1     -33.883  15.633  -3.716  1.00 20.00    -0.019 A 
HETATM    5  C7  UNL     1     -33.442  16.481  -2.548  1.00 20.00     0.017 C 
HETATM    6  C8  UNL     1     -32.780  14.763  -4.270  1.00 20.00     0.017 C 
HETATM    7  N9  UNL     1     -35.910  12.760  -4.561  1.00 20.00    -0.197 NA
ENDROOT
BRANCH   3   8
HETATM    8  C2  UNL     1     -35.405  17.555  -4.578  1.00 20.00     0.129 C 
HETATM    9  C6  UNL     1     -34.651  18.633  -5.309  1.00 20.00     0.091 C 
HETATM   10  O10 UNL     1     -36.403  17.809  -3.905  1.00 20.00    -0.298 OA
ENDBRANCH   3   8
TORSDOF 1
ENDMDL
MODEL 8
REMARK VINA RESULT:      -4.1      2.827      4.101
REMARK  1 active torsions:
REMARK  status: ('A' for Active; 'I' for Inactive)
REMARK    1  A    between atoms: C2_2  and  C4_4 
ROOT
HETATM    1  C1  UNL     1     -35.496  13.825  -4.319  1.00 20.00     0.065 C 
HETATM    2  C3  UNL     1     -35.019  15.161  -4.101  1.00 20.00     0.113 A 
HETATM    3  C4  UNL     1     -35.205  15.783  -2.736  1.00 20.00     0.082 A 
HETATM    4  C5  UNL     1     -35.991  16.313  -3.920  1.00 20.00    -0.019 A 
HETATM    5  C7  UNL     1     -35.609  17.634  -4.541  1.00 20.00     0.017 C 
HETATM    6  C8  UNL     1     -37.480  16.062  -3.923  1.00 20.00     0.017 C 
HETATM    7  N9  UNL     1     -35.882  12.744  -4.494  1.00 20.00    -0.197 NA
ENDROOT
BRANCH   3   8
HETATM    8  C2  UNL     1     -34.107  16.564  -2.148  1.00 20.00     0.129 C 
HETATM    9  C6  UNL     1     -34.448  17.424  -0.961  1.00 20.00     0.091 C 
HETATM   10  O10 UNL     1     -32.965  16.518  -2.604  1.00 20.00    -0.298 OA
ENDBRANCH   3   8
TORSDOF 1
ENDMDL
MODEL 9
REMARK VINA RESULT:      -4.1      1.703      2.279
REMARK  1 active torsions:
REMARK  status: ('A' for Active; 'I' for Inactive)
REMARK    1  A    between atoms: C2_2  and  C4_4 
ROOT
HETATM    1  C1  UNL     1     -35.290  16.742  -1.180  1.00 20.00     0.065 C 
HETATM    2  C3  UNL     1     -35.163  16.425  -2.574  1.00 20.00     0.113 A 
HETATM    3  C4  UNL     1     -34.098  15.439  -2.999  1.00 20.00     0.082 A 
HETATM    4  C5  UNL     1     -33.963  16.904  -3.372  1.00 20.00    -0.019 A 
HETATM    5  C7  UNL     1     -34.218  17.340  -4.794  1.00 20.00     0.017 C 
HETATM    6  C8  UNL     1     -32.861  17.685  -2.699  1.00 20.00     0.017 C 
HETATM    7  N9  UNL     1     -35.393  16.996  -0.052  1.00 20.00    -0.197 NA
ENDROOT
BRANCH   3   8
HETATM    8  C2  UNL     1     -34.422  14.428  -4.015  1.00 20.00     0.129 C 
HETATM    9  C6  UNL     1     -35.878  14.090  -4.194  1.00 20.00     0.091 C 
HETATM   10  O10 UNL     1     -33.546  13.886  -4.688  1.00 20.00    -0.298 OA
ENDBRANCH   3   8
TORSDOF 1
ENDMDL
