MODEL 1
REMARK VINA RESULT:      -4.1      0.000      0.000
REMARK  1 active torsions:
REMARK  status: ('A' for Active; 'I' for Inactive)
REMARK    1  A    between atoms: C1_1  and  C3_3 
ROOT
HETATM    1  C2  UNL     1     -24.311  17.185   9.792  1.00 20.00     0.080 C 
HETATM    2  C3  UNL     1     -22.778  17.277   9.962  1.00 20.00     0.310 C 
HETATM    3  C4  UNL     1     -24.365  17.482  11.308  1.00 20.00     0.222 C 
HETATM    4  C5  UNL     1     -25.427  18.461  11.766  1.00 20.00     0.043 C 
HETATM    5  C6  UNL     1     -22.149  17.742  12.258  1.00 20.00     0.311 C 
HETATM    6  N7  UNL     1     -23.030  18.125  11.159  1.00 20.00     0.101 N 
ENDROOT
BRANCH   2   7
HETATM    7  C1  UNL     1     -21.966  18.045   8.917  1.00 20.00     0.252 C 
HETATM    8  O8  UNL     1     -21.821  19.263   8.980  1.00 20.00    -0.277 OA
HETATM    9 CL9  UNL     1     -21.315  16.997   7.693  1.00 20.00    -0.042 Cl
ENDBRANCH   2   7
TORSDOF 1
ENDMDL
MODEL 2
REMARK VINA RESULT:      -4.0     18.429     19.304
REMARK  1 active torsions:
REMARK  status: ('A' for Active; 'I' for Inactive)
REMARK    1  A    between atoms: C1_1  and  C3_3 
ROOT
HETATM    1  C2  UNL     1     -33.600  14.632  -4.139  1.00 20.00     0.080 C 
HETATM    2  C3  UNL     1     -34.969  14.756  -4.847  1.00 20.00     0.310 C 
HETATM    3  C4  UNL     1     -33.712  16.162  -3.945  1.00 20.00     0.222 C 
HETATM    4  C5  UNL     1     -33.295  16.701  -2.592  1.00 20.00     0.043 C 
HETATM    5  C6  UNL     1     -35.757  17.050  -4.897  1.00 20.00     0.311 C 
HETATM    6  N7  UNL     1     -35.187  16.000  -4.057  1.00 20.00     0.101 N 
ENDROOT
BRANCH   2   7
HETATM    7  C1  UNL     1     -36.054  13.722  -4.535  1.00 20.00     0.252 C 
HETATM    8  O8  UNL     1     -35.803  12.522  -4.469  1.00 20.00    -0.277 OA
HETATM    9 CL9  UNL     1     -37.612  14.458  -4.304  1.00 20.00    -0.042 Cl
ENDBRANCH   2   7
TORSDOF 1
ENDMDL
MODEL 3
REMARK VINA RESULT:      -3.9     18.224     18.996
REMARK  1 active torsions:
REMARK  status: ('A' for Active; 'I' for Inactive)
REMARK    1  A    between atoms: C1_1  and  C3_3 
ROOT
HETATM    1  C2  UNL     1     -35.295  15.633  -2.738  1.00 20.00     0.080 C 
HETATM    2  C3  UNL     1     -35.103  14.432  -3.693  1.00 20.00     0.310 C 
HETATM    3  C4  UNL     1     -33.795  15.907  -2.996  1.00 20.00     0.222 C 
HETATM    4  C5  UNL     1     -33.402  17.355  -3.207  1.00 20.00     0.043 C 
HETATM    5  C6  UNL     1     -32.821  14.275  -4.502  1.00 20.00     0.311 C 
HETATM    6  N7  UNL     1     -33.952  15.172  -4.281  1.00 20.00     0.101 N 
ENDROOT
BRANCH   2   7
HETATM    7  C1  UNL     1     -36.170  14.160  -4.757  1.00 20.00     0.252 C 
HETATM    8  O8  UNL     1     -37.219  13.582  -4.486  1.00 20.00    -0.277 OA
HETATM    9 CL9  UNL     1     -35.702  14.757  -6.320  1.00 20.00    -0.042 Cl
ENDBRANCH   2   7
TORSDOF 1
ENDMDL
MODEL 4
REMARK VINA RESULT:      -3.7     23.877     24.703
REMARK  1 active torsions:
REMARK  status: ('A' for Active; 'I' for Inactive)
REMARK    1  A    between atoms: C1_1  and  C3_3 
ROOT
HETATM    1  C2  UNL     1     -42.163   7.919  -1.526  1.00 20.00     0.080 C 
HETATM    2  C3  UNL     1     -42.599   6.539  -0.982  1.00 20.00     0.310 C 
HETATM    3  C4  UNL     1     -42.422   8.421  -0.086  1.00 20.00     0.222 C 
HETATM    4  C5  UNL     1     -41.400   9.383   0.485  1.00 20.00     0.043 C 
HETATM    5  C6  UNL     1     -43.188   6.640   1.370  1.00 20.00     0.311 C 
HETATM    6  N7  UNL     1     -42.196   7.021   0.368  1.00 20.00     0.101 N 
ENDROOT
BRANCH   2   7
HETATM    7  C1  UNL     1     -41.790   5.302  -1.377  1.00 20.00     0.252 C 
HETATM    8  O8  UNL     1     -40.583   5.224  -1.161  1.00 20.00    -0.277 OA
HETATM    9 CL9  UNL     1     -42.776   4.090  -2.138  1.00 20.00    -0.042 Cl
ENDBRANCH   2   7
TORSDOF 1
ENDMDL
MODEL 5
REMARK VINA RESULT:      -3.7     18.640     19.474
REMARK  1 active torsions:
REMARK  status: ('A' for Active; 'I' for Inactive)
REMARK    1  A    between atoms: C1_1  and  C3_3 
ROOT
HETATM    1  C2  UNL     1     -33.643  14.653  -4.232  1.00 20.00     0.080 C 
HETATM    2  C3  UNL     1     -34.410  15.163  -5.473  1.00 20.00     0.310 C 
HETATM    3  C4  UNL     1     -33.508  16.149  -3.864  1.00 20.00     0.222 C 
HETATM    4  C5  UNL     1     -33.722  16.506  -2.408  1.00 20.00     0.043 C 
HETATM    5  C6  UNL     1     -34.557  17.584  -5.513  1.00 20.00     0.311 C 
HETATM    6  N7  UNL     1     -34.723  16.390  -4.690  1.00 20.00     0.101 N 
ENDROOT
BRANCH   2   7
HETATM    7  C1  UNL     1     -35.696  14.445  -5.890  1.00 20.00     0.252 C 
HETATM    8  O8  UNL     1     -36.097  14.463  -7.051  1.00 20.00    -0.277 OA
HETATM    9 CL9  UNL     1     -36.463  13.646  -4.551  1.00 20.00    -0.042 Cl
ENDBRANCH   2   7
TORSDOF 1
ENDMDL
MODEL 6
REMARK VINA RESULT:      -3.6     23.683     24.494
REMARK  1 active torsions:
REMARK  status: ('A' for Active; 'I' for Inactive)
REMARK    1  A    between atoms: C1_1  and  C3_3 
ROOT
HETATM    1  C2  UNL     1     -41.164   6.687  -1.135  1.00 20.00     0.080 C 
HETATM    2  C3  UNL     1     -41.651   7.226   0.229  1.00 20.00     0.310 C 
HETATM    3  C4  UNL     1     -41.910   5.391  -0.740  1.00 20.00     0.222 C 
HETATM    4  C5  UNL     1     -42.715   4.718  -1.832  1.00 20.00     0.043 C 
HETATM    5  C6  UNL     1     -42.956   5.577   1.440  1.00 20.00     0.311 C 
HETATM    6  N7  UNL     1     -42.757   6.232   0.150  1.00 20.00     0.101 N 
ENDROOT
BRANCH   2   7
HETATM    7  C1  UNL     1     -42.210   8.650   0.302  1.00 20.00     0.252 C 
HETATM    8  O8  UNL     1     -43.417   8.869   0.332  1.00 20.00    -0.277 OA
HETATM    9 CL9  UNL     1     -40.949   9.846   0.332  1.00 20.00    -0.042 Cl
ENDBRANCH   2   7
TORSDOF 1
ENDMDL
MODEL 7
REMARK VINA RESULT:      -3.6     18.759     19.572
REMARK  1 active torsions:
REMARK  status: ('A' for Active; 'I' for Inactive)
REMARK    1  A    between atoms: C1_1  and  C3_3 
ROOT
HETATM    1  C2  UNL     1     -33.759  14.551  -4.273  1.00 20.00     0.080 C 
HETATM    2  C3  UNL     1     -34.237  15.230  -5.577  1.00 20.00     0.310 C 
HETATM    3  C4  UNL     1     -33.691  15.988  -3.705  1.00 20.00     0.222 C 
HETATM    4  C5  UNL     1     -34.209  16.180  -2.295  1.00 20.00     0.043 C 
HETATM    5  C6  UNL     1     -34.348  17.643  -5.351  1.00 20.00     0.311 C 
HETATM    6  N7  UNL     1     -34.699  16.368  -4.734  1.00 20.00     0.101 N 
ENDROOT
BRANCH   2   7
HETATM    7  C1  UNL     1     -35.411  14.613  -6.341  1.00 20.00     0.252 C 
HETATM    8  O8  UNL     1     -36.082  13.701  -5.866  1.00 20.00    -0.277 OA
HETATM    9 CL9  UNL     1     -35.640  15.352  -7.897  1.00 20.00    -0.042 Cl
ENDBRANCH   2   7
TORSDOF 1
ENDMDL
MODEL 8
REMARK VINA RESULT:      -3.6     24.204     25.032
REMARK  1 active torsions:
REMARK  status: ('A' for Active; 'I' for Inactive)
REMARK    1  A    between atoms: C1_1  and  C3_3 
ROOT
HETATM    1  C2  UNL     1     -42.714   7.805  -1.496  1.00 20.00     0.080 C 
HETATM    2  C3  UNL     1     -43.182   6.465  -0.884  1.00 20.00     0.310 C 
HETATM    3  C4  UNL     1     -42.721   8.322  -0.039  1.00 20.00     0.222 C 
HETATM    4  C5  UNL     1     -41.550   9.192   0.372  1.00 20.00     0.043 C 
HETATM    5  C6  UNL     1     -43.417   6.607   1.527  1.00 20.00     0.311 C 
HETATM    6  N7  UNL     1     -42.550   6.907   0.391  1.00 20.00     0.101 N 
ENDROOT
BRANCH   2   7
HETATM    7  C1  UNL     1     -42.544   5.166  -1.380  1.00 20.00     0.252 C 
HETATM    8  O8  UNL     1     -43.217   4.265  -1.874  1.00 20.00    -0.277 OA
HETATM    9 CL9  UNL     1     -40.822   5.154  -1.153  1.00 20.00    -0.042 Cl
ENDBRANCH   2   7
TORSDOF 1
ENDMDL
MODEL 9
REMARK VINA RESULT:      -3.6     19.502     20.390
REMARK  1 active torsions:
REMARK  status: ('A' for Active; 'I' for Inactive)
REMARK    1  A    between atoms: C1_1  and  C3_3 
ROOT
HETATM    1  C2  UNL     1     -35.913  16.025  -5.991  1.00 20.00     0.080 C 
HETATM    2  C3  UNL     1     -35.576  15.114  -4.789  1.00 20.00     0.310 C 
HETATM    3  C4  UNL     1     -34.391  16.002  -6.266  1.00 20.00     0.222 C 
HETATM    4  C5  UNL     1     -33.970  15.850  -7.714  1.00 20.00     0.043 C 
HETATM    5  C6  UNL     1     -33.196  14.669  -4.630  1.00 20.00     0.311 C 
HETATM    6  N7  UNL     1     -34.348  14.710  -5.527  1.00 20.00     0.101 N 
ENDROOT
BRANCH   2   7
HETATM    7  C1  UNL     1     -36.465  13.899  -4.514  1.00 20.00     0.252 C 
HETATM    8  O8  UNL     1     -36.012  12.758  -4.500  1.00 20.00    -0.277 OA
HETATM    9 CL9  UNL     1     -38.121  14.349  -4.239  1.00 20.00    -0.042 Cl
ENDBRANCH   2   7
TORSDOF 1
ENDMDL
