MODEL 1
REMARK VINA RESULT:      -5.8      0.000      0.000
REMARK  1 active torsions:
REMARK  status: ('A' for Active; 'I' for Inactive)
REMARK    1  A    between atoms: C2_2  and  C3_3 
ROOT
HETATM    1  C1  UNL     1     -33.840   6.475   4.716  1.00 20.00    -0.043 C 
HETATM    2  C2  UNL     1     -32.921   7.046   3.938  1.00 20.00     0.055 C 
HETATM    3  C4  UNL     1     -34.231   6.662   6.164  1.00 20.00     0.040 C 
HETATM    4  C5  UNL     1     -34.877   5.271   6.010  1.00 20.00     0.046 C 
HETATM    5  C6  UNL     1     -34.885   5.402   4.466  1.00 20.00     0.199 C 
HETATM    6  F9  UNL     1     -34.536   4.282   3.792  1.00 20.00    -0.245 F 
ENDROOT
BRANCH   2   7
HETATM    7  C3  UNL     1     -32.769   6.643   2.513  1.00 20.00     0.145 C 
HETATM    8  C7  UNL     1     -32.624   7.752   1.505  1.00 20.00     0.096 C 
HETATM    9  O8  UNL     1     -32.737   5.463   2.168  1.00 20.00    -0.294 OA
ENDBRANCH   2   7
TORSDOF 1
ENDMDL
MODEL 2
REMARK VINA RESULT:      -5.6      1.710      2.016
REMARK  1 active torsions:
REMARK  status: ('A' for Active; 'I' for Inactive)
REMARK    1  A    between atoms: C2_2  and  C3_3 
ROOT
HETATM    1  C1  UNL     1     -33.876   5.673   3.971  1.00 20.00    -0.043 C 
HETATM    2  C2  UNL     1     -33.366   5.995   2.782  1.00 20.00     0.055 C 
HETATM    3  C4  UNL     1     -34.786   4.561   4.439  1.00 20.00     0.040 C 
HETATM    4  C5  UNL     1     -35.037   5.483   5.649  1.00 20.00     0.046 C 
HETATM    5  C6  UNL     1     -33.746   6.288   5.353  1.00 20.00     0.199 C 
HETATM    6  F9  UNL     1     -33.859   7.629   5.494  1.00 20.00    -0.245 F 
ENDROOT
BRANCH   2   7
HETATM    7  C3  UNL     1     -32.477   7.179   2.628  1.00 20.00     0.145 C 
HETATM    8  C7  UNL     1     -32.691   8.035   1.407  1.00 20.00     0.096 C 
HETATM    9  O8  UNL     1     -31.624   7.468   3.464  1.00 20.00    -0.294 OA
ENDBRANCH   2   7
TORSDOF 1
ENDMDL
MODEL 3
REMARK VINA RESULT:      -5.1     11.821     12.141
REMARK  1 active torsions:
REMARK  status: ('A' for Active; 'I' for Inactive)
REMARK    1  A    between atoms: C2_2  and  C3_3 
ROOT
HETATM    1  C1  UNL     1     -35.004  15.375  -3.107  1.00 20.00    -0.043 C 
HETATM    2  C2  UNL     1     -36.090  14.800  -3.621  1.00 20.00     0.055 C 
HETATM    3  C4  UNL     1     -34.793  16.380  -1.997  1.00 20.00     0.040 C 
HETATM    4  C5  UNL     1     -33.426  16.609  -2.673  1.00 20.00     0.046 C 
HETATM    5  C6  UNL     1     -33.523  15.253  -3.418  1.00 20.00     0.199 C 
HETATM    6  F9  UNL     1     -33.114  15.275  -4.708  1.00 20.00    -0.245 F 
ENDROOT
BRANCH   2   7
HETATM    7  C3  UNL     1     -35.981  13.823  -4.739  1.00 20.00     0.145 C 
HETATM    8  C7  UNL     1     -35.917  14.389  -6.133  1.00 20.00     0.096 C 
HETATM    9  O8  UNL     1     -35.917  12.611  -4.543  1.00 20.00    -0.294 OA
ENDBRANCH   2   7
TORSDOF 1
ENDMDL
MODEL 4
REMARK VINA RESULT:      -4.9      1.599      3.619
REMARK  1 active torsions:
REMARK  status: ('A' for Active; 'I' for Inactive)
REMARK    1  A    between atoms: C2_2  and  C3_3 
ROOT
HETATM    1  C1  UNL     1     -33.131   6.757   3.683  1.00 20.00    -0.043 C 
HETATM    2  C2  UNL     1     -33.961   6.760   4.726  1.00 20.00     0.055 C 
HETATM    3  C4  UNL     1     -32.092   7.736   3.186  1.00 20.00     0.040 C 
HETATM    4  C5  UNL     1     -32.244   6.983   1.849  1.00 20.00     0.046 C 
HETATM    5  C6  UNL     1     -32.879   5.763   2.564  1.00 20.00     0.199 C 
HETATM    6  F9  UNL     1     -33.933   5.205   1.924  1.00 20.00    -0.245 F 
ENDROOT
BRANCH   2   7
HETATM    7  C3  UNL     1     -34.894   5.624   4.962  1.00 20.00     0.145 C 
HETATM    8  C7  UNL     1     -34.670   4.809   6.209  1.00 20.00     0.096 C 
HETATM    9  O8  UNL     1     -35.822   5.371   4.196  1.00 20.00    -0.294 OA
ENDBRANCH   2   7
TORSDOF 1
ENDMDL
MODEL 5
REMARK VINA RESULT:      -4.8     16.112     16.489
REMARK  1 active torsions:
REMARK  status: ('A' for Active; 'I' for Inactive)
REMARK    1  A    between atoms: C2_2  and  C3_3 
ROOT
HETATM    1  C1  UNL     1     -23.985  17.038  10.619  1.00 20.00    -0.043 C 
HETATM    2  C2  UNL     1     -23.238  17.111   9.518  1.00 20.00     0.055 C 
HETATM    3  C4  UNL     1     -24.352  15.902  11.547  1.00 20.00     0.040 C 
HETATM    4  C5  UNL     1     -25.503  16.831  11.980  1.00 20.00     0.046 C 
HETATM    5  C6  UNL     1     -24.771  18.071  11.406  1.00 20.00     0.199 C 
HETATM    6  F9  UNL     1     -25.559  18.948  10.743  1.00 20.00    -0.245 F 
ENDROOT
BRANCH   2   7
HETATM    7  C3  UNL     1     -23.056  18.403   8.803  1.00 20.00     0.145 C 
HETATM    8  C7  UNL     1     -24.108  18.774   7.791  1.00 20.00     0.096 C 
HETATM    9  O8  UNL     1     -22.109  19.152   9.038  1.00 20.00    -0.294 OA
ENDBRANCH   2   7
TORSDOF 1
ENDMDL
MODEL 6
REMARK VINA RESULT:      -4.7     11.932     12.376
REMARK  1 active torsions:
REMARK  status: ('A' for Active; 'I' for Inactive)
REMARK    1  A    between atoms: C2_2  and  C3_3 
ROOT
HETATM    1  C1  UNL     1     -34.445  15.908  -2.589  1.00 20.00    -0.043 C 
HETATM    2  C2  UNL     1     -34.838  14.966  -3.446  1.00 20.00     0.055 C 
HETATM    3  C4  UNL     1     -35.084  16.527  -1.367  1.00 20.00     0.040 C 
HETATM    4  C5  UNL     1     -34.070  17.664  -1.602  1.00 20.00     0.046 C 
HETATM    5  C6  UNL     1     -33.183  16.745  -2.481  1.00 20.00     0.199 C 
HETATM    6  F9  UNL     1     -32.678  17.327  -3.593  1.00 20.00    -0.245 F 
ENDROOT
BRANCH   2   7
HETATM    7  C3  UNL     1     -33.969  14.555  -4.582  1.00 20.00     0.145 C 
HETATM    8  C7  UNL     1     -34.227  15.219  -5.910  1.00 20.00     0.096 C 
HETATM    9  O8  UNL     1     -33.064  13.734  -4.449  1.00 20.00    -0.294 OA
ENDBRANCH   2   7
TORSDOF 1
ENDMDL
MODEL 7
REMARK VINA RESULT:      -4.6     15.656     16.224
REMARK  1 active torsions:
REMARK  status: ('A' for Active; 'I' for Inactive)
REMARK    1  A    between atoms: C2_2  and  C3_3 
ROOT
HETATM    1  C1  UNL     1     -24.343  18.131  10.212  1.00 20.00    -0.043 C 
HETATM    2  C2  UNL     1     -24.573  19.086   9.311  1.00 20.00     0.055 C 
HETATM    3  C4  UNL     1     -24.367  18.108  11.724  1.00 20.00     0.040 C 
HETATM    4  C5  UNL     1     -23.515  16.833  11.565  1.00 20.00     0.046 C 
HETATM    5  C6  UNL     1     -23.972  16.664  10.093  1.00 20.00     0.199 C 
HETATM    6  F9  UNL     1     -22.999  16.296   9.228  1.00 20.00    -0.245 F 
ENDROOT
BRANCH   2   7
HETATM    7  C3  UNL     1     -24.472  18.801   7.854  1.00 20.00     0.145 C 
HETATM    8  C7  UNL     1     -25.754  18.834   7.064  1.00 20.00     0.096 C 
HETATM    9  O8  UNL     1     -23.395  18.573   7.306  1.00 20.00    -0.294 OA
ENDBRANCH   2   7
TORSDOF 1
ENDMDL
MODEL 8
REMARK VINA RESULT:      -4.6     11.920     12.184
REMARK  1 active torsions:
REMARK  status: ('A' for Active; 'I' for Inactive)
REMARK    1  A    between atoms: C2_2  and  C3_3 
ROOT
HETATM    1  C1  UNL     1     -33.425  16.339  -2.957  1.00 20.00    -0.043 C 
HETATM    2  C2  UNL     1     -32.845  15.495  -3.810  1.00 20.00     0.055 C 
HETATM    3  C4  UNL     1     -32.889  17.419  -2.044  1.00 20.00     0.040 C 
HETATM    4  C5  UNL     1     -34.239  17.259  -1.316  1.00 20.00     0.046 C 
HETATM    5  C6  UNL     1     -34.870  16.572  -2.554  1.00 20.00     0.199 C 
HETATM    6  F9  UNL     1     -35.661  15.508  -2.280  1.00 20.00    -0.245 F 
ENDROOT
BRANCH   2   7
HETATM    7  C3  UNL     1     -33.656  14.520  -4.589  1.00 20.00     0.145 C 
HETATM    8  C7  UNL     1     -34.206  14.994  -5.908  1.00 20.00     0.096 C 
HETATM    9  O8  UNL     1     -33.851  13.371  -4.196  1.00 20.00    -0.294 OA
ENDBRANCH   2   7
TORSDOF 1
ENDMDL
MODEL 9
REMARK VINA RESULT:      -4.6     16.620     16.898
REMARK  1 active torsions:
REMARK  status: ('A' for Active; 'I' for Inactive)
REMARK    1  A    between atoms: C2_2  and  C3_3 
ROOT
HETATM    1  C1  UNL     1     -24.509  18.220  10.437  1.00 20.00    -0.043 C 
HETATM    2  C2  UNL     1     -23.853  18.283   9.278  1.00 20.00     0.055 C 
HETATM    3  C4  UNL     1     -25.793  18.844  10.934  1.00 20.00     0.040 C 
HETATM    4  C5  UNL     1     -25.228  18.523  12.332  1.00 20.00     0.046 C 
HETATM    5  C6  UNL     1     -24.242  17.485  11.738  1.00 20.00     0.199 C 
HETATM    6  F9  UNL     1     -22.996  17.507  12.266  1.00 20.00    -0.245 F 
ENDROOT
BRANCH   2   7
HETATM    7  C3  UNL     1     -22.580  17.538   9.080  1.00 20.00     0.145 C 
HETATM    8  C7  UNL     1     -21.306  18.267   9.422  1.00 20.00     0.096 C 
HETATM    9  O8  UNL     1     -22.558  16.376   8.682  1.00 20.00    -0.294 OA
ENDBRANCH   2   7
TORSDOF 1
ENDMDL
