MODEL 1
REMARK VINA RESULT:      -4.4      0.000      0.000
REMARK  1 active torsions:
REMARK  status: ('A' for Active; 'I' for Inactive)
REMARK    1  A    between atoms: C3_3  and  C7_7 
ROOT
HETATM    1  C1  UNL     1     -22.685  18.047  12.160  1.00 20.00    -0.029 C 
HETATM    2  C2  UNL     1     -23.963  18.415  12.332  1.00 20.00    -0.026 C 
HETATM    3  C4  UNL     1     -22.187  17.327  10.941  1.00 20.00     0.039 C 
HETATM    4  C5  UNL     1     -24.618  17.086  10.275  1.00 20.00     0.020 C 
HETATM    5  C6  UNL     1     -25.052  18.118  11.334  1.00 20.00     0.004 C 
HETATM    6  C7  UNL     1     -23.188  17.317   9.778  1.00 20.00     0.059 C 
HETATM    7  C9  UNL     1     -26.321  17.640  12.043  1.00 20.00     0.014 C 
ENDROOT
BRANCH   6   8
HETATM    8  C3  UNL     1     -23.103  18.587   8.978  1.00 20.00     0.127 C 
HETATM    9  C8  UNL     1     -24.335  18.990   8.216  1.00 20.00     0.091 C 
HETATM   10  O10 UNL     1     -22.076  19.263   8.947  1.00 20.00    -0.298 OA
ENDBRANCH   6   8
TORSDOF 1
ENDMDL
MODEL 2
REMARK VINA RESULT:      -4.3     16.574     18.365
REMARK  1 active torsions:
REMARK  status: ('A' for Active; 'I' for Inactive)
REMARK    1  A    between atoms: C3_3  and  C7_7 
ROOT
HETATM    1  C1  UNL     1     -33.383  14.627  -4.203  1.00 20.00    -0.029 C 
HETATM    2  C2  UNL     1     -33.010  15.841  -3.773  1.00 20.00    -0.026 C 
HETATM    3  C4  UNL     1     -34.728  14.024  -3.919  1.00 20.00     0.039 C 
HETATM    4  C5  UNL     1     -35.100  15.973  -2.345  1.00 20.00     0.020 C 
HETATM    5  C6  UNL     1     -33.886  16.726  -2.926  1.00 20.00     0.004 C 
HETATM    6  C7  UNL     1     -35.747  15.027  -3.360  1.00 20.00     0.059 C 
HETATM    7  C9  UNL     1     -33.079  17.368  -1.797  1.00 20.00     0.014 C 
ENDROOT
BRANCH   6   8
HETATM    8  C3  UNL     1     -36.406  15.803  -4.466  1.00 20.00     0.127 C 
HETATM    9  C8  UNL     1     -37.301  16.940  -4.054  1.00 20.00     0.091 C 
HETATM   10  O10 UNL     1     -36.224  15.523  -5.650  1.00 20.00    -0.298 OA
ENDBRANCH   6   8
TORSDOF 1
ENDMDL
MODEL 3
REMARK VINA RESULT:      -4.2      1.611      2.181
REMARK  1 active torsions:
REMARK  status: ('A' for Active; 'I' for Inactive)
REMARK    1  A    between atoms: C3_3  and  C7_7 
ROOT
HETATM    1  C1  UNL     1     -24.856  16.071  11.926  1.00 20.00    -0.029 C 
HETATM    2  C2  UNL     1     -25.367  17.242  12.332  1.00 20.00    -0.026 C 
HETATM    3  C4  UNL     1     -24.104  15.897  10.639  1.00 20.00     0.039 C 
HETATM    4  C5  UNL     1     -24.826  18.257  10.074  1.00 20.00     0.020 C 
HETATM    5  C6  UNL     1     -25.273  18.512  11.527  1.00 20.00     0.004 C 
HETATM    6  C7  UNL     1     -23.703  17.222   9.975  1.00 20.00     0.059 C 
HETATM    7  C9  UNL     1     -26.605  19.263  11.541  1.00 20.00     0.014 C 
ENDROOT
BRANCH   6   8
HETATM    8  C3  UNL     1     -22.429  17.761  10.566  1.00 20.00     0.127 C 
HETATM    9  C8  UNL     1     -21.449  18.381   9.608  1.00 20.00     0.091 C 
HETATM   10  O10 UNL     1     -22.200  17.698  11.772  1.00 20.00    -0.298 OA
ENDBRANCH   6   8
TORSDOF 1
ENDMDL
MODEL 4
REMARK VINA RESULT:      -4.2     17.282     19.228
REMARK  1 active torsions:
REMARK  status: ('A' for Active; 'I' for Inactive)
REMARK    1  A    between atoms: C3_3  and  C7_7 
ROOT
HETATM    1  C1  UNL     1     -36.282  14.006  -5.096  1.00 20.00    -0.029 C 
HETATM    2  C2  UNL     1     -35.894  14.877  -6.039  1.00 20.00    -0.026 C 
HETATM    3  C4  UNL     1     -35.387  13.529  -3.990  1.00 20.00     0.039 C 
HETATM    4  C5  UNL     1     -33.504  14.698  -5.215  1.00 20.00     0.020 C 
HETATM    5  C6  UNL     1     -34.503  15.450  -6.116  1.00 20.00     0.004 C 
HETATM    6  C7  UNL     1     -34.095  14.345  -3.847  1.00 20.00     0.059 C 
HETATM    7  C9  UNL     1     -34.000  15.460  -7.561  1.00 20.00     0.014 C 
ENDROOT
BRANCH   6   8
HETATM    8  C3  UNL     1     -34.325  15.586  -3.031  1.00 20.00     0.127 C 
HETATM    9  C8  UNL     1     -33.163  16.532  -2.896  1.00 20.00     0.091 C 
HETATM   10  O10 UNL     1     -35.409  15.817  -2.498  1.00 20.00    -0.298 OA
ENDBRANCH   6   8
TORSDOF 1
ENDMDL
MODEL 5
REMARK VINA RESULT:      -4.2     17.891     19.525
REMARK  1 active torsions:
REMARK  status: ('A' for Active; 'I' for Inactive)
REMARK    1  A    between atoms: C3_3  and  C7_7 
ROOT
HETATM    1  C1  UNL     1     -35.645  16.478  -2.607  1.00 20.00    -0.029 C 
HETATM    2  C2  UNL     1     -34.733  15.504  -2.741  1.00 20.00    -0.026 C 
HETATM    3  C4  UNL     1     -36.632  16.842  -3.676  1.00 20.00     0.039 C 
HETATM    4  C5  UNL     1     -35.332  15.288  -5.194  1.00 20.00     0.020 C 
HETATM    5  C6  UNL     1     -34.575  14.684  -3.995  1.00 20.00     0.004 C 
HETATM    6  C7  UNL     1     -36.719  15.814  -4.812  1.00 20.00     0.059 C 
HETATM    7  C9  UNL     1     -33.096  14.507  -4.344  1.00 20.00     0.014 C 
ENDROOT
BRANCH   6   8
HETATM    8  C3  UNL     1     -37.636  14.679  -4.448  1.00 20.00     0.127 C 
HETATM    9  C8  UNL     1     -39.025  15.048  -4.005  1.00 20.00     0.091 C 
HETATM   10  O10 UNL     1     -37.269  13.507  -4.510  1.00 20.00    -0.298 OA
ENDBRANCH   6   8
TORSDOF 1
ENDMDL
MODEL 6
REMARK VINA RESULT:      -4.1     23.509     24.609
REMARK  1 active torsions:
REMARK  status: ('A' for Active; 'I' for Inactive)
REMARK    1  A    between atoms: C3_3  and  C7_7 
ROOT
HETATM    1  C1  UNL     1     -42.937   5.536   0.966  1.00 20.00    -0.029 C 
HETATM    2  C2  UNL     1     -43.417   5.018  -0.174  1.00 20.00    -0.026 C 
HETATM    3  C4  UNL     1     -41.624   6.256   1.060  1.00 20.00     0.039 C 
HETATM    4  C5  UNL     1     -41.203   5.484  -1.315  1.00 20.00     0.020 C 
HETATM    5  C6  UNL     1     -42.678   5.072  -1.485  1.00 20.00     0.004 C 
HETATM    6  C7  UNL     1     -41.021   6.620  -0.304  1.00 20.00     0.059 C 
HETATM    7  C9  UNL     1     -42.767   3.730  -2.213  1.00 20.00     0.014 C 
ENDROOT
BRANCH   6   8
HETATM    8  C3  UNL     1     -41.607   7.900  -0.832  1.00 20.00     0.127 C 
HETATM    9  C8  UNL     1     -41.584   9.086   0.093  1.00 20.00     0.091 C 
HETATM   10  O10 UNL     1     -42.081   7.975  -1.964  1.00 20.00    -0.298 OA
ENDBRANCH   6   8
TORSDOF 1
ENDMDL
MODEL 7
REMARK VINA RESULT:      -4.1     16.713     18.297
REMARK  1 active torsions:
REMARK  status: ('A' for Active; 'I' for Inactive)
REMARK    1  A    between atoms: C3_3  and  C7_7 
ROOT
HETATM    1  C1  UNL     1     -34.770  15.863  -2.249  1.00 20.00    -0.029 C 
HETATM    2  C2  UNL     1     -33.672  16.620  -2.390  1.00 20.00    -0.026 C 
HETATM    3  C4  UNL     1     -35.727  15.577  -3.368  1.00 20.00     0.039 C 
HETATM    4  C5  UNL     1     -34.441  17.298  -4.708  1.00 20.00     0.020 C 
HETATM    5  C6  UNL     1     -33.291  17.297  -3.680  1.00 20.00     0.004 C 
HETATM    6  C7  UNL     1     -35.191  15.964  -4.753  1.00 20.00     0.059 C 
HETATM    7  C9  UNL     1     -32.818  18.729  -3.423  1.00 20.00     0.014 C 
ENDROOT
BRANCH   6   8
HETATM    8  C3  UNL     1     -34.316  14.881  -5.319  1.00 20.00     0.127 C 
HETATM    9  C8  UNL     1     -33.873  15.045  -6.747  1.00 20.00     0.091 C 
HETATM   10  O10 UNL     1     -33.978  13.907  -4.647  1.00 20.00    -0.298 OA
ENDBRANCH   6   8
TORSDOF 1
ENDMDL
MODEL 8
REMARK VINA RESULT:      -4.1     17.582     19.423
REMARK  1 active torsions:
REMARK  status: ('A' for Active; 'I' for Inactive)
REMARK    1  A    between atoms: C3_3  and  C7_7 
ROOT
HETATM    1  C1  UNL     1     -36.343  15.331  -3.479  1.00 20.00    -0.029 C 
HETATM    2  C2  UNL     1     -35.075  15.295  -3.043  1.00 20.00    -0.026 C 
HETATM    3  C4  UNL     1     -36.752  15.937  -4.789  1.00 20.00     0.039 C 
HETATM    4  C5  UNL     1     -34.380  16.808  -4.954  1.00 20.00     0.020 C 
HETATM    5  C6  UNL     1     -33.920  15.888  -3.805  1.00 20.00     0.004 C 
HETATM    6  C7  UNL     1     -35.573  16.236  -5.724  1.00 20.00     0.059 C 
HETATM    7  C9  UNL     1     -32.985  16.651  -2.865  1.00 20.00     0.014 C 
ENDROOT
BRANCH   6   8
HETATM    8  C3  UNL     1     -35.168  15.011  -6.497  1.00 20.00     0.127 C 
HETATM    9  C8  UNL     1     -33.899  15.105  -7.298  1.00 20.00     0.091 C 
HETATM   10  O10 UNL     1     -35.842  13.982  -6.475  1.00 20.00    -0.298 OA
ENDBRANCH   6   8
TORSDOF 1
ENDMDL
MODEL 9
REMARK VINA RESULT:      -4.1     22.930     24.091
REMARK  1 active torsions:
REMARK  status: ('A' for Active; 'I' for Inactive)
REMARK    1  A    between atoms: C3_3  and  C7_7 
ROOT
HETATM    1  C1  UNL     1     -41.521   6.871  -1.872  1.00 20.00    -0.029 C 
HETATM    2  C2  UNL     1     -41.936   8.030  -1.341  1.00 20.00    -0.026 C 
HETATM    3  C4  UNL     1     -41.008   5.722  -1.055  1.00 20.00     0.039 C 
HETATM    4  C5  UNL     1     -41.061   7.302   0.923  1.00 20.00     0.020 C 
HETATM    5  C6  UNL     1     -41.905   8.324   0.136  1.00 20.00     0.004 C 
HETATM    6  C7  UNL     1     -41.283   5.863   0.448  1.00 20.00     0.059 C 
HETATM    7  C9  UNL     1     -41.391   9.740   0.397  1.00 20.00     0.014 C 
ENDROOT
BRANCH   6   8
HETATM    8  C3  UNL     1     -42.671   5.398   0.792  1.00 20.00     0.127 C 
HETATM    9  C8  UNL     1     -43.417   4.648  -0.277  1.00 20.00     0.091 C 
HETATM   10  O10 UNL     1     -43.172   5.620   1.893  1.00 20.00    -0.298 OA
ENDBRANCH   6   8
TORSDOF 1
ENDMDL
