MODEL 1
REMARK VINA RESULT:      -4.8      0.000      0.000
REMARK  0 active torsions:
REMARK  status: ('A' for Active; 'I' for Inactive)
ROOT
HETATM    1  C1  UNL     1     -25.089  18.750  10.108  1.00 20.00     0.110 A 
HETATM    2  C2  UNL     1     -24.305  18.586   8.979  1.00 20.00     0.007 A 
HETATM    3  C3  UNL     1     -23.096  17.918   9.287  1.00 20.00     0.002 A 
HETATM    4  C4  UNL     1     -23.169  17.689  10.600  1.00 20.00     0.048 A 
HETATM    5  C5  UNL     1     -24.306  18.868   7.588  1.00 20.00     0.124 A 
HETATM    6  C6  UNL     1     -22.852  17.261  11.926  1.00 20.00     0.048 A 
HETATM    7  C7  UNL     1     -24.050  17.780  12.326  1.00 20.00     0.099 A 
HETATM    8  C8  UNL     1     -22.320  17.777   8.059  1.00 20.00     0.190 A 
HETATM    9  N9  UNL     1     -23.216  18.439   7.010  1.00 20.00    -0.296 NA
HETATM   10  N10 UNL     1     -24.320  18.175  11.050  1.00 20.00    -0.331 N 
ENDROOT
TORSDOF 0
ENDMDL
MODEL 2
REMARK VINA RESULT:      -4.6     14.805     16.341
REMARK  0 active torsions:
REMARK  status: ('A' for Active; 'I' for Inactive)
ROOT
HETATM    1  C1  UNL     1     -35.200  16.232  -1.933  1.00 20.00     0.110 A 
HETATM    2  C2  UNL     1     -34.683  15.430  -2.936  1.00 20.00     0.007 A 
HETATM    3  C3  UNL     1     -33.360  15.809  -3.265  1.00 20.00     0.002 A 
HETATM    4  C4  UNL     1     -33.098  16.837  -2.454  1.00 20.00     0.048 A 
HETATM    5  C5  UNL     1     -35.042  14.332  -3.761  1.00 20.00     0.124 A 
HETATM    6  C6  UNL     1     -32.430  17.918  -1.802  1.00 20.00     0.048 A 
HETATM    7  C7  UNL     1     -33.560  18.099  -1.056  1.00 20.00     0.099 A 
HETATM    8  C8  UNL     1     -32.877  14.927  -4.323  1.00 20.00     0.190 A 
HETATM    9  N9  UNL     1     -34.069  13.999  -4.566  1.00 20.00    -0.296 NA
HETATM   10  N10 UNL     1     -34.166  17.062  -1.700  1.00 20.00    -0.331 N 
ENDROOT
TORSDOF 0
ENDMDL
MODEL 3
REMARK VINA RESULT:      -4.5     15.161     16.655
REMARK  0 active torsions:
REMARK  status: ('A' for Active; 'I' for Inactive)
ROOT
HETATM    1  C1  UNL     1     -32.877  16.722  -2.824  1.00 20.00     0.110 A 
HETATM    2  C2  UNL     1     -33.490  15.685  -3.506  1.00 20.00     0.007 A 
HETATM    3  C3  UNL     1     -34.759  15.388  -2.956  1.00 20.00     0.002 A 
HETATM    4  C4  UNL     1     -34.894  16.252  -1.947  1.00 20.00     0.048 A 
HETATM    5  C5  UNL     1     -33.268  14.802  -4.596  1.00 20.00     0.124 A 
HETATM    6  C6  UNL     1     -35.424  16.965  -0.829  1.00 20.00     0.048 A 
HETATM    7  C7  UNL     1     -34.279  17.707  -0.822  1.00 20.00     0.099 A 
HETATM    8  C8  UNL     1     -35.349  14.292  -3.719  1.00 20.00     0.190 A 
HETATM    9  N9  UNL     1     -34.277  13.991  -4.769  1.00 20.00    -0.296 NA
HETATM   10  N10 UNL     1     -33.803  17.007  -1.889  1.00 20.00    -0.331 N 
ENDROOT
TORSDOF 0
ENDMDL
MODEL 4
REMARK VINA RESULT:      -4.5     16.274     16.965
REMARK  0 active torsions:
REMARK  status: ('A' for Active; 'I' for Inactive)
ROOT
HETATM    1  C1  UNL     1     -33.752   5.105   2.687  1.00 20.00     0.110 A 
HETATM    2  C2  UNL     1     -34.139   5.316   3.999  1.00 20.00     0.007 A 
HETATM    3  C3  UNL     1     -33.638   6.544   4.491  1.00 20.00     0.002 A 
HETATM    4  C4  UNL     1     -32.954   7.058   3.465  1.00 20.00     0.048 A 
HETATM    5  C5  UNL     1     -34.887   4.701   5.038  1.00 20.00     0.124 A 
HETATM    6  C6  UNL     1     -32.154   7.929   2.665  1.00 20.00     0.048 A 
HETATM    7  C7  UNL     1     -32.272   7.023   1.650  1.00 20.00     0.099 A 
HETATM    8  C8  UNL     1     -34.082   6.705   5.872  1.00 20.00     0.190 A 
HETATM    9  N9  UNL     1     -34.894   5.432   6.121  1.00 20.00    -0.296 NA
HETATM   10  N10 UNL     1     -33.032   6.216   2.442  1.00 20.00    -0.331 N 
ENDROOT
TORSDOF 0
ENDMDL
MODEL 5
REMARK VINA RESULT:      -4.3      1.005      3.386
REMARK  0 active torsions:
REMARK  status: ('A' for Active; 'I' for Inactive)
ROOT
HETATM    1  C1  UNL     1     -24.335  18.345   8.741  1.00 20.00     0.110 A 
HETATM    2  C2  UNL     1     -24.455  18.293  10.119  1.00 20.00     0.007 A 
HETATM    3  C3  UNL     1     -23.265  17.817  10.720  1.00 20.00     0.002 A 
HETATM    4  C4  UNL     1     -22.443  17.588   9.693  1.00 20.00     0.048 A 
HETATM    5  C5  UNL     1     -25.390  18.562  11.153  1.00 20.00     0.124 A 
HETATM    6  C6  UNL     1     -21.296  17.223   8.925  1.00 20.00     0.048 A 
HETATM    7  C7  UNL     1     -22.001  17.558   7.805  1.00 20.00     0.099 A 
HETATM    8  C8  UNL     1     -23.458  17.788  12.167  1.00 20.00     0.190 A 
HETATM    9  N9  UNL     1     -24.891  18.299  12.331  1.00 20.00    -0.296 NA
HETATM   10  N10 UNL     1     -23.077  17.897   8.568  1.00 20.00    -0.331 N 
ENDROOT
TORSDOF 0
ENDMDL
MODEL 6
REMARK VINA RESULT:      -4.3     16.203     18.040
REMARK  0 active torsions:
REMARK  status: ('A' for Active; 'I' for Inactive)
ROOT
HETATM    1  C1  UNL     1     -33.808  14.560  -4.107  1.00 20.00     0.110 A 
HETATM    2  C2  UNL     1     -35.174  14.372  -4.223  1.00 20.00     0.007 A 
HETATM    3  C3  UNL     1     -35.891  15.368  -3.518  1.00 20.00     0.002 A 
HETATM    4  C4  UNL     1     -34.943  16.144  -2.986  1.00 20.00     0.048 A 
HETATM    5  C5  UNL     1     -36.118  13.498  -4.824  1.00 20.00     0.124 A 
HETATM    6  C6  UNL     1     -34.286  17.186  -2.263  1.00 20.00     0.048 A 
HETATM    7  C7  UNL     1     -33.098  16.642  -2.658  1.00 20.00     0.099 A 
HETATM    8  C8  UNL     1     -37.319  15.114  -3.681  1.00 20.00     0.190 A 
HETATM    9  N9  UNL     1     -37.345  13.860  -4.558  1.00 20.00    -0.296 NA
HETATM   10  N10 UNL     1     -33.757  15.661  -3.336  1.00 20.00    -0.331 N 
ENDROOT
TORSDOF 0
ENDMDL
MODEL 7
REMARK VINA RESULT:      -4.3      1.631      2.476
REMARK  0 active torsions:
REMARK  status: ('A' for Active; 'I' for Inactive)
ROOT
HETATM    1  C1  UNL     1     -25.235  19.233   9.143  1.00 20.00     0.110 A 
HETATM    2  C2  UNL     1     -24.026  18.624   9.428  1.00 20.00     0.007 A 
HETATM    3  C3  UNL     1     -23.994  18.145  10.759  1.00 20.00     0.002 A 
HETATM    4  C4  UNL     1     -25.188  18.475  11.259  1.00 20.00     0.048 A 
HETATM    5  C5  UNL     1     -22.781  18.310   8.821  1.00 20.00     0.124 A 
HETATM    6  C6  UNL     1     -26.293  18.630  12.150  1.00 20.00     0.048 A 
HETATM    7  C7  UNL     1     -26.956  19.263  11.138  1.00 20.00     0.099 A 
HETATM    8  C8  UNL     1     -22.698  17.516  10.993  1.00 20.00     0.190 A 
HETATM    9  N9  UNL     1     -21.987  17.685   9.649  1.00 20.00    -0.296 NA
HETATM   10  N10 UNL     1     -25.883  19.098  10.315  1.00 20.00    -0.331 N 
ENDROOT
TORSDOF 0
ENDMDL
MODEL 8
REMARK VINA RESULT:      -4.2     16.542     18.322
REMARK  0 active torsions:
REMARK  status: ('A' for Active; 'I' for Inactive)
ROOT
HETATM    1  C1  UNL     1     -36.110  16.889  -3.340  1.00 20.00     0.110 A 
HETATM    2  C2  UNL     1     -36.592  15.674  -3.793  1.00 20.00     0.007 A 
HETATM    3  C3  UNL     1     -35.539  14.755  -4.018  1.00 20.00     0.002 A 
HETATM    4  C4  UNL     1     -34.434  15.433  -3.696  1.00 20.00     0.048 A 
HETATM    5  C5  UNL     1     -37.814  15.025  -4.115  1.00 20.00     0.124 A 
HETATM    6  C6  UNL     1     -33.066  15.773  -3.467  1.00 20.00     0.048 A 
HETATM    7  C7  UNL     1     -33.491  17.011  -3.081  1.00 20.00     0.099 A 
HETATM    8  C8  UNL     1     -36.114  13.500  -4.492  1.00 20.00     0.190 A 
HETATM    9  N9  UNL     1     -37.614  13.798  -4.515  1.00 20.00    -0.296 NA
HETATM   10  N10 UNL     1     -34.785  16.654  -3.310  1.00 20.00    -0.331 N 
ENDROOT
TORSDOF 0
ENDMDL
MODEL 9
REMARK VINA RESULT:      -4.2      1.543      3.441
REMARK  0 active torsions:
REMARK  status: ('A' for Active; 'I' for Inactive)
ROOT
HETATM    1  C1  UNL     1     -25.623  18.565  10.773  1.00 20.00     0.110 A 
HETATM    2  C2  UNL     1     -24.367  18.148  11.179  1.00 20.00     0.007 A 
HETATM    3  C3  UNL     1     -23.441  18.194  10.110  1.00 20.00     0.002 A 
HETATM    4  C4  UNL     1     -24.154  18.640   9.073  1.00 20.00     0.048 A 
HETATM    5  C5  UNL     1     -23.682  17.679  12.331  1.00 20.00     0.124 A 
HETATM    6  C6  UNL     1     -24.524  19.071   7.763  1.00 20.00     0.048 A 
HETATM    7  C7  UNL     1     -25.790  19.263   8.238  1.00 20.00     0.099 A 
HETATM    8  C8  UNL     1     -22.143  17.744  10.604  1.00 20.00     0.190 A 
HETATM    9  N9  UNL     1     -22.425  17.433  12.075  1.00 20.00    -0.296 NA
HETATM   10  N10 UNL     1     -25.402  18.846   9.476  1.00 20.00    -0.331 N 
ENDROOT
TORSDOF 0
ENDMDL
