MODEL 1
REMARK VINA RESULT:      -4.9      0.000      0.000
REMARK  2 active torsions:
REMARK  status: ('A' for Active; 'I' for Inactive)
REMARK    1  A    between atoms: C4_4  and  C6_6 
REMARK    2  A    between atoms: C7_7  and  O10_10 
ROOT
HETATM    1  C1  UNL     1     -32.494   7.559   2.109  1.00 20.00     0.218 C 
HETATM    2  C4  UNL     1     -32.584   7.093   3.320  1.00 20.00     0.043 C 
HETATM    3  O9  UNL     1     -32.411   7.979   1.015  1.00 20.00    -0.284 OA
ENDROOT
BRANCH   2   4
HETATM    4  C6  UNL     1     -33.865   6.801   4.028  1.00 20.00     0.064 C 
HETATM    5  C3  UNL     1     -33.734   6.784   5.522  1.00 20.00    -0.020 C 
HETATM    6  C2  UNL     1     -34.476   5.816   6.069  1.00 20.00    -0.027 C 
HETATM    7  C5  UNL     1     -35.205   5.022   5.032  1.00 20.00     0.059 C 
HETATM    8  C7  UNL     1     -34.469   5.411   3.744  1.00 20.00     0.135 C 
BRANCH   8   9
HETATM    9  O10 UNL     1     -33.462   4.426   3.507  1.00 20.00    -0.389 OA
HETATM   10  C8  UNL     1     -33.388   4.088   2.130  1.00 20.00     0.202 C 
ENDBRANCH   8   9
ENDBRANCH   2   4
TORSDOF 2
ENDMDL
MODEL 2
REMARK VINA RESULT:      -4.8     11.316     12.646
REMARK  2 active torsions:
REMARK  status: ('A' for Active; 'I' for Inactive)
REMARK    1  A    between atoms: C4_4  and  C6_6 
REMARK    2  A    between atoms: C7_7  and  O10_10 
ROOT
HETATM    1  C1  UNL     1     -35.609  13.809  -4.284  1.00 20.00     0.218 C 
HETATM    2  C4  UNL     1     -35.286  15.044  -4.034  1.00 20.00     0.043 C 
HETATM    3  O9  UNL     1     -35.900  12.693  -4.512  1.00 20.00    -0.284 OA
ENDROOT
BRANCH   2   4
HETATM    4  C6  UNL     1     -34.368  15.481  -2.942  1.00 20.00     0.064 C 
HETATM    5  C3  UNL     1     -35.070  16.164  -1.807  1.00 20.00    -0.020 C 
HETATM    6  C2  UNL     1     -34.355  17.191  -1.335  1.00 20.00    -0.027 C 
HETATM    7  C5  UNL     1     -33.075  17.370  -2.088  1.00 20.00     0.059 C 
HETATM    8  C7  UNL     1     -33.319  16.535  -3.351  1.00 20.00     0.135 C 
BRANCH   8   9
HETATM    9  O10 UNL     1     -33.808  17.415  -4.364  1.00 20.00    -0.389 OA
HETATM   10  C8  UNL     1     -33.137  18.665  -4.327  1.00 20.00     0.202 C 
ENDBRANCH   8   9
ENDBRANCH   2   4
TORSDOF 2
ENDMDL
MODEL 3
REMARK VINA RESULT:      -4.7     11.907     12.612
REMARK  2 active torsions:
REMARK  status: ('A' for Active; 'I' for Inactive)
REMARK    1  A    between atoms: C4_4  and  C6_6 
REMARK    2  A    between atoms: C7_7  and  O10_10 
ROOT
HETATM    1  C1  UNL     1     -37.553  14.641  -4.167  1.00 20.00     0.218 C 
HETATM    2  C4  UNL     1     -36.633  15.499  -3.836  1.00 20.00     0.043 C 
HETATM    3  O9  UNL     1     -38.385  13.867  -4.467  1.00 20.00    -0.284 OA
ENDROOT
BRANCH   2   4
HETATM    4  C6  UNL     1     -35.262  15.140  -3.368  1.00 20.00     0.064 C 
HETATM    5  C3  UNL     1     -34.615  16.207  -2.535  1.00 20.00    -0.020 C 
HETATM    6  C2  UNL     1     -33.311  16.318  -2.807  1.00 20.00    -0.027 C 
HETATM    7  C5  UNL     1     -32.882  15.361  -3.873  1.00 20.00     0.059 C 
HETATM    8  C7  UNL     1     -34.221  14.932  -4.486  1.00 20.00     0.135 C 
BRANCH   8   9
HETATM    9  O10 UNL     1     -34.470  15.771  -5.615  1.00 20.00    -0.389 OA
HETATM   10  C8  UNL     1     -34.072  15.140  -6.822  1.00 20.00     0.202 C 
ENDBRANCH   8   9
ENDBRANCH   2   4
TORSDOF 2
ENDMDL
MODEL 4
REMARK VINA RESULT:      -4.5     15.579     16.428
REMARK  2 active torsions:
REMARK  status: ('A' for Active; 'I' for Inactive)
REMARK    1  A    between atoms: C4_4  and  C6_6 
REMARK    2  A    between atoms: C7_7  and  O10_10 
ROOT
HETATM    1  C1  UNL     1     -23.260  18.299   8.269  1.00 20.00     0.218 C 
HETATM    2  C4  UNL     1     -23.667  18.734   9.425  1.00 20.00     0.043 C 
HETATM    3  O9  UNL     1     -22.891  17.907   7.223  1.00 20.00    -0.284 OA
ENDROOT
BRANCH   2   4
HETATM    4  C6  UNL     1     -23.713  17.919  10.674  1.00 20.00     0.064 C 
HETATM    5  C3  UNL     1     -23.920  16.454  10.426  1.00 20.00    -0.020 C 
HETATM    6  C2  UNL     1     -24.733  15.912  11.340  1.00 20.00    -0.027 C 
HETATM    7  C5  UNL     1     -25.212  16.926  12.329  1.00 20.00     0.059 C 
HETATM    8  C7  UNL     1     -24.878  18.249  11.629  1.00 20.00     0.135 C 
BRANCH   8   9
HETATM    9  O10 UNL     1     -26.046  18.674  10.925  1.00 20.00    -0.389 OA
HETATM   10  C8  UNL     1     -27.186  18.671  11.770  1.00 20.00     0.202 C 
ENDBRANCH   8   9
ENDBRANCH   2   4
TORSDOF 2
ENDMDL
MODEL 5
REMARK VINA RESULT:      -4.4     11.318     12.354
REMARK  2 active torsions:
REMARK  status: ('A' for Active; 'I' for Inactive)
REMARK    1  A    between atoms: C4_4  and  C6_6 
REMARK    2  A    between atoms: C7_7  and  O10_10 
ROOT
HETATM    1  C1  UNL     1     -36.010  13.730  -4.278  1.00 20.00     0.218 C 
HETATM    2  C4  UNL     1     -36.169  14.971  -3.923  1.00 20.00     0.043 C 
HETATM    3  O9  UNL     1     -35.867  12.608  -4.600  1.00 20.00    -0.284 OA
ENDROOT
BRANCH   2   4
HETATM    4  C6  UNL     1     -35.098  16.010  -3.952  1.00 20.00     0.064 C 
HETATM    5  C3  UNL     1     -33.712  15.440  -4.011  1.00 20.00    -0.020 C 
HETATM    6  C2  UNL     1     -32.861  16.144  -3.257  1.00 20.00    -0.027 C 
HETATM    7  C5  UNL     1     -33.542  17.279  -2.562  1.00 20.00     0.059 C 
HETATM    8  C7  UNL     1     -35.023  16.907  -2.701  1.00 20.00     0.135 C 
BRANCH   8   9
HETATM    9  O10 UNL     1     -35.408  16.210  -1.515  1.00 20.00    -0.389 OA
HETATM   10  C8  UNL     1     -35.330  17.052  -0.375  1.00 20.00     0.202 C 
ENDBRANCH   8   9
ENDBRANCH   2   4
TORSDOF 2
ENDMDL
MODEL 6
REMARK VINA RESULT:      -4.3     11.766     12.556
REMARK  2 active torsions:
REMARK  status: ('A' for Active; 'I' for Inactive)
REMARK    1  A    between atoms: C4_4  and  C6_6 
REMARK    2  A    between atoms: C7_7  and  O10_10 
ROOT
HETATM    1  C1  UNL     1     -37.540  14.694  -4.251  1.00 20.00     0.218 C 
HETATM    2  C4  UNL     1     -36.903  15.790  -3.961  1.00 20.00     0.043 C 
HETATM    3  O9  UNL     1     -38.116  13.703  -4.514  1.00 20.00    -0.284 OA
ENDROOT
BRANCH   2   4
HETATM    4  C6  UNL     1     -35.458  16.037  -4.241  1.00 20.00     0.064 C 
HETATM    5  C3  UNL     1     -34.709  14.805  -4.653  1.00 20.00    -0.020 C 
HETATM    6  C2  UNL     1     -33.480  14.779  -4.125  1.00 20.00    -0.027 C 
HETATM    7  C5  UNL     1     -33.219  15.975  -3.265  1.00 20.00     0.059 C 
HETATM    8  C7  UNL     1     -34.631  16.527  -3.035  1.00 20.00     0.135 C 
BRANCH   8   9
HETATM    9  O10 UNL     1     -35.111  15.991  -1.801  1.00 20.00    -0.389 OA
HETATM   10  C8  UNL     1     -35.290  17.011  -0.832  1.00 20.00     0.202 C 
ENDBRANCH   8   9
ENDBRANCH   2   4
TORSDOF 2
ENDMDL
MODEL 7
REMARK VINA RESULT:      -4.2     11.922     12.678
REMARK  2 active torsions:
REMARK  status: ('A' for Active; 'I' for Inactive)
REMARK    1  A    between atoms: C4_4  and  C6_6 
REMARK    2  A    between atoms: C7_7  and  O10_10 
ROOT
HETATM    1  C1  UNL     1     -32.572  18.246  -1.883  1.00 20.00     0.218 C 
HETATM    2  C4  UNL     1     -33.705  17.649  -2.108  1.00 20.00     0.043 C 
HETATM    3  O9  UNL     1     -31.547  18.785  -1.678  1.00 20.00    -0.284 OA
ENDROOT
BRANCH   2   4
HETATM    4  C6  UNL     1     -33.861  16.193  -2.395  1.00 20.00     0.064 C 
HETATM    5  C3  UNL     1     -33.042  15.721  -3.559  1.00 20.00    -0.020 C 
HETATM    6  C2  UNL     1     -33.707  14.824  -4.294  1.00 20.00    -0.027 C 
HETATM    7  C5  UNL     1     -35.077  14.568  -3.753  1.00 20.00     0.059 C 
HETATM    8  C7  UNL     1     -35.281  15.754  -2.804  1.00 20.00     0.135 C 
BRANCH   8   9
HETATM    9  O10 UNL     1     -35.972  16.774  -3.526  1.00 20.00    -0.389 OA
HETATM   10  C8  UNL     1     -37.287  16.363  -3.867  1.00 20.00     0.202 C 
ENDBRANCH   8   9
ENDBRANCH   2   4
TORSDOF 2
ENDMDL
MODEL 8
REMARK VINA RESULT:      -4.1     11.092     12.339
REMARK  2 active torsions:
REMARK  status: ('A' for Active; 'I' for Inactive)
REMARK    1  A    between atoms: C4_4  and  C6_6 
REMARK    2  A    between atoms: C7_7  and  O10_10 
ROOT
HETATM    1  C1  UNL     1     -34.791  14.199  -3.653  1.00 20.00     0.218 C 
HETATM    2  C4  UNL     1     -35.326  15.260  -3.126  1.00 20.00     0.043 C 
HETATM    3  O9  UNL     1     -34.308  13.239  -4.131  1.00 20.00    -0.284 OA
ENDROOT
BRANCH   2   4
HETATM    4  C6  UNL     1     -34.661  16.593  -3.032  1.00 20.00     0.064 C 
HETATM    5  C3  UNL     1     -33.169  16.510  -2.897  1.00 20.00    -0.020 C 
HETATM    6  C2  UNL     1     -32.701  17.433  -2.050  1.00 20.00    -0.027 C 
HETATM    7  C5  UNL     1     -33.801  18.264  -1.471  1.00 20.00     0.059 C 
HETATM    8  C7  UNL     1     -35.047  17.432  -1.797  1.00 20.00     0.135 C 
BRANCH   8   9
HETATM    9  O10 UNL     1     -35.334  16.616  -0.661  1.00 20.00    -0.389 OA
HETATM   10  C8  UNL     1     -35.760  17.401   0.442  1.00 20.00     0.202 C 
ENDBRANCH   8   9
ENDBRANCH   2   4
TORSDOF 2
ENDMDL
MODEL 9
REMARK VINA RESULT:      -4.0      9.027      9.543
REMARK  2 active torsions:
REMARK  status: ('A' for Active; 'I' for Inactive)
REMARK    1  A    between atoms: C4_4  and  C6_6 
REMARK    2  A    between atoms: C7_7  and  O10_10 
ROOT
HETATM    1  C1  UNL     1     -41.516   9.094   0.372  1.00 20.00     0.218 C 
HETATM    2  C4  UNL     1     -41.513   7.797   0.464  1.00 20.00     0.043 C 
HETATM    3  O9  UNL     1     -41.518  10.267   0.287  1.00 20.00    -0.284 OA
ENDROOT
BRANCH   2   4
HETATM    4  C6  UNL     1     -42.703   6.923   0.250  1.00 20.00     0.064 C 
HETATM    5  C3  UNL     1     -43.010   6.032   1.416  1.00 20.00    -0.020 C 
HETATM    6  C2  UNL     1     -43.410   4.820   1.016  1.00 20.00    -0.027 C 
HETATM    7  C5  UNL     1     -43.417   4.702  -0.475  1.00 20.00     0.059 C 
HETATM    8  C7  UNL     1     -42.572   5.908  -0.903  1.00 20.00     0.135 C 
BRANCH   8   9
HETATM    9  O10 UNL     1     -41.228   5.457  -1.072  1.00 20.00    -0.389 OA
HETATM   10  C8  UNL     1     -41.169   4.320  -1.919  1.00 20.00     0.202 C 
ENDBRANCH   8   9
ENDBRANCH   2   4
TORSDOF 2
ENDMDL
