MODEL 1
REMARK VINA RESULT:      -4.7      0.000      0.000
REMARK  1 active torsions:
REMARK  status: ('A' for Active; 'I' for Inactive)
REMARK    1  A    between atoms: C6_6  and  N10_10 
ROOT
HETATM    1  C1  UNL     1     -21.953  17.506   8.068  1.00 20.00     0.064 C 
HETATM    2  C2  UNL     1     -23.690  19.093   8.889  1.00 20.00     0.021 C 
HETATM    3  C3  UNL     1     -24.731  18.542   9.860  1.00 20.00     0.037 C 
HETATM    4  C4  UNL     1     -22.685  17.483  10.440  1.00 20.00     0.055 C 
HETATM    5  C5  UNL     1     -22.387  18.336   9.200  1.00 20.00     0.095 C 
HETATM    6  C6  UNL     1     -23.898  18.155  11.075  1.00 20.00     0.223 C 
HETATM    7  N9  UNL     1     -21.610  16.849   7.175  1.00 20.00    -0.197 NA
ENDROOT
BRANCH   6   8
HETATM    8  N10 UNL     1     -24.611  17.282  11.990  1.00 20.00     0.084 N 
HETATM    9  C7  UNL     1     -24.583  15.895  11.516  1.00 20.00     0.309 C 
HETATM   10  C8  UNL     1     -25.997  17.727  12.162  1.00 20.00     0.309 C 
ENDBRANCH   6   8
TORSDOF 1
ENDMDL
MODEL 2
REMARK VINA RESULT:      -4.3     16.875     17.649
REMARK  1 active torsions:
REMARK  status: ('A' for Active; 'I' for Inactive)
REMARK    1  A    between atoms: C6_6  and  N10_10 
ROOT
HETATM    1  C1  UNL     1     -35.698  14.382  -5.398  1.00 20.00     0.064 C 
HETATM    2  C2  UNL     1     -33.507  14.572  -4.226  1.00 20.00     0.021 C 
HETATM    3  C3  UNL     1     -33.222  15.881  -3.495  1.00 20.00     0.037 C 
HETATM    4  C4  UNL     1     -35.534  15.448  -3.162  1.00 20.00     0.055 C 
HETATM    5  C5  UNL     1     -35.022  14.341  -4.094  1.00 20.00     0.095 C 
HETATM    6  C6  UNL     1     -34.290  15.909  -2.409  1.00 20.00     0.223 C 
HETATM    7  N9  UNL     1     -36.232  14.415  -6.427  1.00 20.00    -0.197 NA
ENDROOT
BRANCH   6   8
HETATM    8  N10 UNL     1     -34.449  17.222  -1.810  1.00 20.00     0.084 N 
HETATM    9  C7  UNL     1     -33.145  17.857  -1.591  1.00 20.00     0.309 C 
HETATM   10  C8  UNL     1     -35.183  17.132  -0.545  1.00 20.00     0.309 C 
ENDBRANCH   6   8
TORSDOF 1
ENDMDL
MODEL 3
REMARK VINA RESULT:      -4.3     17.468     18.356
REMARK  1 active torsions:
REMARK  status: ('A' for Active; 'I' for Inactive)
REMARK    1  A    between atoms: C6_6  and  N10_10 
ROOT
HETATM    1  C1  UNL     1     -36.739  14.057  -4.472  1.00 20.00     0.064 C 
HETATM    2  C2  UNL     1     -34.908  15.160  -5.753  1.00 20.00     0.021 C 
HETATM    3  C3  UNL     1     -34.239  16.370  -5.105  1.00 20.00     0.037 C 
HETATM    4  C4  UNL     1     -34.682  14.853  -3.332  1.00 20.00     0.055 C 
HETATM    5  C5  UNL     1     -35.284  14.220  -4.595  1.00 20.00     0.095 C 
HETATM    6  C6  UNL     1     -33.592  15.779  -3.860  1.00 20.00     0.223 C 
HETATM    7  N9  UNL     1     -37.888  13.928  -4.375  1.00 20.00    -0.197 NA
ENDROOT
BRANCH   6   8
HETATM    8  N10 UNL     1     -33.199  16.792  -2.896  1.00 20.00     0.084 N 
HETATM    9  C7  UNL     1     -34.192  16.903  -1.823  1.00 20.00     0.309 C 
HETATM   10  C8  UNL     1     -33.018  18.091  -3.551  1.00 20.00     0.309 C 
ENDBRANCH   6   8
TORSDOF 1
ENDMDL
MODEL 4
REMARK VINA RESULT:      -4.2     16.721     17.562
REMARK  1 active torsions:
REMARK  status: ('A' for Active; 'I' for Inactive)
REMARK    1  A    between atoms: C6_6  and  N10_10 
ROOT
HETATM    1  C1  UNL     1     -36.229  14.101  -4.199  1.00 20.00     0.064 C 
HETATM    2  C2  UNL     1     -34.017  15.060  -4.830  1.00 20.00     0.021 C 
HETATM    3  C3  UNL     1     -33.710  16.476  -4.349  1.00 20.00     0.037 C 
HETATM    4  C4  UNL     1     -34.907  15.438  -2.578  1.00 20.00     0.055 C 
HETATM    5  C5  UNL     1     -34.875  14.419  -3.726  1.00 20.00     0.095 C 
HETATM    6  C6  UNL     1     -33.695  16.329  -2.833  1.00 20.00     0.223 C 
HETATM    7  N9  UNL     1     -37.298  13.851  -4.573  1.00 20.00    -0.197 NA
ENDROOT
BRANCH   6   8
HETATM    8  N10 UNL     1     -33.778  17.604  -2.144  1.00 20.00     0.084 N 
HETATM    9  C7  UNL     1     -32.440  18.105  -1.811  1.00 20.00     0.309 C 
HETATM   10  C8  UNL     1     -34.587  17.486  -0.927  1.00 20.00     0.309 C 
ENDBRANCH   6   8
TORSDOF 1
ENDMDL
MODEL 5
REMARK VINA RESULT:      -4.2     16.806     17.682
REMARK  1 active torsions:
REMARK  status: ('A' for Active; 'I' for Inactive)
REMARK    1  A    between atoms: C6_6  and  N10_10 
ROOT
HETATM    1  C1  UNL     1     -32.839  17.985  -3.013  1.00 20.00     0.064 C 
HETATM    2  C2  UNL     1     -34.553  16.579  -1.875  1.00 20.00     0.021 C 
HETATM    3  C3  UNL     1     -35.497  15.776  -2.767  1.00 20.00     0.037 C 
HETATM    4  C4  UNL     1     -33.380  15.709  -3.844  1.00 20.00     0.055 C 
HETATM    5  C5  UNL     1     -33.207  16.619  -2.619  1.00 20.00     0.095 C 
HETATM    6  C6  UNL     1     -34.559  14.812  -3.481  1.00 20.00     0.223 C 
HETATM    7  N9  UNL     1     -32.548  19.064  -3.324  1.00 20.00    -0.197 NA
ENDROOT
BRANCH   6   8
HETATM    8  N10 UNL     1     -35.170  14.189  -4.642  1.00 20.00     0.084 N 
HETATM    9  C7  UNL     1     -34.867  14.946  -5.860  1.00 20.00     0.309 C 
HETATM   10  C8  UNL     1     -36.621  14.075  -4.468  1.00 20.00     0.309 C 
ENDBRANCH   6   8
TORSDOF 1
ENDMDL
MODEL 6
REMARK VINA RESULT:      -3.8     17.094     17.832
REMARK  1 active torsions:
REMARK  status: ('A' for Active; 'I' for Inactive)
REMARK    1  A    between atoms: C6_6  and  N10_10 
ROOT
HETATM    1  C1  UNL     1     -35.220  13.748  -4.187  1.00 20.00     0.064 C 
HETATM    2  C2  UNL     1     -34.279  15.965  -4.829  1.00 20.00     0.021 C 
HETATM    3  C3  UNL     1     -34.943  17.201  -4.227  1.00 20.00     0.037 C 
HETATM    4  C4  UNL     1     -34.961  15.560  -2.510  1.00 20.00     0.055 C 
HETATM    5  C5  UNL     1     -34.379  14.871  -3.752  1.00 20.00     0.095 C 
HETATM    6  C6  UNL     1     -34.680  17.042  -2.735  1.00 20.00     0.223 C 
HETATM    7  N9  UNL     1     -35.884  12.862  -4.531  1.00 20.00    -0.197 NA
ENDROOT
BRANCH   6   8
HETATM    8  N10 UNL     1     -35.517  17.904  -1.921  1.00 20.00     0.084 N 
HETATM    9  C7  UNL     1     -35.582  17.416  -0.540  1.00 20.00     0.309 C 
HETATM   10  C8  UNL     1     -36.867  18.002  -2.484  1.00 20.00     0.309 C 
ENDBRANCH   6   8
TORSDOF 1
ENDMDL
MODEL 7
REMARK VINA RESULT:      -3.7     17.177     18.123
REMARK  1 active torsions:
REMARK  status: ('A' for Active; 'I' for Inactive)
REMARK    1  A    between atoms: C6_6  and  N10_10 
ROOT
HETATM    1  C1  UNL     1     -35.152  16.975  -1.035  1.00 20.00     0.064 C 
HETATM    2  C2  UNL     1     -33.375  16.523  -2.724  1.00 20.00     0.021 C 
HETATM    3  C3  UNL     1     -33.556  15.293  -3.610  1.00 20.00     0.037 C 
HETATM    4  C4  UNL     1     -35.730  16.205  -3.324  1.00 20.00     0.055 C 
HETATM    5  C5  UNL     1     -34.793  17.058  -2.458  1.00 20.00     0.095 C 
HETATM    6  C6  UNL     1     -34.819  15.617  -4.396  1.00 20.00     0.223 C 
HETATM    7  N9  UNL     1     -35.435  16.909   0.088  1.00 20.00    -0.197 NA
ENDROOT
BRANCH   6   8
HETATM    8  N10 UNL     1     -35.392  14.450  -5.044  1.00 20.00     0.084 N 
HETATM    9  C7  UNL     1     -35.590  14.694  -6.477  1.00 20.00     0.309 C 
HETATM   10  C8  UNL     1     -36.664  14.079  -4.417  1.00 20.00     0.309 C 
ENDBRANCH   6   8
TORSDOF 1
ENDMDL
MODEL 8
REMARK VINA RESULT:      -3.7     15.712     16.683
REMARK  1 active torsions:
REMARK  status: ('A' for Active; 'I' for Inactive)
REMARK    1  A    between atoms: C6_6  and  N10_10 
ROOT
HETATM    1  C1  UNL     1     -34.547  17.763   0.225  1.00 20.00     0.064 C 
HETATM    2  C2  UNL     1     -33.346  17.995  -1.947  1.00 20.00     0.021 C 
HETATM    3  C3  UNL     1     -33.043  16.710  -2.713  1.00 20.00     0.037 C 
HETATM    4  C4  UNL     1     -35.187  16.389  -1.742  1.00 20.00     0.055 C 
HETATM    5  C5  UNL     1     -34.689  17.751  -1.238  1.00 20.00     0.095 C 
HETATM    6  C6  UNL     1     -34.428  16.172  -3.047  1.00 20.00     0.223 C 
HETATM    7  N9  UNL     1     -34.434  17.773   1.379  1.00 20.00    -0.197 NA
ENDROOT
BRANCH   6   8
HETATM    8  N10 UNL     1     -34.406  14.780  -3.461  1.00 20.00     0.084 N 
HETATM    9  C7  UNL     1     -33.318  14.536  -4.413  1.00 20.00     0.309 C 
HETATM   10  C8  UNL     1     -35.690  14.393  -4.053  1.00 20.00     0.309 C 
ENDBRANCH   6   8
TORSDOF 1
ENDMDL
MODEL 9
REMARK VINA RESULT:      -3.7     17.324     18.262
REMARK  1 active torsions:
REMARK  status: ('A' for Active; 'I' for Inactive)
REMARK    1  A    between atoms: C6_6  and  N10_10 
ROOT
HETATM    1  C1  UNL     1     -35.199  17.023  -0.996  1.00 20.00     0.064 C 
HETATM    2  C2  UNL     1     -33.600  16.158  -2.701  1.00 20.00     0.021 C 
HETATM    3  C3  UNL     1     -34.123  15.101  -3.671  1.00 20.00     0.037 C 
HETATM    4  C4  UNL     1     -35.923  16.615  -3.336  1.00 20.00     0.055 C 
HETATM    5  C5  UNL     1     -34.794  17.083  -2.407  1.00 20.00     0.095 C 
HETATM    6  C6  UNL     1     -35.206  15.846  -4.441  1.00 20.00     0.223 C 
HETATM    7  N9  UNL     1     -35.520  16.976   0.117  1.00 20.00    -0.197 NA
ENDROOT
BRANCH   6   8
HETATM    8  N10 UNL     1     -36.090  14.955  -5.171  1.00 20.00     0.084 N 
HETATM    9  C7  UNL     1     -36.189  13.655  -4.502  1.00 20.00     0.309 C 
HETATM   10  C8  UNL     1     -35.625  14.777  -6.550  1.00 20.00     0.309 C 
ENDBRANCH   6   8
TORSDOF 1
ENDMDL
