MODEL 1
REMARK VINA RESULT:      -6.8      0.000      0.000
REMARK  1 active torsions:
REMARK  status: ('A' for Active; 'I' for Inactive)
REMARK    1  A    between atoms: C9_9  and  C10_10 
ROOT
HETATM    1  C1  UNL     1     -34.994   4.926   5.359  1.00 20.00     0.001 A 
HETATM    2  C2  UNL     1     -34.525   6.071   6.147  1.00 20.00     0.001 A 
HETATM    3  C3  UNL     1     -34.604   4.725   4.083  1.00 20.00     0.012 A 
HETATM    4  C4  UNL     1     -33.677   6.992   5.643  1.00 20.00     0.012 A 
HETATM    5  C5  UNL     1     -33.153   5.729   2.271  1.00 20.00     0.001 A 
HETATM    6  C6  UNL     1     -32.401   7.568   3.538  1.00 20.00     0.001 A 
HETATM    7  C7  UNL     1     -33.696   5.683   3.495  1.00 20.00    -0.029 A 
HETATM    8  C8  UNL     1     -33.231   6.822   4.280  1.00 20.00    -0.029 A 
HETATM    9  C10 UNL     1     -32.266   6.944   2.172  1.00 20.00     0.094 A 
ENDROOT
BRANCH   9  10
HETATM   10  C9  UNL     1     -32.818   7.878   1.143  1.00 20.00     0.243 C 
HETATM   11  O11 UNL     1     -32.688   9.097   1.197  1.00 20.00    -0.306 OA
ENDBRANCH   9  10
TORSDOF 1
ENDMDL
MODEL 2
REMARK VINA RESULT:      -5.5     11.181     11.833
REMARK  1 active torsions:
REMARK  status: ('A' for Active; 'I' for Inactive)
REMARK    1  A    between atoms: C9_9  and  C10_10 
ROOT
HETATM    1  C1  UNL     1     -34.561  17.686  -0.687  1.00 20.00     0.001 A 
HETATM    2  C2  UNL     1     -33.218  18.015  -1.178  1.00 20.00     0.001 A 
HETATM    3  C3  UNL     1     -35.307  16.706  -1.238  1.00 20.00     0.012 A 
HETATM    4  C4  UNL     1     -32.650  17.357  -2.210  1.00 20.00     0.012 A 
HETATM    5  C5  UNL     1     -35.251  14.964  -3.069  1.00 20.00     0.001 A 
HETATM    6  C6  UNL     1     -33.095  15.492  -3.858  1.00 20.00     0.001 A 
HETATM    7  C7  UNL     1     -34.744  15.972  -2.346  1.00 20.00    -0.029 A 
HETATM    8  C8  UNL     1     -33.408  16.299  -2.835  1.00 20.00    -0.029 A 
HETATM    9  C10 UNL     1     -34.246  14.553  -4.114  1.00 20.00     0.094 A 
ENDROOT
BRANCH   9  10
HETATM   10  C9  UNL     1     -34.808  14.816  -5.474  1.00 20.00     0.243 C 
HETATM   11  O11 UNL     1     -35.553  14.037  -6.061  1.00 20.00    -0.306 OA
ENDBRANCH   9  10
TORSDOF 1
ENDMDL
MODEL 3
REMARK VINA RESULT:      -5.3     10.526     11.697
REMARK  1 active torsions:
REMARK  status: ('A' for Active; 'I' for Inactive)
REMARK    1  A    between atoms: C9_9  and  C10_10 
ROOT
HETATM    1  C1  UNL     1     -32.993  18.130  -0.822  1.00 20.00     0.001 A 
HETATM    2  C2  UNL     1     -34.322  17.883  -0.250  1.00 20.00     0.001 A 
HETATM    3  C3  UNL     1     -32.575  17.526  -1.953  1.00 20.00     0.012 A 
HETATM    4  C4  UNL     1     -35.203  17.037  -0.822  1.00 20.00     0.012 A 
HETATM    5  C5  UNL     1     -33.333  15.886  -3.722  1.00 20.00     0.001 A 
HETATM    6  C6  UNL     1     -35.466  15.489  -2.804  1.00 20.00     0.001 A 
HETATM    7  C7  UNL     1     -33.481  16.610  -2.604  1.00 20.00    -0.029 A 
HETATM    8  C8  UNL     1     -34.803  16.364  -2.036  1.00 20.00    -0.029 A 
HETATM    9  C10 UNL     1     -34.591  15.092  -3.965  1.00 20.00     0.094 A 
ENDROOT
BRANCH   9  10
HETATM   10  C9  UNL     1     -34.281  13.632  -3.876  1.00 20.00     0.243 C 
HETATM   11  O11 UNL     1     -35.105  12.750  -4.098  1.00 20.00    -0.306 OA
ENDBRANCH   9  10
TORSDOF 1
ENDMDL
MODEL 4
REMARK VINA RESULT:      -5.2     16.108     16.480
REMARK  1 active torsions:
REMARK  status: ('A' for Active; 'I' for Inactive)
REMARK    1  A    between atoms: C9_9  and  C10_10 
ROOT
HETATM    1  C1  UNL     1     -25.864  17.919  12.325  1.00 20.00     0.001 A 
HETATM    2  C2  UNL     1     -26.554  18.799  11.374  1.00 20.00     0.001 A 
HETATM    3  C3  UNL     1     -24.588  17.522  12.139  1.00 20.00     0.012 A 
HETATM    4  C4  UNL     1     -25.953  19.262  10.259  1.00 20.00     0.012 A 
HETATM    5  C5  UNL     1     -22.650  17.761  10.532  1.00 20.00     0.001 A 
HETATM    6  C6  UNL     1     -23.758  19.174   9.006  1.00 20.00     0.001 A 
HETATM    7  C7  UNL     1     -23.900  17.990  10.959  1.00 20.00    -0.029 A 
HETATM    8  C8  UNL     1     -24.586  18.866  10.014  1.00 20.00    -0.029 A 
HETATM    9  C10 UNL     1     -22.431  18.496   9.234  1.00 20.00     0.094 A 
ENDROOT
BRANCH   9  10
HETATM   10  C9  UNL     1     -22.184  17.508   8.140  1.00 20.00     0.243 C 
HETATM   11  O11 UNL     1     -22.145  17.810   6.951  1.00 20.00    -0.306 OA
ENDBRANCH   9  10
TORSDOF 1
ENDMDL
MODEL 5
REMARK VINA RESULT:      -5.1     11.435     12.395
REMARK  1 active torsions:
REMARK  status: ('A' for Active; 'I' for Inactive)
REMARK    1  A    between atoms: C9_9  and  C10_10 
ROOT
HETATM    1  C1  UNL     1     -35.176  15.820  -2.296  1.00 20.00     0.001 A 
HETATM    2  C2  UNL     1     -34.061  15.772  -3.249  1.00 20.00     0.001 A 
HETATM    3  C3  UNL     1     -35.175  16.648  -1.231  1.00 20.00     0.012 A 
HETATM    4  C4  UNL     1     -32.969  16.553  -3.115  1.00 20.00     0.012 A 
HETATM    5  C5  UNL     1     -33.766  18.411  -0.091  1.00 20.00     0.001 A 
HETATM    6  C6  UNL     1     -31.975  18.333  -1.620  1.00 20.00     0.001 A 
HETATM    7  C7  UNL     1     -34.028  17.505  -1.042  1.00 20.00    -0.029 A 
HETATM    8  C8  UNL     1     -32.919  17.457  -1.990  1.00 20.00    -0.029 A 
HETATM    9  C10 UNL     1     -32.421  19.035  -0.362  1.00 20.00     0.094 A 
ENDROOT
BRANCH   9  10
HETATM   10  C9  UNL     1     -31.483  18.699   0.752  1.00 20.00     0.243 C 
HETATM   11  O11 UNL     1     -30.268  18.605   0.610  1.00 20.00    -0.306 OA
ENDBRANCH   9  10
TORSDOF 1
ENDMDL
MODEL 6
REMARK VINA RESULT:      -4.9     15.248     15.743
REMARK  1 active torsions:
REMARK  status: ('A' for Active; 'I' for Inactive)
REMARK    1  A    between atoms: C9_9  and  C10_10 
ROOT
HETATM    1  C1  UNL     1     -24.928  15.815  12.057  1.00 20.00     0.001 A 
HETATM    2  C2  UNL     1     -25.996  16.784  12.331  1.00 20.00     0.001 A 
HETATM    3  C3  UNL     1     -23.997  16.024  11.103  1.00 20.00     0.012 A 
HETATM    4  C4  UNL     1     -26.110  17.940  11.645  1.00 20.00     0.012 A 
HETATM    5  C5  UNL     1     -23.296  17.708   9.352  1.00 20.00     0.001 A 
HETATM    6  C6  UNL     1     -25.010  19.262   9.792  1.00 20.00     0.001 A 
HETATM    7  C7  UNL     1     -24.075  17.247  10.340  1.00 20.00    -0.029 A 
HETATM    8  C8  UNL     1     -25.138  18.210  10.613  1.00 20.00    -0.029 A 
HETATM    9  C10 UNL     1     -23.816  19.048   8.898  1.00 20.00     0.094 A 
ENDROOT
BRANCH   9  10
HETATM   10  C9  UNL     1     -24.271  18.948   7.478  1.00 20.00     0.243 C 
HETATM   11  O11 UNL     1     -23.520  18.688   6.543  1.00 20.00    -0.306 OA
ENDBRANCH   9  10
TORSDOF 1
ENDMDL
MODEL 7
REMARK VINA RESULT:      -4.8     11.239     12.126
REMARK  1 active torsions:
REMARK  status: ('A' for Active; 'I' for Inactive)
REMARK    1  A    between atoms: C9_9  and  C10_10 
ROOT
HETATM    1  C1  UNL     1     -33.475  14.543  -4.488  1.00 20.00     0.001 A 
HETATM    2  C2  UNL     1     -34.836  14.151  -4.102  1.00 20.00     0.001 A 
HETATM    3  C3  UNL     1     -32.817  15.548  -3.875  1.00 20.00     0.012 A 
HETATM    4  C4  UNL     1     -35.509  14.774  -3.112  1.00 20.00     0.012 A 
HETATM    5  C5  UNL     1     -33.085  17.265  -2.038  1.00 20.00     0.001 A 
HETATM    6  C6  UNL     1     -35.269  16.636  -1.419  1.00 20.00     0.001 A 
HETATM    7  C7  UNL     1     -33.494  16.247  -2.808  1.00 20.00    -0.029 A 
HETATM    8  C8  UNL     1     -34.847  15.858  -2.425  1.00 20.00    -0.029 A 
HETATM    9  C10 UNL     1     -34.182  17.620  -1.068  1.00 20.00     0.094 A 
ENDROOT
BRANCH   9  10
HETATM   10  C9  UNL     1     -34.661  19.008  -1.346  1.00 20.00     0.243 C 
HETATM   11  O11 UNL     1     -35.713  19.258  -1.925  1.00 20.00    -0.306 OA
ENDBRANCH   9  10
TORSDOF 1
ENDMDL
MODEL 8
REMARK VINA RESULT:      -4.8     15.761     16.607
REMARK  1 active torsions:
REMARK  status: ('A' for Active; 'I' for Inactive)
REMARK    1  A    between atoms: C9_9  and  C10_10 
ROOT
HETATM    1  C1  UNL     1     -23.213  18.127   8.359  1.00 20.00     0.001 A 
HETATM    2  C2  UNL     1     -22.418  17.457   9.395  1.00 20.00     0.001 A 
HETATM    3  C3  UNL     1     -24.389  18.728   8.634  1.00 20.00     0.012 A 
HETATM    4  C4  UNL     1     -22.817  17.402  10.683  1.00 20.00     0.012 A 
HETATM    5  C5  UNL     1     -25.973  19.207  10.546  1.00 20.00     0.001 A 
HETATM    6  C6  UNL     1     -24.697  18.130  12.209  1.00 20.00     0.001 A 
HETATM    7  C7  UNL     1     -24.861  18.697   9.999  1.00 20.00    -0.029 A 
HETATM    8  C8  UNL     1     -24.070  18.031  11.028  1.00 20.00    -0.029 A 
HETATM    9  C10 UNL     1     -25.982  18.895  12.021  1.00 20.00     0.094 A 
ENDROOT
BRANCH   9  10
HETATM   10  C9  UNL     1     -27.140  18.002  12.332  1.00 20.00     0.243 C 
HETATM   11  O11 UNL     1     -28.297  18.256  12.009  1.00 20.00    -0.306 OA
ENDBRANCH   9  10
TORSDOF 1
ENDMDL
MODEL 9
REMARK VINA RESULT:      -4.7     11.153     11.899
REMARK  1 active torsions:
REMARK  status: ('A' for Active; 'I' for Inactive)
REMARK    1  A    between atoms: C9_9  and  C10_10 
ROOT
HETATM    1  C1  UNL     1     -34.964  14.314  -3.909  1.00 20.00     0.001 A 
HETATM    2  C2  UNL     1     -33.553  14.550  -4.237  1.00 20.00     0.001 A 
HETATM    3  C3  UNL     1     -35.636  15.090  -3.034  1.00 20.00     0.012 A 
HETATM    4  C4  UNL     1     -32.846  15.556  -3.683  1.00 20.00     0.012 A 
HETATM    5  C5  UNL     1     -35.336  17.097  -1.525  1.00 20.00     0.001 A 
HETATM    6  C6  UNL     1     -33.071  17.475  -2.052  1.00 20.00     0.001 A 
HETATM    7  C7  UNL     1     -34.924  16.182  -2.413  1.00 20.00    -0.029 A 
HETATM    8  C8  UNL     1     -33.521  16.416  -2.739  1.00 20.00    -0.029 A 
HETATM    9  C10 UNL     1     -34.190  18.021  -1.201  1.00 20.00     0.094 A 
ENDROOT
BRANCH   9  10
HETATM   10  C9  UNL     1     -33.830  17.878   0.243  1.00 20.00     0.243 C 
HETATM   11  O11 UNL     1     -34.649  17.636   1.124  1.00 20.00    -0.306 OA
ENDBRANCH   9  10
TORSDOF 1
ENDMDL
