MODEL 1
REMARK VINA RESULT:      -4.4      0.000      0.000
REMARK  2 active torsions:
REMARK  status: ('A' for Active; 'I' for Inactive)
REMARK    1  A    between atoms: C1_1  and  N9_9 
REMARK    2  A    between atoms: C4_4  and  C8_8 
ROOT
HETATM    1  C2  UNL     1     -33.165  16.284  -3.204  1.00 20.00     0.031 C 
HETATM    2  C3  UNL     1     -35.324  15.516  -2.543  1.00 20.00     0.130 C 
HETATM    3  C4  UNL     1     -34.460  16.771  -2.547  1.00 20.00     0.005 C 
HETATM    4  C5  UNL     1     -33.651  15.293  -4.270  1.00 20.00     0.083 C 
HETATM    5  C6  UNL     1     -32.644  14.173  -4.497  1.00 20.00     0.032 C 
HETATM    6  N9  UNL     1     -34.940  14.825  -3.763  1.00 20.00    -0.355 N 
ENDROOT
BRANCH   3   7
HETATM    7  C8  UNL     1     -34.247  17.358  -1.164  1.00 20.00     0.002 C 
HETATM    8  C7  UNL     1     -35.393  17.065  -0.246  1.00 20.00     0.005 C 
ENDBRANCH   3   7
BRANCH   6   9
HETATM    9  C1  UNL     1     -35.770  13.945  -4.420  1.00 20.00     0.351 C 
HETATM   10  O10 UNL     1     -35.746  12.721  -4.358  1.00 20.00    -0.284 OA
ENDBRANCH   6   9
TORSDOF 2
ENDMDL
MODEL 2
REMARK VINA RESULT:      -4.2     15.896     17.002
REMARK  2 active torsions:
REMARK  status: ('A' for Active; 'I' for Inactive)
REMARK    1  A    between atoms: C1_1  and  N9_9 
REMARK    2  A    between atoms: C4_4  and  C8_8 
ROOT
HETATM    1  C2  UNL     1     -22.391  17.599  10.333  1.00 20.00     0.031 C 
HETATM    2  C3  UNL     1     -24.664  18.092   9.800  1.00 20.00     0.130 C 
HETATM    3  C4  UNL     1     -23.696  18.078  10.978  1.00 20.00     0.005 C 
HETATM    4  C5  UNL     1     -22.410  18.258   8.947  1.00 20.00     0.083 C 
HETATM    5  C6  UNL     1     -21.710  17.395   7.905  1.00 20.00     0.032 C 
HETATM    6  N9  UNL     1     -23.831  18.468   8.670  1.00 20.00    -0.355 N 
ENDROOT
BRANCH   3   7
HETATM    7  C8  UNL     1     -24.157  17.196  12.123  1.00 20.00     0.002 C 
HETATM    8  C7  UNL     1     -24.608  15.849  11.649  1.00 20.00     0.005 C 
ENDBRANCH   3   7
BRANCH   6   9
HETATM    9  C1  UNL     1     -24.328  19.080   7.541  1.00 20.00     0.351 C 
HETATM   10  O10 UNL     1     -23.933  18.938   6.390  1.00 20.00    -0.284 OA
ENDBRANCH   6   9
TORSDOF 2
ENDMDL
MODEL 3
REMARK VINA RESULT:      -4.2      1.307      2.446
REMARK  2 active torsions:
REMARK  status: ('A' for Active; 'I' for Inactive)
REMARK    1  A    between atoms: C1_1  and  N9_9 
REMARK    2  A    between atoms: C4_4  and  C8_8 
ROOT
HETATM    1  C2  UNL     1     -35.465  16.820  -2.841  1.00 20.00     0.031 C 
HETATM    2  C3  UNL     1     -34.253  15.002  -3.800  1.00 20.00     0.130 C 
HETATM    3  C4  UNL     1     -34.214  15.963  -2.618  1.00 20.00     0.005 C 
HETATM    4  C5  UNL     1     -36.489  15.824  -3.402  1.00 20.00     0.083 C 
HETATM    5  C6  UNL     1     -37.454  16.497  -4.369  1.00 20.00     0.032 C 
HETATM    6  N9  UNL     1     -35.672  14.782  -4.023  1.00 20.00    -0.355 N 
ENDROOT
BRANCH   3   7
HETATM    7  C8  UNL     1     -32.935  16.776  -2.546  1.00 20.00     0.002 C 
HETATM    8  C7  UNL     1     -32.996  17.824  -1.478  1.00 20.00     0.005 C 
ENDBRANCH   3   7
BRANCH   6   9
HETATM    9  C1  UNL     1     -36.171  13.648  -4.624  1.00 20.00     0.351 C 
HETATM   10  O10 UNL     1     -35.790  12.495  -4.456  1.00 20.00    -0.284 OA
ENDBRANCH   6   9
TORSDOF 2
ENDMDL
MODEL 4
REMARK VINA RESULT:      -4.2      3.282      5.062
REMARK  2 active torsions:
REMARK  status: ('A' for Active; 'I' for Inactive)
REMARK    1  A    between atoms: C1_1  and  N9_9 
REMARK    2  A    between atoms: C4_4  and  C8_8 
ROOT
HETATM    1  C2  UNL     1     -35.056  16.915  -1.115  1.00 20.00     0.031 C 
HETATM    2  C3  UNL     1     -32.965  16.905  -2.262  1.00 20.00     0.130 C 
HETATM    3  C4  UNL     1     -34.452  16.677  -2.502  1.00 20.00     0.005 C 
HETATM    4  C5  UNL     1     -34.208  18.059  -0.543  1.00 20.00     0.083 C 
HETATM    5  C6  UNL     1     -34.078  17.960   0.971  1.00 20.00     0.032 C 
HETATM    6  N9  UNL     1     -32.932  17.945  -1.248  1.00 20.00    -0.355 N 
ENDROOT
BRANCH   3   7
HETATM    7  C8  UNL     1     -34.766  15.303  -3.065  1.00 20.00     0.002 C 
HETATM    8  C7  UNL     1     -33.729  14.846  -4.043  1.00 20.00     0.005 C 
ENDBRANCH   3   7
BRANCH   6   9
HETATM    9  C1  UNL     1     -31.866  18.802  -1.085  1.00 20.00     0.351 C 
HETATM   10  O10 UNL     1     -30.735  18.512  -0.712  1.00 20.00    -0.284 OA
ENDBRANCH   6   9
TORSDOF 2
ENDMDL
MODEL 5
REMARK VINA RESULT:      -4.1     16.701     17.551
REMARK  2 active torsions:
REMARK  status: ('A' for Active; 'I' for Inactive)
REMARK    1  A    between atoms: C1_1  and  N9_9 
REMARK    2  A    between atoms: C4_4  and  C8_8 
ROOT
HETATM    1  C2  UNL     1     -25.047  18.268  12.195  1.00 20.00     0.031 C 
HETATM    2  C3  UNL     1     -25.426  18.908   9.928  1.00 20.00     0.130 C 
HETATM    3  C4  UNL     1     -25.848  19.263  11.349  1.00 20.00     0.005 C 
HETATM    4  C5  UNL     1     -23.709  18.157  11.452  1.00 20.00     0.083 C 
HETATM    5  C6  UNL     1     -23.095  16.772  11.604  1.00 20.00     0.032 C 
HETATM    6  N9  UNL     1     -24.037  18.501  10.069  1.00 20.00    -0.355 N 
ENDROOT
BRANCH   3   7
HETATM    7  C8  UNL     1     -27.346  19.170  11.572  1.00 20.00     0.002 C 
HETATM    8  C7  UNL     1     -27.729  17.913  12.290  1.00 20.00     0.005 C 
ENDBRANCH   3   7
BRANCH   6   9
HETATM    9  C1  UNL     1     -23.125  18.577   9.041  1.00 20.00     0.351 C 
HETATM   10  O10 UNL     1     -22.101  19.250   9.011  1.00 20.00    -0.284 OA
ENDBRANCH   6   9
TORSDOF 2
ENDMDL
MODEL 6
REMARK VINA RESULT:      -4.0      1.448      1.652
REMARK  2 active torsions:
REMARK  status: ('A' for Active; 'I' for Inactive)
REMARK    1  A    between atoms: C1_1  and  N9_9 
REMARK    2  A    between atoms: C4_4  and  C8_8 
ROOT
HETATM    1  C2  UNL     1     -34.157  16.664  -4.704  1.00 20.00     0.031 C 
HETATM    2  C3  UNL     1     -34.889  15.037  -3.121  1.00 20.00     0.130 C 
HETATM    3  C4  UNL     1     -34.557  16.520  -3.232  1.00 20.00     0.005 C 
HETATM    4  C5  UNL     1     -35.107  15.703  -5.433  1.00 20.00     0.083 C 
HETATM    5  C6  UNL     1     -34.457  15.104  -6.673  1.00 20.00     0.032 C 
HETATM    6  N9  UNL     1     -35.457  14.709  -4.419  1.00 20.00    -0.355 N 
ENDROOT
BRANCH   3   7
HETATM    7  C8  UNL     1     -33.472  16.966  -2.270  1.00 20.00     0.002 C 
HETATM    8  C7  UNL     1     -34.039  17.623  -1.050  1.00 20.00     0.005 C 
ENDBRANCH   3   7
BRANCH   6   9
HETATM    9  C1  UNL     1     -36.332  13.664  -4.613  1.00 20.00     0.351 C 
HETATM   10  O10 UNL     1     -37.548  13.683  -4.465  1.00 20.00    -0.284 OA
ENDBRANCH   6   9
TORSDOF 2
ENDMDL
MODEL 7
REMARK VINA RESULT:      -4.0      1.815      2.548
REMARK  2 active torsions:
REMARK  status: ('A' for Active; 'I' for Inactive)
REMARK    1  A    between atoms: C1_1  and  N9_9 
REMARK    2  A    between atoms: C4_4  and  C8_8 
ROOT
HETATM    1  C2  UNL     1     -34.906  15.811  -2.257  1.00 20.00     0.031 C 
HETATM    2  C3  UNL     1     -33.739  17.035  -3.940  1.00 20.00     0.130 C 
HETATM    3  C4  UNL     1     -33.629  16.629  -2.475  1.00 20.00     0.005 C 
HETATM    4  C5  UNL     1     -35.086  15.062  -3.584  1.00 20.00     0.083 C 
HETATM    5  C6  UNL     1     -36.557  14.830  -3.904  1.00 20.00     0.032 C 
HETATM    6  N9  UNL     1     -34.401  15.902  -4.566  1.00 20.00    -0.355 N 
ENDROOT
BRANCH   3   7
HETATM    7  C8  UNL     1     -33.506  17.811  -1.532  1.00 20.00     0.002 C 
HETATM    8  C7  UNL     1     -32.078  18.133  -1.218  1.00 20.00     0.005 C 
ENDBRANCH   3   7
BRANCH   6   9
HETATM    9  C1  UNL     1     -34.267  15.598  -5.902  1.00 20.00     0.351 C 
HETATM   10  O10 UNL     1     -33.791  14.576  -6.382  1.00 20.00    -0.284 OA
ENDBRANCH   6   9
TORSDOF 2
ENDMDL
MODEL 8
REMARK VINA RESULT:      -4.0      1.825      2.565
REMARK  2 active torsions:
REMARK  status: ('A' for Active; 'I' for Inactive)
REMARK    1  A    between atoms: C1_1  and  N9_9 
REMARK    2  A    between atoms: C4_4  and  C8_8 
ROOT
HETATM    1  C2  UNL     1     -34.921  14.979  -2.969  1.00 20.00     0.031 C 
HETATM    2  C3  UNL     1     -33.952  16.368  -4.649  1.00 20.00     0.130 C 
HETATM    3  C4  UNL     1     -33.699  15.864  -3.233  1.00 20.00     0.005 C 
HETATM    4  C5  UNL     1     -35.190  14.319  -4.328  1.00 20.00     0.083 C 
HETATM    5  C6  UNL     1     -36.674  14.048  -4.537  1.00 20.00     0.032 C 
HETATM    6  N9  UNL     1     -34.625  15.256  -5.299  1.00 20.00    -0.355 N 
ENDROOT
BRANCH   3   7
HETATM    7  C8  UNL     1     -33.536  16.980  -2.218  1.00 20.00     0.002 C 
HETATM    8  C7  UNL     1     -34.694  17.052  -1.272  1.00 20.00     0.005 C 
ENDBRANCH   3   7
BRANCH   6   9
HETATM    9  C1  UNL     1     -34.598  15.054  -6.660  1.00 20.00     0.351 C 
HETATM   10  O10 UNL     1     -33.606  14.993  -7.378  1.00 20.00    -0.284 OA
ENDBRANCH   6   9
TORSDOF 2
ENDMDL
MODEL 9
REMARK VINA RESULT:      -3.9     11.221     11.804
REMARK  2 active torsions:
REMARK  status: ('A' for Active; 'I' for Inactive)
REMARK    1  A    between atoms: C1_1  and  N9_9 
REMARK    2  A    between atoms: C4_4  and  C8_8 
ROOT
HETATM    1  C2  UNL     1     -33.565   5.574   2.304  1.00 20.00     0.031 C 
HETATM    2  C3  UNL     1     -32.979   7.220   3.928  1.00 20.00     0.130 C 
HETATM    3  C4  UNL     1     -33.304   7.077   2.446  1.00 20.00     0.005 C 
HETATM    4  C5  UNL     1     -34.273   5.205   3.615  1.00 20.00     0.083 C 
HETATM    5  C6  UNL     1     -33.954   3.780   4.043  1.00 20.00     0.032 C 
HETATM    6  N9  UNL     1     -33.815   6.218   4.566  1.00 20.00    -0.355 N 
ENDROOT
BRANCH   3   7
HETATM    7  C8  UNL     1     -32.198   7.582   1.537  1.00 20.00     0.002 C 
HETATM    8  C7  UNL     1     -32.704   8.571   0.533  1.00 20.00     0.005 C 
ENDBRANCH   3   7
BRANCH   6   9
HETATM    9  C1  UNL     1     -34.230   6.309   5.875  1.00 20.00     0.351 C 
HETATM   10  O10 UNL     1     -35.117   5.658   6.416  1.00 20.00    -0.284 OA
ENDBRANCH   6   9
TORSDOF 2
ENDMDL
