MODEL 1
REMARK VINA RESULT:      -3.7      0.000      0.000
REMARK  3 active torsions:
REMARK  status: ('A' for Active; 'I' for Inactive)
REMARK    1  A    between atoms: C1_1  and  C7_7 
REMARK    2  A    between atoms: C1_1  and  N8_8 
REMARK    3  A    between atoms: C6_6  and  N8_8 
ROOT
HETATM    1  C1  UNL     1     -24.552  18.340  10.553  1.00 20.00     0.078 C 
HETATM    2  S9  UNL     1     -25.135  19.191   9.205  1.00 20.00    -0.065 SA
ENDROOT
BRANCH   1   3
HETATM    3  C7  UNL     1     -25.408  18.290  11.848  1.00 20.00     0.039 C 
HETATM    4  C3  UNL     1     -26.587  19.262  11.753  1.00 20.00     0.017 C 
HETATM    5  C4  UNL     1     -25.898  16.888  12.228  1.00 20.00     0.017 C 
ENDBRANCH   1   3
BRANCH   1   6
HETATM    6  N8  UNL     1     -23.300  17.699  10.595  1.00 20.00    -0.380 N 
HETATM    7  C5  UNL     1     -22.412  17.743  11.757  1.00 20.00     0.150 C 
BRANCH   6   8
HETATM    8  C6  UNL     1     -22.760  16.933   9.468  1.00 20.00     0.118 C 
HETATM    9  C2  UNL     1     -21.606  17.639   8.842  1.00 20.00     0.026 C 
ENDBRANCH   6   8
ENDBRANCH   1   6
TORSDOF 3
ENDMDL
MODEL 2
REMARK VINA RESULT:      -3.6     18.523     18.949
REMARK  3 active torsions:
REMARK  status: ('A' for Active; 'I' for Inactive)
REMARK    1  A    between atoms: C1_1  and  C7_7 
REMARK    2  A    between atoms: C1_1  and  N8_8 
REMARK    3  A    between atoms: C6_6  and  N8_8 
ROOT
HETATM    1  C1  UNL     1     -35.388  15.963  -4.284  1.00 20.00     0.078 C 
HETATM    2  S9  UNL     1     -35.874  17.557  -4.612  1.00 20.00    -0.065 SA
ENDROOT
BRANCH   1   3
HETATM    3  C7  UNL     1     -34.520  15.678  -3.028  1.00 20.00     0.039 C 
HETATM    4  C3  UNL     1     -33.071  16.113  -3.263  1.00 20.00     0.017 C 
HETATM    5  C4  UNL     1     -35.061  16.295  -1.733  1.00 20.00     0.017 C 
ENDBRANCH   1   3
BRANCH   1   6
HETATM    6  N8  UNL     1     -35.686  14.866  -5.112  1.00 20.00    -0.380 N 
HETATM    7  C5  UNL     1     -36.277  13.623  -4.618  1.00 20.00     0.150 C 
BRANCH   6   8
HETATM    8  C6  UNL     1     -35.417  14.860  -6.553  1.00 20.00     0.118 C 
HETATM    9  C2  UNL     1     -33.965  15.053  -6.830  1.00 20.00     0.026 C 
ENDBRANCH   6   8
ENDBRANCH   1   6
TORSDOF 3
ENDMDL
MODEL 3
REMARK VINA RESULT:      -3.5      1.130      3.871
REMARK  3 active torsions:
REMARK  status: ('A' for Active; 'I' for Inactive)
REMARK    1  A    between atoms: C1_1  and  C7_7 
REMARK    2  A    between atoms: C1_1  and  N8_8 
REMARK    3  A    between atoms: C6_6  and  N8_8 
ROOT
HETATM    1  C1  UNL     1     -24.133  17.937   9.994  1.00 20.00     0.078 C 
HETATM    2  S9  UNL     1     -24.906  19.045   8.965  1.00 20.00    -0.065 SA
ENDROOT
BRANCH   1   3
HETATM    3  C7  UNL     1     -22.748  17.364   9.588  1.00 20.00     0.039 C 
HETATM    4  C3  UNL     1     -22.475  17.613   8.103  1.00 20.00     0.017 C 
HETATM    5  C4  UNL     1     -21.579  17.874  10.440  1.00 20.00     0.017 C 
ENDBRANCH   1   3
BRANCH   1   6
HETATM    6  N8  UNL     1     -24.692  17.457  11.193  1.00 20.00    -0.380 N 
HETATM    7  C5  UNL     1     -24.706  16.042  11.564  1.00 20.00     0.150 C 
BRANCH   6   8
HETATM    8  C6  UNL     1     -25.327  18.333  12.181  1.00 20.00     0.118 C 
HETATM    9  C2  UNL     1     -26.792  18.072  12.268  1.00 20.00     0.026 C 
ENDBRANCH   6   8
ENDBRANCH   1   6
TORSDOF 3
ENDMDL
MODEL 4
REMARK VINA RESULT:      -3.4     17.654     18.132
REMARK  3 active torsions:
REMARK  status: ('A' for Active; 'I' for Inactive)
REMARK    1  A    between atoms: C1_1  and  C7_7 
REMARK    2  A    between atoms: C1_1  and  N8_8 
REMARK    3  A    between atoms: C6_6  and  N8_8 
ROOT
HETATM    1  C1  UNL     1     -34.344  16.420  -3.979  1.00 20.00     0.078 C 
HETATM    2  S9  UNL     1     -34.631  17.929  -4.704  1.00 20.00    -0.065 SA
ENDROOT
BRANCH   1   3
HETATM    3  C7  UNL     1     -33.941  16.363  -2.481  1.00 20.00     0.039 C 
HETATM    4  C3  UNL     1     -32.833  17.376  -2.181  1.00 20.00     0.017 C 
HETATM    5  C4  UNL     1     -35.109  16.542  -1.505  1.00 20.00     0.017 C 
ENDBRANCH   1   3
BRANCH   1   6
HETATM    6  N8  UNL     1     -34.405  15.195  -4.668  1.00 20.00    -0.380 N 
HETATM    7  C5  UNL     1     -33.961  15.026  -6.051  1.00 20.00     0.150 C 
BRANCH   6   8
HETATM    8  C6  UNL     1     -34.935  13.969  -4.063  1.00 20.00     0.118 C 
HETATM    9  C2  UNL     1     -36.337  13.716  -4.501  1.00 20.00     0.026 C 
ENDBRANCH   6   8
ENDBRANCH   1   6
TORSDOF 3
ENDMDL
MODEL 5
REMARK VINA RESULT:      -3.3     15.808     16.465
REMARK  3 active torsions:
REMARK  status: ('A' for Active; 'I' for Inactive)
REMARK    1  A    between atoms: C1_1  and  C7_7 
REMARK    2  A    between atoms: C1_1  and  N8_8 
REMARK    3  A    between atoms: C6_6  and  N8_8 
ROOT
HETATM    1  C1  UNL     1     -33.319   6.052   3.177  1.00 20.00     0.078 C 
HETATM    2  S9  UNL     1     -33.287   4.469   2.564  1.00 20.00    -0.065 SA
ENDROOT
BRANCH   1   3
HETATM    3  C7  UNL     1     -34.337   6.413   4.293  1.00 20.00     0.039 C 
HETATM    4  C3  UNL     1     -35.357   5.288   4.479  1.00 20.00     0.017 C 
HETATM    5  C4  UNL     1     -33.696   6.783   5.637  1.00 20.00     0.017 C 
ENDBRANCH   1   3
BRANCH   1   6
HETATM    6  N8  UNL     1     -32.501   7.094   2.703  1.00 20.00    -0.380 N 
HETATM    7  C5  UNL     1     -31.576   7.842   3.555  1.00 20.00     0.150 C 
BRANCH   6   8
HETATM    8  C6  UNL     1     -32.508   7.539   1.307  1.00 20.00     0.118 C 
HETATM    9  C2  UNL     1     -32.951   8.958   1.196  1.00 20.00     0.026 C 
ENDBRANCH   6   8
ENDBRANCH   1   6
TORSDOF 3
ENDMDL
MODEL 6
REMARK VINA RESULT:      -3.2     18.426     19.034
REMARK  3 active torsions:
REMARK  status: ('A' for Active; 'I' for Inactive)
REMARK    1  A    between atoms: C1_1  and  C7_7 
REMARK    2  A    between atoms: C1_1  and  N8_8 
REMARK    3  A    between atoms: C6_6  and  N8_8 
ROOT
HETATM    1  C1  UNL     1     -35.224  16.010  -4.198  1.00 20.00     0.078 C 
HETATM    2  S9  UNL     1     -34.612  17.041  -5.401  1.00 20.00    -0.065 SA
ENDROOT
BRANCH   1   3
HETATM    3  C7  UNL     1     -34.421  15.819  -2.883  1.00 20.00     0.039 C 
HETATM    4  C3  UNL     1     -33.038  16.465  -2.995  1.00 20.00     0.017 C 
HETATM    5  C4  UNL     1     -35.143  16.313  -1.624  1.00 20.00     0.017 C 
ENDBRANCH   1   3
BRANCH   1   6
HETATM    6  N8  UNL     1     -36.411  15.267  -4.331  1.00 20.00    -0.380 N 
HETATM    7  C5  UNL     1     -36.436  13.820  -4.541  1.00 20.00     0.150 C 
BRANCH   6   8
HETATM    8  C6  UNL     1     -37.742  15.880  -4.283  1.00 20.00     0.118 C 
HETATM    9  C2  UNL     1     -38.810  14.842  -4.213  1.00 20.00     0.026 C 
ENDBRANCH   6   8
ENDBRANCH   1   6
TORSDOF 3
ENDMDL
MODEL 7
REMARK VINA RESULT:      -3.2     14.804     15.327
REMARK  3 active torsions:
REMARK  status: ('A' for Active; 'I' for Inactive)
REMARK    1  A    between atoms: C1_1  and  C7_7 
REMARK    2  A    between atoms: C1_1  and  N8_8 
REMARK    3  A    between atoms: C6_6  and  N8_8 
ROOT
HETATM    1  C1  UNL     1     -33.170  17.840  -2.122  1.00 20.00     0.078 C 
HETATM    2  S9  UNL     1     -33.385  18.954  -3.385  1.00 20.00    -0.065 SA
ENDROOT
BRANCH   1   3
HETATM    3  C7  UNL     1     -33.605  16.364  -2.329  1.00 20.00     0.039 C 
HETATM    4  C3  UNL     1     -35.116  16.213  -2.131  1.00 20.00     0.017 C 
HETATM    5  C4  UNL     1     -33.178  15.762  -3.673  1.00 20.00     0.017 C 
ENDBRANCH   1   3
BRANCH   1   6
HETATM    6  N8  UNL     1     -32.654  18.177  -0.857  1.00 20.00    -0.380 N 
HETATM    7  C5  UNL     1     -33.493  18.413   0.318  1.00 20.00     0.150 C 
BRANCH   6   8
HETATM    8  C6  UNL     1     -31.219  18.338  -0.600  1.00 20.00     0.118 C 
HETATM    9  C2  UNL     1     -30.919  18.238   0.856  1.00 20.00     0.026 C 
ENDBRANCH   6   8
ENDBRANCH   1   6
TORSDOF 3
ENDMDL
MODEL 8
REMARK VINA RESULT:      -3.2     19.083     19.530
REMARK  3 active torsions:
REMARK  status: ('A' for Active; 'I' for Inactive)
REMARK    1  A    between atoms: C1_1  and  C7_7 
REMARK    2  A    between atoms: C1_1  and  N8_8 
REMARK    3  A    between atoms: C6_6  and  N8_8 
ROOT
HETATM    1  C1  UNL     1     -35.676  15.045  -4.681  1.00 20.00     0.078 C 
HETATM    2  S9  UNL     1     -37.264  14.549  -4.337  1.00 20.00    -0.065 SA
ENDROOT
BRANCH   1   3
HETATM    3  C7  UNL     1     -34.556  14.780  -3.640  1.00 20.00     0.039 C 
HETATM    4  C3  UNL     1     -33.208  14.575  -4.337  1.00 20.00     0.017 C 
HETATM    5  C4  UNL     1     -34.438  15.852  -2.551  1.00 20.00     0.017 C 
ENDBRANCH   1   3
BRANCH   1   6
HETATM    6  N8  UNL     1     -35.306  15.734  -5.851  1.00 20.00    -0.380 N 
HETATM    7  C5  UNL     1     -34.971  17.157  -5.875  1.00 20.00     0.150 C 
BRANCH   6   8
HETATM    8  C6  UNL     1     -35.233  15.088  -7.165  1.00 20.00     0.118 C 
HETATM    9  C2  UNL     1     -33.995  15.486  -7.893  1.00 20.00     0.026 C 
ENDBRANCH   6   8
ENDBRANCH   1   6
TORSDOF 3
ENDMDL
MODEL 9
REMARK VINA RESULT:      -3.2     16.851     17.312
REMARK  3 active torsions:
REMARK  status: ('A' for Active; 'I' for Inactive)
REMARK    1  A    between atoms: C1_1  and  C7_7 
REMARK    2  A    between atoms: C1_1  and  N8_8 
REMARK    3  A    between atoms: C6_6  and  N8_8 
ROOT
HETATM    1  C1  UNL     1     -33.563  17.330  -3.435  1.00 20.00     0.078 C 
HETATM    2  S9  UNL     1     -32.929  18.846  -3.864  1.00 20.00    -0.065 SA
ENDROOT
BRANCH   1   3
HETATM    3  C7  UNL     1     -33.694  16.960  -1.933  1.00 20.00     0.039 C 
HETATM    4  C3  UNL     1     -33.016  18.015  -1.055  1.00 20.00     0.017 C 
HETATM    5  C4  UNL     1     -35.134  16.720  -1.465  1.00 20.00     0.017 C 
ENDBRANCH   1   3
BRANCH   1   6
HETATM    6  N8  UNL     1     -33.944  16.347  -4.367  1.00 20.00    -0.380 N 
HETATM    7  C5  UNL     1     -34.837  16.611  -5.495  1.00 20.00     0.150 C 
BRANCH   6   8
HETATM    8  C6  UNL     1     -33.491  14.955  -4.285  1.00 20.00     0.118 C 
HETATM    9  C2  UNL     1     -34.628  14.036  -3.994  1.00 20.00     0.026 C 
ENDBRANCH   6   8
ENDBRANCH   1   6
TORSDOF 3
ENDMDL
