MODEL 1
REMARK VINA RESULT:      -4.3      0.000      0.000
REMARK  2 active torsions:
REMARK  status: ('A' for Active; 'I' for Inactive)
REMARK    1  A    between atoms: C5_5  and  C8_8 
REMARK    2  A    between atoms: C8_8  and  N10_10 
ROOT
HETATM    1  C1  UNL     1     -38.039  14.899  -4.212  1.00 20.00     0.135 A 
HETATM    2  C2  UNL     1     -37.037  15.812  -3.984  1.00 20.00     0.112 A 
HETATM    3  C3  UNL     1     -36.222  13.814  -4.431  1.00 20.00     0.210 A 
HETATM    4  N9  UNL     1     -37.525  13.657  -4.489  1.00 20.00    -0.255 NA
HETATM    5  N10 UNL     1     -35.878  15.102  -4.127  1.00 20.00    -0.338 N 
ENDROOT
BRANCH   5   6
HETATM    6  C8  UNL     1     -34.491  15.635  -3.980  1.00 20.00     0.047 C 
HETATM    7  C6  UNL     1     -33.386  14.618  -4.361  1.00 20.00     0.043 C 
HETATM    8  C7  UNL     1     -34.334  16.839  -4.941  1.00 20.00     0.043 C 
BRANCH   6   9
HETATM    9  C5  UNL     1     -34.242  15.968  -2.510  1.00 20.00    -0.007 C 
HETATM   10  C4  UNL     1     -33.592  17.028  -2.012  1.00 20.00     0.009 C 
ENDBRANCH   6   9
ENDBRANCH   5   6
TORSDOF 2
ENDMDL
MODEL 2
REMARK VINA RESULT:      -4.0      0.846      1.861
REMARK  2 active torsions:
REMARK  status: ('A' for Active; 'I' for Inactive)
REMARK    1  A    between atoms: C5_5  and  C8_8 
REMARK    2  A    between atoms: C8_8  and  N10_10 
ROOT
HETATM    1  C1  UNL     1     -38.552  15.295  -4.271  1.00 20.00     0.135 A 
HETATM    2  C2  UNL     1     -37.540  16.124  -3.847  1.00 20.00     0.112 A 
HETATM    3  C3  UNL     1     -36.798  14.090  -4.258  1.00 20.00     0.210 A 
HETATM    4  N9  UNL     1     -38.084  14.031  -4.524  1.00 20.00    -0.255 NA
HETATM    5  N10 UNL     1     -36.422  15.338  -3.843  1.00 20.00    -0.338 N 
ENDROOT
BRANCH   5   6
HETATM    6  C8  UNL     1     -35.044  15.763  -3.459  1.00 20.00     0.047 C 
HETATM    7  C6  UNL     1     -34.483  16.922  -4.321  1.00 20.00     0.043 C 
HETATM    8  C7  UNL     1     -35.089  16.279  -2.000  1.00 20.00     0.043 C 
BRANCH   6   9
HETATM    9  C5  UNL     1     -34.086  14.594  -3.683  1.00 20.00    -0.007 C 
HETATM   10  C4  UNL     1     -33.020  14.558  -4.494  1.00 20.00     0.009 C 
ENDBRANCH   6   9
ENDBRANCH   5   6
TORSDOF 2
ENDMDL
MODEL 3
REMARK VINA RESULT:      -3.9      0.491      1.894
REMARK  2 active torsions:
REMARK  status: ('A' for Active; 'I' for Inactive)
REMARK    1  A    between atoms: C5_5  and  C8_8 
REMARK    2  A    between atoms: C8_8  and  N10_10 
ROOT
HETATM    1  C1  UNL     1     -38.266  15.080  -4.219  1.00 20.00     0.135 A 
HETATM    2  C2  UNL     1     -37.243  15.963  -3.965  1.00 20.00     0.112 A 
HETATM    3  C3  UNL     1     -36.477  13.939  -4.382  1.00 20.00     0.210 A 
HETATM    4  N9  UNL     1     -37.783  13.822  -4.478  1.00 20.00    -0.255 NA
HETATM    5  N10 UNL     1     -36.102  15.217  -4.071  1.00 20.00    -0.338 N 
ENDROOT
BRANCH   5   6
HETATM    6  C8  UNL     1     -34.705  15.707  -3.885  1.00 20.00     0.047 C 
HETATM    7  C6  UNL     1     -34.363  16.081  -2.421  1.00 20.00     0.043 C 
HETATM    8  C7  UNL     1     -33.737  14.569  -4.289  1.00 20.00     0.043 C 
BRANCH   6   9
HETATM    9  C5  UNL     1     -34.525  16.999  -4.681  1.00 20.00    -0.007 C 
HETATM   10  C4  UNL     1     -34.453  17.133  -6.013  1.00 20.00     0.009 C 
ENDBRANCH   6   9
ENDBRANCH   5   6
TORSDOF 2
ENDMDL
MODEL 4
REMARK VINA RESULT:      -3.9      1.191      1.774
REMARK  2 active torsions:
REMARK  status: ('A' for Active; 'I' for Inactive)
REMARK    1  A    between atoms: C5_5  and  C8_8 
REMARK    2  A    between atoms: C8_8  and  N10_10 
ROOT
HETATM    1  C1  UNL     1     -36.069  13.251  -4.581  1.00 20.00     0.135 A 
HETATM    2  C2  UNL     1     -35.015  13.987  -4.091  1.00 20.00     0.112 A 
HETATM    3  C3  UNL     1     -36.918  15.083  -3.913  1.00 20.00     0.210 A 
HETATM    4  N9  UNL     1     -37.250  13.939  -4.467  1.00 20.00    -0.255 NA
HETATM    5  N10 UNL     1     -35.576  15.159  -3.667  1.00 20.00    -0.338 N 
ENDROOT
BRANCH   5   6
HETATM    6  C8  UNL     1     -34.854  16.310  -3.049  1.00 20.00     0.047 C 
HETATM    7  C6  UNL     1     -33.312  16.221  -3.172  1.00 20.00     0.043 C 
HETATM    8  C7  UNL     1     -35.283  17.601  -3.788  1.00 20.00     0.043 C 
BRANCH   6   9
HETATM    9  C5  UNL     1     -35.137  16.321  -1.547  1.00 20.00    -0.007 C 
HETATM   10  C4  UNL     1     -35.217  17.388  -0.740  1.00 20.00     0.009 C 
ENDBRANCH   6   9
ENDBRANCH   5   6
TORSDOF 2
ENDMDL
MODEL 5
REMARK VINA RESULT:      -3.7      1.688      1.998
REMARK  2 active torsions:
REMARK  status: ('A' for Active; 'I' for Inactive)
REMARK    1  A    between atoms: C5_5  and  C8_8 
REMARK    2  A    between atoms: C8_8  and  N10_10 
ROOT
HETATM    1  C1  UNL     1     -35.570  14.968  -6.952  1.00 20.00     0.135 A 
HETATM    2  C2  UNL     1     -34.923  15.963  -6.257  1.00 20.00     0.112 A 
HETATM    3  C3  UNL     1     -35.599  14.349  -4.917  1.00 20.00     0.210 A 
HETATM    4  N9  UNL     1     -35.989  13.968  -6.113  1.00 20.00    -0.255 NA
HETATM    5  N10 UNL     1     -34.950  15.552  -4.953  1.00 20.00    -0.338 N 
ENDROOT
BRANCH   5   6
HETATM    6  C8  UNL     1     -34.375  16.281  -3.785  1.00 20.00     0.047 C 
HETATM    7  C6  UNL     1     -32.892  15.936  -3.499  1.00 20.00     0.043 C 
HETATM    8  C7  UNL     1     -34.424  17.797  -4.092  1.00 20.00     0.043 C 
BRANCH   6   9
HETATM    9  C5  UNL     1     -35.134  15.870  -2.524  1.00 20.00    -0.007 C 
HETATM   10  C4  UNL     1     -35.208  16.536  -1.363  1.00 20.00     0.009 C 
ENDBRANCH   6   9
ENDBRANCH   5   6
TORSDOF 2
ENDMDL
MODEL 6
REMARK VINA RESULT:      -3.7      1.950      3.809
REMARK  2 active torsions:
REMARK  status: ('A' for Active; 'I' for Inactive)
REMARK    1  A    between atoms: C5_5  and  C8_8 
REMARK    2  A    between atoms: C8_8  and  N10_10 
ROOT
HETATM    1  C1  UNL     1     -33.476  17.473  -1.673  1.00 20.00     0.135 A 
HETATM    2  C2  UNL     1     -33.095  16.854  -2.841  1.00 20.00     0.112 A 
HETATM    3  C3  UNL     1     -34.990  16.032  -2.072  1.00 20.00     0.210 A 
HETATM    4  N9  UNL     1     -34.656  16.956  -1.200  1.00 20.00    -0.255 NA
HETATM    5  N10 UNL     1     -34.075  15.932  -3.083  1.00 20.00    -0.338 N 
ENDROOT
BRANCH   5   6
HETATM    6  C8  UNL     1     -34.135  14.991  -4.240  1.00 20.00     0.047 C 
HETATM    7  C6  UNL     1     -34.504  15.672  -5.583  1.00 20.00     0.043 C 
HETATM    8  C7  UNL     1     -32.730  14.371  -4.430  1.00 20.00     0.043 C 
BRANCH   6   9
HETATM    9  C5  UNL     1     -35.245  13.970  -3.990  1.00 20.00    -0.007 C 
HETATM   10  C4  UNL     1     -36.333  13.749  -4.738  1.00 20.00     0.009 C 
ENDBRANCH   6   9
ENDBRANCH   5   6
TORSDOF 2
ENDMDL
MODEL 7
REMARK VINA RESULT:      -3.7      1.153      2.300
REMARK  2 active torsions:
REMARK  status: ('A' for Active; 'I' for Inactive)
REMARK    1  A    between atoms: C5_5  and  C8_8 
REMARK    2  A    between atoms: C8_8  and  N10_10 
ROOT
HETATM    1  C1  UNL     1     -36.083  13.281  -4.584  1.00 20.00     0.135 A 
HETATM    2  C2  UNL     1     -35.037  14.022  -4.088  1.00 20.00     0.112 A 
HETATM    3  C3  UNL     1     -36.951  15.097  -3.896  1.00 20.00     0.210 A 
HETATM    4  N9  UNL     1     -37.271  13.956  -4.463  1.00 20.00    -0.255 NA
HETATM    5  N10 UNL     1     -35.609  15.185  -3.651  1.00 20.00    -0.338 N 
ENDROOT
BRANCH   5   6
HETATM    6  C8  UNL     1     -34.899  16.336  -3.021  1.00 20.00     0.047 C 
HETATM    7  C6  UNL     1     -35.176  16.488  -1.503  1.00 20.00     0.043 C 
HETATM    8  C7  UNL     1     -33.377  16.104  -3.171  1.00 20.00     0.043 C 
BRANCH   6   9
HETATM    9  C5  UNL     1     -35.403  17.634  -3.652  1.00 20.00    -0.007 C 
HETATM   10  C4  UNL     1     -34.774  18.400  -4.553  1.00 20.00     0.009 C 
ENDBRANCH   6   9
ENDBRANCH   5   6
TORSDOF 2
ENDMDL
MODEL 8
REMARK VINA RESULT:      -3.6      3.573      5.935
REMARK  2 active torsions:
REMARK  status: ('A' for Active; 'I' for Inactive)
REMARK    1  A    between atoms: C5_5  and  C8_8 
REMARK    2  A    between atoms: C8_8  and  N10_10 
ROOT
HETATM    1  C1  UNL     1     -31.414  18.809   0.626  1.00 20.00     0.135 A 
HETATM    2  C2  UNL     1     -32.748  18.480   0.665  1.00 20.00     0.112 A 
HETATM    3  C3  UNL     1     -31.921  18.257  -1.365  1.00 20.00     0.210 A 
HETATM    4  N9  UNL     1     -30.905  18.668  -0.640  1.00 20.00    -0.255 NA
HETATM    5  N10 UNL     1     -33.059  18.129  -0.619  1.00 20.00    -0.338 N 
ENDROOT
BRANCH   5   6
HETATM    6  C8  UNL     1     -34.396  17.686  -1.115  1.00 20.00     0.047 C 
HETATM    7  C6  UNL     1     -35.357  17.221   0.008  1.00 20.00     0.043 C 
HETATM    8  C7  UNL     1     -35.075  18.891  -1.809  1.00 20.00     0.043 C 
BRANCH   6   9
HETATM    9  C5  UNL     1     -34.209  16.465  -2.015  1.00 20.00    -0.007 C 
HETATM   10  C4  UNL     1     -35.164  15.741  -2.614  1.00 20.00     0.009 C 
ENDBRANCH   6   9
ENDBRANCH   5   6
TORSDOF 2
ENDMDL
MODEL 9
REMARK VINA RESULT:      -3.6      1.463      2.378
REMARK  2 active torsions:
REMARK  status: ('A' for Active; 'I' for Inactive)
REMARK    1  A    between atoms: C5_5  and  C8_8 
REMARK    2  A    between atoms: C8_8  and  N10_10 
ROOT
HETATM    1  C1  UNL     1     -36.165  13.896  -4.387  1.00 20.00     0.135 A 
HETATM    2  C2  UNL     1     -36.335  15.112  -3.769  1.00 20.00     0.112 A 
HETATM    3  C3  UNL     1     -34.218  14.498  -3.775  1.00 20.00     0.210 A 
HETATM    4  N9  UNL     1     -34.846  13.519  -4.387  1.00 20.00    -0.255 NA
HETATM    5  N10 UNL     1     -35.078  15.485  -3.381  1.00 20.00    -0.338 N 
ENDROOT
BRANCH   5   6
HETATM    6  C8  UNL     1     -34.712  16.741  -2.661  1.00 20.00     0.047 C 
HETATM    7  C6  UNL     1     -35.234  18.029  -3.345  1.00 20.00     0.043 C 
HETATM    8  C7  UNL     1     -35.355  16.694  -1.254  1.00 20.00     0.043 C 
BRANCH   6   9
HETATM    9  C5  UNL     1     -33.190  16.879  -2.653  1.00 20.00    -0.007 C 
HETATM   10  C4  UNL     1     -32.451  17.713  -1.908  1.00 20.00     0.009 C 
ENDBRANCH   6   9
ENDBRANCH   5   6
TORSDOF 2
ENDMDL
