MODEL 1
REMARK VINA RESULT:      -4.8      0.000      0.000
REMARK  1 active torsions:
REMARK  status: ('A' for Active; 'I' for Inactive)
REMARK    1  A    between atoms: C1_1  and  C9_9 
ROOT
HETATM    1  C2  UNL     1     -32.915  15.468  -3.756  1.00 20.00     0.031 C 
HETATM    2  C3  UNL     1     -34.838  17.238  -5.490  1.00 20.00     0.031 C 
HETATM    3  C4  UNL     1     -33.967  14.433  -4.156  1.00 20.00     0.022 C 
HETATM    4  C5  UNL     1     -35.549  15.888  -5.578  1.00 20.00     0.022 C 
HETATM    5  C6  UNL     1     -33.430  16.493  -2.742  1.00 20.00     0.272 C 
HETATM    6  C7  UNL     1     -34.941  17.886  -4.105  1.00 20.00     0.272 C 
HETATM    7  C8  UNL     1     -35.728  15.855  -3.080  1.00 20.00     0.290 C 
HETATM    8  C9  UNL     1     -35.386  15.016  -4.318  1.00 20.00     0.062 C 
HETATM    9  N10 UNL     1     -34.798  16.981  -2.959  1.00 20.00     0.089 N 
ENDROOT
BRANCH   8  10
HETATM   10  C1  UNL     1     -36.360  13.873  -4.425  1.00 20.00     0.229 C 
HETATM   11  O11 UNL     1     -35.982  12.714  -4.574  1.00 20.00    -0.279 OA
HETATM   12 CL12 UNL     1     -38.010  14.405  -4.311  1.00 20.00    -0.043 Cl
ENDBRANCH   8  10
TORSDOF 1
ENDMDL
MODEL 2
REMARK VINA RESULT:      -4.7      1.410      2.578
REMARK  1 active torsions:
REMARK  status: ('A' for Active; 'I' for Inactive)
REMARK    1  A    between atoms: C1_1  and  C9_9 
ROOT
HETATM    1  C2  UNL     1     -35.000  17.892  -4.552  1.00 20.00     0.031 C 
HETATM    2  C3  UNL     1     -34.769  16.983  -1.560  1.00 20.00     0.031 C 
HETATM    3  C4  UNL     1     -35.328  16.405  -4.684  1.00 20.00     0.022 C 
HETATM    4  C5  UNL     1     -35.135  15.656  -2.225  1.00 20.00     0.022 C 
HETATM    5  C6  UNL     1     -33.527  18.161  -4.235  1.00 20.00     0.272 C 
HETATM    6  C7  UNL     1     -33.345  17.447  -1.882  1.00 20.00     0.272 C 
HETATM    7  C8  UNL     1     -33.101  15.858  -3.674  1.00 20.00     0.290 C 
HETATM    8  C9  UNL     1     -34.596  15.512  -3.662  1.00 20.00     0.062 C 
HETATM    9  N10 UNL     1     -32.901  17.251  -3.267  1.00 20.00     0.089 N 
ENDROOT
BRANCH   8  10
HETATM   10  C1  UNL     1     -34.774  14.074  -4.073  1.00 20.00     0.229 C 
HETATM   11  O11 UNL     1     -33.825  13.297  -4.131  1.00 20.00    -0.279 OA
HETATM   12 CL12 UNL     1     -36.431  13.697  -4.435  1.00 20.00    -0.043 Cl
ENDBRANCH   8  10
TORSDOF 1
ENDMDL
MODEL 3
REMARK VINA RESULT:      -4.4     17.474     18.694
REMARK  1 active torsions:
REMARK  status: ('A' for Active; 'I' for Inactive)
REMARK    1  A    between atoms: C1_1  and  C9_9 
ROOT
HETATM    1  C2  UNL     1     -24.309  15.769  10.949  1.00 20.00     0.031 C 
HETATM    2  C3  UNL     1     -22.025  17.771  11.731  1.00 20.00     0.031 C 
HETATM    3  C4  UNL     1     -23.844  16.219   9.564  1.00 20.00     0.022 C 
HETATM    4  C5  UNL     1     -21.969  17.867  10.206  1.00 20.00     0.022 C 
HETATM    5  C6  UNL     1     -25.067  16.856  11.716  1.00 20.00     0.272 C 
HETATM    6  C7  UNL     1     -23.271  18.430  12.332  1.00 20.00     0.272 C 
HETATM    7  C8  UNL     1     -24.369  18.587  10.194  1.00 20.00     0.290 C 
HETATM    8  C9  UNL     1     -23.336  17.675   9.521  1.00 20.00     0.062 C 
HETATM    9  N10 UNL     1     -24.528  18.217  11.603  1.00 20.00     0.089 N 
ENDROOT
BRANCH   8  10
HETATM   10  C1  UNL     1     -23.184  18.081   8.078  1.00 20.00     0.229 C 
HETATM   11  O11 UNL     1     -22.197  17.767   7.419  1.00 20.00    -0.279 OA
HETATM   12 CL12 UNL     1     -24.540  19.010   7.513  1.00 20.00    -0.043 Cl
ENDBRANCH   8  10
TORSDOF 1
ENDMDL
MODEL 4
REMARK VINA RESULT:      -4.4      1.609      2.589
REMARK  1 active torsions:
REMARK  status: ('A' for Active; 'I' for Inactive)
REMARK    1  A    between atoms: C1_1  and  C9_9 
ROOT
HETATM    1  C2  UNL     1     -35.607  17.079  -1.693  1.00 20.00     0.031 C 
HETATM    2  C3  UNL     1     -32.817  17.718  -2.976  1.00 20.00     0.031 C 
HETATM    3  C4  UNL     1     -35.233  15.706  -2.252  1.00 20.00     0.022 C 
HETATM    4  C5  UNL     1     -32.942  16.232  -3.310  1.00 20.00     0.022 C 
HETATM    5  C6  UNL     1     -35.965  18.097  -2.779  1.00 20.00     0.272 C 
HETATM    6  C7  UNL     1     -33.772  18.601  -3.787  1.00 20.00     0.272 C 
HETATM    7  C8  UNL     1     -35.070  16.718  -4.539  1.00 20.00     0.290 C 
HETATM    8  C9  UNL     1     -34.393  15.767  -3.544  1.00 20.00     0.062 C 
HETATM    9  N10 UNL     1     -35.127  18.073  -3.985  1.00 20.00     0.089 N 
ENDROOT
BRANCH   8  10
HETATM   10  C1  UNL     1     -34.338  14.385  -4.141  1.00 20.00     0.229 C 
HETATM   11  O11 UNL     1     -33.274  13.860  -4.457  1.00 20.00    -0.279 OA
HETATM   12 CL12 UNL     1     -35.917  13.680  -4.306  1.00 20.00    -0.043 Cl
ENDBRANCH   8  10
TORSDOF 1
ENDMDL
MODEL 5
REMARK VINA RESULT:      -4.4      1.600      2.032
REMARK  1 active torsions:
REMARK  status: ('A' for Active; 'I' for Inactive)
REMARK    1  A    between atoms: C1_1  and  C9_9 
ROOT
HETATM    1  C2  UNL     1     -32.901  17.536  -2.298  1.00 20.00     0.031 C 
HETATM    2  C3  UNL     1     -35.467  18.073  -4.019  1.00 20.00     0.031 C 
HETATM    3  C4  UNL     1     -32.918  16.284  -3.177  1.00 20.00     0.022 C 
HETATM    4  C5  UNL     1     -35.029  16.724  -4.589  1.00 20.00     0.022 C 
HETATM    5  C6  UNL     1     -34.011  17.550  -1.244  1.00 20.00     0.272 C 
HETATM    6  C7  UNL     1     -36.030  17.973  -2.596  1.00 20.00     0.272 C 
HETATM    7  C8  UNL     1     -35.197  15.734  -2.293  1.00 20.00     0.290 C 
HETATM    8  C9  UNL     1     -34.335  15.811  -3.559  1.00 20.00     0.062 C 
HETATM    9  N10 UNL     1     -35.324  17.063  -1.687  1.00 20.00     0.089 N 
ENDROOT
BRANCH   8  10
HETATM   10  C1  UNL     1     -34.228  14.437  -4.167  1.00 20.00     0.229 C 
HETATM   11  O11 UNL     1     -33.152  13.979  -4.543  1.00 20.00    -0.279 OA
HETATM   12 CL12 UNL     1     -35.768  13.637  -4.254  1.00 20.00    -0.043 Cl
ENDBRANCH   8  10
TORSDOF 1
ENDMDL
MODEL 6
REMARK VINA RESULT:      -4.3      1.095      2.489
REMARK  1 active torsions:
REMARK  status: ('A' for Active; 'I' for Inactive)
REMARK    1  A    between atoms: C1_1  and  C9_9 
ROOT
HETATM    1  C2  UNL     1     -36.204  17.995  -3.974  1.00 20.00     0.031 C 
HETATM    2  C3  UNL     1     -34.080  16.271  -2.441  1.00 20.00     0.031 C 
HETATM    3  C4  UNL     1     -36.886  16.626  -3.992  1.00 20.00     0.022 C 
HETATM    4  C5  UNL     1     -35.138  15.208  -2.736  1.00 20.00     0.022 C 
HETATM    5  C6  UNL     1     -34.984  18.075  -4.894  1.00 20.00     0.272 C 
HETATM    6  C7  UNL     1     -33.312  16.721  -3.689  1.00 20.00     0.272 C 
HETATM    7  C8  UNL     1     -34.892  15.685  -5.183  1.00 20.00     0.290 C 
HETATM    8  C9  UNL     1     -35.901  15.441  -4.055  1.00 20.00     0.062 C 
HETATM    9  N10 UNL     1     -34.110  16.895  -4.908  1.00 20.00     0.089 N 
ENDROOT
BRANCH   8  10
HETATM   10  C1  UNL     1     -36.684  14.189  -4.355  1.00 20.00     0.229 C 
HETATM   11  O11 UNL     1     -36.127  13.130  -4.631  1.00 20.00    -0.279 OA
HETATM   12 CL12 UNL     1     -38.399  14.450  -4.259  1.00 20.00    -0.043 Cl
ENDBRANCH   8  10
TORSDOF 1
ENDMDL
MODEL 7
REMARK VINA RESULT:      -4.3      2.335      3.350
REMARK  1 active torsions:
REMARK  status: ('A' for Active; 'I' for Inactive)
REMARK    1  A    between atoms: C1_1  and  C9_9 
ROOT
HETATM    1  C2  UNL     1     -37.334  14.451  -4.148  1.00 20.00     0.031 C 
HETATM    2  C3  UNL     1     -35.486  16.108  -2.231  1.00 20.00     0.031 C 
HETATM    3  C4  UNL     1     -35.954  14.044  -4.666  1.00 20.00     0.022 C 
HETATM    4  C5  UNL     1     -34.435  15.408  -3.093  1.00 20.00     0.022 C 
HETATM    5  C6  UNL     1     -37.707  15.896  -4.492  1.00 20.00     0.272 C 
HETATM    6  C7  UNL     1     -36.255  17.199  -2.984  1.00 20.00     0.272 C 
HETATM    7  C8  UNL     1     -35.452  16.455  -5.129  1.00 20.00     0.290 C 
HETATM    8  C9  UNL     1     -34.890  15.154  -4.544  1.00 20.00     0.062 C 
HETATM    9  N10 UNL     1     -36.629  16.885  -4.368  1.00 20.00     0.089 N 
ENDROOT
BRANCH   8  10
HETATM   10  C1  UNL     1     -33.678  14.739  -5.336  1.00 20.00     0.229 C 
HETATM   11  O11 UNL     1     -33.708  14.644  -6.560  1.00 20.00    -0.279 OA
HETATM   12 CL12 UNL     1     -32.304  14.432  -4.318  1.00 20.00    -0.043 Cl
ENDBRANCH   8  10
TORSDOF 1
ENDMDL
MODEL 8
REMARK VINA RESULT:      -4.3      1.952      2.379
REMARK  1 active torsions:
REMARK  status: ('A' for Active; 'I' for Inactive)
REMARK    1  A    between atoms: C1_1  and  C9_9 
ROOT
HETATM    1  C2  UNL     1     -33.669  17.098  -1.981  1.00 20.00     0.031 C 
HETATM    2  C3  UNL     1     -35.381  18.088  -4.415  1.00 20.00     0.031 C 
HETATM    3  C4  UNL     1     -33.145  16.179  -3.086  1.00 20.00     0.022 C 
HETATM    4  C5  UNL     1     -34.555  16.990  -5.086  1.00 20.00     0.022 C 
HETATM    5  C6  UNL     1     -35.096  16.763  -1.542  1.00 20.00     0.272 C 
HETATM    6  C7  UNL     1     -36.444  17.542  -3.455  1.00 20.00     0.272 C 
HETATM    7  C8  UNL     1     -35.478  15.337  -3.445  1.00 20.00     0.290 C 
HETATM    8  C9  UNL     1     -34.203  15.818  -4.149  1.00 20.00     0.062 C 
HETATM    9  N10 UNL     1     -36.033  16.410  -2.616  1.00 20.00     0.089 N 
ENDROOT
BRANCH   8  10
HETATM   10  C1  UNL     1     -33.657  14.702  -5.001  1.00 20.00     0.229 C 
HETATM   11  O11 UNL     1     -33.108  13.721  -4.506  1.00 20.00    -0.279 OA
HETATM   12 CL12 UNL     1     -33.906  14.991  -6.696  1.00 20.00    -0.043 Cl
ENDBRANCH   8  10
TORSDOF 1
ENDMDL
MODEL 9
REMARK VINA RESULT:      -4.3      1.777      2.928
REMARK  1 active torsions:
REMARK  status: ('A' for Active; 'I' for Inactive)
REMARK    1  A    between atoms: C1_1  and  C9_9 
ROOT
HETATM    1  C2  UNL     1     -34.963  17.232  -5.833  1.00 20.00     0.031 C 
HETATM    2  C3  UNL     1     -34.024  15.552  -3.357  1.00 20.00     0.031 C 
HETATM    3  C4  UNL     1     -36.311  16.885  -5.201  1.00 20.00     0.022 C 
HETATM    4  C5  UNL     1     -35.540  15.501  -3.168  1.00 20.00     0.022 C 
HETATM    5  C6  UNL     1     -34.274  16.031  -6.487  1.00 20.00     0.272 C 
HETATM    6  C7  UNL     1     -33.534  14.710  -4.540  1.00 20.00     0.272 C 
HETATM    7  C8  UNL     1     -35.756  14.452  -5.433  1.00 20.00     0.290 C 
HETATM    8  C9  UNL     1     -36.332  15.516  -4.490  1.00 20.00     0.062 C 
HETATM    9  N10 UNL     1     -34.360  14.763  -5.753  1.00 20.00     0.089 N 
ENDROOT
BRANCH   8  10
HETATM   10  C1  UNL     1     -37.762  15.170  -4.169  1.00 20.00     0.229 C 
HETATM   11  O11 UNL     1     -38.170  14.013  -4.208  1.00 20.00    -0.279 OA
HETATM   12 CL12 UNL     1     -38.699  16.574  -3.758  1.00 20.00    -0.043 Cl
ENDBRANCH   8  10
TORSDOF 1
ENDMDL
