MODEL 1
REMARK VINA RESULT:      -6.0      0.000      0.000
REMARK  1 active torsions:
REMARK  status: ('A' for Active; 'I' for Inactive)
REMARK    1  A    between atoms: C1_1  and  C7_7 
ROOT
HETATM    1  C1  UNL     1     -32.892   7.086   2.645  1.00 20.00    -0.057 C 
HETATM    2  C2  UNL     1     -32.372   7.627   1.708  1.00 20.00     0.276 C 
HETATM    3  O10 UNL     1     -31.862   8.156   0.790  1.00 20.00    -0.274 OA
ENDROOT
BRANCH   1   4
HETATM    4  C7  UNL     1     -33.459   6.499   3.663  1.00 20.00     0.023 A 
HETATM    5  C5  UNL     1     -33.558   7.226   4.926  1.00 20.00     0.021 A 
HETATM    6  C3  UNL     1     -34.137   6.645   5.991  1.00 20.00     0.002 A 
HETATM    7  C4  UNL     1     -34.675   5.297   5.924  1.00 20.00     0.001 A 
HETATM    8  C6  UNL     1     -34.619   4.568   4.796  1.00 20.00     0.012 A 
HETATM    9  C8  UNL     1     -34.003   5.124   3.583  1.00 20.00    -0.027 A 
HETATM   10  C9  UNL     1     -33.960   4.372   2.469  1.00 20.00     0.025 C 
ENDBRANCH   1   4
TORSDOF 1
ENDMDL
MODEL 2
REMARK VINA RESULT:      -5.1      0.514      2.187
REMARK  1 active torsions:
REMARK  status: ('A' for Active; 'I' for Inactive)
REMARK    1  A    between atoms: C1_1  and  C7_7 
ROOT
HETATM    1  C1  UNL     1     -32.943   6.938   2.627  1.00 20.00    -0.057 C 
HETATM    2  C2  UNL     1     -32.401   7.442   1.681  1.00 20.00     0.276 C 
HETATM    3  O10 UNL     1     -31.871   7.936   0.755  1.00 20.00    -0.274 OA
ENDROOT
BRANCH   1   4
HETATM    4  C7  UNL     1     -33.532   6.392   3.654  1.00 20.00     0.023 A 
HETATM    5  C5  UNL     1     -34.350   5.200   3.441  1.00 20.00     0.021 A 
HETATM    6  C3  UNL     1     -34.969   4.616   4.483  1.00 20.00     0.002 A 
HETATM    7  C4  UNL     1     -34.847   5.140   5.832  1.00 20.00     0.001 A 
HETATM    8  C6  UNL     1     -34.111   6.232   6.103  1.00 20.00     0.012 A 
HETATM    9  C8  UNL     1     -33.401   6.934   5.026  1.00 20.00    -0.027 A 
HETATM   10  C9  UNL     1     -32.673   8.025   5.326  1.00 20.00     0.025 C 
ENDBRANCH   1   4
TORSDOF 1
ENDMDL
MODEL 3
REMARK VINA RESULT:      -5.0     11.862     12.207
REMARK  1 active torsions:
REMARK  status: ('A' for Active; 'I' for Inactive)
REMARK    1  A    between atoms: C1_1  and  C7_7 
ROOT
HETATM    1  C1  UNL     1     -36.083  15.019  -3.599  1.00 20.00    -0.057 C 
HETATM    2  C2  UNL     1     -36.967  14.354  -4.067  1.00 20.00     0.276 C 
HETATM    3  O10 UNL     1     -37.833  13.703  -4.524  1.00 20.00    -0.274 OA
ENDROOT
BRANCH   1   4
HETATM    4  C7  UNL     1     -35.123  15.742  -3.091  1.00 20.00     0.023 A 
HETATM    5  C5  UNL     1     -35.441  16.669  -2.008  1.00 20.00     0.021 A 
HETATM    6  C3  UNL     1     -34.471  17.426  -1.466  1.00 20.00     0.002 A 
HETATM    7  C4  UNL     1     -33.097  17.350  -1.931  1.00 20.00     0.001 A 
HETATM    8  C6  UNL     1     -32.731  16.520  -2.923  1.00 20.00     0.012 A 
HETATM    9  C8  UNL     1     -33.726  15.656  -3.573  1.00 20.00    -0.027 A 
HETATM   10  C9  UNL     1     -33.331  14.837  -4.564  1.00 20.00     0.025 C 
ENDBRANCH   1   4
TORSDOF 1
ENDMDL
MODEL 4
REMARK VINA RESULT:      -4.9     11.561     12.288
REMARK  1 active torsions:
REMARK  status: ('A' for Active; 'I' for Inactive)
REMARK    1  A    between atoms: C1_1  and  C7_7 
ROOT
HETATM    1  C1  UNL     1     -32.719  17.379  -2.130  1.00 20.00    -0.057 C 
HETATM    2  C2  UNL     1     -32.067  18.250  -1.622  1.00 20.00     0.276 C 
HETATM    3  O10 UNL     1     -31.430  19.104  -1.125  1.00 20.00    -0.274 OA
ENDROOT
BRANCH   1   4
HETATM    4  C7  UNL     1     -33.426  16.431  -2.681  1.00 20.00     0.023 A 
HETATM    5  C5  UNL     1     -32.823  15.639  -3.750  1.00 20.00     0.021 A 
HETATM    6  C3  UNL     1     -33.529  14.656  -4.336  1.00 20.00     0.002 A 
HETATM    7  C4  UNL     1     -34.892  14.353  -3.933  1.00 20.00     0.001 A 
HETATM    8  C6  UNL     1     -35.510  15.040  -2.957  1.00 20.00     0.012 A 
HETATM    9  C8  UNL     1     -34.814  16.132  -2.263  1.00 20.00    -0.027 A 
HETATM   10  C9  UNL     1     -35.458  16.802  -1.291  1.00 20.00     0.025 C 
ENDBRANCH   1   4
TORSDOF 1
ENDMDL
MODEL 5
REMARK VINA RESULT:      -4.7     16.204     16.892
REMARK  1 active torsions:
REMARK  status: ('A' for Active; 'I' for Inactive)
REMARK    1  A    between atoms: C1_1  and  C7_7 
ROOT
HETATM    1  C1  UNL     1     -24.091  18.719   8.340  1.00 20.00    -0.057 C 
HETATM    2  C2  UNL     1     -24.296  18.986   7.187  1.00 20.00     0.276 C 
HETATM    3  O10 UNL     1     -24.496  19.247   6.059  1.00 20.00    -0.274 OA
ENDROOT
BRANCH   1   4
HETATM    4  C7  UNL     1     -23.869  18.429   9.592  1.00 20.00     0.023 A 
HETATM    5  C5  UNL     1     -24.992  18.456  10.527  1.00 20.00     0.021 A 
HETATM    6  C3  UNL     1     -24.792  18.161  11.824  1.00 20.00     0.002 A 
HETATM    7  C4  UNL     1     -23.476  17.813  12.332  1.00 20.00     0.001 A 
HETATM    8  C6  UNL     1     -22.398  17.769  11.530  1.00 20.00     0.012 A 
HETATM    9  C8  UNL     1     -22.524  18.076  10.099  1.00 20.00    -0.027 A 
HETATM   10  C9  UNL     1     -21.428  18.025   9.321  1.00 20.00     0.025 C 
ENDBRANCH   1   4
TORSDOF 1
ENDMDL
MODEL 6
REMARK VINA RESULT:      -4.7     16.193     16.643
REMARK  1 active torsions:
REMARK  status: ('A' for Active; 'I' for Inactive)
REMARK    1  A    between atoms: C1_1  and  C7_7 
ROOT
HETATM    1  C1  UNL     1     -22.755  17.532   8.910  1.00 20.00    -0.057 C 
HETATM    2  C2  UNL     1     -22.060  17.246   7.974  1.00 20.00     0.276 C 
HETATM    3  O10 UNL     1     -21.379  16.965   7.057  1.00 20.00    -0.274 OA
ENDROOT
BRANCH   1   4
HETATM    4  C7  UNL     1     -23.511  17.843   9.926  1.00 20.00     0.023 A 
HETATM    5  C5  UNL     1     -23.096  17.424  11.263  1.00 20.00     0.021 A 
HETATM    6  C3  UNL     1     -23.856  17.732  12.328  1.00 20.00     0.002 A 
HETATM    7  C4  UNL     1     -25.095  18.478  12.190  1.00 20.00     0.001 A 
HETATM    8  C6  UNL     1     -25.539  18.896  10.992  1.00 20.00     0.012 A 
HETATM    9  C8  UNL     1     -24.772  18.604   9.773  1.00 20.00    -0.027 A 
HETATM   10  C9  UNL     1     -25.240  19.034   8.588  1.00 20.00     0.025 C 
ENDBRANCH   1   4
TORSDOF 1
ENDMDL
MODEL 7
REMARK VINA RESULT:      -4.5     11.549     12.370
REMARK  1 active torsions:
REMARK  status: ('A' for Active; 'I' for Inactive)
REMARK    1  A    between atoms: C1_1  and  C7_7 
ROOT
HETATM    1  C1  UNL     1     -35.337  16.873  -1.115  1.00 20.00    -0.057 C 
HETATM    2  C2  UNL     1     -35.904  17.424  -0.210  1.00 20.00     0.276 C 
HETATM    3  O10 UNL     1     -36.459  17.963   0.675  1.00 20.00    -0.274 OA
ENDROOT
BRANCH   1   4
HETATM    4  C7  UNL     1     -34.721  16.275  -2.096  1.00 20.00     0.023 A 
HETATM    5  C5  UNL     1     -35.403  15.184  -2.790  1.00 20.00     0.021 A 
HETATM    6  C3  UNL     1     -34.791  14.549  -3.806  1.00 20.00     0.002 A 
HETATM    7  C4  UNL     1     -33.456  14.919  -4.241  1.00 20.00     0.001 A 
HETATM    8  C6  UNL     1     -32.769  15.912  -3.649  1.00 20.00     0.012 A 
HETATM    9  C8  UNL     1     -33.359  16.660  -2.531  1.00 20.00    -0.027 A 
HETATM   10  C9  UNL     1     -32.648  17.647  -1.958  1.00 20.00     0.025 C 
ENDBRANCH   1   4
TORSDOF 1
ENDMDL
MODEL 8
REMARK VINA RESULT:      -4.5     15.840     16.784
REMARK  1 active torsions:
REMARK  status: ('A' for Active; 'I' for Inactive)
REMARK    1  A    between atoms: C1_1  and  C7_7 
ROOT
HETATM    1  C1  UNL     1     -24.682  18.703   8.681  1.00 20.00    -0.057 C 
HETATM    2  C2  UNL     1     -25.192  18.964   7.625  1.00 20.00     0.276 C 
HETATM    3  O10 UNL     1     -25.691  19.220   6.592  1.00 20.00    -0.274 OA
ENDROOT
BRANCH   1   4
HETATM    4  C7  UNL     1     -24.128  18.420   9.827  1.00 20.00     0.023 A 
HETATM    5  C5  UNL     1     -22.719  18.033   9.848  1.00 20.00     0.021 A 
HETATM    6  C3  UNL     1     -22.123  17.735  11.015  1.00 20.00     0.002 A 
HETATM    7  C4  UNL     1     -22.845  17.788  12.275  1.00 20.00     0.001 A 
HETATM    8  C6  UNL     1     -24.142  18.136  12.332  1.00 20.00     0.012 A 
HETATM    9  C8  UNL     1     -24.874  18.477  11.105  1.00 20.00    -0.027 A 
HETATM   10  C9  UNL     1     -26.171  18.821  11.192  1.00 20.00     0.025 C 
ENDBRANCH   1   4
TORSDOF 1
ENDMDL
MODEL 9
REMARK VINA RESULT:      -4.4     16.330     16.400
REMARK  1 active torsions:
REMARK  status: ('A' for Active; 'I' for Inactive)
REMARK    1  A    between atoms: C1_1  and  C7_7 
ROOT
HETATM    1  C1  UNL     1     -23.239  17.483   9.341  1.00 20.00    -0.057 C 
HETATM    2  C2  UNL     1     -22.353  17.144   8.604  1.00 20.00     0.276 C 
HETATM    3  O10 UNL     1     -21.486  16.813   7.883  1.00 20.00    -0.274 OA
ENDROOT
BRANCH   1   4
HETATM    4  C7  UNL     1     -24.201  17.849  10.142  1.00 20.00     0.023 A 
HETATM    5  C5  UNL     1     -25.145  18.866   9.684  1.00 20.00     0.021 A 
HETATM    6  C3  UNL     1     -26.147  19.263  10.488  1.00 20.00     0.002 A 
HETATM    7  C4  UNL     1     -26.323  18.704  11.818  1.00 20.00     0.001 A 
HETATM    8  C6  UNL     1     -25.493  17.765  12.305  1.00 20.00     0.012 A 
HETATM    9  C8  UNL     1     -24.370  17.273  11.495  1.00 20.00    -0.027 A 
HETATM   10  C9  UNL     1     -23.556  16.334  12.009  1.00 20.00     0.025 C 
ENDBRANCH   1   4
TORSDOF 1
ENDMDL
