MODEL 1
REMARK VINA RESULT:      -5.0      0.000      0.000
REMARK  0 active torsions:
REMARK  status: ('A' for Active; 'I' for Inactive)
ROOT
HETATM    1  C1  UNL     1     -33.535   7.016   4.676  1.00 20.00     0.352 C 
HETATM    2  C2  UNL     1     -34.782   5.160   4.433  1.00 20.00     0.451 C 
HETATM    3  C3  UNL     1     -34.560   5.420   5.884  1.00 20.00     0.451 C 
HETATM    4  O4  UNL     1     -33.784   5.929   3.777  1.00 20.00    -0.294 OA
HETATM    5  O5  UNL     1     -34.159   6.780   5.947  1.00 20.00    -0.294 OA
HETATM    6  F6  UNL     1     -35.990   5.607   4.028  1.00 20.00    -0.166 F 
HETATM    7  F7  UNL     1     -34.672   3.861   4.106  1.00 20.00    -0.166 F 
HETATM    8  F8  UNL     1     -33.555   4.662   6.376  1.00 20.00    -0.166 F 
HETATM    9  F9  UNL     1     -35.659   5.214   6.631  1.00 20.00    -0.166 F 
ENDROOT
TORSDOF 0
ENDMDL
MODEL 2
REMARK VINA RESULT:      -5.0      0.002      2.552
REMARK  0 active torsions:
REMARK  status: ('A' for Active; 'I' for Inactive)
ROOT
HETATM    1  C1  UNL     1     -33.537   7.017   4.679  1.00 20.00     0.352 C 
HETATM    2  C2  UNL     1     -34.560   5.418   5.884  1.00 20.00     0.451 C 
HETATM    3  C3  UNL     1     -34.781   5.161   4.433  1.00 20.00     0.451 C 
HETATM    4  O4  UNL     1     -34.158   6.778   5.948  1.00 20.00    -0.294 OA
HETATM    5  O5  UNL     1     -33.784   5.930   3.778  1.00 20.00    -0.294 OA
HETATM    6  F6  UNL     1     -33.555   4.660   6.375  1.00 20.00    -0.166 F 
HETATM    7  F7  UNL     1     -35.659   5.211   6.632  1.00 20.00    -0.166 F 
HETATM    8  F8  UNL     1     -35.990   5.608   4.028  1.00 20.00    -0.166 F 
HETATM    9  F9  UNL     1     -34.672   3.861   4.104  1.00 20.00    -0.166 F 
ENDROOT
TORSDOF 0
ENDMDL
MODEL 3
REMARK VINA RESULT:      -4.7      1.525      2.619
REMARK  0 active torsions:
REMARK  status: ('A' for Active; 'I' for Inactive)
ROOT
HETATM    1  C1  UNL     1     -33.560   4.648   3.061  1.00 20.00     0.352 C 
HETATM    2  C2  UNL     1     -34.052   6.392   4.392  1.00 20.00     0.451 C 
HETATM    3  C3  UNL     1     -35.016   5.285   4.652  1.00 20.00     0.451 C 
HETATM    4  O4  UNL     1     -33.478   6.076   3.133  1.00 20.00    -0.294 OA
HETATM    5  O5  UNL     1     -34.389   4.132   4.112  1.00 20.00    -0.294 OA
HETATM    6  F6  UNL     1     -33.063   6.415   5.311  1.00 20.00    -0.166 F 
HETATM    7  F7  UNL     1     -34.636   7.603   4.359  1.00 20.00    -0.166 F 
HETATM    8  F8  UNL     1     -36.181   5.476   3.996  1.00 20.00    -0.166 F 
HETATM    9  F9  UNL     1     -35.282   5.112   5.959  1.00 20.00    -0.166 F 
ENDROOT
TORSDOF 0
ENDMDL
MODEL 4
REMARK VINA RESULT:      -4.7      1.522      2.258
REMARK  0 active torsions:
REMARK  status: ('A' for Active; 'I' for Inactive)
ROOT
HETATM    1  C1  UNL     1     -33.557   4.651   3.066  1.00 20.00     0.352 C 
HETATM    2  C2  UNL     1     -35.019   5.279   4.655  1.00 20.00     0.451 C 
HETATM    3  C3  UNL     1     -34.058   6.390   4.401  1.00 20.00     0.451 C 
HETATM    4  O4  UNL     1     -34.387   4.130   4.112  1.00 20.00    -0.294 OA
HETATM    5  O5  UNL     1     -33.480   6.082   3.142  1.00 20.00    -0.294 OA
HETATM    6  F6  UNL     1     -36.183   5.469   3.998  1.00 20.00    -0.166 F 
HETATM    7  F7  UNL     1     -35.287   5.101   5.961  1.00 20.00    -0.166 F 
HETATM    8  F8  UNL     1     -33.070   6.413   5.323  1.00 20.00    -0.166 F 
HETATM    9  F9  UNL     1     -34.645   7.599   4.371  1.00 20.00    -0.166 F 
ENDROOT
TORSDOF 0
ENDMDL
MODEL 5
REMARK VINA RESULT:      -4.4      1.494      1.987
REMARK  0 active torsions:
REMARK  status: ('A' for Active; 'I' for Inactive)
ROOT
HETATM    1  C1  UNL     1     -33.981   6.530   6.223  1.00 20.00     0.352 C 
HETATM    2  C2  UNL     1     -33.937   6.299   3.987  1.00 20.00     0.451 C 
HETATM    3  C3  UNL     1     -34.840   5.267   4.573  1.00 20.00     0.451 C 
HETATM    4  O4  UNL     1     -33.144   6.740   5.079  1.00 20.00    -0.294 OA
HETATM    5  O5  UNL     1     -35.131   5.746   5.876  1.00 20.00    -0.294 OA
HETATM    6  F6  UNL     1     -34.632   7.358   3.517  1.00 20.00    -0.166 F 
HETATM    7  F7  UNL     1     -33.161   5.822   2.998  1.00 20.00    -0.166 F 
HETATM    8  F8  UNL     1     -34.218   4.074   4.692  1.00 20.00    -0.166 F 
HETATM    9  F9  UNL     1     -35.971   5.093   3.867  1.00 20.00    -0.166 F 
ENDROOT
TORSDOF 0
ENDMDL
MODEL 6
REMARK VINA RESULT:      -4.4      1.494      2.610
REMARK  0 active torsions:
REMARK  status: ('A' for Active; 'I' for Inactive)
ROOT
HETATM    1  C1  UNL     1     -33.980   6.531   6.222  1.00 20.00     0.352 C 
HETATM    2  C2  UNL     1     -34.840   5.268   4.572  1.00 20.00     0.451 C 
HETATM    3  C3  UNL     1     -33.937   6.299   3.986  1.00 20.00     0.451 C 
HETATM    4  O4  UNL     1     -35.130   5.748   5.877  1.00 20.00    -0.294 OA
HETATM    5  O5  UNL     1     -33.143   6.740   5.076  1.00 20.00    -0.294 OA
HETATM    6  F6  UNL     1     -34.219   4.075   4.692  1.00 20.00    -0.166 F 
HETATM    7  F7  UNL     1     -35.972   5.095   3.868  1.00 20.00    -0.166 F 
HETATM    8  F8  UNL     1     -34.632   7.359   3.516  1.00 20.00    -0.166 F 
HETATM    9  F9  UNL     1     -33.162   5.821   2.996  1.00 20.00    -0.166 F 
ENDROOT
TORSDOF 0
ENDMDL
MODEL 7
REMARK VINA RESULT:      -4.2     16.802     17.766
REMARK  0 active torsions:
REMARK  status: ('A' for Active; 'I' for Inactive)
ROOT
HETATM    1  C1  UNL     1     -24.439  16.187  11.015  1.00 20.00     0.352 C 
HETATM    2  C2  UNL     1     -22.822  17.593  11.697  1.00 20.00     0.451 C 
HETATM    3  C3  UNL     1     -22.972  17.693  10.217  1.00 20.00     0.451 C 
HETATM    4  O4  UNL     1     -23.450  16.365  12.036  1.00 20.00    -0.294 OA
HETATM    5  O5  UNL     1     -24.245  17.126   9.948  1.00 20.00    -0.294 OA
HETATM    6  F6  UNL     1     -23.477  18.589  12.332  1.00 20.00    -0.166 F 
HETATM    7  F7  UNL     1     -21.539  17.597  12.100  1.00 20.00    -0.166 F 
HETATM    8  F8  UNL     1     -22.040  16.959   9.572  1.00 20.00    -0.166 F 
HETATM    9  F9  UNL     1     -22.911  18.959   9.765  1.00 20.00    -0.166 F 
ENDROOT
TORSDOF 0
ENDMDL
MODEL 8
REMARK VINA RESULT:      -4.2     12.435     13.327
REMARK  0 active torsions:
REMARK  status: ('A' for Active; 'I' for Inactive)
ROOT
HETATM    1  C1  UNL     1     -34.718  15.393  -5.948  1.00 20.00     0.352 C 
HETATM    2  C2  UNL     1     -33.862  15.021  -3.902  1.00 20.00     0.451 C 
HETATM    3  C3  UNL     1     -35.010  14.099  -4.132  1.00 20.00     0.451 C 
HETATM    4  O4  UNL     1     -34.024  16.042  -4.875  1.00 20.00    -0.294 OA
HETATM    5  O5  UNL     1     -35.195  14.103  -5.539  1.00 20.00    -0.294 OA
HETATM    6  F6  UNL     1     -32.679  14.409  -4.129  1.00 20.00    -0.166 F 
HETATM    7  F7  UNL     1     -33.844  15.545  -2.663  1.00 20.00    -0.166 F 
HETATM    8  F8  UNL     1     -36.142  14.561  -3.558  1.00 20.00    -0.166 F 
HETATM    9  F9  UNL     1     -34.781  12.850  -3.687  1.00 20.00    -0.166 F 
ENDROOT
TORSDOF 0
ENDMDL
MODEL 9
REMARK VINA RESULT:      -4.2     12.427     13.193
REMARK  0 active torsions:
REMARK  status: ('A' for Active; 'I' for Inactive)
ROOT
HETATM    1  C1  UNL     1     -34.733  15.349  -5.977  1.00 20.00     0.352 C 
HETATM    2  C2  UNL     1     -35.024  14.082  -4.142  1.00 20.00     0.451 C 
HETATM    3  C3  UNL     1     -33.860  14.989  -3.936  1.00 20.00     0.451 C 
HETATM    4  O4  UNL     1     -35.225  14.074  -5.548  1.00 20.00    -0.294 OA
HETATM    5  O5  UNL     1     -34.017  16.001  -4.918  1.00 20.00    -0.294 OA
HETATM    6  F6  UNL     1     -36.142  14.569  -3.561  1.00 20.00    -0.166 F 
HETATM    7  F7  UNL     1     -34.811  12.835  -3.685  1.00 20.00    -0.166 F 
HETATM    8  F8  UNL     1     -32.689  14.355  -4.169  1.00 20.00    -0.166 F 
HETATM    9  F9  UNL     1     -33.820  15.526  -2.703  1.00 20.00    -0.166 F 
ENDROOT
TORSDOF 0
ENDMDL
