MODEL 1
REMARK VINA RESULT:      -4.5      0.000      0.000
REMARK  2 active torsions:
REMARK  status: ('A' for Active; 'I' for Inactive)
REMARK    1  A    between atoms: C3_3  and  C5_5 
REMARK    2  A    between atoms: C4_4  and  C9_9 
ROOT
HETATM    1  C1  UNL     1     -35.069  16.776  -5.471  1.00 20.00     0.005 C 
HETATM    2  C2  UNL     1     -36.265  16.696  -6.042  1.00 20.00     0.132 C 
HETATM    3  C4  UNL     1     -34.460  15.422  -5.465  1.00 20.00     0.050 C 
HETATM    4  C5  UNL     1     -35.648  14.565  -5.934  1.00 20.00     0.204 C 
HETATM    5  O11 UNL     1     -36.669  15.444  -6.451  1.00 20.00    -0.350 OA
ENDROOT
BRANCH   3   6
HETATM    6  C9  UNL     1     -33.844  15.034  -4.127  1.00 20.00    -0.012 C 
HETATM    7  C7  UNL     1     -32.491  14.352  -4.330  1.00 20.00     0.010 C 
HETATM    8  C8  UNL     1     -33.695  16.259  -3.224  1.00 20.00     0.010 C 
ENDBRANCH   3   6
BRANCH   4   9
HETATM    9  C3  UNL     1     -36.329  13.764  -4.864  1.00 20.00     0.152 C 
HETATM   10  C6  UNL     1     -37.540  14.384  -4.222  1.00 20.00     0.093 C 
HETATM   11  O10 UNL     1     -35.917  12.654  -4.529  1.00 20.00    -0.296 OA
ENDBRANCH   4   9
TORSDOF 2
ENDMDL
MODEL 2
REMARK VINA RESULT:      -4.5      1.612      3.002
REMARK  2 active torsions:
REMARK  status: ('A' for Active; 'I' for Inactive)
REMARK    1  A    between atoms: C3_3  and  C5_5 
REMARK    2  A    between atoms: C4_4  and  C9_9 
ROOT
HETATM    1  C1  UNL     1     -33.357  15.720  -3.729  1.00 20.00     0.005 C 
HETATM    2  C2  UNL     1     -33.017  14.679  -4.477  1.00 20.00     0.132 C 
HETATM    3  C4  UNL     1     -34.593  15.379  -2.980  1.00 20.00     0.050 C 
HETATM    4  C5  UNL     1     -34.974  14.043  -3.641  1.00 20.00     0.204 C 
HETATM    5  O11 UNL     1     -33.852  13.583  -4.424  1.00 20.00    -0.350 OA
ENDROOT
BRANCH   3   6
HETATM    6  C9  UNL     1     -35.654  16.470  -3.020  1.00 20.00    -0.012 C 
HETATM    7  C7  UNL     1     -35.878  17.060  -1.628  1.00 20.00     0.010 C 
HETATM    8  C8  UNL     1     -35.265  17.568  -4.010  1.00 20.00     0.010 C 
ENDBRANCH   3   6
BRANCH   4   9
HETATM    9  C3  UNL     1     -36.122  14.103  -4.605  1.00 20.00     0.152 C 
HETATM   10  C6  UNL     1     -35.797  14.501  -6.020  1.00 20.00     0.093 C 
HETATM   11  O10 UNL     1     -37.271  13.840  -4.256  1.00 20.00    -0.296 OA
ENDBRANCH   4   9
TORSDOF 2
ENDMDL
MODEL 3
REMARK VINA RESULT:      -4.2      1.816      3.094
REMARK  2 active torsions:
REMARK  status: ('A' for Active; 'I' for Inactive)
REMARK    1  A    between atoms: C3_3  and  C5_5 
REMARK    2  A    between atoms: C4_4  and  C9_9 
ROOT
HETATM    1  C1  UNL     1     -33.244  15.293  -3.794  1.00 20.00     0.005 C 
HETATM    2  C2  UNL     1     -33.667  14.761  -4.934  1.00 20.00     0.132 C 
HETATM    3  C4  UNL     1     -34.419  15.514  -2.913  1.00 20.00     0.050 C 
HETATM    4  C5  UNL     1     -35.572  15.209  -3.884  1.00 20.00     0.204 C 
HETATM    5  O11 UNL     1     -35.026  14.570  -5.057  1.00 20.00    -0.350 OA
ENDROOT
BRANCH   3   6
HETATM    6  C9  UNL     1     -34.442  16.888  -2.258  1.00 20.00    -0.012 C 
HETATM    7  C7  UNL     1     -35.168  16.835  -0.913  1.00 20.00     0.010 C 
HETATM    8  C8  UNL     1     -33.023  17.427  -2.078  1.00 20.00     0.010 C 
ENDBRANCH   3   6
BRANCH   4   9
HETATM    9  C3  UNL     1     -36.312  16.407  -4.404  1.00 20.00     0.152 C 
HETATM   10  C6  UNL     1     -37.658  16.687  -3.793  1.00 20.00     0.093 C 
HETATM   11  O10 UNL     1     -35.840  17.124  -5.284  1.00 20.00    -0.296 OA
ENDBRANCH   4   9
TORSDOF 2
ENDMDL
MODEL 4
REMARK VINA RESULT:      -4.2      1.725      3.033
REMARK  2 active torsions:
REMARK  status: ('A' for Active; 'I' for Inactive)
REMARK    1  A    between atoms: C3_3  and  C5_5 
REMARK    2  A    between atoms: C4_4  and  C9_9 
ROOT
HETATM    1  C1  UNL     1     -36.065  14.661  -3.818  1.00 20.00     0.005 C 
HETATM    2  C2  UNL     1     -36.203  13.594  -4.593  1.00 20.00     0.132 C 
HETATM    3  C4  UNL     1     -35.878  15.852  -4.686  1.00 20.00     0.050 C 
HETATM    4  C5  UNL     1     -35.717  15.186  -6.063  1.00 20.00     0.204 C 
HETATM    5  O11 UNL     1     -36.117  13.804  -5.952  1.00 20.00    -0.350 OA
ENDROOT
BRANCH   3   6
HETATM    6  C9  UNL     1     -34.736  16.758  -4.244  1.00 20.00    -0.012 C 
HETATM    7  C7  UNL     1     -35.233  18.187  -4.021  1.00 20.00     0.010 C 
HETATM    8  C8  UNL     1     -34.076  16.218  -2.976  1.00 20.00     0.010 C 
ENDBRANCH   3   6
BRANCH   4   9
HETATM    9  C3  UNL     1     -34.316  15.143  -6.599  1.00 20.00     0.152 C 
HETATM   10  C6  UNL     1     -34.032  15.979  -7.817  1.00 20.00     0.093 C 
HETATM   11  O10 UNL     1     -33.443  14.458  -6.068  1.00 20.00    -0.296 OA
ENDBRANCH   4   9
TORSDOF 2
ENDMDL
MODEL 5
REMARK VINA RESULT:      -4.2      1.503      2.974
REMARK  2 active torsions:
REMARK  status: ('A' for Active; 'I' for Inactive)
REMARK    1  A    between atoms: C3_3  and  C5_5 
REMARK    2  A    between atoms: C4_4  and  C9_9 
ROOT
HETATM    1  C1  UNL     1     -35.236  13.922  -4.069  1.00 20.00     0.005 C 
HETATM    2  C2  UNL     1     -36.239  13.635  -4.888  1.00 20.00     0.132 C 
HETATM    3  C4  UNL     1     -35.597  15.132  -3.288  1.00 20.00     0.050 C 
HETATM    4  C5  UNL     1     -36.886  15.568  -4.007  1.00 20.00     0.204 C 
HETATM    5  O11 UNL     1     -37.320  14.489  -4.862  1.00 20.00    -0.350 OA
ENDROOT
BRANCH   3   6
HETATM    6  C9  UNL     1     -34.486  16.172  -3.221  1.00 20.00    -0.012 C 
HETATM    7  C7  UNL     1     -34.358  16.738  -1.807  1.00 20.00     0.010 C 
HETATM    8  C8  UNL     1     -33.157  15.573  -3.680  1.00 20.00     0.010 C 
ENDBRANCH   3   6
BRANCH   4   9
HETATM    9  C3  UNL     1     -36.749  16.754  -4.916  1.00 20.00     0.152 C 
HETATM   10  C6  UNL     1     -37.245  18.072  -4.388  1.00 20.00     0.093 C 
HETATM   11  O10 UNL     1     -36.255  16.652  -6.038  1.00 20.00    -0.296 OA
ENDBRANCH   4   9
TORSDOF 2
ENDMDL
MODEL 6
REMARK VINA RESULT:      -4.1      1.568      2.680
REMARK  2 active torsions:
REMARK  status: ('A' for Active; 'I' for Inactive)
REMARK    1  A    between atoms: C3_3  and  C5_5 
REMARK    2  A    between atoms: C4_4  and  C9_9 
ROOT
HETATM    1  C1  UNL     1     -36.541  16.542  -3.443  1.00 20.00     0.005 C 
HETATM    2  C2  UNL     1     -36.972  15.823  -4.472  1.00 20.00     0.132 C 
HETATM    3  C4  UNL     1     -35.069  16.699  -3.564  1.00 20.00     0.050 C 
HETATM    4  C5  UNL     1     -34.768  15.740  -4.728  1.00 20.00     0.204 C 
HETATM    5  O11 UNL     1     -36.015  15.379  -5.358  1.00 20.00    -0.350 OA
ENDROOT
BRANCH   3   6
HETATM    6  C9  UNL     1     -34.316  16.434  -2.267  1.00 20.00    -0.012 C 
HETATM    7  C7  UNL     1     -33.047  17.283  -2.194  1.00 20.00     0.010 C 
HETATM    8  C8  UNL     1     -35.210  16.704  -1.057  1.00 20.00     0.010 C 
ENDBRANCH   3   6
BRANCH   4   9
HETATM    9  C3  UNL     1     -34.136  14.435  -4.341  1.00 20.00     0.152 C 
HETATM   10  C6  UNL     1     -32.637  14.356  -4.431  1.00 20.00     0.093 C 
HETATM   11  O10 UNL     1     -34.812  13.477  -3.968  1.00 20.00    -0.296 OA
ENDBRANCH   4   9
TORSDOF 2
ENDMDL
MODEL 7
REMARK VINA RESULT:      -4.1      1.501      3.444
REMARK  2 active torsions:
REMARK  status: ('A' for Active; 'I' for Inactive)
REMARK    1  A    between atoms: C3_3  and  C5_5 
REMARK    2  A    between atoms: C4_4  and  C9_9 
ROOT
HETATM    1  C1  UNL     1     -36.072  14.386  -5.568  1.00 20.00     0.005 C 
HETATM    2  C2  UNL     1     -35.953  13.456  -4.630  1.00 20.00     0.132 C 
HETATM    3  C4  UNL     1     -34.836  15.209  -5.574  1.00 20.00     0.050 C 
HETATM    4  C5  UNL     1     -34.130  14.684  -4.311  1.00 20.00     0.204 C 
HETATM    5  O11 UNL     1     -34.792  13.473  -3.888  1.00 20.00    -0.350 OA
ENDROOT
BRANCH   3   6
HETATM    6  C9  UNL     1     -35.098  16.708  -5.618  1.00 20.00    -0.012 C 
HETATM    7  C7  UNL     1     -34.455  17.335  -6.855  1.00 20.00     0.010 C 
HETATM    8  C8  UNL     1     -36.599  16.996  -5.592  1.00 20.00     0.010 C 
ENDBRANCH   3   6
BRANCH   4   9
HETATM    9  C3  UNL     1     -34.182  15.593  -3.118  1.00 20.00     0.152 C 
HETATM   10  C6  UNL     1     -33.014  16.519  -2.923  1.00 20.00     0.093 C 
HETATM   11  O10 UNL     1     -35.134  15.580  -2.339  1.00 20.00    -0.296 OA
ENDBRANCH   4   9
TORSDOF 2
ENDMDL
MODEL 8
REMARK VINA RESULT:      -4.0      1.620      2.552
REMARK  2 active torsions:
REMARK  status: ('A' for Active; 'I' for Inactive)
REMARK    1  A    between atoms: C3_3  and  C5_5 
REMARK    2  A    between atoms: C4_4  and  C9_9 
ROOT
HETATM    1  C1  UNL     1     -37.230  15.846  -5.537  1.00 20.00     0.005 C 
HETATM    2  C2  UNL     1     -37.834  15.219  -4.536  1.00 20.00     0.132 C 
HETATM    3  C4  UNL     1     -36.133  14.980  -6.040  1.00 20.00     0.050 C 
HETATM    4  C5  UNL     1     -36.123  13.873  -4.973  1.00 20.00     0.204 C 
HETATM    5  O11 UNL     1     -37.325  13.989  -4.182  1.00 20.00    -0.350 OA
ENDROOT
BRANCH   3   6
HETATM    6  C9  UNL     1     -34.818  15.718  -6.250  1.00 20.00    -0.012 C 
HETATM    7  C7  UNL     1     -34.140  15.261  -7.542  1.00 20.00     0.010 C 
HETATM    8  C8  UNL     1     -35.042  17.230  -6.270  1.00 20.00     0.010 C 
ENDBRANCH   3   6
BRANCH   4   9
HETATM    9  C3  UNL     1     -34.998  13.941  -3.983  1.00 20.00     0.152 C 
HETATM   10  C6  UNL     1     -35.043  15.064  -2.983  1.00 20.00     0.093 C 
HETATM   11  O10 UNL     1     -34.083  13.118  -3.989  1.00 20.00    -0.296 OA
ENDBRANCH   4   9
TORSDOF 2
ENDMDL
MODEL 9
REMARK VINA RESULT:      -4.0      1.700      1.954
REMARK  2 active torsions:
REMARK  status: ('A' for Active; 'I' for Inactive)
REMARK    1  A    between atoms: C3_3  and  C5_5 
REMARK    2  A    between atoms: C4_4  and  C9_9 
ROOT
HETATM    1  C1  UNL     1     -36.608  17.408  -3.724  1.00 20.00     0.005 C 
HETATM    2  C2  UNL     1     -37.738  17.229  -4.397  1.00 20.00     0.132 C 
HETATM    3  C4  UNL     1     -35.602  16.439  -4.228  1.00 20.00     0.050 C 
HETATM    4  C5  UNL     1     -36.475  15.560  -5.139  1.00 20.00     0.204 C 
HETATM    5  O11 UNL     1     -37.741  16.223  -5.338  1.00 20.00    -0.350 OA
ENDROOT
BRANCH   3   6
HETATM    6  C9  UNL     1     -34.844  15.713  -3.124  1.00 20.00    -0.012 C 
HETATM    7  C7  UNL     1     -33.336  15.780  -3.367  1.00 20.00     0.010 C 
HETATM    8  C8  UNL     1     -35.192  16.296  -1.755  1.00 20.00     0.010 C 
ENDBRANCH   3   6
BRANCH   4   9
HETATM    9  C3  UNL     1     -36.826  14.209  -4.588  1.00 20.00     0.152 C 
HETATM   10  C6  UNL     1     -35.715  13.197  -4.519  1.00 20.00     0.093 C 
HETATM   11  O10 UNL     1     -37.966  13.943  -4.211  1.00 20.00    -0.296 OA
ENDBRANCH   4   9
TORSDOF 2
ENDMDL
