MODEL 1
REMARK VINA RESULT:      -5.0      0.000      0.000
REMARK  1 active torsions:
REMARK  status: ('A' for Active; 'I' for Inactive)
REMARK    1  A    between atoms: C1_1  and  C7_7 
ROOT
HETATM    1  C2  UNL     1     -32.958  16.488  -3.029  1.00 20.00     0.001 C 
HETATM    2  C3  UNL     1     -36.788  16.134  -4.219  1.00 20.00     0.014 C 
HETATM    3  C4  UNL     1     -34.078  17.499  -2.844  1.00 20.00     0.005 C 
HETATM    4  C5  UNL     1     -33.677  15.319  -3.682  1.00 20.00     0.006 C 
HETATM    5  C6  UNL     1     -36.603  17.076  -3.037  1.00 20.00     0.006 C 
HETATM    6  C7  UNL     1     -36.237  14.812  -3.698  1.00 20.00     0.076 C 
HETATM    7  C8  UNL     1     -35.277  16.655  -2.403  1.00 20.00    -0.010 C 
HETATM    8  C9  UNL     1     -34.993  15.217  -2.902  1.00 20.00     0.002 C 
ENDROOT
BRANCH   6   9
HETATM    9  C1  UNL     1     -35.967  13.824  -4.788  1.00 20.00     0.223 C 
HETATM   10  O10 UNL     1     -35.868  12.623  -4.559  1.00 20.00    -0.279 OA
HETATM   11 CL11 UNL     1     -35.823  14.588  -6.341  1.00 20.00    -0.043 Cl
ENDBRANCH   6   9
TORSDOF 1
ENDMDL
MODEL 2
REMARK VINA RESULT:      -4.8      1.293      1.606
REMARK  1 active torsions:
REMARK  status: ('A' for Active; 'I' for Inactive)
REMARK    1  A    between atoms: C1_1  and  C7_7 
ROOT
HETATM    1  C2  UNL     1     -32.930  14.831  -4.201  1.00 20.00     0.001 C 
HETATM    2  C3  UNL     1     -36.282  16.931  -3.446  1.00 20.00     0.014 C 
HETATM    3  C4  UNL     1     -33.046  16.136  -3.429  1.00 20.00     0.005 C 
HETATM    4  C5  UNL     1     -34.381  14.508  -4.518  1.00 20.00     0.006 C 
HETATM    5  C6  UNL     1     -35.174  17.166  -2.427  1.00 20.00     0.006 C 
HETATM    6  C7  UNL     1     -36.526  15.429  -3.351  1.00 20.00     0.076 C 
HETATM    7  C8  UNL     1     -34.273  15.935  -2.535  1.00 20.00    -0.010 C 
HETATM    8  C9  UNL     1     -35.122  14.833  -3.216  1.00 20.00     0.002 C 
ENDROOT
BRANCH   6   9
HETATM    9  C1  UNL     1     -37.306  14.892  -4.509  1.00 20.00     0.223 C 
HETATM   10  O10 UNL     1     -37.841  13.789  -4.469  1.00 20.00    -0.279 OA
HETATM   11 CL11 UNL     1     -37.340  16.002  -5.845  1.00 20.00    -0.043 Cl
ENDBRANCH   6   9
TORSDOF 1
ENDMDL
MODEL 3
REMARK VINA RESULT:      -4.7      1.758      2.245
REMARK  1 active torsions:
REMARK  status: ('A' for Active; 'I' for Inactive)
REMARK    1  A    between atoms: C1_1  and  C7_7 
ROOT
HETATM    1  C2  UNL     1     -34.389  17.349  -6.184  1.00 20.00     0.001 C 
HETATM    2  C3  UNL     1     -35.290  15.595  -2.674  1.00 20.00     0.014 C 
HETATM    3  C4  UNL     1     -34.070  17.862  -4.789  1.00 20.00     0.005 C 
HETATM    4  C5  UNL     1     -35.036  16.004  -5.899  1.00 20.00     0.006 C 
HETATM    5  C6  UNL     1     -34.084  16.522  -2.599  1.00 20.00     0.006 C 
HETATM    6  C7  UNL     1     -34.875  14.571  -3.724  1.00 20.00     0.076 C 
HETATM    7  C8  UNL     1     -33.576  16.623  -4.038  1.00 20.00    -0.010 C 
HETATM    8  C9  UNL     1     -34.161  15.404  -4.792  1.00 20.00     0.002 C 
ENDROOT
BRANCH   6   9
HETATM    9  C1  UNL     1     -36.027  13.772  -4.245  1.00 20.00     0.223 C 
HETATM   10  O10 UNL     1     -35.879  12.632  -4.675  1.00 20.00    -0.279 OA
HETATM   11 CL11 UNL     1     -37.524  14.649  -4.154  1.00 20.00    -0.043 Cl
ENDBRANCH   6   9
TORSDOF 1
ENDMDL
MODEL 4
REMARK VINA RESULT:      -4.6      1.888      2.593
REMARK  1 active torsions:
REMARK  status: ('A' for Active; 'I' for Inactive)
REMARK    1  A    between atoms: C1_1  and  C7_7 
ROOT
HETATM    1  C2  UNL     1     -34.123  16.237  -2.313  1.00 20.00     0.001 C 
HETATM    2  C3  UNL     1     -35.572  14.483  -5.635  1.00 20.00     0.014 C 
HETATM    3  C4  UNL     1     -33.341  15.802  -3.542  1.00 20.00     0.005 C 
HETATM    4  C5  UNL     1     -35.556  15.921  -2.708  1.00 20.00     0.006 C 
HETATM    5  C6  UNL     1     -34.278  15.251  -5.867  1.00 20.00     0.006 C 
HETATM    6  C7  UNL     1     -36.520  15.553  -5.105  1.00 20.00     0.076 C 
HETATM    7  C8  UNL     1     -34.207  16.258  -4.719  1.00 20.00    -0.010 C 
HETATM    8  C9  UNL     1     -35.647  16.388  -4.165  1.00 20.00     0.002 C 
ENDROOT
BRANCH   6   9
HETATM    9  C1  UNL     1     -37.739  14.981  -4.456  1.00 20.00     0.223 C 
HETATM   10  O10 UNL     1     -37.897  13.771  -4.334  1.00 20.00    -0.279 OA
HETATM   11 CL11 UNL     1     -38.840  16.218  -3.928  1.00 20.00    -0.043 Cl
ENDBRANCH   6   9
TORSDOF 1
ENDMDL
MODEL 5
REMARK VINA RESULT:      -4.4     10.577     12.046
REMARK  1 active torsions:
REMARK  status: ('A' for Active; 'I' for Inactive)
REMARK    1  A    between atoms: C1_1  and  C7_7 
ROOT
HETATM    1  C2  UNL     1     -43.396   5.403   1.632  1.00 20.00     0.001 C 
HETATM    2  C3  UNL     1     -41.505   7.124  -1.478  1.00 20.00     0.014 C 
HETATM    3  C4  UNL     1     -42.764   4.707   0.437  1.00 20.00     0.005 C 
HETATM    4  C5  UNL     1     -43.051   6.862   1.381  1.00 20.00     0.006 C 
HETATM    5  C6  UNL     1     -41.064   5.690  -1.216  1.00 20.00     0.006 C 
HETATM    6  C7  UNL     1     -41.185   7.830  -0.165  1.00 20.00     0.076 C 
HETATM    7  C8  UNL     1     -41.427   5.428   0.245  1.00 20.00    -0.010 C 
HETATM    8  C9  UNL     1     -41.593   6.818   0.908  1.00 20.00     0.002 C 
ENDROOT
BRANCH   6   9
HETATM    9  C1  UNL     1     -41.861   9.158  -0.039  1.00 20.00     0.223 C 
HETATM   10  O10 UNL     1     -41.347  10.087   0.575  1.00 20.00    -0.279 OA
HETATM   11 CL11 UNL     1     -43.399   9.187  -0.846  1.00 20.00    -0.043 Cl
ENDBRANCH   6   9
TORSDOF 1
ENDMDL
MODEL 6
REMARK VINA RESULT:      -4.4      1.654      2.219
REMARK  1 active torsions:
REMARK  status: ('A' for Active; 'I' for Inactive)
REMARK    1  A    between atoms: C1_1  and  C7_7 
ROOT
HETATM    1  C2  UNL     1     -32.822  18.932  -3.033  1.00 20.00     0.001 C 
HETATM    2  C3  UNL     1     -35.514  15.973  -2.577  1.00 20.00     0.014 C 
HETATM    3  C4  UNL     1     -33.837  18.774  -1.913  1.00 20.00     0.005 C 
HETATM    4  C5  UNL     1     -33.036  17.669  -3.850  1.00 20.00     0.006 C 
HETATM    5  C6  UNL     1     -35.125  16.648  -1.269  1.00 20.00     0.006 C 
HETATM    6  C7  UNL     1     -34.184  15.447  -3.104  1.00 20.00     0.076 C 
HETATM    7  C8  UNL     1     -33.765  17.289  -1.547  1.00 20.00    -0.010 C 
HETATM    8  C9  UNL     1     -33.192  16.570  -2.792  1.00 20.00     0.002 C 
ENDROOT
BRANCH   6   9
HETATM    9  C1  UNL     1     -34.240  15.067  -4.550  1.00 20.00     0.223 C 
HETATM   10  O10 UNL     1     -33.390  14.345  -5.060  1.00 20.00    -0.279 OA
HETATM   11 CL11 UNL     1     -35.612  15.765  -5.355  1.00 20.00    -0.043 Cl
ENDBRANCH   6   9
TORSDOF 1
ENDMDL
MODEL 7
REMARK VINA RESULT:      -4.4      2.898      4.247
REMARK  1 active torsions:
REMARK  status: ('A' for Active; 'I' for Inactive)
REMARK    1  A    between atoms: C1_1  and  C7_7 
ROOT
HETATM    1  C2  UNL     1     -36.847  15.379  -4.991  1.00 20.00     0.001 C 
HETATM    2  C3  UNL     1     -33.152  16.035  -3.530  1.00 20.00     0.014 C 
HETATM    3  C4  UNL     1     -35.538  14.791  -5.495  1.00 20.00     0.005 C 
HETATM    4  C5  UNL     1     -36.401  16.179  -3.778  1.00 20.00     0.006 C 
HETATM    5  C6  UNL     1     -33.293  14.701  -4.253  1.00 20.00     0.006 C 
HETATM    6  C7  UNL     1     -34.188  15.935  -2.416  1.00 20.00     0.076 C 
HETATM    7  C8  UNL     1     -34.790  14.392  -4.220  1.00 20.00    -0.010 C 
HETATM    8  C9  UNL     1     -35.388  15.259  -3.085  1.00 20.00     0.002 C 
ENDROOT
BRANCH   6   9
HETATM    9  C1  UNL     1     -34.503  17.257  -1.794  1.00 20.00     0.223 C 
HETATM   10  O10 UNL     1     -34.112  18.311  -2.286  1.00 20.00    -0.279 OA
HETATM   11 CL11 UNL     1     -35.453  17.090  -0.348  1.00 20.00    -0.043 Cl
ENDBRANCH   6   9
TORSDOF 1
ENDMDL
MODEL 8
REMARK VINA RESULT:      -4.3      1.992      2.355
REMARK  1 active torsions:
REMARK  status: ('A' for Active; 'I' for Inactive)
REMARK    1  A    between atoms: C1_1  and  C7_7 
ROOT
HETATM    1  C2  UNL     1     -33.624  16.293  -2.578  1.00 20.00     0.001 C 
HETATM    2  C3  UNL     1     -36.409  15.347  -5.327  1.00 20.00     0.014 C 
HETATM    3  C4  UNL     1     -35.084  15.953  -2.331  1.00 20.00     0.005 C 
HETATM    4  C5  UNL     1     -33.491  16.097  -4.079  1.00 20.00     0.006 C 
HETATM    5  C6  UNL     1     -36.703  14.783  -3.943  1.00 20.00     0.006 C 
HETATM    6  C7  UNL     1     -35.053  14.738  -5.668  1.00 20.00     0.076 C 
HETATM    7  C8  UNL     1     -35.348  14.747  -3.237  1.00 20.00    -0.010 C 
HETATM    8  C9  UNL     1     -34.275  14.808  -4.352  1.00 20.00     0.002 C 
ENDROOT
BRANCH   6   9
HETATM    9  C1  UNL     1     -34.378  15.425  -6.812  1.00 20.00     0.223 C 
HETATM   10  O10 UNL     1     -33.447  14.904  -7.417  1.00 20.00    -0.279 OA
HETATM   11 CL11 UNL     1     -35.070  16.985  -7.138  1.00 20.00    -0.043 Cl
ENDBRANCH   6   9
TORSDOF 1
ENDMDL
MODEL 9
REMARK VINA RESULT:      -4.3      3.005      4.293
REMARK  1 active torsions:
REMARK  status: ('A' for Active; 'I' for Inactive)
REMARK    1  A    between atoms: C1_1  and  C7_7 
ROOT
HETATM    1  C2  UNL     1     -37.227  16.466  -3.793  1.00 20.00     0.001 C 
HETATM    2  C3  UNL     1     -33.304  15.565  -3.905  1.00 20.00     0.014 C 
HETATM    3  C4  UNL     1     -36.573  15.280  -4.483  1.00 20.00     0.005 C 
HETATM    4  C5  UNL     1     -36.048  17.139  -3.111  1.00 20.00     0.006 C 
HETATM    5  C6  UNL     1     -34.212  14.355  -4.082  1.00 20.00     0.006 C 
HETATM    6  C7  UNL     1     -33.717  16.111  -2.543  1.00 20.00     0.076 C 
HETATM    7  C8  UNL     1     -35.547  14.771  -3.466  1.00 20.00    -0.010 C 
HETATM    8  C9  UNL     1     -35.241  15.969  -2.534  1.00 20.00     0.002 C 
ENDROOT
BRANCH   6   9
HETATM    9  C1  UNL     1     -33.233  17.506  -2.304  1.00 20.00     0.223 C 
HETATM   10  O10 UNL     1     -32.713  18.169  -3.195  1.00 20.00    -0.279 OA
HETATM   11 CL11 UNL     1     -33.503  18.019  -0.666  1.00 20.00    -0.043 Cl
ENDBRANCH   6   9
TORSDOF 1
ENDMDL
