MODEL 1
REMARK VINA RESULT:      -4.7      0.000      0.000
REMARK  3 active torsions:
REMARK  status: ('A' for Active; 'I' for Inactive)
REMARK    1  A    between atoms: C1_1  and  C6_6 
REMARK    2  A    between atoms: C7_7  and  C8_8 
REMARK    3  A    between atoms: C8_8  and  O10_10 
ROOT
HETATM    1  C2  UNL     1     -32.890  15.221  -3.932  1.00 20.00     0.001 C 
HETATM    2  C3  UNL     1     -33.376  16.293  -2.960  1.00 20.00     0.011 C 
HETATM    3  C4  UNL     1     -33.989  14.804  -4.906  1.00 20.00     0.007 C 
HETATM    4  C5  UNL     1     -35.741  15.437  -3.197  1.00 20.00     0.018 C 
HETATM    5  C6  UNL     1     -34.634  15.841  -2.229  1.00 20.00     0.047 C 
HETATM    6  C7  UNL     1     -35.259  14.352  -4.171  1.00 20.00     0.010 C 
ENDROOT
BRANCH   6   7
HETATM    7  C8  UNL     1     -36.359  13.992  -5.167  1.00 20.00     0.168 C 
BRANCH   7   8
HETATM    8  O10 UNL     1     -37.523  13.641  -4.441  1.00 20.00    -0.400 OA
HETATM    9  H24 UNL     1     -37.332  13.801  -3.500  1.00 20.00     0.209 HD
ENDBRANCH   7   8
ENDBRANCH   6   7
BRANCH   5  10
HETATM   10  C1  UNL     1     -35.140  17.019  -1.417  1.00 20.00     0.235 C 
HETATM   11  O9  UNL     1     -35.459  16.938  -0.235  1.00 20.00    -0.306 OA
ENDBRANCH   5  10
TORSDOF 3
ENDMDL
MODEL 2
REMARK VINA RESULT:      -4.6     15.783     17.548
REMARK  3 active torsions:
REMARK  status: ('A' for Active; 'I' for Inactive)
REMARK    1  A    between atoms: C1_1  and  C6_6 
REMARK    2  A    between atoms: C7_7  and  C8_8 
REMARK    3  A    between atoms: C8_8  and  O10_10 
ROOT
HETATM    1  C2  UNL     1     -22.112  17.763  10.141  1.00 20.00     0.001 C 
HETATM    2  C3  UNL     1     -22.685  18.120   8.772  1.00 20.00     0.011 C 
HETATM    3  C4  UNL     1     -23.184  17.200  11.070  1.00 20.00     0.007 C 
HETATM    4  C5  UNL     1     -24.952  18.503   9.820  1.00 20.00     0.018 C 
HETATM    5  C6  UNL     1     -23.871  19.068   8.904  1.00 20.00     0.047 C 
HETATM    6  C7  UNL     1     -24.381  18.152  11.201  1.00 20.00     0.010 C 
ENDROOT
BRANCH   6   7
HETATM    7  C8  UNL     1     -25.461  17.542  12.093  1.00 20.00     0.168 C 
BRANCH   7   8
HETATM    8  O10 UNL     1     -25.793  16.263  11.583  1.00 20.00    -0.400 OA
HETATM    9  H24 UNL     1     -25.393  15.605  12.179  1.00 20.00     0.209 HD
ENDBRANCH   7   8
ENDBRANCH   6   7
BRANCH   5  10
HETATM   10  C1  UNL     1     -24.479  19.235   7.523  1.00 20.00     0.235 C 
HETATM   11  O9  UNL     1     -23.916  18.888   6.490  1.00 20.00    -0.306 OA
ENDBRANCH   5  10
TORSDOF 3
ENDMDL
MODEL 3
REMARK VINA RESULT:      -4.6      2.064      3.511
REMARK  3 active torsions:
REMARK  status: ('A' for Active; 'I' for Inactive)
REMARK    1  A    between atoms: C1_1  and  C6_6 
REMARK    2  A    between atoms: C7_7  and  C8_8 
REMARK    3  A    between atoms: C8_8  and  O10_10 
ROOT
HETATM    1  C2  UNL     1     -34.825  16.515  -2.196  1.00 20.00     0.001 C 
HETATM    2  C3  UNL     1     -36.147  16.338  -2.938  1.00 20.00     0.011 C 
HETATM    3  C4  UNL     1     -33.631  16.165  -3.081  1.00 20.00     0.007 C 
HETATM    4  C5  UNL     1     -35.085  14.584  -4.414  1.00 20.00     0.018 C 
HETATM    5  C6  UNL     1     -36.268  14.934  -3.517  1.00 20.00     0.047 C 
HETATM    6  C7  UNL     1     -33.753  14.751  -3.668  1.00 20.00     0.010 C 
ENDROOT
BRANCH   6   7
HETATM    7  C8  UNL     1     -32.575  14.447  -4.591  1.00 20.00     0.168 C 
BRANCH   7   8
HETATM    8  O10 UNL     1     -33.035  14.477  -5.930  1.00 20.00    -0.400 OA
HETATM    9  H24 UNL     1     -32.249  14.431  -6.503  1.00 20.00     0.209 HD
ENDBRANCH   7   8
ENDBRANCH   6   7
BRANCH   5  10
HETATM   10  C1  UNL     1     -37.521  14.897  -4.373  1.00 20.00     0.235 C 
HETATM   11  O9  UNL     1     -38.271  13.929  -4.431  1.00 20.00    -0.306 OA
ENDBRANCH   5  10
TORSDOF 3
ENDMDL
MODEL 4
REMARK VINA RESULT:      -4.6      2.643      3.398
REMARK  3 active torsions:
REMARK  status: ('A' for Active; 'I' for Inactive)
REMARK    1  A    between atoms: C1_1  and  C6_6 
REMARK    2  A    between atoms: C7_7  and  C8_8 
REMARK    3  A    between atoms: C8_8  and  O10_10 
ROOT
HETATM    1  C2  UNL     1     -35.554  16.528  -1.941  1.00 20.00     0.001 C 
HETATM    2  C3  UNL     1     -34.402  17.209  -1.206  1.00 20.00     0.011 C 
HETATM    3  C4  UNL     1     -35.067  15.353  -2.784  1.00 20.00     0.007 C 
HETATM    4  C5  UNL     1     -32.803  16.454  -3.010  1.00 20.00     0.018 C 
HETATM    5  C6  UNL     1     -33.304  17.628  -2.175  1.00 20.00     0.047 C 
HETATM    6  C7  UNL     1     -33.957  15.773  -3.759  1.00 20.00     0.010 C 
ENDROOT
BRANCH   6   7
HETATM    7  C8  UNL     1     -33.451  14.569  -4.552  1.00 20.00     0.168 C 
BRANCH   7   8
HETATM    8  O10 UNL     1     -32.036  14.574  -4.519  1.00 20.00    -0.400 OA
HETATM    9  H24 UNL     1     -31.756  13.717  -4.154  1.00 20.00     0.209 HD
ENDBRANCH   7   8
ENDBRANCH   6   7
BRANCH   5  10
HETATM   10  C1  UNL     1     -32.136  18.138  -1.351  1.00 20.00     0.235 C 
HETATM   11  O9  UNL     1     -31.459  19.111  -1.668  1.00 20.00    -0.306 OA
ENDBRANCH   5  10
TORSDOF 3
ENDMDL
MODEL 5
REMARK VINA RESULT:      -4.5      0.909      3.766
REMARK  3 active torsions:
REMARK  status: ('A' for Active; 'I' for Inactive)
REMARK    1  A    between atoms: C1_1  and  C6_6 
REMARK    2  A    between atoms: C7_7  and  C8_8 
REMARK    3  A    between atoms: C8_8  and  O10_10 
ROOT
HETATM    1  C2  UNL     1     -32.952  15.579  -3.821  1.00 20.00     0.001 C 
HETATM    2  C3  UNL     1     -33.892  14.422  -4.151  1.00 20.00     0.011 C 
HETATM    3  C4  UNL     1     -33.436  16.369  -2.609  1.00 20.00     0.007 C 
HETATM    4  C5  UNL     1     -35.817  15.691  -3.118  1.00 20.00     0.018 C 
HETATM    5  C6  UNL     1     -35.323  14.912  -4.333  1.00 20.00     0.047 C 
HETATM    6  C7  UNL     1     -34.879  16.862  -2.790  1.00 20.00     0.010 C 
ENDROOT
BRANCH   6   7
HETATM    7  C8  UNL     1     -35.357  17.603  -1.542  1.00 20.00     0.168 C 
BRANCH   7   8
HETATM    8  O10 UNL     1     -35.629  16.649  -0.531  1.00 20.00    -0.400 OA
HETATM    9  H24 UNL     1     -35.892  17.144   0.264  1.00 20.00     0.209 HD
ENDBRANCH   7   8
ENDBRANCH   6   7
BRANCH   5  10
HETATM   10  C1  UNL     1     -36.209  13.691  -4.489  1.00 20.00     0.235 C 
HETATM   11  O9  UNL     1     -35.782  12.541  -4.484  1.00 20.00    -0.306 OA
ENDBRANCH   5  10
TORSDOF 3
ENDMDL
MODEL 6
REMARK VINA RESULT:      -4.5      2.400      5.102
REMARK  3 active torsions:
REMARK  status: ('A' for Active; 'I' for Inactive)
REMARK    1  A    between atoms: C1_1  and  C6_6 
REMARK    2  A    between atoms: C7_7  and  C8_8 
REMARK    3  A    between atoms: C8_8  and  O10_10 
ROOT
HETATM    1  C2  UNL     1     -35.229  16.693  -1.134  1.00 20.00     0.001 C 
HETATM    2  C3  UNL     1     -35.239  16.036  -2.512  1.00 20.00     0.011 C 
HETATM    3  C4  UNL     1     -34.320  17.918  -1.102  1.00 20.00     0.007 C 
HETATM    4  C5  UNL     1     -32.916  16.924  -2.954  1.00 20.00     0.018 C 
HETATM    5  C6  UNL     1     -33.826  15.700  -2.970  1.00 20.00     0.047 C 
HETATM    6  C7  UNL     1     -32.895  17.582  -1.567  1.00 20.00     0.010 C 
ENDROOT
BRANCH   6   7
HETATM    7  C8  UNL     1     -32.021  18.834  -1.576  1.00 20.00     0.168 C 
BRANCH   7   8
HETATM    8  O10 UNL     1     -30.834  18.557  -0.856  1.00 20.00    -0.400 OA
HETATM    9  H24 UNL     1     -30.571  19.382  -0.410  1.00 20.00     0.209 HD
ENDBRANCH   7   8
ENDBRANCH   6   7
BRANCH   5  10
HETATM   10  C1  UNL     1     -33.913  15.210  -4.404  1.00 20.00     0.235 C 
HETATM   11  O9  UNL     1     -33.644  14.062  -4.744  1.00 20.00    -0.306 OA
ENDBRANCH   5  10
TORSDOF 3
ENDMDL
MODEL 7
REMARK VINA RESULT:      -4.4     11.601     11.994
REMARK  3 active torsions:
REMARK  status: ('A' for Active; 'I' for Inactive)
REMARK    1  A    between atoms: C1_1  and  C6_6 
REMARK    2  A    between atoms: C7_7  and  C8_8 
REMARK    3  A    between atoms: C8_8  and  O10_10 
ROOT
HETATM    1  C2  UNL     1     -33.878   4.060   2.679  1.00 20.00     0.001 C 
HETATM    2  C3  UNL     1     -34.207   4.197   4.163  1.00 20.00     0.011 C 
HETATM    3  C4  UNL     1     -32.861   5.106   2.229  1.00 20.00     0.007 C 
HETATM    4  C5  UNL     1     -33.650   6.659   4.062  1.00 20.00     0.018 C 
HETATM    5  C6  UNL     1     -34.669   5.610   4.495  1.00 20.00     0.047 C 
HETATM    6  C7  UNL     1     -33.324   6.531   2.566  1.00 20.00     0.010 C 
ENDROOT
BRANCH   6   7
HETATM    7  C8  UNL     1     -32.265   7.553   2.155  1.00 20.00     0.168 C 
BRANCH   7   8
HETATM    8  O10 UNL     1     -32.706   8.205   0.978  1.00 20.00    -0.400 OA
HETATM    9  H24 UNL     1     -31.977   8.157   0.335  1.00 20.00     0.209 HD
ENDBRANCH   7   8
ENDBRANCH   6   7
BRANCH   5  10
HETATM   10  C1  UNL     1     -34.812   5.703   6.003  1.00 20.00     0.235 C 
HETATM   11  O9  UNL     1     -34.448   6.674   6.658  1.00 20.00    -0.306 OA
ENDBRANCH   5  10
TORSDOF 3
ENDMDL
MODEL 8
REMARK VINA RESULT:      -4.3      1.438      3.841
REMARK  3 active torsions:
REMARK  status: ('A' for Active; 'I' for Inactive)
REMARK    1  A    between atoms: C1_1  and  C6_6 
REMARK    2  A    between atoms: C7_7  and  C8_8 
REMARK    3  A    between atoms: C8_8  and  O10_10 
ROOT
HETATM    1  C2  UNL     1     -32.876  16.878  -3.268  1.00 20.00     0.001 C 
HETATM    2  C3  UNL     1     -33.313  15.506  -3.774  1.00 20.00     0.011 C 
HETATM    3  C4  UNL     1     -33.439  17.172  -1.881  1.00 20.00     0.007 C 
HETATM    4  C5  UNL     1     -35.398  15.645  -2.353  1.00 20.00     0.018 C 
HETATM    5  C6  UNL     1     -34.830  15.366  -3.741  1.00 20.00     0.047 C 
HETATM    6  C7  UNL     1     -34.968  17.029  -1.845  1.00 20.00     0.010 C 
ENDROOT
BRANCH   6   7
HETATM    7  C8  UNL     1     -35.500  17.276  -0.435  1.00 20.00     0.168 C 
BRANCH   7   8
HETATM    8  O10 UNL     1     -36.893  17.515  -0.517  1.00 20.00    -0.400 OA
HETATM    9  H24 UNL     1     -37.215  17.059  -1.314  1.00 20.00     0.209 HD
ENDBRANCH   7   8
ENDBRANCH   6   7
BRANCH   5  10
HETATM   10  C1  UNL     1     -35.166  13.929  -4.095  1.00 20.00     0.235 C 
HETATM   11  O9  UNL     1     -34.383  12.996  -3.950  1.00 20.00    -0.306 OA
ENDBRANCH   5  10
TORSDOF 3
ENDMDL
MODEL 9
REMARK VINA RESULT:      -4.2     17.201     17.870
REMARK  3 active torsions:
REMARK  status: ('A' for Active; 'I' for Inactive)
REMARK    1  A    between atoms: C1_1  and  C6_6 
REMARK    2  A    between atoms: C7_7  and  C8_8 
REMARK    3  A    between atoms: C8_8  and  O10_10 
ROOT
HETATM    1  C2  UNL     1     -24.271  16.097  11.685  1.00 20.00     0.001 C 
HETATM    2  C3  UNL     1     -23.619  16.609  10.403  1.00 20.00     0.011 C 
HETATM    3  C4  UNL     1     -25.661  16.694  11.886  1.00 20.00     0.007 C 
HETATM    4  C5  UNL     1     -24.976  18.734  10.559  1.00 20.00     0.018 C 
HETATM    5  C6  UNL     1     -23.587  18.132  10.373  1.00 20.00     0.047 C 
HETATM    6  C7  UNL     1     -25.631  18.229  11.853  1.00 20.00     0.010 C 
ENDROOT
BRANCH   6   7
HETATM    7  C8  UNL     1     -27.041  18.799  12.003  1.00 20.00     0.168 C 
BRANCH   7   8
HETATM    8  O10 UNL     1     -27.769  18.510  10.824  1.00 20.00    -0.400 OA
HETATM    9  H24 UNL     1     -28.102  17.600  10.910  1.00 20.00     0.209 HD
ENDBRANCH   7   8
ENDBRANCH   6   7
BRANCH   5  10
HETATM   10  C1  UNL     1     -23.082  18.553   9.006  1.00 20.00     0.235 C 
HETATM   11  O9  UNL     1     -22.096  19.263   8.838  1.00 20.00    -0.306 OA
ENDBRANCH   5  10
TORSDOF 3
ENDMDL
