MODEL 1
REMARK VINA RESULT:      -5.1      0.000      0.000
REMARK  1 active torsions:
REMARK  status: ('A' for Active; 'I' for Inactive)
REMARK    1  A    between atoms: C3_3  and  C7_7 
ROOT
HETATM    1  C1  UNL     1     -24.686  18.303  10.058  1.00 20.00    -0.070 C 
HETATM    2  C2  UNL     1     -25.150  19.263   9.252  1.00 20.00     0.015 C 
HETATM    3  C4  UNL     1     -23.757  18.510  12.329  1.00 20.00     0.009 C 
HETATM    4  C5  UNL     1     -22.805  17.337  12.026  1.00 20.00     0.006 C 
HETATM    5  C6  UNL     1     -25.030  16.618  11.641  1.00 20.00     0.014 C 
HETATM    6  C7  UNL     1     -23.805  17.142   9.674  1.00 20.00     0.119 C 
HETATM    7  C8  UNL     1     -25.016  18.145  11.529  1.00 20.00     0.015 C 
HETATM    8  C9  UNL     1     -23.622  16.464  11.048  1.00 20.00     0.004 C 
ENDROOT
BRANCH   6   9
HETATM    9  C3  UNL     1     -22.509  17.579   9.043  1.00 20.00     0.181 C 
HETATM   10  O10 UNL     1     -22.303  18.823   9.041  1.00 20.00    -0.647 OA
HETATM   11  O11 UNL     1     -21.794  16.638   8.596  1.00 20.00    -0.647 OA
ENDBRANCH   6   9
TORSDOF 1
ENDMDL
MODEL 2
REMARK VINA RESULT:      -5.1     17.704     19.069
REMARK  1 active torsions:
REMARK  status: ('A' for Active; 'I' for Inactive)
REMARK    1  A    between atoms: C3_3  and  C7_7 
ROOT
HETATM    1  C1  UNL     1     -34.664  15.575  -5.281  1.00 20.00    -0.070 C 
HETATM    2  C2  UNL     1     -34.117  15.009  -6.362  1.00 20.00     0.015 C 
HETATM    3  C4  UNL     1     -33.679  15.908  -3.049  1.00 20.00     0.009 C 
HETATM    4  C5  UNL     1     -35.074  15.709  -2.426  1.00 20.00     0.006 C 
HETATM    5  C6  UNL     1     -35.205  17.462  -4.014  1.00 20.00     0.014 C 
HETATM    6  C7  UNL     1     -36.066  15.380  -4.766  1.00 20.00     0.119 C 
HETATM    7  C8  UNL     1     -33.997  16.598  -4.384  1.00 20.00     0.015 C 
HETATM    8  C9  UNL     1     -36.026  16.269  -3.505  1.00 20.00     0.004 C 
ENDROOT
BRANCH   6   9
HETATM    9  C3  UNL     1     -36.383  13.937  -4.473  1.00 20.00     0.181 C 
HETATM   10  O10 UNL     1     -35.382  13.187  -4.311  1.00 20.00    -0.647 OA
HETATM   11  O11 UNL     1     -37.616  13.664  -4.428  1.00 20.00    -0.647 OA
ENDBRANCH   6   9
TORSDOF 1
ENDMDL
MODEL 3
REMARK VINA RESULT:      -5.0     17.345     18.642
REMARK  1 active torsions:
REMARK  status: ('A' for Active; 'I' for Inactive)
REMARK    1  A    between atoms: C3_3  and  C7_7 
ROOT
HETATM    1  C1  UNL     1     -34.676  15.789  -2.778  1.00 20.00    -0.070 C 
HETATM    2  C2  UNL     1     -35.144  16.238  -1.609  1.00 20.00     0.015 C 
HETATM    3  C4  UNL     1     -33.971  17.077  -4.754  1.00 20.00     0.009 C 
HETATM    4  C5  UNL     1     -34.486  15.939  -5.656  1.00 20.00     0.006 C 
HETATM    5  C6  UNL     1     -32.921  15.035  -4.123  1.00 20.00     0.014 C 
HETATM    6  C7  UNL     1     -35.194  14.620  -3.575  1.00 20.00     0.119 C 
HETATM    7  C8  UNL     1     -33.465  16.328  -3.513  1.00 20.00     0.015 C 
HETATM    8  C9  UNL     1     -34.253  14.676  -4.796  1.00 20.00     0.004 C 
ENDROOT
BRANCH   6   9
HETATM    9  C3  UNL     1     -36.651  14.760  -3.933  1.00 20.00     0.181 C 
HETATM   10  O10 UNL     1     -37.128  15.921  -3.805  1.00 20.00    -0.647 OA
HETATM   11  O11 UNL     1     -37.208  13.693  -4.316  1.00 20.00    -0.647 OA
ENDBRANCH   6   9
TORSDOF 1
ENDMDL
MODEL 4
REMARK VINA RESULT:      -4.9     17.199     18.573
REMARK  1 active torsions:
REMARK  status: ('A' for Active; 'I' for Inactive)
REMARK    1  A    between atoms: C3_3  and  C7_7 
ROOT
HETATM    1  C1  UNL     1     -33.650  15.016  -4.285  1.00 20.00    -0.070 C 
HETATM    2  C2  UNL     1     -32.638  14.168  -4.493  1.00 20.00     0.015 C 
HETATM    3  C4  UNL     1     -34.290  16.174  -2.208  1.00 20.00     0.009 C 
HETATM    4  C5  UNL     1     -35.768  16.075  -2.631  1.00 20.00     0.006 C 
HETATM    5  C6  UNL     1     -34.565  17.165  -4.357  1.00 20.00     0.014 C 
HETATM    6  C7  UNL     1     -35.064  14.884  -4.789  1.00 20.00     0.119 C 
HETATM    7  C8  UNL     1     -33.561  16.338  -3.550  1.00 20.00     0.015 C 
HETATM    8  C9  UNL     1     -35.699  16.148  -4.173  1.00 20.00     0.004 C 
ENDROOT
BRANCH   6   9
HETATM    9  C3  UNL     1     -35.722  13.604  -4.344  1.00 20.00     0.181 C 
HETATM   10  O10 UNL     1     -34.934  12.699  -3.955  1.00 20.00    -0.647 OA
HETATM   11  O11 UNL     1     -36.984  13.603  -4.420  1.00 20.00    -0.647 OA
ENDBRANCH   6   9
TORSDOF 1
ENDMDL
MODEL 5
REMARK VINA RESULT:      -4.9     23.202     24.025
REMARK  1 active torsions:
REMARK  status: ('A' for Active; 'I' for Inactive)
REMARK    1  A    between atoms: C3_3  and  C7_7 
ROOT
HETATM    1  C1  UNL     1     -42.675   6.835   0.759  1.00 20.00    -0.070 C 
HETATM    2  C2  UNL     1     -43.412   6.009   1.508  1.00 20.00     0.015 C 
HETATM    3  C4  UNL     1     -43.417   8.448  -0.947  1.00 20.00     0.009 C 
HETATM    4  C5  UNL     1     -42.123   8.179  -1.738  1.00 20.00     0.006 C 
HETATM    5  C6  UNL     1     -41.537   8.854   0.457  1.00 20.00     0.014 C 
HETATM    6  C7  UNL     1     -41.376   6.517   0.065  1.00 20.00     0.119 C 
HETATM    7  C8  UNL     1     -42.963   8.303   0.513  1.00 20.00     0.015 C 
HETATM    8  C9  UNL     1     -41.093   7.865  -0.630  1.00 20.00     0.004 C 
ENDROOT
BRANCH   6   9
HETATM    9  C3  UNL     1     -41.497   5.361  -0.893  1.00 20.00     0.181 C 
HETATM   10  O10 UNL     1     -42.675   5.058  -1.227  1.00 20.00    -0.647 OA
HETATM   11  O11 UNL     1     -40.397   4.843  -1.240  1.00 20.00    -0.647 OA
ENDBRANCH   6   9
TORSDOF 1
ENDMDL
MODEL 6
REMARK VINA RESULT:      -4.9     17.800     19.133
REMARK  1 active torsions:
REMARK  status: ('A' for Active; 'I' for Inactive)
REMARK    1  A    between atoms: C3_3  and  C7_7 
ROOT
HETATM    1  C1  UNL     1     -35.718  16.034  -3.804  1.00 20.00    -0.070 C 
HETATM    2  C2  UNL     1     -36.911  16.545  -3.485  1.00 20.00     0.015 C 
HETATM    3  C4  UNL     1     -34.310  16.511  -5.768  1.00 20.00     0.009 C 
HETATM    4  C5  UNL     1     -33.821  15.051  -5.748  1.00 20.00     0.006 C 
HETATM    5  C6  UNL     1     -33.388  16.017  -3.628  1.00 20.00     0.014 C 
HETATM    6  C7  UNL     1     -35.288  14.594  -3.696  1.00 20.00     0.119 C 
HETATM    7  C8  UNL     1     -34.514  16.824  -4.278  1.00 20.00     0.015 C 
HETATM    8  C9  UNL     1     -33.849  14.690  -4.246  1.00 20.00     0.004 C 
ENDROOT
BRANCH   6   9
HETATM    9  C3  UNL     1     -36.171  13.663  -4.485  1.00 20.00     0.181 C 
HETATM   10  O10 UNL     1     -37.141  14.211  -5.077  1.00 20.00    -0.647 OA
HETATM   11  O11 UNL     1     -35.825  12.448  -4.451  1.00 20.00    -0.647 OA
ENDBRANCH   6   9
TORSDOF 1
ENDMDL
MODEL 7
REMARK VINA RESULT:      -4.8     17.925     19.163
REMARK  1 active torsions:
REMARK  status: ('A' for Active; 'I' for Inactive)
REMARK    1  A    between atoms: C3_3  and  C7_7 
ROOT
HETATM    1  C1  UNL     1     -36.506  16.030  -4.437  1.00 20.00    -0.070 C 
HETATM    2  C2  UNL     1     -37.530  16.315  -5.249  1.00 20.00     0.015 C 
HETATM    3  C4  UNL     1     -34.159  16.755  -4.603  1.00 20.00     0.009 C 
HETATM    4  C5  UNL     1     -33.720  15.408  -3.997  1.00 20.00     0.006 C 
HETATM    5  C6  UNL     1     -35.250  16.438  -2.510  1.00 20.00     0.014 C 
HETATM    6  C7  UNL     1     -36.176  14.693  -3.827  1.00 20.00     0.119 C 
HETATM    7  C8  UNL     1     -35.498  17.026  -3.901  1.00 20.00     0.015 C 
HETATM    8  C9  UNL     1     -34.889  15.048  -3.053  1.00 20.00     0.004 C 
ENDROOT
BRANCH   6   9
HETATM    9  C3  UNL     1     -35.975  13.615  -4.862  1.00 20.00     0.181 C 
HETATM   10  O10 UNL     1     -36.034  14.002  -6.061  1.00 20.00    -0.647 OA
HETATM   11  O11 UNL     1     -35.774  12.460  -4.391  1.00 20.00    -0.647 OA
ENDBRANCH   6   9
TORSDOF 1
ENDMDL
MODEL 8
REMARK VINA RESULT:      -4.6     17.917     19.215
REMARK  1 active torsions:
REMARK  status: ('A' for Active; 'I' for Inactive)
REMARK    1  A    between atoms: C3_3  and  C7_7 
ROOT
HETATM    1  C1  UNL     1     -35.373  16.458  -4.723  1.00 20.00    -0.070 C 
HETATM    2  C2  UNL     1     -35.739  17.311  -5.685  1.00 20.00     0.015 C 
HETATM    3  C4  UNL     1     -33.386  15.006  -4.621  1.00 20.00     0.009 C 
HETATM    4  C5  UNL     1     -34.217  13.955  -3.862  1.00 20.00     0.006 C 
HETATM    5  C6  UNL     1     -34.336  16.005  -2.679  1.00 20.00     0.014 C 
HETATM    6  C7  UNL     1     -36.260  15.498  -3.974  1.00 20.00     0.119 C 
HETATM    7  C8  UNL     1     -33.983  16.334  -4.131  1.00 20.00     0.015 C 
HETATM    8  C9  UNL     1     -35.223  14.812  -3.061  1.00 20.00     0.004 C 
ENDROOT
BRANCH   6   9
HETATM    9  C3  UNL     1     -36.983  14.541  -4.887  1.00 20.00     0.181 C 
HETATM   10  O10 UNL     1     -36.558  14.504  -6.074  1.00 20.00    -0.647 OA
HETATM   11  O11 UNL     1     -37.924  13.898  -4.342  1.00 20.00    -0.647 OA
ENDBRANCH   6   9
TORSDOF 1
ENDMDL
MODEL 9
REMARK VINA RESULT:      -4.6      2.200      3.549
REMARK  1 active torsions:
REMARK  status: ('A' for Active; 'I' for Inactive)
REMARK    1  A    between atoms: C3_3  and  C7_7 
ROOT
HETATM    1  C1  UNL     1     -22.487  17.702  11.216  1.00 20.00    -0.070 C 
HETATM    2  C2  UNL     1     -21.827  18.096  12.310  1.00 20.00     0.015 C 
HETATM    3  C4  UNL     1     -23.182  19.040   9.269  1.00 20.00     0.009 C 
HETATM    4  C5  UNL     1     -24.436  18.156   9.133  1.00 20.00     0.006 C 
HETATM    5  C6  UNL     1     -22.523  16.759   9.079  1.00 20.00     0.014 C 
HETATM    6  C7  UNL     1     -23.674  16.777  11.155  1.00 20.00     0.119 C 
HETATM    7  C8  UNL     1     -22.123  18.055   9.788  1.00 20.00     0.015 C 
HETATM    8  C9  UNL     1     -23.952  16.778   9.637  1.00 20.00     0.004 C 
ENDROOT
BRANCH   6   9
HETATM    9  C3  UNL     1     -24.837  17.268  11.978  1.00 20.00     0.181 C 
HETATM   10  O10 UNL     1     -24.775  18.477  12.332  1.00 20.00    -0.647 OA
HETATM   11  O11 UNL     1     -25.727  16.400  12.209  1.00 20.00    -0.647 OA
ENDBRANCH   6   9
TORSDOF 1
ENDMDL
