MODEL 1
REMARK VINA RESULT:      -4.2      0.000      0.000
REMARK  1 active torsions:
REMARK  status: ('A' for Active; 'I' for Inactive)
REMARK    1  A    between atoms: C3_3  and  C6_6 
ROOT
HETATM    1  C1  UNL     1     -34.199  15.540  -2.833  1.00 20.00     0.005 C 
HETATM    2  C2  UNL     1     -33.879  15.091  -4.057  1.00 20.00     0.040 C 
HETATM    3  C4  UNL     1     -35.531  16.137  -2.517  1.00 20.00     0.033 C 
HETATM    4  C5  UNL     1     -36.302  16.463  -3.792  1.00 20.00     0.049 C 
HETATM    5  C6  UNL     1     -36.124  15.368  -4.850  1.00 20.00     0.116 C 
HETATM    6  C7  UNL     1     -32.530  14.530  -4.379  1.00 20.00     0.076 C 
HETATM    7  C8  UNL     1     -36.772  15.796  -6.168  1.00 20.00     0.054 C 
HETATM    8  O10 UNL     1     -34.748  15.090  -5.130  1.00 20.00    -0.338 OA
ENDROOT
BRANCH   5   9
HETATM    9  C3  UNL     1     -36.783  14.079  -4.430  1.00 20.00     0.269 C 
HETATM   10  O9  UNL     1     -38.000  13.923  -4.393  1.00 20.00    -0.304 OA
ENDBRANCH   5   9
TORSDOF 1
ENDMDL
MODEL 2
REMARK VINA RESULT:      -4.2      1.484      2.905
REMARK  1 active torsions:
REMARK  status: ('A' for Active; 'I' for Inactive)
REMARK    1  A    between atoms: C3_3  and  C6_6 
ROOT
HETATM    1  C1  UNL     1     -33.516  16.315  -2.601  1.00 20.00     0.005 C 
HETATM    2  C2  UNL     1     -34.792  16.185  -2.204  1.00 20.00     0.040 C 
HETATM    3  C4  UNL     1     -32.966  15.599  -3.790  1.00 20.00     0.033 C 
HETATM    4  C5  UNL     1     -33.912  14.495  -4.251  1.00 20.00     0.049 C 
HETATM    5  C6  UNL     1     -35.376  14.941  -4.168  1.00 20.00     0.116 C 
HETATM    6  C7  UNL     1     -35.330  16.874  -0.990  1.00 20.00     0.076 C 
HETATM    7  C8  UNL     1     -36.305  13.767  -4.481  1.00 20.00     0.054 C 
HETATM    8  O10 UNL     1     -35.733  15.423  -2.869  1.00 20.00    -0.338 OA
ENDROOT
BRANCH   5   9
HETATM    9  C3  UNL     1     -35.682  16.027  -5.167  1.00 20.00     0.269 C 
HETATM   10  O9  UNL     1     -35.428  15.936  -6.364  1.00 20.00    -0.304 OA
ENDBRANCH   5   9
TORSDOF 1
ENDMDL
MODEL 3
REMARK VINA RESULT:      -4.2      1.366      1.776
REMARK  1 active torsions:
REMARK  status: ('A' for Active; 'I' for Inactive)
REMARK    1  A    between atoms: C3_3  and  C6_6 
ROOT
HETATM    1  C1  UNL     1     -33.632  15.006  -4.850  1.00 20.00     0.005 C 
HETATM    2  C2  UNL     1     -34.446  15.320  -5.870  1.00 20.00     0.040 C 
HETATM    3  C4  UNL     1     -34.059  15.096  -3.422  1.00 20.00     0.033 C 
HETATM    4  C5  UNL     1     -35.359  15.883  -3.286  1.00 20.00     0.049 C 
HETATM    5  C6  UNL     1     -36.339  15.543  -4.416  1.00 20.00     0.116 C 
HETATM    6  C7  UNL     1     -34.003  15.265  -7.298  1.00 20.00     0.076 C 
HETATM    7  C8  UNL     1     -37.562  16.460  -4.347  1.00 20.00     0.054 C 
HETATM    8  O10 UNL     1     -35.762  15.709  -5.715  1.00 20.00    -0.338 OA
ENDROOT
BRANCH   5   9
HETATM    9  C3  UNL     1     -36.840  14.126  -4.307  1.00 20.00     0.269 C 
HETATM   10  O9  UNL     1     -38.024  13.819  -4.398  1.00 20.00    -0.304 OA
ENDBRANCH   5   9
TORSDOF 1
ENDMDL
MODEL 4
REMARK VINA RESULT:      -4.0      9.891     11.515
REMARK  1 active torsions:
REMARK  status: ('A' for Active; 'I' for Inactive)
REMARK    1  A    between atoms: C3_3  and  C6_6 
ROOT
HETATM    1  C1  UNL     1     -41.554   5.666   0.183  1.00 20.00     0.005 C 
HETATM    2  C2  UNL     1     -42.667   6.172   0.738  1.00 20.00     0.040 C 
HETATM    3  C4  UNL     1     -40.830   6.345  -0.933  1.00 20.00     0.033 C 
HETATM    4  C5  UNL     1     -41.684   7.450  -1.548  1.00 20.00     0.049 C 
HETATM    5  C6  UNL     1     -42.450   8.230  -0.473  1.00 20.00     0.116 C 
HETATM    6  C7  UNL     1     -43.410   5.470   1.830  1.00 20.00     0.076 C 
HETATM    7  C8  UNL     1     -43.417   9.219  -1.126  1.00 20.00     0.054 C 
HETATM    8  O10 UNL     1     -43.230   7.380   0.375  1.00 20.00    -0.338 OA
ENDROOT
BRANCH   5   9
HETATM    9  C3  UNL     1     -41.519   9.030   0.401  1.00 20.00     0.269 C 
HETATM   10  O9  UNL     1     -41.496  10.257   0.420  1.00 20.00    -0.304 OA
ENDBRANCH   5   9
TORSDOF 1
ENDMDL
MODEL 5
REMARK VINA RESULT:      -4.0      1.691      2.996
REMARK  1 active torsions:
REMARK  status: ('A' for Active; 'I' for Inactive)
REMARK    1  A    between atoms: C3_3  and  C6_6 
ROOT
HETATM    1  C1  UNL     1     -35.994  17.105  -3.255  1.00 20.00     0.005 C 
HETATM    2  C2  UNL     1     -35.163  16.512  -2.383  1.00 20.00     0.040 C 
HETATM    3  C4  UNL     1     -35.948  16.834  -4.723  1.00 20.00     0.033 C 
HETATM    4  C5  UNL     1     -34.668  16.097  -5.105  1.00 20.00     0.049 C 
HETATM    5  C6  UNL     1     -34.302  15.034  -4.062  1.00 20.00     0.116 C 
HETATM    6  C7  UNL     1     -35.186  16.816  -0.919  1.00 20.00     0.076 C 
HETATM    7  C8  UNL     1     -32.936  14.426  -4.386  1.00 20.00     0.054 C 
HETATM    8  O10 UNL     1     -34.221  15.567  -2.737  1.00 20.00    -0.338 OA
ENDROOT
BRANCH   5   9
HETATM    9  C3  UNL     1     -35.299  13.904  -4.049  1.00 20.00     0.269 C 
HETATM   10  O9  UNL     1     -34.979  12.720  -4.016  1.00 20.00    -0.304 OA
ENDBRANCH   5   9
TORSDOF 1
ENDMDL
MODEL 6
REMARK VINA RESULT:      -4.0      2.863      4.239
REMARK  1 active torsions:
REMARK  status: ('A' for Active; 'I' for Inactive)
REMARK    1  A    between atoms: C3_3  and  C6_6 
ROOT
HETATM    1  C1  UNL     1     -34.897  15.547  -2.879  1.00 20.00     0.005 C 
HETATM    2  C2  UNL     1     -33.633  15.595  -3.329  1.00 20.00     0.040 C 
HETATM    3  C4  UNL     1     -35.418  16.484  -1.840  1.00 20.00     0.033 C 
HETATM    4  C5  UNL     1     -34.278  17.231  -1.154  1.00 20.00     0.049 C 
HETATM    5  C6  UNL     1     -33.192  17.639  -2.157  1.00 20.00     0.116 C 
HETATM    6  C7  UNL     1     -33.104  14.629  -4.342  1.00 20.00     0.076 C 
HETATM    7  C8  UNL     1     -31.993  18.239  -1.421  1.00 20.00     0.054 C 
HETATM    8  O10 UNL     1     -32.704  16.532  -2.922  1.00 20.00    -0.338 OA
ENDROOT
BRANCH   5   9
HETATM    9  C3  UNL     1     -33.692  18.686  -3.119  1.00 20.00     0.269 C 
HETATM   10  O9  UNL     1     -33.100  18.996  -4.148  1.00 20.00    -0.304 OA
ENDBRANCH   5   9
TORSDOF 1
ENDMDL
MODEL 7
REMARK VINA RESULT:      -3.9      1.350      1.675
REMARK  1 active torsions:
REMARK  status: ('A' for Active; 'I' for Inactive)
REMARK    1  A    between atoms: C3_3  and  C6_6 
ROOT
HETATM    1  C1  UNL     1     -35.747  16.716  -3.090  1.00 20.00     0.005 C 
HETATM    2  C2  UNL     1     -34.655  16.120  -3.595  1.00 20.00     0.040 C 
HETATM    3  C4  UNL     1     -37.082  16.647  -3.756  1.00 20.00     0.033 C 
HETATM    4  C5  UNL     1     -36.956  16.127  -5.185  1.00 20.00     0.049 C 
HETATM    5  C6  UNL     1     -35.933  14.989  -5.279  1.00 20.00     0.116 C 
HETATM    6  C7  UNL     1     -33.311  16.223  -2.946  1.00 20.00     0.076 C 
HETATM    7  C8  UNL     1     -35.710  14.600  -6.741  1.00 20.00     0.054 C 
HETATM    8  O10 UNL     1     -34.656  15.350  -4.741  1.00 20.00    -0.338 OA
ENDROOT
BRANCH   5   9
HETATM    9  C3  UNL     1     -36.409  13.755  -4.558  1.00 20.00     0.269 C 
HETATM   10  O9  UNL     1     -35.803  12.688  -4.571  1.00 20.00    -0.304 OA
ENDBRANCH   5   9
TORSDOF 1
ENDMDL
MODEL 8
REMARK VINA RESULT:      -3.9      2.061      2.780
REMARK  1 active torsions:
REMARK  status: ('A' for Active; 'I' for Inactive)
REMARK    1  A    between atoms: C3_3  and  C6_6 
ROOT
HETATM    1  C1  UNL     1     -34.040  17.145  -2.514  1.00 20.00     0.005 C 
HETATM    2  C2  UNL     1     -33.737  17.511  -3.770  1.00 20.00     0.040 C 
HETATM    3  C4  UNL     1     -34.749  15.870  -2.195  1.00 20.00     0.033 C 
HETATM    4  C5  UNL     1     -35.353  15.250  -3.451  1.00 20.00     0.049 C 
HETATM    5  C6  UNL     1     -34.410  15.386  -4.652  1.00 20.00     0.116 C 
HETATM    6  C7  UNL     1     -33.061  18.807  -4.088  1.00 20.00     0.076 C 
HETATM    7  C8  UNL     1     -35.105  14.903  -5.926  1.00 20.00     0.054 C 
HETATM    8  O10 UNL     1     -34.003  16.738  -4.883  1.00 20.00    -0.338 OA
ENDROOT
BRANCH   5   9
HETATM    9  C3  UNL     1     -33.169  14.549  -4.479  1.00 20.00     0.269 C 
HETATM   10  O9  UNL     1     -33.191  13.337  -4.285  1.00 20.00    -0.304 OA
ENDBRANCH   5   9
TORSDOF 1
ENDMDL
MODEL 9
REMARK VINA RESULT:      -3.9      1.665      2.137
REMARK  1 active torsions:
REMARK  status: ('A' for Active; 'I' for Inactive)
REMARK    1  A    between atoms: C3_3  and  C6_6 
ROOT
HETATM    1  C1  UNL     1     -33.766  16.667  -4.203  1.00 20.00     0.005 C 
HETATM    2  C2  UNL     1     -34.644  16.720  -5.217  1.00 20.00     0.040 C 
HETATM    3  C4  UNL     1     -34.033  15.907  -2.945  1.00 20.00     0.033 C 
HETATM    4  C5  UNL     1     -35.504  15.514  -2.844  1.00 20.00     0.049 C 
HETATM    5  C6  UNL     1     -36.060  15.073  -4.203  1.00 20.00     0.116 C 
HETATM    6  C7  UNL     1     -34.389  17.513  -6.460  1.00 20.00     0.076 C 
HETATM    7  C8  UNL     1     -37.569  14.841  -4.105  1.00 20.00     0.054 C 
HETATM    8  O10 UNL     1     -35.852  16.050  -5.228  1.00 20.00    -0.338 OA
ENDROOT
BRANCH   5   9
HETATM    9  C3  UNL     1     -35.441  13.778  -4.661  1.00 20.00     0.269 C 
HETATM   10  O9  UNL     1     -35.950  12.678  -4.466  1.00 20.00    -0.304 OA
ENDBRANCH   5   9
TORSDOF 1
ENDMDL
