MODEL 1
REMARK VINA RESULT:      -5.7      0.000      0.000
REMARK  2 active torsions:
REMARK  status: ('A' for Active; 'I' for Inactive)
REMARK    1  A    between atoms: C3_3  and  C7_7 
REMARK    2  A    between atoms: C8_8  and  C10_10 
ROOT
HETATM    1  C1  UNL     1     -32.930   8.798   0.363  1.00 20.00     0.012 C 
HETATM    2  C2  UNL     1     -32.664   8.055   1.267  1.00 20.00    -0.117 C 
HETATM    3  C10 UNL     1     -32.333   7.149   2.373  1.00 20.00     0.098 C 
ENDROOT
BRANCH   3   4
HETATM    4  C8  UNL     1     -33.456   6.156   2.627  1.00 20.00     0.008 C 
HETATM    5  C6  UNL     1     -32.958   4.744   2.917  1.00 20.00     0.006 C 
HETATM    6  C4  UNL     1     -34.186   4.046   3.486  1.00 20.00     0.001 C 
HETATM    7  C5  UNL     1     -35.012   5.137   4.176  1.00 20.00     0.013 C 
HETATM    8  C7  UNL     1     -34.351   6.472   3.824  1.00 20.00     0.060 C 
BRANCH   8   9
HETATM    9  C3  UNL     1     -33.594   6.931   5.062  1.00 20.00     0.127 C 
HETATM   10  C9  UNL     1     -34.130   6.473   6.392  1.00 20.00     0.091 C 
HETATM   11  O11 UNL     1     -32.592   7.639   4.979  1.00 20.00    -0.298 OA
ENDBRANCH   8   9
ENDBRANCH   3   4
TORSDOF 2
ENDMDL
MODEL 2
REMARK VINA RESULT:      -5.0     11.299     12.173
REMARK  2 active torsions:
REMARK  status: ('A' for Active; 'I' for Inactive)
REMARK    1  A    between atoms: C3_3  and  C7_7 
REMARK    2  A    between atoms: C8_8  and  C10_10 
ROOT
HETATM    1  C1  UNL     1     -33.715  17.567  -1.381  1.00 20.00     0.012 C 
HETATM    2  C2  UNL     1     -34.243  16.673  -1.983  1.00 20.00    -0.117 C 
HETATM    3  C10 UNL     1     -34.890  15.577  -2.715  1.00 20.00     0.098 C 
ENDROOT
BRANCH   3   4
HETATM    4  C8  UNL     1     -34.639  15.690  -4.210  1.00 20.00     0.008 C 
HETATM    5  C6  UNL     1     -33.549  14.748  -4.711  1.00 20.00     0.006 C 
HETATM    6  C4  UNL     1     -33.732  14.768  -6.223  1.00 20.00     0.001 C 
HETATM    7  C5  UNL     1     -35.222  15.032  -6.466  1.00 20.00     0.013 C 
HETATM    8  C7  UNL     1     -35.835  15.358  -5.102  1.00 20.00     0.060 C 
BRANCH   8   9
HETATM    9  C3  UNL     1     -36.615  14.128  -4.662  1.00 20.00     0.127 C 
HETATM   10  C9  UNL     1     -38.031  14.352  -4.204  1.00 20.00     0.091 C 
HETATM   11  O11 UNL     1     -36.112  13.005  -4.681  1.00 20.00    -0.298 OA
ENDBRANCH   8   9
ENDBRANCH   3   4
TORSDOF 2
ENDMDL
MODEL 3
REMARK VINA RESULT:      -4.9     11.354     12.399
REMARK  2 active torsions:
REMARK  status: ('A' for Active; 'I' for Inactive)
REMARK    1  A    between atoms: C3_3  and  C7_7 
REMARK    2  A    between atoms: C8_8  and  C10_10 
ROOT
HETATM    1  C1  UNL     1     -34.419  17.786   0.653  1.00 20.00     0.012 C 
HETATM    2  C2  UNL     1     -34.898  17.443  -0.393  1.00 20.00    -0.117 C 
HETATM    3  C10 UNL     1     -35.488  17.028  -1.671  1.00 20.00     0.098 C 
ENDROOT
BRANCH   3   4
HETATM    4  C8  UNL     1     -34.701  15.889  -2.297  1.00 20.00     0.008 C 
HETATM    5  C6  UNL     1     -35.458  15.174  -3.412  1.00 20.00     0.006 C 
HETATM    6  C4  UNL     1     -34.376  14.359  -4.108  1.00 20.00     0.001 C 
HETATM    7  C5  UNL     1     -33.072  15.143  -3.926  1.00 20.00     0.013 C 
HETATM    8  C7  UNL     1     -33.384  16.290  -2.961  1.00 20.00     0.060 C 
BRANCH   8   9
HETATM    9  C3  UNL     1     -33.471  17.559  -3.796  1.00 20.00     0.127 C 
HETATM   10  C9  UNL     1     -32.807  18.786  -3.231  1.00 20.00     0.091 C 
HETATM   11  O11 UNL     1     -34.054  17.580  -4.878  1.00 20.00    -0.298 OA
ENDBRANCH   8   9
ENDBRANCH   3   4
TORSDOF 2
ENDMDL
MODEL 4
REMARK VINA RESULT:      -4.8     15.306     16.414
REMARK  2 active torsions:
REMARK  status: ('A' for Active; 'I' for Inactive)
REMARK    1  A    between atoms: C3_3  and  C7_7 
REMARK    2  A    between atoms: C8_8  and  C10_10 
ROOT
HETATM    1  C1  UNL     1     -26.906  19.216   7.041  1.00 20.00     0.012 C 
HETATM    2  C2  UNL     1     -25.720  19.167   7.222  1.00 20.00    -0.117 C 
HETATM    3  C10 UNL     1     -24.269  19.107   7.438  1.00 20.00     0.098 C 
ENDROOT
BRANCH   3   4
HETATM    4  C8  UNL     1     -23.933  19.095   8.920  1.00 20.00     0.008 C 
HETATM    5  C6  UNL     1     -24.929  18.298   9.756  1.00 20.00     0.006 C 
HETATM    6  C4  UNL     1     -24.210  18.120  11.087  1.00 20.00     0.001 C 
HETATM    7  C5  UNL     1     -22.713  18.103  10.761  1.00 20.00     0.013 C 
HETATM    8  C7  UNL     1     -22.586  18.471   9.280  1.00 20.00     0.060 C 
BRANCH   8   9
HETATM    9  C3  UNL     1     -22.276  17.184   8.530  1.00 20.00     0.127 C 
HETATM   10  C9  UNL     1     -21.330  17.292   7.364  1.00 20.00     0.091 C 
HETATM   11  O11 UNL     1     -22.774  16.109   8.861  1.00 20.00    -0.298 OA
ENDBRANCH   8   9
ENDBRANCH   3   4
TORSDOF 2
ENDMDL
MODEL 5
REMARK VINA RESULT:      -4.7     11.079     11.893
REMARK  2 active torsions:
REMARK  status: ('A' for Active; 'I' for Inactive)
REMARK    1  A    between atoms: C3_3  and  C7_7 
REMARK    2  A    between atoms: C8_8  and  C10_10 
ROOT
HETATM    1  C1  UNL     1     -35.293  17.393  -0.031  1.00 20.00     0.012 C 
HETATM    2  C2  UNL     1     -34.925  16.925  -1.073  1.00 20.00    -0.117 C 
HETATM    3  C10 UNL     1     -34.471  16.355  -2.347  1.00 20.00     0.098 C 
ENDROOT
BRANCH   3   4
HETATM    4  C8  UNL     1     -35.473  15.347  -2.888  1.00 20.00     0.008 C 
HETATM    5  C6  UNL     1     -36.528  15.974  -3.793  1.00 20.00     0.006 C 
HETATM    6  C4  UNL     1     -37.160  14.773  -4.483  1.00 20.00     0.001 C 
HETATM    7  C5  UNL     1     -36.062  13.707  -4.568  1.00 20.00     0.013 C 
HETATM    8  C7  UNL     1     -34.880  14.233  -3.750  1.00 20.00     0.060 C 
BRANCH   8   9
HETATM    9  C3  UNL     1     -33.831  14.709  -4.744  1.00 20.00     0.127 C 
HETATM   10  C9  UNL     1     -32.394  14.416  -4.403  1.00 20.00     0.091 C 
HETATM   11  O11 UNL     1     -34.142  15.301  -5.776  1.00 20.00    -0.298 OA
ENDBRANCH   8   9
ENDBRANCH   3   4
TORSDOF 2
ENDMDL
MODEL 6
REMARK VINA RESULT:      -4.7     11.169     12.461
REMARK  2 active torsions:
REMARK  status: ('A' for Active; 'I' for Inactive)
REMARK    1  A    between atoms: C3_3  and  C7_7 
REMARK    2  A    between atoms: C8_8  and  C10_10 
ROOT
HETATM    1  C1  UNL     1     -33.023  17.379  -2.116  1.00 20.00     0.012 C 
HETATM    2  C2  UNL     1     -33.739  16.477  -2.456  1.00 20.00    -0.117 C 
HETATM    3  C10 UNL     1     -34.610  15.370  -2.869  1.00 20.00     0.098 C 
ENDROOT
BRANCH   3   4
HETATM    4  C8  UNL     1     -35.955  15.882  -3.359  1.00 20.00     0.008 C 
HETATM    5  C6  UNL     1     -35.836  16.936  -4.454  1.00 20.00     0.006 C 
HETATM    6  C4  UNL     1     -37.247  17.016  -5.023  1.00 20.00     0.001 C 
HETATM    7  C5  UNL     1     -37.860  15.625  -4.831  1.00 20.00     0.013 C 
HETATM    8  C7  UNL     1     -36.871  14.827  -3.978  1.00 20.00     0.060 C 
BRANCH   8   9
HETATM    9  C3  UNL     1     -36.160  13.859  -4.913  1.00 20.00     0.127 C 
HETATM   10  C9  UNL     1     -35.804  14.379  -6.280  1.00 20.00     0.091 C 
HETATM   11  O11 UNL     1     -35.889  12.710  -4.568  1.00 20.00    -0.298 OA
ENDBRANCH   8   9
ENDBRANCH   3   4
TORSDOF 2
ENDMDL
MODEL 7
REMARK VINA RESULT:      -4.7     15.330     16.304
REMARK  2 active torsions:
REMARK  status: ('A' for Active; 'I' for Inactive)
REMARK    1  A    between atoms: C3_3  and  C7_7 
REMARK    2  A    between atoms: C8_8  and  C10_10 
ROOT
HETATM    1  C1  UNL     1     -25.772  19.262   5.708  1.00 20.00     0.012 C 
HETATM    2  C2  UNL     1     -25.542  19.248   6.887  1.00 20.00    -0.117 C 
HETATM    3  C10 UNL     1     -25.266  19.234   8.328  1.00 20.00     0.098 C 
ENDROOT
BRANCH   3   4
HETATM    4  C8  UNL     1     -24.100  18.314   8.656  1.00 20.00     0.008 C 
HETATM    5  C6  UNL     1     -22.806  19.065   8.952  1.00 20.00     0.006 C 
HETATM    6  C4  UNL     1     -21.921  18.004   9.593  1.00 20.00     0.001 C 
HETATM    7  C5  UNL     1     -22.871  17.031  10.300  1.00 20.00     0.013 C 
HETATM    8  C7  UNL     1     -24.290  17.431   9.888  1.00 20.00     0.060 C 
BRANCH   8   9
HETATM    9  C3  UNL     1     -24.910  18.149  11.078  1.00 20.00     0.127 C 
HETATM   10  C9  UNL     1     -24.080  18.221  12.332  1.00 20.00     0.091 C 
HETATM   11  O11 UNL     1     -26.032  18.648  11.017  1.00 20.00    -0.298 OA
ENDBRANCH   8   9
ENDBRANCH   3   4
TORSDOF 2
ENDMDL
MODEL 8
REMARK VINA RESULT:      -4.6     11.308     12.669
REMARK  2 active torsions:
REMARK  status: ('A' for Active; 'I' for Inactive)
REMARK    1  A    between atoms: C3_3  and  C7_7 
REMARK    2  A    between atoms: C8_8  and  C10_10 
ROOT
HETATM    1  C1  UNL     1     -34.905  16.711  -1.398  1.00 20.00     0.012 C 
HETATM    2  C2  UNL     1     -34.216  16.315  -2.298  1.00 20.00    -0.117 C 
HETATM    3  C10 UNL     1     -33.369  15.834  -3.396  1.00 20.00     0.098 C 
ENDROOT
BRANCH   3   4
HETATM    4  C8  UNL     1     -34.127  14.868  -4.293  1.00 20.00     0.008 C 
HETATM    5  C6  UNL     1     -35.428  14.367  -3.675  1.00 20.00     0.006 C 
HETATM    6  C4  UNL     1     -36.162  13.742  -4.854  1.00 20.00     0.001 C 
HETATM    7  C5  UNL     1     -35.704  14.516  -6.095  1.00 20.00     0.013 C 
HETATM    8  C7  UNL     1     -34.569  15.436  -5.641  1.00 20.00     0.060 C 
BRANCH   8   9
HETATM    9  C3  UNL     1     -35.143  16.843  -5.564  1.00 20.00     0.127 C 
HETATM   10  C9  UNL     1     -34.289  17.954  -6.113  1.00 20.00     0.091 C 
HETATM   11  O11 UNL     1     -36.252  17.061  -5.078  1.00 20.00    -0.298 OA
ENDBRANCH   8   9
ENDBRANCH   3   4
TORSDOF 2
ENDMDL
MODEL 9
REMARK VINA RESULT:      -4.5     11.005     12.375
REMARK  2 active torsions:
REMARK  status: ('A' for Active; 'I' for Inactive)
REMARK    1  A    between atoms: C3_3  and  C7_7 
REMARK    2  A    between atoms: C8_8  and  C10_10 
ROOT
HETATM    1  C1  UNL     1     -35.468  16.042  -7.899  1.00 20.00     0.012 C 
HETATM    2  C2  UNL     1     -34.732  15.491  -7.126  1.00 20.00    -0.117 C 
HETATM    3  C10 UNL     1     -33.831  14.813  -6.186  1.00 20.00     0.098 C 
ENDROOT
BRANCH   3   4
HETATM    4  C8  UNL     1     -33.921  15.427  -4.798  1.00 20.00     0.008 C 
HETATM    5  C6  UNL     1     -34.726  16.723  -4.764  1.00 20.00     0.006 C 
HETATM    6  C4  UNL     1     -34.985  16.939  -3.279  1.00 20.00     0.001 C 
HETATM    7  C5  UNL     1     -35.031  15.542  -2.650  1.00 20.00     0.013 C 
HETATM    8  C7  UNL     1     -34.600  14.558  -3.740  1.00 20.00     0.060 C 
BRANCH   8   9
HETATM    9  C3  UNL     1     -35.860  13.857  -4.227  1.00 20.00     0.127 C 
HETATM   10  C9  UNL     1     -37.131  14.663  -4.210  1.00 20.00     0.091 C 
HETATM   11  O11 UNL     1     -35.839  12.691  -4.617  1.00 20.00    -0.298 OA
ENDBRANCH   8   9
ENDBRANCH   3   4
TORSDOF 2
ENDMDL
