MODEL 1
REMARK VINA RESULT:      -5.4      0.000      0.000
REMARK  1 active torsions:
REMARK  status: ('A' for Active; 'I' for Inactive)
REMARK    1  A    between atoms: C5_5  and  C8_8 
ROOT
HETATM    1  C1  UNL     1     -25.412  16.691  12.271  1.00 20.00    -0.004 C 
HETATM    2  C2  UNL     1     -24.609  16.061  11.222  1.00 20.00    -0.004 C 
HETATM    3  C3  UNL     1     -25.944  17.932  12.329  1.00 20.00    -0.026 C 
HETATM    4  C4  UNL     1     -23.887  16.709  10.286  1.00 20.00    -0.021 C 
HETATM    5  C6  UNL     1     -25.866  19.061  11.309  1.00 20.00     0.033 C 
HETATM    6  C7  UNL     1     -23.851  18.166  10.203  1.00 20.00     0.026 A 
HETATM    7  C8  UNL     1     -24.189  19.148   9.134  1.00 20.00     0.085 A 
HETATM    8  C9  UNL     1     -25.296  18.630  10.003  1.00 20.00     0.011 A 
ENDROOT
BRANCH   7   9
HETATM    9  C5  UNL     1     -24.111  18.739   7.728  1.00 20.00     0.224 C 
HETATM   10  O10 UNL     1     -23.069  18.316   7.235  1.00 20.00    -0.279 OA
HETATM   11 CL11 UNL     1     -25.629  18.929   6.905  1.00 20.00    -0.043 Cl
ENDBRANCH   7   9
TORSDOF 1
ENDMDL
MODEL 2
REMARK VINA RESULT:      -5.2     15.194     15.810
REMARK  1 active torsions:
REMARK  status: ('A' for Active; 'I' for Inactive)
REMARK    1  A    between atoms: C5_5  and  C8_8 
ROOT
HETATM    1  C1  UNL     1     -34.841   4.916   5.069  1.00 20.00    -0.004 C 
HETATM    2  C2  UNL     1     -34.679   4.631   3.643  1.00 20.00    -0.004 C 
HETATM    3  C3  UNL     1     -34.389   5.958   5.802  1.00 20.00    -0.026 C 
HETATM    4  C4  UNL     1     -33.709   5.121   2.846  1.00 20.00    -0.021 C 
HETATM    5  C6  UNL     1     -33.565   7.161   5.359  1.00 20.00     0.033 C 
HETATM    6  C7  UNL     1     -32.693   6.047   3.338  1.00 20.00     0.026 A 
HETATM    7  C8  UNL     1     -32.273   7.423   2.948  1.00 20.00     0.085 A 
HETATM    8  C9  UNL     1     -33.439   7.270   3.880  1.00 20.00     0.011 A 
ENDROOT
BRANCH   7   9
HETATM    9  C5  UNL     1     -32.494   7.881   1.571  1.00 20.00     0.224 C 
HETATM   10  O10 UNL     1     -32.039   7.272   0.608  1.00 20.00    -0.279 OA
HETATM   11 CL11 UNL     1     -33.444   9.335   1.509  1.00 20.00    -0.043 Cl
ENDBRANCH   7   9
TORSDOF 1
ENDMDL
MODEL 3
REMARK VINA RESULT:      -5.0      1.962      2.668
REMARK  1 active torsions:
REMARK  status: ('A' for Active; 'I' for Inactive)
REMARK    1  A    between atoms: C5_5  and  C8_8 
ROOT
HETATM    1  C1  UNL     1     -26.104  18.680  11.518  1.00 20.00    -0.004 C 
HETATM    2  C2  UNL     1     -25.821  19.253  10.202  1.00 20.00    -0.004 C 
HETATM    3  C3  UNL     1     -25.364  17.840  12.276  1.00 20.00    -0.026 C 
HETATM    4  C4  UNL     1     -24.964  18.751   9.291  1.00 20.00    -0.021 C 
HETATM    5  C6  UNL     1     -23.998  17.231  11.984  1.00 20.00     0.033 C 
HETATM    6  C7  UNL     1     -24.178  17.548   9.544  1.00 20.00     0.026 A 
HETATM    7  C8  UNL     1     -22.718  17.250   9.552  1.00 20.00     0.085 A 
HETATM    8  C9  UNL     1     -23.336  17.828  10.791  1.00 20.00     0.011 A 
ENDROOT
BRANCH   7   9
HETATM    9  C5  UNL     1     -21.811  18.068   8.739  1.00 20.00     0.224 C 
HETATM   10  O10 UNL     1     -21.436  19.177   9.107  1.00 20.00    -0.279 OA
HETATM   11 CL11 UNL     1     -21.369  17.277   7.256  1.00 20.00    -0.043 Cl
ENDBRANCH   7   9
TORSDOF 1
ENDMDL
MODEL 4
REMARK VINA RESULT:      -4.9     16.112     17.484
REMARK  1 active torsions:
REMARK  status: ('A' for Active; 'I' for Inactive)
REMARK    1  A    between atoms: C5_5  and  C8_8 
ROOT
HETATM    1  C1  UNL     1     -33.997  17.901  -2.277  1.00 20.00    -0.004 C 
HETATM    2  C2  UNL     1     -35.430  17.697  -2.494  1.00 20.00    -0.004 C 
HETATM    3  C3  UNL     1     -32.947  17.132  -2.642  1.00 20.00    -0.026 C 
HETATM    4  C4  UNL     1     -36.031  16.515  -2.736  1.00 20.00    -0.021 C 
HETATM    5  C6  UNL     1     -32.938  15.809  -3.397  1.00 20.00     0.033 C 
HETATM    6  C7  UNL     1     -35.279  15.267  -2.836  1.00 20.00     0.026 A 
HETATM    7  C8  UNL     1     -35.133  14.232  -3.897  1.00 20.00     0.085 A 
HETATM    8  C9  UNL     1     -34.266  15.455  -3.969  1.00 20.00     0.011 A 
ENDROOT
BRANCH   7   9
HETATM    9  C5  UNL     1     -36.212  14.042  -4.874  1.00 20.00     0.224 C 
HETATM   10  O10 UNL     1     -37.304  13.586  -4.548  1.00 20.00    -0.279 OA
HETATM   11 CL11 UNL     1     -35.741  14.533  -6.473  1.00 20.00    -0.043 Cl
ENDBRANCH   7   9
TORSDOF 1
ENDMDL
MODEL 5
REMARK VINA RESULT:      -4.9     16.530     17.905
REMARK  1 active torsions:
REMARK  status: ('A' for Active; 'I' for Inactive)
REMARK    1  A    between atoms: C5_5  and  C8_8 
ROOT
HETATM    1  C1  UNL     1     -33.060  16.559  -2.799  1.00 20.00    -0.004 C 
HETATM    2  C2  UNL     1     -34.422  16.857  -2.356  1.00 20.00    -0.004 C 
HETATM    3  C3  UNL     1     -32.623  15.679  -3.728  1.00 20.00    -0.026 C 
HETATM    4  C4  UNL     1     -35.487  16.040  -2.476  1.00 20.00    -0.021 C 
HETATM    5  C6  UNL     1     -33.425  14.723  -4.601  1.00 20.00     0.033 C 
HETATM    6  C7  UNL     1     -35.393  14.729  -3.112  1.00 20.00     0.026 A 
HETATM    7  C8  UNL     1     -36.079  14.091  -4.271  1.00 20.00     0.085 A 
HETATM    8  C9  UNL     1     -34.893  14.968  -4.539  1.00 20.00     0.011 A 
ENDROOT
BRANCH   7   9
HETATM    9  C5  UNL     1     -37.423  14.542  -4.650  1.00 20.00     0.224 C 
HETATM   10  O10 UNL     1     -38.429  13.911  -4.339  1.00 20.00    -0.279 OA
HETATM   11 CL11 UNL     1     -37.384  16.024  -5.557  1.00 20.00    -0.043 Cl
ENDBRANCH   7   9
TORSDOF 1
ENDMDL
MODEL 6
REMARK VINA RESULT:      -4.8     15.250     15.973
REMARK  1 active torsions:
REMARK  status: ('A' for Active; 'I' for Inactive)
REMARK    1  A    between atoms: C5_5  and  C8_8 
ROOT
HETATM    1  C1  UNL     1     -34.628   5.167   6.119  1.00 20.00    -0.004 C 
HETATM    2  C2  UNL     1     -34.029   6.502   6.116  1.00 20.00    -0.004 C 
HETATM    3  C3  UNL     1     -34.748   4.268   5.117  1.00 20.00    -0.026 C 
HETATM    4  C4  UNL     1     -33.841   7.280   5.032  1.00 20.00    -0.021 C 
HETATM    5  C6  UNL     1     -34.292   4.376   3.667  1.00 20.00     0.033 C 
HETATM    6  C7  UNL     1     -34.207   6.841   3.688  1.00 20.00     0.026 A 
HETATM    7  C8  UNL     1     -33.452   6.673   2.414  1.00 20.00     0.085 A 
HETATM    8  C9  UNL     1     -33.420   5.556   3.416  1.00 20.00     0.011 A 
ENDROOT
BRANCH   7   9
HETATM    9  C5  UNL     1     -32.247   7.477   2.179  1.00 20.00     0.224 C 
HETATM   10  O10 UNL     1     -31.342   7.541   3.005  1.00 20.00    -0.279 OA
HETATM   11 CL11 UNL     1     -32.289   8.283   0.640  1.00 20.00    -0.043 Cl
ENDBRANCH   7   9
TORSDOF 1
ENDMDL
MODEL 7
REMARK VINA RESULT:      -4.8     16.460     17.916
REMARK  1 active torsions:
REMARK  status: ('A' for Active; 'I' for Inactive)
REMARK    1  A    between atoms: C5_5  and  C8_8 
ROOT
HETATM    1  C1  UNL     1     -33.434  17.925  -3.352  1.00 20.00    -0.004 C 
HETATM    2  C2  UNL     1     -33.635  16.714  -2.556  1.00 20.00    -0.004 C 
HETATM    3  C3  UNL     1     -33.852  18.219  -4.603  1.00 20.00    -0.026 C 
HETATM    4  C4  UNL     1     -33.918  15.489  -3.042  1.00 20.00    -0.021 C 
HETATM    5  C6  UNL     1     -34.665  17.370  -5.572  1.00 20.00     0.033 C 
HETATM    6  C7  UNL     1     -34.087  15.239  -4.470  1.00 20.00     0.026 A 
HETATM    7  C8  UNL     1     -35.197  14.687  -5.298  1.00 20.00     0.085 A 
HETATM    8  C9  UNL     1     -35.229  16.144  -4.942  1.00 20.00     0.011 A 
ENDROOT
BRANCH   7   9
HETATM    9  C5  UNL     1     -36.161  13.764  -4.689  1.00 20.00     0.224 C 
HETATM   10  O10 UNL     1     -35.885  12.586  -4.483  1.00 20.00    -0.279 OA
HETATM   11 CL11 UNL     1     -37.669  14.543  -4.319  1.00 20.00    -0.043 Cl
ENDBRANCH   7   9
TORSDOF 1
ENDMDL
MODEL 8
REMARK VINA RESULT:      -4.7     14.900     16.198
REMARK  1 active torsions:
REMARK  status: ('A' for Active; 'I' for Inactive)
REMARK    1  A    between atoms: C5_5  and  C8_8 
ROOT
HETATM    1  C1  UNL     1     -33.278  18.050  -0.909  1.00 20.00    -0.004 C 
HETATM    2  C2  UNL     1     -32.500  17.635  -2.076  1.00 20.00    -0.004 C 
HETATM    3  C3  UNL     1     -34.507  17.660  -0.503  1.00 20.00    -0.026 C 
HETATM    4  C4  UNL     1     -32.999  17.094  -3.205  1.00 20.00    -0.021 C 
HETATM    5  C6  UNL     1     -35.462  16.661  -1.145  1.00 20.00     0.033 C 
HETATM    6  C7  UNL     1     -34.425  16.832  -3.377  1.00 20.00     0.026 A 
HETATM    7  C8  UNL     1     -35.222  15.608  -3.672  1.00 20.00     0.085 A 
HETATM    8  C9  UNL     1     -34.835  15.882  -2.249  1.00 20.00     0.011 A 
ENDROOT
BRANCH   7   9
HETATM    9  C5  UNL     1     -34.596  14.498  -4.399  1.00 20.00     0.224 C 
HETATM   10  O10 UNL     1     -34.548  13.364  -3.929  1.00 20.00    -0.279 OA
HETATM   11 CL11 UNL     1     -33.966  14.996  -5.939  1.00 20.00    -0.043 Cl
ENDBRANCH   7   9
TORSDOF 1
ENDMDL
MODEL 9
REMARK VINA RESULT:      -4.6     14.897     16.202
REMARK  1 active torsions:
REMARK  status: ('A' for Active; 'I' for Inactive)
REMARK    1  A    between atoms: C5_5  and  C8_8 
ROOT
HETATM    1  C1  UNL     1     -34.584  17.832  -0.585  1.00 20.00    -0.004 C 
HETATM    2  C2  UNL     1     -35.613  17.074  -1.297  1.00 20.00    -0.004 C 
HETATM    3  C3  UNL     1     -33.293  18.061  -0.912  1.00 20.00    -0.026 C 
HETATM    4  C4  UNL     1     -35.391  16.109  -2.211  1.00 20.00    -0.021 C 
HETATM    5  C6  UNL     1     -32.512  17.593  -2.134  1.00 20.00     0.033 C 
HETATM    6  C7  UNL     1     -34.044  15.722  -2.620  1.00 20.00     0.026 A 
HETATM    7  C8  UNL     1     -33.334  15.683  -3.930  1.00 20.00     0.085 A 
HETATM    8  C9  UNL     1     -33.377  16.981  -3.180  1.00 20.00     0.011 A 
ENDROOT
BRANCH   7   9
HETATM    9  C5  UNL     1     -34.109  15.526  -5.166  1.00 20.00     0.224 C 
HETATM   10  O10 UNL     1     -34.229  14.437  -5.720  1.00 20.00    -0.279 OA
HETATM   11 CL11 UNL     1     -34.796  17.030  -5.702  1.00 20.00    -0.043 Cl
ENDBRANCH   7   9
TORSDOF 1
ENDMDL
