MODEL 1
REMARK VINA RESULT:      -4.9      0.000      0.000
REMARK  0 active torsions:
REMARK  status: ('A' for Active; 'I' for Inactive)
ROOT
HETATM    1  C1  UNL     1     -22.051  17.538   8.318  1.00 20.00     0.095 C 
HETATM    2  C2  UNL     1     -24.167  18.146  12.149  1.00 20.00     0.007 C 
HETATM    3  C3  UNL     1     -22.736  17.597  12.114  1.00 20.00     0.008 C 
HETATM    4  C4  UNL     1     -24.705  18.522   9.622  1.00 20.00     0.276 C 
HETATM    5  C5  UNL     1     -22.382  18.232   9.574  1.00 20.00     0.330 C 
HETATM    6  C6  UNL     1     -24.412  17.545  10.746  1.00 20.00     0.021 C 
HETATM    7  C7  UNL     1     -22.910  17.247  10.619  1.00 20.00     0.038 C 
HETATM    8  N8  UNL     1     -21.790  16.991   7.329  1.00 20.00    -0.195 NA
HETATM    9  N9  UNL     1     -23.445  19.224   9.337  1.00 20.00     0.102 N 
HETATM   10  H19 UNL     1     -23.428  19.588   8.386  1.00 20.00     0.317 HD
ENDROOT
TORSDOF 0
ENDMDL
MODEL 2
REMARK VINA RESULT:      -4.8     17.544     18.677
REMARK  0 active torsions:
REMARK  status: ('A' for Active; 'I' for Inactive)
ROOT
HETATM    1  C1  UNL     1     -37.143  14.626  -4.392  1.00 20.00     0.095 C 
HETATM    2  C2  UNL     1     -33.365  16.366  -2.901  1.00 20.00     0.007 C 
HETATM    3  C3  UNL     1     -33.360  15.208  -3.906  1.00 20.00     0.008 C 
HETATM    4  C4  UNL     1     -35.912  16.811  -2.542  1.00 20.00     0.276 C 
HETATM    5  C5  UNL     1     -35.933  15.462  -4.456  1.00 20.00     0.330 C 
HETATM    6  C6  UNL     1     -34.730  15.874  -2.369  1.00 20.00     0.021 C 
HETATM    7  C7  UNL     1     -34.832  14.899  -3.552  1.00 20.00     0.038 C 
HETATM    8  N8  UNL     1     -38.096  13.967  -4.342  1.00 20.00    -0.195 NA
HETATM    9  N9  UNL     1     -36.233  16.822  -3.976  1.00 20.00     0.102 N 
HETATM   10  H19 UNL     1     -37.204  17.083  -4.138  1.00 20.00     0.317 HD
ENDROOT
TORSDOF 0
ENDMDL
MODEL 3
REMARK VINA RESULT:      -4.5      1.666      2.353
REMARK  0 active torsions:
REMARK  status: ('A' for Active; 'I' for Inactive)
ROOT
HETATM    1  C1  UNL     1     -22.698  16.867   9.099  1.00 20.00     0.095 C 
HETATM    2  C2  UNL     1     -25.503  18.239  12.224  1.00 20.00     0.007 C 
HETATM    3  C3  UNL     1     -25.537  18.839  10.813  1.00 20.00     0.008 C 
HETATM    4  C4  UNL     1     -23.592  16.469  12.058  1.00 20.00     0.276 C 
HETATM    5  C5  UNL     1     -23.990  16.950   9.801  1.00 20.00     0.330 C 
HETATM    6  C6  UNL     1     -24.000  17.931  12.038  1.00 20.00     0.021 C 
HETATM    7  C7  UNL     1     -24.120  18.280  10.547  1.00 20.00     0.038 C 
HETATM    8  N8  UNL     1     -21.681  16.801   8.545  1.00 20.00    -0.195 NA
HETATM    9  N9  UNL     1     -24.087  15.878  10.806  1.00 20.00     0.102 N 
HETATM   10  H19 UNL     1     -23.549  15.054  10.546  1.00 20.00     0.317 HD
ENDROOT
TORSDOF 0
ENDMDL
MODEL 4
REMARK VINA RESULT:      -4.4     17.110     18.163
REMARK  0 active torsions:
REMARK  status: ('A' for Active; 'I' for Inactive)
ROOT
HETATM    1  C1  UNL     1     -35.534  13.944  -4.459  1.00 20.00     0.095 C 
HETATM    2  C2  UNL     1     -34.048  17.496  -2.292  1.00 20.00     0.007 C 
HETATM    3  C3  UNL     1     -33.077  16.475  -2.896  1.00 20.00     0.008 C 
HETATM    4  C4  UNL     1     -36.384  16.530  -2.944  1.00 20.00     0.276 C 
HETATM    5  C5  UNL     1     -34.958  15.292  -4.328  1.00 20.00     0.330 C 
HETATM    6  C6  UNL     1     -35.104  16.377  -2.143  1.00 20.00     0.021 C 
HETATM    7  C7  UNL     1     -34.226  15.445  -2.992  1.00 20.00     0.038 C 
HETATM    8  N8  UNL     1     -35.988  12.881  -4.563  1.00 20.00    -0.195 NA
HETATM    9  N9  UNL     1     -36.029  16.303  -4.352  1.00 20.00     0.102 N 
HETATM   10  H19 UNL     1     -36.835  15.998  -4.894  1.00 20.00     0.317 HD
ENDROOT
TORSDOF 0
ENDMDL
MODEL 5
REMARK VINA RESULT:      -4.3     17.152     18.330
REMARK  0 active torsions:
REMARK  status: ('A' for Active; 'I' for Inactive)
ROOT
HETATM    1  C1  UNL     1     -35.130  13.597  -4.251  1.00 20.00     0.095 C 
HETATM    2  C2  UNL     1     -33.375  17.596  -3.584  1.00 20.00     0.007 C 
HETATM    3  C3  UNL     1     -33.434  16.560  -2.455  1.00 20.00     0.008 C 
HETATM    4  C4  UNL     1     -34.446  16.324  -5.596  1.00 20.00     0.276 C 
HETATM    5  C5  UNL     1     -34.042  14.575  -4.091  1.00 20.00     0.330 C 
HETATM    6  C6  UNL     1     -34.623  16.945  -4.222  1.00 20.00     0.021 C 
HETATM    7  C7  UNL     1     -34.499  15.766  -3.245  1.00 20.00     0.038 C 
HETATM    8  N8  UNL     1     -35.987  12.825  -4.378  1.00 20.00    -0.195 NA
HETATM    9  N9  UNL     1     -33.644  15.107  -5.406  1.00 20.00     0.102 N 
HETATM   10  H19 UNL     1     -33.801  14.437  -6.157  1.00 20.00     0.317 HD
ENDROOT
TORSDOF 0
ENDMDL
MODEL 6
REMARK VINA RESULT:      -4.3     17.522     18.719
REMARK  0 active torsions:
REMARK  status: ('A' for Active; 'I' for Inactive)
ROOT
HETATM    1  C1  UNL     1     -36.530  14.159  -4.233  1.00 20.00     0.095 C 
HETATM    2  C2  UNL     1     -33.251  17.015  -3.452  1.00 20.00     0.007 C 
HETATM    3  C3  UNL     1     -33.930  16.258  -2.304  1.00 20.00     0.008 C 
HETATM    4  C4  UNL     1     -34.500  16.116  -5.560  1.00 20.00     0.276 C 
HETATM    5  C5  UNL     1     -35.148  14.566  -3.929  1.00 20.00     0.330 C 
HETATM    6  C6  UNL     1     -34.559  16.912  -4.269  1.00 20.00     0.021 C 
HETATM    7  C7  UNL     1     -35.122  15.929  -3.232  1.00 20.00     0.038 C 
HETATM    8  N8  UNL     1     -37.619  13.838  -4.473  1.00 20.00    -0.195 NA
HETATM    9  N9  UNL     1     -34.376  14.702  -5.176  1.00 20.00     0.102 N 
HETATM   10  H19 UNL     1     -34.719  14.086  -5.911  1.00 20.00     0.317 HD
ENDROOT
TORSDOF 0
ENDMDL
MODEL 7
REMARK VINA RESULT:      -4.3      1.835      2.546
REMARK  0 active torsions:
REMARK  status: ('A' for Active; 'I' for Inactive)
ROOT
HETATM    1  C1  UNL     1     -24.792  19.025   7.333  1.00 20.00     0.095 C 
HETATM    2  C2  UNL     1     -22.151  17.764  10.643  1.00 20.00     0.007 C 
HETATM    3  C3  UNL     1     -21.571  18.316   9.335  1.00 20.00     0.008 C 
HETATM    4  C4  UNL     1     -24.726  17.879  10.230  1.00 20.00     0.276 C 
HETATM    5  C5  UNL     1     -23.908  19.221   8.494  1.00 20.00     0.330 C 
HETATM    6  C6  UNL     1     -23.388  17.264   9.862  1.00 20.00     0.021 C 
HETATM    7  C7  UNL     1     -22.923  18.057   8.631  1.00 20.00     0.038 C 
HETATM    8  N8  UNL     1     -25.489  18.872   6.418  1.00 20.00    -0.195 NA
HETATM    9  N9  UNL     1     -24.704  19.262   9.733  1.00 20.00     0.102 N 
HETATM   10  H19 UNL     1     -25.646  19.616   9.575  1.00 20.00     0.317 HD
ENDROOT
TORSDOF 0
ENDMDL
MODEL 8
REMARK VINA RESULT:      -4.2      2.204      3.857
REMARK  0 active torsions:
REMARK  status: ('A' for Active; 'I' for Inactive)
ROOT
HETATM    1  C1  UNL     1     -25.906  17.732  11.886  1.00 20.00     0.095 C 
HETATM    2  C2  UNL     1     -22.332  18.513   9.408  1.00 20.00     0.007 C 
HETATM    3  C3  UNL     1     -23.725  18.960   8.950  1.00 20.00     0.008 C 
HETATM    4  C4  UNL     1     -22.812  17.399  11.720  1.00 20.00     0.276 C 
HETATM    5  C5  UNL     1     -24.815  18.544  11.322  1.00 20.00     0.330 C 
HETATM    6  C6  UNL     1     -22.985  17.365  10.213  1.00 20.00     0.021 C 
HETATM    7  C7  UNL     1     -24.367  17.989   9.967  1.00 20.00     0.038 C 
HETATM    8  N8  UNL     1     -26.765  17.093  12.332  1.00 20.00    -0.195 NA
HETATM    9  N9  UNL     1     -23.644  18.506  12.214  1.00 20.00     0.102 N 
HETATM   10  H19 UNL     1     -23.905  18.369  13.188  1.00 20.00     0.317 HD
ENDROOT
TORSDOF 0
ENDMDL
MODEL 9
REMARK VINA RESULT:      -4.2      1.518      2.115
REMARK  0 active torsions:
REMARK  status: ('A' for Active; 'I' for Inactive)
ROOT
HETATM    1  C1  UNL     1     -23.296  18.007   7.981  1.00 20.00     0.095 C 
HETATM    2  C2  UNL     1     -23.424  16.531  12.144  1.00 20.00     0.007 C 
HETATM    3  C3  UNL     1     -24.515  16.150  11.136  1.00 20.00     0.008 C 
HETATM    4  C4  UNL     1     -21.819  18.023  10.725  1.00 20.00     0.276 C 
HETATM    5  C5  UNL     1     -23.127  17.021   9.062  1.00 20.00     0.330 C 
HETATM    6  C6  UNL     1     -23.184  17.843  11.362  1.00 20.00     0.021 C 
HETATM    7  C7  UNL     1     -24.076  17.320  10.226  1.00 20.00     0.038 C 
HETATM    8  N8  UNL     1     -23.429  18.783   7.130  1.00 20.00    -0.195 NA
HETATM    9  N9  UNL     1     -21.756  17.086   9.594  1.00 20.00     0.102 N 
HETATM   10  H19 UNL     1     -21.084  17.393   8.893  1.00 20.00     0.317 HD
ENDROOT
TORSDOF 0
ENDMDL
