MODEL 1
REMARK VINA RESULT:      -4.9      0.000      0.000
REMARK  0 active torsions:
REMARK  status: ('A' for Active; 'I' for Inactive)
ROOT
HETATM    1  C1  UNL     1     -26.267  18.848  12.102  1.00 20.00     0.015 C 
HETATM    2  C2  UNL     1     -25.450  18.492  11.297  1.00 20.00    -0.076 C 
HETATM    3  C3  UNL     1     -23.500  18.713   8.097  1.00 20.00     0.004 C 
HETATM    4  C4  UNL     1     -22.416  17.665   8.322  1.00 20.00     0.003 C 
HETATM    5  C5  UNL     1     -24.762  18.382   8.890  1.00 20.00     0.055 C 
HETATM    6  C6  UNL     1     -21.946  17.671   9.773  1.00 20.00     0.042 C 
HETATM    7  C7  UNL     1     -24.475  18.068  10.335  1.00 20.00     0.154 A 
HETATM    8  C8  UNL     1     -23.068  17.663  10.778  1.00 20.00     0.102 A 
HETATM    9  C9  UNL     1     -22.652  17.737  12.217  1.00 20.00     0.050 C 
HETATM   10  O10 UNL     1     -24.084  16.690  10.529  1.00 20.00    -0.350 OA
ENDROOT
TORSDOF 0
ENDMDL
MODEL 2
REMARK VINA RESULT:      -4.4     16.277     17.198
REMARK  0 active torsions:
REMARK  status: ('A' for Active; 'I' for Inactive)
ROOT
HETATM    1  C1  UNL     1     -33.233   4.094   1.528  1.00 20.00     0.015 C 
HETATM    2  C2  UNL     1     -33.567   4.706   2.506  1.00 20.00    -0.076 C 
HETATM    3  C3  UNL     1     -34.540   5.100   6.111  1.00 20.00     0.004 C 
HETATM    4  C4  UNL     1     -34.501   6.614   6.279  1.00 20.00     0.003 C 
HETATM    5  C5  UNL     1     -34.840   4.712   4.665  1.00 20.00     0.055 C 
HETATM    6  C6  UNL     1     -33.341   7.218   5.492  1.00 20.00     0.042 C 
HETATM    7  C7  UNL     1     -33.965   5.436   3.675  1.00 20.00     0.154 A 
HETATM    8  C8  UNL     1     -33.244   6.725   4.072  1.00 20.00     0.102 A 
HETATM    9  C9  UNL     1     -32.078   7.241   3.283  1.00 20.00     0.050 C 
HETATM   10  O10 UNL     1     -34.476   6.747   3.348  1.00 20.00    -0.350 OA
ENDROOT
TORSDOF 0
ENDMDL
MODEL 3
REMARK VINA RESULT:      -4.3     17.619     19.254
REMARK  0 active torsions:
REMARK  status: ('A' for Active; 'I' for Inactive)
ROOT
HETATM    1  C1  UNL     1     -33.707  15.110  -7.915  1.00 20.00     0.015 C 
HETATM    2  C2  UNL     1     -34.006  15.104  -6.752  1.00 20.00    -0.076 C 
HETATM    3  C3  UNL     1     -33.560  15.924  -3.115  1.00 20.00     0.004 C 
HETATM    4  C4  UNL     1     -34.911  15.517  -2.538  1.00 20.00     0.003 C 
HETATM    5  C5  UNL     1     -33.230  15.117  -4.369  1.00 20.00     0.055 C 
HETATM    6  C6  UNL     1     -36.042  15.864  -3.503  1.00 20.00     0.042 C 
HETATM    7  C7  UNL     1     -34.362  15.096  -5.363  1.00 20.00     0.154 A 
HETATM    8  C8  UNL     1     -35.789  15.426  -4.922  1.00 20.00     0.102 A 
HETATM    9  C9  UNL     1     -36.844  15.807  -5.917  1.00 20.00     0.050 C 
HETATM   10  O10 UNL     1     -35.340  14.076  -5.058  1.00 20.00    -0.350 OA
ENDROOT
TORSDOF 0
ENDMDL
MODEL 4
REMARK VINA RESULT:      -4.2     13.906     15.440
REMARK  0 active torsions:
REMARK  status: ('A' for Active; 'I' for Inactive)
ROOT
HETATM    1  C1  UNL     1     -30.971  18.660  -0.187  1.00 20.00     0.015 C 
HETATM    2  C2  UNL     1     -31.962  18.244  -0.723  1.00 20.00    -0.076 C 
HETATM    3  C3  UNL     1     -33.951  15.844  -2.817  1.00 20.00     0.004 C 
HETATM    4  C4  UNL     1     -35.377  16.313  -2.554  1.00 20.00     0.003 C 
HETATM    5  C5  UNL     1     -32.954  16.989  -2.653  1.00 20.00     0.055 C 
HETATM    6  C6  UNL     1     -35.550  16.740  -1.099  1.00 20.00     0.042 C 
HETATM    7  C7  UNL     1     -33.145  17.746  -1.364  1.00 20.00     0.154 A 
HETATM    8  C8  UNL     1     -34.467  17.661  -0.601  1.00 20.00     0.102 A 
HETATM    9  C9  UNL     1     -34.560  18.052   0.844  1.00 20.00     0.050 C 
HETATM   10  O10 UNL     1     -34.172  18.757  -1.469  1.00 20.00    -0.350 OA
ENDROOT
TORSDOF 0
ENDMDL
MODEL 5
REMARK VINA RESULT:      -4.1     16.088     17.572
REMARK  0 active torsions:
REMARK  status: ('A' for Active; 'I' for Inactive)
ROOT
HETATM    1  C1  UNL     1     -36.283  13.555  -4.555  1.00 20.00     0.015 C 
HETATM    2  C2  UNL     1     -35.739  14.497  -4.046  1.00 20.00    -0.076 C 
HETATM    3  C3  UNL     1     -34.976  16.894  -1.259  1.00 20.00     0.004 C 
HETATM    4  C4  UNL     1     -33.768  17.640  -1.814  1.00 20.00     0.003 C 
HETATM    5  C5  UNL     1     -35.865  16.368  -2.383  1.00 20.00     0.055 C 
HETATM    6  C6  UNL     1     -32.854  16.695  -2.589  1.00 20.00     0.042 C 
HETATM    7  C7  UNL     1     -35.089  15.622  -3.437  1.00 20.00     0.154 A 
HETATM    8  C8  UNL     1     -33.579  15.818  -3.576  1.00 20.00     0.102 A 
HETATM    9  C9  UNL     1     -32.728  14.826  -4.311  1.00 20.00     0.050 C 
HETATM   10  O10 UNL     1     -34.505  16.507  -4.418  1.00 20.00    -0.350 OA
ENDROOT
TORSDOF 0
ENDMDL
MODEL 6
REMARK VINA RESULT:      -4.0     17.491     18.837
REMARK  0 active torsions:
REMARK  status: ('A' for Active; 'I' for Inactive)
ROOT
HETATM    1  C1  UNL     1     -35.077  16.201  -1.603  1.00 20.00     0.015 C 
HETATM    2  C2  UNL     1     -35.183  15.808  -2.733  1.00 20.00    -0.076 C 
HETATM    3  C3  UNL     1     -36.407  15.927  -6.281  1.00 20.00     0.004 C 
HETATM    4  C4  UNL     1     -35.560  14.843  -6.937  1.00 20.00     0.003 C 
HETATM    5  C5  UNL     1     -36.603  15.649  -4.792  1.00 20.00     0.055 C 
HETATM    6  C6  UNL     1     -34.141  14.846  -6.376  1.00 20.00     0.042 C 
HETATM    7  C7  UNL     1     -35.311  15.339  -4.083  1.00 20.00     0.154 A 
HETATM    8  C8  UNL     1     -34.081  14.889  -4.871  1.00 20.00     0.102 A 
HETATM    9  C9  UNL     1     -32.705  14.962  -4.279  1.00 20.00     0.050 C 
HETATM   10  O10 UNL     1     -34.934  13.950  -4.213  1.00 20.00    -0.350 OA
ENDROOT
TORSDOF 0
ENDMDL
MODEL 7
REMARK VINA RESULT:      -4.0     16.634     18.054
REMARK  0 active torsions:
REMARK  status: ('A' for Active; 'I' for Inactive)
ROOT
HETATM    1  C1  UNL     1     -35.253  16.914  -0.762  1.00 20.00     0.015 C 
HETATM    2  C2  UNL     1     -34.966  16.571  -1.877  1.00 20.00    -0.076 C 
HETATM    3  C3  UNL     1     -33.115  14.561  -4.452  1.00 20.00     0.004 C 
HETATM    4  C4  UNL     1     -33.888  14.897  -5.722  1.00 20.00     0.003 C 
HETATM    5  C5  UNL     1     -33.207  15.695  -3.433  1.00 20.00     0.055 C 
HETATM    6  C6  UNL     1     -35.383  15.007  -5.435  1.00 20.00     0.042 C 
HETATM    7  C7  UNL     1     -34.622  16.160  -3.207  1.00 20.00     0.154 A 
HETATM    8  C8  UNL     1     -35.713  15.857  -4.235  1.00 20.00     0.102 A 
HETATM    9  C9  UNL     1     -37.167  15.937  -3.876  1.00 20.00     0.050 C 
HETATM   10  O10 UNL     1     -35.048  17.121  -4.199  1.00 20.00    -0.350 OA
ENDROOT
TORSDOF 0
ENDMDL
MODEL 8
REMARK VINA RESULT:      -4.0     13.906     15.419
REMARK  0 active torsions:
REMARK  status: ('A' for Active; 'I' for Inactive)
ROOT
HETATM    1  C1  UNL     1     -33.283  15.744  -3.376  1.00 20.00     0.015 C 
HETATM    2  C2  UNL     1     -33.663  16.452  -2.483  1.00 20.00    -0.076 C 
HETATM    3  C3  UNL     1     -35.509  17.240   0.690  1.00 20.00     0.004 C 
HETATM    4  C4  UNL     1     -34.983  18.633   1.016  1.00 20.00     0.003 C 
HETATM    5  C5  UNL     1     -35.458  16.968  -0.812  1.00 20.00     0.055 C 
HETATM    6  C6  UNL     1     -33.500  18.747   0.676  1.00 20.00     0.042 C 
HETATM    7  C7  UNL     1     -34.119  17.297  -1.417  1.00 20.00     0.154 A 
HETATM    8  C8  UNL     1     -33.147  18.230  -0.694  1.00 20.00     0.102 A 
HETATM    9  C9  UNL     1     -31.689  18.261  -1.044  1.00 20.00     0.050 C 
HETATM   10  O10 UNL     1     -33.994  18.699  -1.745  1.00 20.00    -0.350 OA
ENDROOT
TORSDOF 0
ENDMDL
MODEL 9
REMARK VINA RESULT:      -3.8     17.256     18.849
REMARK  0 active torsions:
REMARK  status: ('A' for Active; 'I' for Inactive)
ROOT
HETATM    1  C1  UNL     1     -35.534  14.766  -7.154  1.00 20.00     0.015 C 
HETATM    2  C2  UNL     1     -35.363  15.016  -5.991  1.00 20.00    -0.076 C 
HETATM    3  C3  UNL     1     -33.419  16.240  -3.022  1.00 20.00     0.004 C 
HETATM    4  C4  UNL     1     -34.498  16.293  -1.946  1.00 20.00     0.003 C 
HETATM    5  C5  UNL     1     -33.748  15.192  -4.083  1.00 20.00     0.055 C 
HETATM    6  C6  UNL     1     -35.825  16.770  -2.530  1.00 20.00     0.042 C 
HETATM    7  C7  UNL     1     -35.156  15.315  -4.604  1.00 20.00     0.154 A 
HETATM    8  C8  UNL     1     -36.218  16.069  -3.803  1.00 20.00     0.102 A 
HETATM    9  C9  UNL     1     -37.483  16.554  -4.448  1.00 20.00     0.050 C 
HETATM   10  O10 UNL     1     -36.115  14.645  -3.756  1.00 20.00    -0.350 OA
ENDROOT
TORSDOF 0
ENDMDL
