MODEL 1
REMARK VINA RESULT:      -4.6      0.000      0.000
REMARK  1 active torsions:
REMARK  status: ('A' for Active; 'I' for Inactive)
REMARK    1  A    between atoms: C2_2  and  C6_6 
ROOT
HETATM    1  C1  UNL     1     -33.819  14.847  -4.430  1.00 20.00     0.139 C 
HETATM    2  C3  UNL     1     -32.687  15.606  -3.770  1.00 20.00     0.089 C 
HETATM    3  C4  UNL     1     -33.154  16.939  -3.208  1.00 20.00     0.081 C 
HETATM    4  C5  UNL     1     -35.637  15.786  -2.971  1.00 20.00     0.093 C 
HETATM    5  C6  UNL     1     -35.017  14.518  -3.551  1.00 20.00     0.133 C 
HETATM    6  O8  UNL     1     -33.732  14.465  -5.596  1.00 20.00    -0.297 OA
HETATM    7  S10 UNL     1     -34.449  16.714  -1.953  1.00 20.00    -0.168 SA
ENDROOT
BRANCH   5   8
HETATM    8  C2  UNL     1     -36.080  13.759  -4.287  1.00 20.00     0.135 C 
HETATM    9  C7  UNL     1     -37.343  14.507  -4.615  1.00 20.00     0.091 C 
HETATM   10  O9  UNL     1     -35.924  12.582  -4.611  1.00 20.00    -0.298 OA
ENDBRANCH   5   8
TORSDOF 1
ENDMDL
MODEL 2
REMARK VINA RESULT:      -4.5      1.122      1.265
REMARK  1 active torsions:
REMARK  status: ('A' for Active; 'I' for Inactive)
REMARK    1  A    between atoms: C2_2  and  C6_6 
ROOT
HETATM    1  C1  UNL     1     -34.780  14.653  -4.685  1.00 20.00     0.139 C 
HETATM    2  C3  UNL     1     -33.389  14.775  -4.098  1.00 20.00     0.089 C 
HETATM    3  C4  UNL     1     -33.148  16.152  -3.503  1.00 20.00     0.081 C 
HETATM    4  C5  UNL     1     -35.864  16.282  -3.108  1.00 20.00     0.093 C 
HETATM    5  C6  UNL     1     -35.942  14.891  -3.731  1.00 20.00     0.133 C 
HETATM    6  O8  UNL     1     -34.947  14.314  -5.856  1.00 20.00    -0.297 OA
HETATM    7  S10 UNL     1     -34.325  16.514  -2.167  1.00 20.00    -0.168 SA
ENDROOT
BRANCH   5   8
HETATM    8  C2  UNL     1     -37.275  14.740  -4.399  1.00 20.00     0.135 C 
HETATM    9  C7  UNL     1     -37.849  15.968  -5.053  1.00 20.00     0.091 C 
HETATM   10  O9  UNL     1     -37.870  13.663  -4.415  1.00 20.00    -0.298 OA
ENDBRANCH   5   8
TORSDOF 1
ENDMDL
MODEL 3
REMARK VINA RESULT:      -4.3      1.480      1.588
REMARK  1 active torsions:
REMARK  status: ('A' for Active; 'I' for Inactive)
REMARK    1  A    between atoms: C2_2  and  C6_6 
ROOT
HETATM    1  C1  UNL     1     -34.253  15.328  -3.392  1.00 20.00     0.139 C 
HETATM    2  C3  UNL     1     -34.015  16.350  -2.300  1.00 20.00     0.089 C 
HETATM    3  C4  UNL     1     -34.738  17.657  -2.583  1.00 20.00     0.081 C 
HETATM    4  C5  UNL     1     -36.537  16.162  -4.025  1.00 20.00     0.093 C 
HETATM    5  C6  UNL     1     -35.701  14.941  -3.654  1.00 20.00     0.133 C 
HETATM    6  O8  UNL     1     -33.311  14.799  -3.981  1.00 20.00    -0.297 OA
HETATM    7  S10 UNL     1     -36.534  17.410  -2.702  1.00 20.00    -0.168 SA
ENDROOT
BRANCH   5   8
HETATM    8  C2  UNL     1     -35.835  13.919  -4.743  1.00 20.00     0.135 C 
HETATM    9  C7  UNL     1     -35.886  14.437  -6.155  1.00 20.00     0.091 C 
HETATM   10  O9  UNL     1     -35.897  12.716  -4.494  1.00 20.00    -0.298 OA
ENDBRANCH   5   8
TORSDOF 1
ENDMDL
MODEL 4
REMARK VINA RESULT:      -4.3     17.513     18.415
REMARK  1 active torsions:
REMARK  status: ('A' for Active; 'I' for Inactive)
REMARK    1  A    between atoms: C2_2  and  C6_6 
ROOT
HETATM    1  C1  UNL     1     -24.095  17.210  11.362  1.00 20.00     0.139 C 
HETATM    2  C3  UNL     1     -25.421  17.373  12.076  1.00 20.00     0.089 C 
HETATM    3  C4  UNL     1     -25.953  18.792  11.962  1.00 20.00     0.081 C 
HETATM    4  C5  UNL     1     -24.534  18.963   9.615  1.00 20.00     0.093 C 
HETATM    5  C6  UNL     1     -24.085  17.528   9.873  1.00 20.00     0.133 C 
HETATM    6  O8  UNL     1     -23.105  16.780  11.952  1.00 20.00    -0.297 OA
HETATM    7  S10 UNL     1     -26.220  19.263  10.228  1.00 20.00    -0.168 SA
ENDROOT
BRANCH   5   8
HETATM    8  C2  UNL     1     -22.735  17.329   9.252  1.00 20.00     0.135 C 
HETATM    9  C7  UNL     1     -21.779  18.489   9.326  1.00 20.00     0.091 C 
HETATM   10  O9  UNL     1     -22.423  16.269   8.712  1.00 20.00    -0.298 OA
ENDBRANCH   5   8
TORSDOF 1
ENDMDL
MODEL 5
REMARK VINA RESULT:      -4.0     11.349     12.142
REMARK  1 active torsions:
REMARK  status: ('A' for Active; 'I' for Inactive)
REMARK    1  A    between atoms: C2_2  and  C6_6 
ROOT
HETATM    1  C1  UNL     1     -33.744   5.315   3.321  1.00 20.00     0.139 C 
HETATM    2  C3  UNL     1     -34.852   4.656   4.116  1.00 20.00     0.089 C 
HETATM    3  C4  UNL     1     -34.599   4.742   5.612  1.00 20.00     0.081 C 
HETATM    4  C5  UNL     1     -33.150   7.014   5.075  1.00 20.00     0.093 C 
HETATM    5  C6  UNL     1     -33.491   6.788   3.605  1.00 20.00     0.133 C 
HETATM    6  O8  UNL     1     -33.135   4.696   2.449  1.00 20.00    -0.297 OA
HETATM    7  S10 UNL     1     -34.496   6.468   6.170  1.00 20.00    -0.168 SA
ENDROOT
BRANCH   5   8
HETATM    8  C2  UNL     1     -32.385   7.354   2.765  1.00 20.00     0.135 C 
HETATM    9  C7  UNL     1     -32.761   7.848   1.394  1.00 20.00     0.091 C 
HETATM   10  O9  UNL     1     -31.227   7.413   3.177  1.00 20.00    -0.298 OA
ENDBRANCH   5   8
TORSDOF 1
ENDMDL
MODEL 6
REMARK VINA RESULT:      -4.0      2.003      2.436
REMARK  1 active torsions:
REMARK  status: ('A' for Active; 'I' for Inactive)
REMARK    1  A    between atoms: C2_2  and  C6_6 
ROOT
HETATM    1  C1  UNL     1     -34.565  14.887  -3.943  1.00 20.00     0.139 C 
HETATM    2  C3  UNL     1     -34.573  15.596  -2.604  1.00 20.00     0.089 C 
HETATM    3  C4  UNL     1     -33.811  16.910  -2.658  1.00 20.00     0.081 C 
HETATM    4  C5  UNL     1     -34.432  16.974  -5.334  1.00 20.00     0.093 C 
HETATM    5  C6  UNL     1     -35.158  15.651  -5.117  1.00 20.00     0.133 C 
HETATM    6  O8  UNL     1     -34.158  13.730  -4.045  1.00 20.00    -0.297 OA
HETATM    7  S10 UNL     1     -34.539  18.050  -3.872  1.00 20.00    -0.168 SA
ENDROOT
BRANCH   5   8
HETATM    8  C2  UNL     1     -35.115  14.866  -6.394  1.00 20.00     0.135 C 
HETATM    9  C7  UNL     1     -33.966  15.148  -7.324  1.00 20.00     0.091 C 
HETATM   10  O9  UNL     1     -35.975  14.029  -6.666  1.00 20.00    -0.298 OA
ENDBRANCH   5   8
TORSDOF 1
ENDMDL
MODEL 7
REMARK VINA RESULT:      -3.9     16.500     17.823
REMARK  1 active torsions:
REMARK  status: ('A' for Active; 'I' for Inactive)
REMARK    1  A    between atoms: C2_2  and  C6_6 
ROOT
HETATM    1  C1  UNL     1     -23.914  16.875  10.068  1.00 20.00     0.139 C 
HETATM    2  C3  UNL     1     -24.608  16.022  11.109  1.00 20.00     0.089 C 
HETATM    3  C4  UNL     1     -25.003  16.833  12.331  1.00 20.00     0.081 C 
HETATM    4  C5  UNL     1     -25.104  19.009  10.656  1.00 20.00     0.093 C 
HETATM    5  C6  UNL     1     -24.701  18.062   9.530  1.00 20.00     0.133 C 
HETATM    6  O8  UNL     1     -22.799  16.575   9.642  1.00 20.00    -0.297 OA
HETATM    7  S10 UNL     1     -26.144  18.178  11.896  1.00 20.00    -0.168 SA
ENDROOT
BRANCH   5   8
HETATM    8  C2  UNL     1     -23.936  18.839   8.501  1.00 20.00     0.135 C 
HETATM    9  C7  UNL     1     -24.627  19.084   7.187  1.00 20.00     0.091 C 
HETATM   10  O9  UNL     1     -22.801  19.259   8.721  1.00 20.00    -0.298 OA
ENDBRANCH   5   8
TORSDOF 1
ENDMDL
MODEL 8
REMARK VINA RESULT:      -3.9      2.745      3.674
REMARK  1 active torsions:
REMARK  status: ('A' for Active; 'I' for Inactive)
REMARK    1  A    between atoms: C2_2  and  C6_6 
ROOT
HETATM    1  C1  UNL     1     -35.462  14.708  -6.447  1.00 20.00     0.139 C 
HETATM    2  C3  UNL     1     -35.886  15.313  -7.769  1.00 20.00     0.089 C 
HETATM    3  C4  UNL     1     -36.236  16.785  -7.629  1.00 20.00     0.081 C 
HETATM    4  C5  UNL     1     -34.507  16.828  -5.494  1.00 20.00     0.093 C 
HETATM    5  C6  UNL     1     -34.262  15.346  -5.764  1.00 20.00     0.133 C 
HETATM    6  O8  UNL     1     -36.027  13.712  -5.995  1.00 20.00    -0.297 OA
HETATM    7  S10 UNL     1     -34.818  17.751  -7.030  1.00 20.00    -0.168 SA
ENDROOT
BRANCH   5   8
HETATM    8  C2  UNL     1     -33.913  14.675  -4.469  1.00 20.00     0.135 C 
HETATM    9  C7  UNL     1     -34.509  15.263  -3.219  1.00 20.00     0.091 C 
HETATM   10  O9  UNL     1     -33.177  13.690  -4.432  1.00 20.00    -0.298 OA
ENDBRANCH   5   8
TORSDOF 1
ENDMDL
MODEL 9
REMARK VINA RESULT:      -3.8      2.532      3.537
REMARK  1 active torsions:
REMARK  status: ('A' for Active; 'I' for Inactive)
REMARK    1  A    between atoms: C2_2  and  C6_6 
ROOT
HETATM    1  C1  UNL     1     -33.839  15.028  -5.270  1.00 20.00     0.139 C 
HETATM    2  C3  UNL     1     -34.065  14.973  -6.766  1.00 20.00     0.089 C 
HETATM    3  C4  UNL     1     -35.515  15.249  -7.128  1.00 20.00     0.081 C 
HETATM    4  C5  UNL     1     -35.649  16.708  -4.804  1.00 20.00     0.093 C 
HETATM    5  C6  UNL     1     -34.185  16.341  -4.581  1.00 20.00     0.133 C 
HETATM    6  O8  UNL     1     -33.340  14.078  -4.668  1.00 20.00    -0.297 OA
HETATM    7  S10 UNL     1     -36.036  16.898  -6.571  1.00 20.00    -0.168 SA
ENDROOT
BRANCH   5   8
HETATM    8  C2  UNL     1     -33.920  16.303  -3.106  1.00 20.00     0.135 C 
HETATM    9  C7  UNL     1     -35.067  15.895  -2.222  1.00 20.00     0.091 C 
HETATM   10  O9  UNL     1     -32.817  16.589  -2.642  1.00 20.00    -0.298 OA
ENDBRANCH   5   8
TORSDOF 1
ENDMDL
