MODEL 1
REMARK VINA RESULT:      -5.4      0.000      0.000
REMARK  0 active torsions:
REMARK  status: ('A' for Active; 'I' for Inactive)
ROOT
HETATM    1  C1  UNL     1     -32.906  17.195  -2.273  1.00 20.00     0.012 C 
HETATM    2  C2  UNL     1     -33.745  16.396  -2.584  1.00 20.00    -0.111 C 
HETATM    3  C3  UNL     1     -35.651  13.691  -4.215  1.00 20.00     0.132 C 
HETATM    4  C4  UNL     1     -36.765  14.711  -4.080  1.00 20.00     0.084 C 
HETATM    5  C5  UNL     1     -34.089  15.201  -5.282  1.00 20.00     0.014 C 
HETATM    6  C6  UNL     1     -35.157  16.308  -5.177  1.00 20.00     0.007 C 
HETATM    7  C7  UNL     1     -34.771  15.419  -2.963  1.00 20.00     0.080 C 
HETATM    8  C8  UNL     1     -34.317  14.385  -4.000  1.00 20.00     0.071 C 
HETATM    9  C9  UNL     1     -35.892  15.971  -3.857  1.00 20.00     0.009 C 
HETATM   10  O10 UNL     1     -35.802  12.511  -4.488  1.00 20.00    -0.298 OA
ENDROOT
TORSDOF 0
ENDMDL
MODEL 2
REMARK VINA RESULT:      -4.6      1.377      2.074
REMARK  0 active torsions:
REMARK  status: ('A' for Active; 'I' for Inactive)
ROOT
HETATM    1  C1  UNL     1     -32.638  18.234  -1.571  1.00 20.00     0.012 C 
HETATM    2  C2  UNL     1     -32.959  17.289  -2.238  1.00 20.00    -0.111 C 
HETATM    3  C3  UNL     1     -34.233  15.092  -4.914  1.00 20.00     0.132 C 
HETATM    4  C4  UNL     1     -34.816  14.364  -3.718  1.00 20.00     0.084 C 
HETATM    5  C5  UNL     1     -35.097  17.268  -4.300  1.00 20.00     0.014 C 
HETATM    6  C6  UNL     1     -35.719  16.617  -3.048  1.00 20.00     0.007 C 
HETATM    7  C7  UNL     1     -33.351  16.135  -3.052  1.00 20.00     0.080 C 
HETATM    8  C8  UNL     1     -33.791  16.479  -4.480  1.00 20.00     0.071 C 
HETATM    9  C9  UNL     1     -34.704  15.508  -2.680  1.00 20.00     0.009 C 
HETATM   10  O10 UNL     1     -34.162  14.645  -6.047  1.00 20.00    -0.298 OA
ENDROOT
TORSDOF 0
ENDMDL
MODEL 3
REMARK VINA RESULT:      -4.6      1.526      1.779
REMARK  0 active torsions:
REMARK  status: ('A' for Active; 'I' for Inactive)
ROOT
HETATM    1  C1  UNL     1     -34.584  18.040  -0.730  1.00 20.00     0.012 C 
HETATM    2  C2  UNL     1     -34.595  17.058  -1.419  1.00 20.00    -0.111 C 
HETATM    3  C3  UNL     1     -33.981  14.560  -4.064  1.00 20.00     0.132 C 
HETATM    4  C4  UNL     1     -35.489  14.433  -3.969  1.00 20.00     0.084 C 
HETATM    5  C5  UNL     1     -33.972  16.967  -4.322  1.00 20.00     0.014 C 
HETATM    6  C6  UNL     1     -35.511  16.938  -4.224  1.00 20.00     0.007 C 
HETATM    7  C7  UNL     1     -34.609  15.857  -2.259  1.00 20.00     0.080 C 
HETATM    8  C8  UNL     1     -33.549  15.839  -3.368  1.00 20.00     0.071 C 
HETATM    9  C9  UNL     1     -35.785  15.770  -3.246  1.00 20.00     0.009 C 
HETATM   10  O10 UNL     1     -33.240  13.778  -4.637  1.00 20.00    -0.298 OA
ENDROOT
TORSDOF 0
ENDMDL
MODEL 4
REMARK VINA RESULT:      -4.5      0.983      1.459
REMARK  0 active torsions:
REMARK  status: ('A' for Active; 'I' for Inactive)
ROOT
HETATM    1  C1  UNL     1     -33.153  17.092  -2.257  1.00 20.00     0.012 C 
HETATM    2  C2  UNL     1     -34.087  16.667  -2.879  1.00 20.00    -0.111 C 
HETATM    3  C3  UNL     1     -36.602  14.495  -4.481  1.00 20.00     0.132 C 
HETATM    4  C4  UNL     1     -36.353  15.449  -5.632  1.00 20.00     0.084 C 
HETATM    5  C5  UNL     1     -34.269  13.970  -4.111  1.00 20.00     0.014 C 
HETATM    6  C6  UNL     1     -33.916  14.932  -5.264  1.00 20.00     0.007 C 
HETATM    7  C7  UNL     1     -35.229  16.148  -3.639  1.00 20.00     0.080 C 
HETATM    8  C8  UNL     1     -35.486  14.647  -3.462  1.00 20.00     0.071 C 
HETATM    9  C9  UNL     1     -34.999  16.032  -5.155  1.00 20.00     0.009 C 
HETATM   10  O10 UNL     1     -37.532  13.707  -4.404  1.00 20.00    -0.298 OA
ENDROOT
TORSDOF 0
ENDMDL
MODEL 5
REMARK VINA RESULT:      -4.5      1.309      2.685
REMARK  0 active torsions:
REMARK  status: ('A' for Active; 'I' for Inactive)
ROOT
HETATM    1  C1  UNL     1     -35.821  18.872  -4.395  1.00 20.00     0.012 C 
HETATM    2  C2  UNL     1     -35.372  17.763  -4.486  1.00 20.00    -0.111 C 
HETATM    3  C3  UNL     1     -34.563  14.200  -3.975  1.00 20.00     0.132 C 
HETATM    4  C4  UNL     1     -33.166  14.718  -4.254  1.00 20.00     0.084 C 
HETATM    5  C5  UNL     1     -35.070  15.825  -2.255  1.00 20.00     0.014 C 
HETATM    6  C6  UNL     1     -33.668  16.429  -2.476  1.00 20.00     0.007 C 
HETATM    7  C7  UNL     1     -34.825  16.407  -4.598  1.00 20.00     0.080 C 
HETATM    8  C8  UNL     1     -35.474  15.376  -3.668  1.00 20.00     0.071 C 
HETATM    9  C9  UNL     1     -33.425  16.222  -3.990  1.00 20.00     0.009 C 
HETATM   10  O10 UNL     1     -34.893  13.024  -3.967  1.00 20.00    -0.298 OA
ENDROOT
TORSDOF 0
ENDMDL
MODEL 6
REMARK VINA RESULT:      -4.5     10.276     11.851
REMARK  0 active torsions:
REMARK  status: ('A' for Active; 'I' for Inactive)
ROOT
HETATM    1  C1  UNL     1     -41.362   9.710   0.329  1.00 20.00     0.012 C 
HETATM    2  C2  UNL     1     -41.462   8.660  -0.244  1.00 20.00    -0.111 C 
HETATM    3  C3  UNL     1     -42.672   5.456  -1.614  1.00 20.00     0.132 C 
HETATM    4  C4  UNL     1     -41.287   5.015  -1.181  1.00 20.00     0.084 C 
HETATM    5  C5  UNL     1     -43.276   6.434   0.515  1.00 20.00     0.014 C 
HETATM    6  C6  UNL     1     -41.883   6.035   1.043  1.00 20.00     0.007 C 
HETATM    7  C7  UNL     1     -41.582   7.378  -0.944  1.00 20.00     0.080 C 
HETATM    8  C8  UNL     1     -42.996   6.785  -0.954  1.00 20.00     0.071 C 
HETATM    9  C9  UNL     1     -40.976   6.175  -0.203  1.00 20.00     0.009 C 
HETATM   10  O10 UNL     1     -43.417   4.826  -2.348  1.00 20.00    -0.298 OA
ENDROOT
TORSDOF 0
ENDMDL
MODEL 7
REMARK VINA RESULT:      -4.3      2.367      3.845
REMARK  0 active torsions:
REMARK  status: ('A' for Active; 'I' for Inactive)
ROOT
HETATM    1  C1  UNL     1     -36.024  13.644  -4.523  1.00 20.00     0.012 C 
HETATM    2  C2  UNL     1     -35.354  14.364  -3.836  1.00 20.00    -0.111 C 
HETATM    3  C3  UNL     1     -34.136  17.089  -1.668  1.00 20.00     0.132 C 
HETATM    4  C4  UNL     1     -32.953  16.995  -2.611  1.00 20.00     0.084 C 
HETATM    5  C5  UNL     1     -35.804  17.270  -3.412  1.00 20.00     0.014 C 
HETATM    6  C6  UNL     1     -34.666  17.170  -4.448  1.00 20.00     0.007 C 
HETATM    7  C7  UNL     1     -34.535  15.243  -2.995  1.00 20.00     0.080 C 
HETATM    8  C8  UNL     1     -35.315  16.353  -2.280  1.00 20.00     0.071 C 
HETATM    9  C9  UNL     1     -33.643  16.229  -3.766  1.00 20.00     0.009 C 
HETATM   10  O10 UNL     1     -34.147  17.688  -0.604  1.00 20.00    -0.298 OA
ENDROOT
TORSDOF 0
ENDMDL
MODEL 8
REMARK VINA RESULT:      -4.3      1.237      2.465
REMARK  0 active torsions:
REMARK  status: ('A' for Active; 'I' for Inactive)
ROOT
HETATM    1  C1  UNL     1     -34.017  18.450  -5.134  1.00 20.00     0.012 C 
HETATM    2  C2  UNL     1     -34.460  17.338  -5.053  1.00 20.00    -0.111 C 
HETATM    3  C3  UNL     1     -36.527  14.378  -4.291  1.00 20.00     0.132 C 
HETATM    4  C4  UNL     1     -35.159  13.783  -4.017  1.00 20.00     0.084 C 
HETATM    5  C5  UNL     1     -36.216  16.322  -2.883  1.00 20.00     0.014 C 
HETATM    6  C6  UNL     1     -34.802  15.801  -2.554  1.00 20.00     0.007 C 
HETATM    7  C7  UNL     1     -35.002  15.979  -4.956  1.00 20.00     0.080 C 
HETATM    8  C8  UNL     1     -36.406  15.891  -4.346  1.00 20.00     0.071 C 
HETATM    9  C9  UNL     1     -34.364  15.104  -3.864  1.00 20.00     0.009 C 
HETATM   10  O10 UNL     1     -37.562  13.743  -4.414  1.00 20.00    -0.298 OA
ENDROOT
TORSDOF 0
ENDMDL
MODEL 9
REMARK VINA RESULT:      -4.3     10.905     12.547
REMARK  0 active torsions:
REMARK  status: ('A' for Active; 'I' for Inactive)
ROOT
HETATM    1  C1  UNL     1     -42.804   3.868  -2.487  1.00 20.00     0.012 C 
HETATM    2  C2  UNL     1     -43.055   4.802  -1.777  1.00 20.00    -0.111 C 
HETATM    3  C3  UNL     1     -43.147   8.115  -0.157  1.00 20.00     0.132 C 
HETATM    4  C4  UNL     1     -43.166   7.248   1.087  1.00 20.00     0.084 C 
HETATM    5  C5  UNL     1     -41.215   7.048  -1.149  1.00 20.00     0.014 C 
HETATM    6  C6  UNL     1     -41.161   6.110   0.074  1.00 20.00     0.007 C 
HETATM    7  C7  UNL     1     -43.363   5.943  -0.909  1.00 20.00     0.080 C 
HETATM    8  C8  UNL     1     -42.723   7.268  -1.344  1.00 20.00     0.071 C 
HETATM    9  C9  UNL     1     -42.651   5.931   0.453  1.00 20.00     0.009 C 
HETATM   10  O10 UNL     1     -43.399   9.309  -0.190  1.00 20.00    -0.298 OA
ENDROOT
TORSDOF 0
ENDMDL
