MODEL 1
REMARK VINA RESULT:      -4.0      0.000      0.000
REMARK  1 active torsions:
REMARK  status: ('A' for Active; 'I' for Inactive)
REMARK    1  A    between atoms: C1_1  and  C3_3 
ROOT
HETATM    1  C2  UNL     1     -22.007  17.392   9.121  1.00 20.00     0.056 A 
HETATM    2  C3  UNL     1     -22.777  18.641   9.389  1.00 20.00     0.067 A 
HETATM    3  C4  UNL     1     -22.859  17.501  10.355  1.00 20.00     0.122 A 
HETATM    4 CL7  UNL     1     -24.296  16.490  10.453  1.00 20.00    -0.101 Cl
HETATM    5 CL8  UNL     1     -22.044  17.705  11.906  1.00 20.00    -0.101 Cl
ENDROOT
BRANCH   2   6
HETATM    6  C1  UNL     1     -23.941  18.962   8.504  1.00 20.00     0.090 C 
HETATM    7  N6  UNL     1     -23.837  18.869   7.224  1.00 20.00    -0.310 NA
HETATM    8  C5  UNL     1     -25.065  19.223   6.518  1.00 20.00     0.176 C 
ENDBRANCH   2   6
TORSDOF 1
ENDMDL
MODEL 2
REMARK VINA RESULT:      -3.6     17.519     18.546
REMARK  1 active torsions:
REMARK  status: ('A' for Active; 'I' for Inactive)
REMARK    1  A    between atoms: C1_1  and  C3_3 
ROOT
HETATM    1  C2  UNL     1     -34.936  13.605  -3.828  1.00 20.00     0.056 A 
HETATM    2  C3  UNL     1     -35.451  14.708  -4.690  1.00 20.00     0.067 A 
HETATM    3  C4  UNL     1     -34.520  15.026  -3.563  1.00 20.00     0.122 A 
HETATM    4 CL7  UNL     1     -35.101  15.791  -2.089  1.00 20.00    -0.101 Cl
HETATM    5 CL8  UNL     1     -32.876  15.498  -3.990  1.00 20.00    -0.101 Cl
ENDROOT
BRANCH   2   6
HETATM    6  C1  UNL     1     -36.901  15.067  -4.594  1.00 20.00     0.090 C 
HETATM    7  N6  UNL     1     -37.790  14.160  -4.387  1.00 20.00    -0.310 NA
HETATM    8  C5  UNL     1     -39.150  14.688  -4.325  1.00 20.00     0.176 C 
ENDBRANCH   2   6
TORSDOF 1
ENDMDL
MODEL 3
REMARK VINA RESULT:      -3.5     15.897     16.846
REMARK  1 active torsions:
REMARK  status: ('A' for Active; 'I' for Inactive)
REMARK    1  A    between atoms: C1_1  and  C3_3 
ROOT
HETATM    1  C2  UNL     1     -32.791   5.628   2.290  1.00 20.00     0.056 A 
HETATM    2  C3  UNL     1     -33.879   6.438   2.910  1.00 20.00     0.067 A 
HETATM    3  C4  UNL     1     -32.613   7.110   2.478  1.00 20.00     0.122 A 
HETATM    4 CL7  UNL     1     -31.421   7.651   3.654  1.00 20.00    -0.101 Cl
HETATM    5 CL8  UNL     1     -32.700   8.140   1.050  1.00 20.00    -0.101 Cl
ENDROOT
BRANCH   2   6
HETATM    6  C1  UNL     1     -34.168   6.243   4.366  1.00 20.00     0.090 C 
HETATM    7  N6  UNL     1     -34.727   5.162   4.784  1.00 20.00    -0.310 NA
HETATM    8  C5  UNL     1     -34.937   5.143   6.229  1.00 20.00     0.176 C 
ENDBRANCH   2   6
TORSDOF 1
ENDMDL
MODEL 4
REMARK VINA RESULT:      -3.5     17.399     18.653
REMARK  1 active torsions:
REMARK  status: ('A' for Active; 'I' for Inactive)
REMARK    1  A    between atoms: C1_1  and  C3_3 
ROOT
HETATM    1  C2  UNL     1     -34.756  15.513  -2.734  1.00 20.00     0.056 A 
HETATM    2  C3  UNL     1     -35.526  14.612  -3.640  1.00 20.00     0.067 A 
HETATM    3  C4  UNL     1     -34.349  15.365  -4.174  1.00 20.00     0.122 A 
HETATM    4 CL7  UNL     1     -34.561  16.754  -5.235  1.00 20.00    -0.101 Cl
HETATM    5 CL8  UNL     1     -32.895  14.434  -4.530  1.00 20.00    -0.101 Cl
ENDROOT
BRANCH   2   6
HETATM    6  C1  UNL     1     -36.915  15.011  -4.028  1.00 20.00     0.090 C 
HETATM    7  N6  UNL     1     -37.834  14.124  -4.182  1.00 20.00    -0.310 NA
HETATM    8  C5  UNL     1     -39.125  14.690  -4.564  1.00 20.00     0.176 C 
ENDBRANCH   2   6
TORSDOF 1
ENDMDL
MODEL 5
REMARK VINA RESULT:      -3.4     23.315     24.279
REMARK  1 active torsions:
REMARK  status: ('A' for Active; 'I' for Inactive)
REMARK    1  A    between atoms: C1_1  and  C3_3 
ROOT
HETATM    1  C2  UNL     1     -42.424   6.936   0.900  1.00 20.00     0.056 A 
HETATM    2  C3  UNL     1     -41.359   6.702  -0.119  1.00 20.00     0.067 A 
HETATM    3  C4  UNL     1     -42.160   7.966  -0.163  1.00 20.00     0.122 A 
HETATM    4 CL7  UNL     1     -43.398   8.218  -1.388  1.00 20.00    -0.101 Cl
HETATM    5 CL8  UNL     1     -41.339   9.452   0.312  1.00 20.00    -0.101 Cl
ENDROOT
BRANCH   2   6
HETATM    6  C1  UNL     1     -41.580   5.635  -1.145  1.00 20.00     0.090 C 
HETATM    7  N6  UNL     1     -42.671   4.952  -1.158  1.00 20.00    -0.310 NA
HETATM    8  C5  UNL     1     -42.714   3.954  -2.223  1.00 20.00     0.176 C 
ENDBRANCH   2   6
TORSDOF 1
ENDMDL
MODEL 6
REMARK VINA RESULT:      -3.3     13.029     14.999
REMARK  1 active torsions:
REMARK  status: ('A' for Active; 'I' for Inactive)
REMARK    1  A    between atoms: C1_1  and  C3_3 
ROOT
HETATM    1  C2  UNL     1     -33.887  17.947  -3.093  1.00 20.00     0.056 A 
HETATM    2  C3  UNL     1     -32.789  17.370  -2.265  1.00 20.00     0.067 A 
HETATM    3  C4  UNL     1     -34.113  16.676  -2.321  1.00 20.00     0.122 A 
HETATM    4 CL7  UNL     1     -35.229  16.729  -0.961  1.00 20.00    -0.101 Cl
HETATM    5 CL8  UNL     1     -34.188  15.163  -3.224  1.00 20.00    -0.101 Cl
ENDROOT
BRANCH   2   6
HETATM    6  C1  UNL     1     -32.374  18.101  -1.026  1.00 20.00     0.090 C 
HETATM    7  N6  UNL     1     -31.129  18.303  -0.770  1.00 20.00    -0.310 NA
HETATM    8  C5  UNL     1     -30.908  19.028   0.479  1.00 20.00     0.176 C 
ENDBRANCH   2   6
TORSDOF 1
ENDMDL
MODEL 7
REMARK VINA RESULT:      -3.3     15.955     16.941
REMARK  1 active torsions:
REMARK  status: ('A' for Active; 'I' for Inactive)
REMARK    1  A    between atoms: C1_1  and  C3_3 
ROOT
HETATM    1  C2  UNL     1     -35.409   5.830   3.892  1.00 20.00     0.056 A 
HETATM    2  C3  UNL     1     -34.093   5.173   3.646  1.00 20.00     0.067 A 
HETATM    3  C4  UNL     1     -34.397   5.732   5.000  1.00 20.00     0.122 A 
HETATM    4 CL7  UNL     1     -33.646   7.222   5.560  1.00 20.00    -0.101 Cl
HETATM    5 CL8  UNL     1     -34.700   4.576   6.296  1.00 20.00    -0.101 Cl
ENDROOT
BRANCH   2   6
HETATM    6  C1  UNL     1     -33.111   5.861   2.750  1.00 20.00     0.090 C 
HETATM    7  N6  UNL     1     -33.285   7.090   2.408  1.00 20.00    -0.310 NA
HETATM    8  C5  UNL     1     -32.235   7.598   1.529  1.00 20.00     0.176 C 
ENDBRANCH   2   6
TORSDOF 1
ENDMDL
MODEL 8
REMARK VINA RESULT:      -3.2     16.119     17.461
REMARK  1 active torsions:
REMARK  status: ('A' for Active; 'I' for Inactive)
REMARK    1  A    between atoms: C1_1  and  C3_3 
ROOT
HETATM    1  C2  UNL     1     -33.778  14.542  -4.292  1.00 20.00     0.056 A 
HETATM    2  C3  UNL     1     -34.557  15.076  -3.138  1.00 20.00     0.067 A 
HETATM    3  C4  UNL     1     -35.184  15.034  -4.496  1.00 20.00     0.122 A 
HETATM    4 CL7  UNL     1     -35.411  16.502  -5.440  1.00 20.00    -0.101 Cl
HETATM    5 CL8  UNL     1     -36.450  13.835  -4.759  1.00 20.00    -0.101 Cl
ENDROOT
BRANCH   2   6
HETATM    6  C1  UNL     1     -34.138  16.383  -2.541  1.00 20.00     0.090 C 
HETATM    7  N6  UNL     1     -32.924  16.795  -2.652  1.00 20.00    -0.310 NA
HETATM    8  C5  UNL     1     -32.693  18.086  -2.009  1.00 20.00     0.176 C 
ENDBRANCH   2   6
TORSDOF 1
ENDMDL
MODEL 9
REMARK VINA RESULT:      -3.1     15.323     16.087
REMARK  1 active torsions:
REMARK  status: ('A' for Active; 'I' for Inactive)
REMARK    1  A    between atoms: C1_1  and  C3_3 
ROOT
HETATM    1  C2  UNL     1     -35.707  17.589  -1.980  1.00 20.00     0.056 A 
HETATM    2  C3  UNL     1     -35.111  16.229  -1.834  1.00 20.00     0.067 A 
HETATM    3  C4  UNL     1     -34.795  17.286  -0.823  1.00 20.00     0.122 A 
HETATM    4 CL7  UNL     1     -33.222  18.075  -0.790  1.00 20.00    -0.101 Cl
HETATM    5 CL8  UNL     1     -35.518  17.109   0.775  1.00 20.00    -0.101 Cl
ENDROOT
BRANCH   2   6
HETATM    6  C1  UNL     1     -34.073  15.799  -2.823  1.00 20.00     0.090 C 
HETATM    7  N6  UNL     1     -34.291  14.806  -3.613  1.00 20.00    -0.310 NA
HETATM    8  C5  UNL     1     -33.171  14.524  -4.507  1.00 20.00     0.176 C 
ENDBRANCH   2   6
TORSDOF 1
ENDMDL
