MODEL 1
REMARK VINA RESULT:      -5.1      0.000      0.000
REMARK  2 active torsions:
REMARK  status: ('A' for Active; 'I' for Inactive)
REMARK    1  A    between atoms: C1_1  and  C5_5 
REMARK    2  A    between atoms: C6_6  and  C9_9 
ROOT
HETATM    1  C2  UNL     1     -34.316   4.172   3.648  1.00 20.00     0.012 C 
HETATM    2  C3  UNL     1     -33.039   4.725   3.030  1.00 20.00     0.006 C 
HETATM    3  C4  UNL     1     -34.325   6.623   3.728  1.00 20.00     0.016 C 
HETATM    4  C5  UNL     1     -34.969   5.372   4.337  1.00 20.00     0.047 C 
HETATM    5  C6  UNL     1     -33.460   6.117   2.572  1.00 20.00    -0.010 C 
ENDROOT
BRANCH   5   6
HETATM    6  C9  UNL     1     -32.283   7.025   2.260  1.00 20.00    -0.019 C 
HETATM    7  C7  UNL     1     -32.677   8.102   1.249  1.00 20.00     0.010 C 
HETATM    8  C8  UNL     1     -31.739   7.669   3.537  1.00 20.00     0.010 C 
ENDBRANCH   5   6
BRANCH   4   9
HETATM    9  C1  UNL     1     -34.724   5.330   5.815  1.00 20.00     0.235 C 
HETATM   10  O10 UNL     1     -34.377   6.307   6.470  1.00 20.00    -0.306 OA
ENDBRANCH   4   9
TORSDOF 2
ENDMDL
MODEL 2
REMARK VINA RESULT:      -4.6     11.584     12.192
REMARK  2 active torsions:
REMARK  status: ('A' for Active; 'I' for Inactive)
REMARK    1  A    between atoms: C1_1  and  C5_5 
REMARK    2  A    between atoms: C6_6  and  C9_9 
ROOT
HETATM    1  C2  UNL     1     -34.209  14.766  -5.207  1.00 20.00     0.012 C 
HETATM    2  C3  UNL     1     -33.438  15.127  -3.945  1.00 20.00     0.006 C 
HETATM    3  C4  UNL     1     -35.681  15.901  -3.606  1.00 20.00     0.016 C 
HETATM    4  C5  UNL     1     -35.678  15.002  -4.848  1.00 20.00     0.047 C 
HETATM    5  C6  UNL     1     -34.222  16.313  -3.396  1.00 20.00    -0.010 C 
ENDROOT
BRANCH   5   6
HETATM    6  C9  UNL     1     -33.890  16.631  -1.948  1.00 20.00    -0.019 C 
HETATM    7  C7  UNL     1     -32.951  17.836  -1.855  1.00 20.00     0.010 C 
HETATM    8  C8  UNL     1     -35.164  16.888  -1.141  1.00 20.00     0.010 C 
ENDBRANCH   5   6
BRANCH   4   9
HETATM    9  C1  UNL     1     -36.365  13.705  -4.551  1.00 20.00     0.235 C 
HETATM   10  O10 UNL     1     -35.791  12.620  -4.553  1.00 20.00    -0.306 OA
ENDBRANCH   4   9
TORSDOF 2
ENDMDL
MODEL 3
REMARK VINA RESULT:      -4.5     11.712     12.570
REMARK  2 active torsions:
REMARK  status: ('A' for Active; 'I' for Inactive)
REMARK    1  A    between atoms: C1_1  and  C5_5 
REMARK    2  A    between atoms: C6_6  and  C9_9 
ROOT
HETATM    1  C2  UNL     1     -35.166  14.565  -3.579  1.00 20.00     0.012 C 
HETATM    2  C3  UNL     1     -35.382  15.846  -2.784  1.00 20.00     0.006 C 
HETATM    3  C4  UNL     1     -33.092  15.873  -3.492  1.00 20.00     0.016 C 
HETATM    4  C5  UNL     1     -33.805  14.750  -4.254  1.00 20.00     0.047 C 
HETATM    5  C6  UNL     1     -33.980  16.174  -2.283  1.00 20.00    -0.010 C 
ENDROOT
BRANCH   5   6
HETATM    6  C9  UNL     1     -33.845  17.601  -1.778  1.00 20.00    -0.019 C 
HETATM    7  C7  UNL     1     -34.529  17.767  -0.420  1.00 20.00     0.010 C 
HETATM    8  C8  UNL     1     -32.373  18.007  -1.684  1.00 20.00     0.010 C 
ENDBRANCH   5   6
BRANCH   4   9
HETATM    9  C1  UNL     1     -33.977  15.127  -5.694  1.00 20.00     0.235 C 
HETATM   10  O10 UNL     1     -34.732  14.539  -6.461  1.00 20.00    -0.306 OA
ENDBRANCH   4   9
TORSDOF 2
ENDMDL
MODEL 4
REMARK VINA RESULT:      -4.4     11.898     12.888
REMARK  2 active torsions:
REMARK  status: ('A' for Active; 'I' for Inactive)
REMARK    1  A    between atoms: C1_1  and  C5_5 
REMARK    2  A    between atoms: C6_6  and  C9_9 
ROOT
HETATM    1  C2  UNL     1     -33.965  18.785  -0.304  1.00 20.00     0.012 C 
HETATM    2  C3  UNL     1     -34.534  17.423  -0.677  1.00 20.00     0.006 C 
HETATM    3  C4  UNL     1     -32.647  17.777  -2.111  1.00 20.00     0.016 C 
HETATM    4  C5  UNL     1     -32.612  18.852  -1.017  1.00 20.00     0.047 C 
HETATM    5  C6  UNL     1     -34.084  17.252  -2.124  1.00 20.00    -0.010 C 
ENDROOT
BRANCH   5   6
HETATM    6  C9  UNL     1     -34.195  15.820  -2.619  1.00 20.00    -0.019 C 
HETATM    7  C7  UNL     1     -35.608  15.528  -3.129  1.00 20.00     0.010 C 
HETATM    8  C8  UNL     1     -33.167  15.542  -3.717  1.00 20.00     0.010 C 
ENDBRANCH   5   6
BRANCH   4   9
HETATM    9  C1  UNL     1     -31.495  18.579  -0.057  1.00 20.00     0.235 C 
HETATM   10  O10 UNL     1     -30.366  18.251  -0.409  1.00 20.00    -0.306 OA
ENDBRANCH   4   9
TORSDOF 2
ENDMDL
MODEL 5
REMARK VINA RESULT:      -4.4     11.678     12.723
REMARK  2 active torsions:
REMARK  status: ('A' for Active; 'I' for Inactive)
REMARK    1  A    between atoms: C1_1  and  C5_5 
REMARK    2  A    between atoms: C6_6  and  C9_9 
ROOT
HETATM    1  C2  UNL     1     -35.157  14.559  -3.543  1.00 20.00     0.012 C 
HETATM    2  C3  UNL     1     -35.374  15.869  -2.798  1.00 20.00     0.006 C 
HETATM    3  C4  UNL     1     -33.085  15.872  -3.511  1.00 20.00     0.016 C 
HETATM    4  C5  UNL     1     -33.799  14.719  -4.228  1.00 20.00     0.047 C 
HETATM    5  C6  UNL     1     -33.971  16.219  -2.313  1.00 20.00    -0.010 C 
ENDROOT
BRANCH   5   6
HETATM    6  C9  UNL     1     -33.836  17.664  -1.864  1.00 20.00    -0.019 C 
HETATM    7  C7  UNL     1     -32.376  18.009  -1.566  1.00 20.00     0.010 C 
HETATM    8  C8  UNL     1     -34.402  18.616  -2.920  1.00 20.00     0.010 C 
ENDBRANCH   5   6
BRANCH   4   9
HETATM    9  C1  UNL     1     -33.974  15.040  -5.681  1.00 20.00     0.235 C 
HETATM   10  O10 UNL     1     -34.800  14.488  -6.400  1.00 20.00    -0.306 OA
ENDBRANCH   4   9
TORSDOF 2
ENDMDL
MODEL 6
REMARK VINA RESULT:      -4.3     11.953     12.597
REMARK  2 active torsions:
REMARK  status: ('A' for Active; 'I' for Inactive)
REMARK    1  A    between atoms: C1_1  and  C5_5 
REMARK    2  A    between atoms: C6_6  and  C9_9 
ROOT
HETATM    1  C2  UNL     1     -36.082  15.055  -3.499  1.00 20.00     0.012 C 
HETATM    2  C3  UNL     1     -35.457  16.322  -2.930  1.00 20.00     0.006 C 
HETATM    3  C4  UNL     1     -33.660  15.060  -3.889  1.00 20.00     0.016 C 
HETATM    4  C5  UNL     1     -34.977  14.423  -4.348  1.00 20.00     0.047 C 
HETATM    5  C6  UNL     1     -34.018  15.899  -2.661  1.00 20.00    -0.010 C 
ENDROOT
BRANCH   5   6
HETATM    6  C9  UNL     1     -33.080  17.074  -2.442  1.00 20.00    -0.019 C 
HETATM    7  C7  UNL     1     -33.094  18.015  -3.648  1.00 20.00     0.010 C 
HETATM    8  C8  UNL     1     -33.452  17.838  -1.169  1.00 20.00     0.010 C 
ENDBRANCH   5   6
BRANCH   4   9
HETATM    9  C1  UNL     1     -35.206  14.698  -5.803  1.00 20.00     0.235 C 
HETATM   10  O10 UNL     1     -35.931  14.010  -6.515  1.00 20.00    -0.306 OA
ENDBRANCH   4   9
TORSDOF 2
ENDMDL
MODEL 7
REMARK VINA RESULT:      -4.3      2.395      4.121
REMARK  2 active torsions:
REMARK  status: ('A' for Active; 'I' for Inactive)
REMARK    1  A    between atoms: C1_1  and  C5_5 
REMARK    2  A    between atoms: C6_6  and  C9_9 
ROOT
HETATM    1  C2  UNL     1     -32.924   5.615   1.892  1.00 20.00     0.012 C 
HETATM    2  C3  UNL     1     -34.011   5.377   2.932  1.00 20.00     0.006 C 
HETATM    3  C4  UNL     1     -32.774   7.290   3.679  1.00 20.00     0.016 C 
HETATM    4  C5  UNL     1     -32.349   6.991   2.235  1.00 20.00     0.047 C 
HETATM    5  C6  UNL     1     -33.417   6.000   4.191  1.00 20.00    -0.010 C 
ENDROOT
BRANCH   5   6
HETATM    6  C9  UNL     1     -34.446   6.234   5.284  1.00 20.00    -0.019 C 
HETATM    7  C7  UNL     1     -34.865   4.913   5.932  1.00 20.00     0.010 C 
HETATM    8  C8  UNL     1     -33.905   7.196   6.343  1.00 20.00     0.010 C 
ENDBRANCH   5   6
BRANCH   4   9
HETATM    9  C1  UNL     1     -32.891   8.036   1.309  1.00 20.00     0.235 C 
HETATM   10  O10 UNL     1     -32.310   8.407   0.294  1.00 20.00    -0.306 OA
ENDBRANCH   4   9
TORSDOF 2
ENDMDL
MODEL 8
REMARK VINA RESULT:      -4.3     11.657     12.409
REMARK  2 active torsions:
REMARK  status: ('A' for Active; 'I' for Inactive)
REMARK    1  A    between atoms: C1_1  and  C5_5 
REMARK    2  A    between atoms: C6_6  and  C9_9 
ROOT
HETATM    1  C2  UNL     1     -33.994  14.707  -5.075  1.00 20.00     0.012 C 
HETATM    2  C3  UNL     1     -33.484  15.407  -3.822  1.00 20.00     0.006 C 
HETATM    3  C4  UNL     1     -35.759  16.106  -4.103  1.00 20.00     0.016 C 
HETATM    4  C5  UNL     1     -35.507  14.935  -5.061  1.00 20.00     0.047 C 
HETATM    5  C6  UNL     1     -34.374  16.642  -3.739  1.00 20.00    -0.010 C 
ENDROOT
BRANCH   5   6
HETATM    6  C9  UNL     1     -34.330  17.320  -2.379  1.00 20.00    -0.019 C 
HETATM    7  C7  UNL     1     -35.112  16.512  -1.342  1.00 20.00     0.010 C 
HETATM    8  C8  UNL     1     -32.886  17.521  -1.917  1.00 20.00     0.010 C 
ENDBRANCH   5   6
BRANCH   4   9
HETATM    9  C1  UNL     1     -36.222  13.709  -4.582  1.00 20.00     0.235 C 
HETATM   10  O10 UNL     1     -37.442  13.638  -4.474  1.00 20.00    -0.306 OA
ENDBRANCH   4   9
TORSDOF 2
ENDMDL
MODEL 9
REMARK VINA RESULT:      -4.1     11.724     12.558
REMARK  2 active torsions:
REMARK  status: ('A' for Active; 'I' for Inactive)
REMARK    1  A    between atoms: C1_1  and  C5_5 
REMARK    2  A    between atoms: C6_6  and  C9_9 
ROOT
HETATM    1  C2  UNL     1     -32.995  15.861  -3.391  1.00 20.00     0.012 C 
HETATM    2  C3  UNL     1     -33.720  15.144  -4.523  1.00 20.00     0.006 C 
HETATM    3  C4  UNL     1     -35.353  15.514  -2.807  1.00 20.00     0.016 C 
HETATM    4  C5  UNL     1     -34.107  16.338  -2.455  1.00 20.00     0.047 C 
HETATM    5  C6  UNL     1     -34.875  14.456  -3.803  1.00 20.00    -0.010 C 
ENDROOT
BRANCH   5   6
HETATM    6  C9  UNL     1     -35.968  13.980  -4.745  1.00 20.00    -0.019 C 
HETATM    7  C7  UNL     1     -37.343  14.443  -4.262  1.00 20.00     0.010 C 
HETATM    8  C8  UNL     1     -35.711  14.473  -6.170  1.00 20.00     0.010 C 
ENDBRANCH   5   6
BRANCH   4   9
HETATM    9  C1  UNL     1     -34.377  17.798  -2.656  1.00 20.00     0.235 C 
HETATM   10  O10 UNL     1     -33.529  18.670  -2.495  1.00 20.00    -0.306 OA
ENDBRANCH   4   9
TORSDOF 2
ENDMDL
