MODEL 1
REMARK VINA RESULT:      -4.2      0.000      0.000
REMARK  1 active torsions:
REMARK  status: ('A' for Active; 'I' for Inactive)
REMARK    1  A    between atoms: C2_2  and  C4_4 
ROOT
HETATM    1  C1  UNL     1     -24.474  17.924  11.701  1.00 20.00     0.131 C 
HETATM    2  C3  UNL     1     -22.360  17.674  11.278  1.00 20.00     0.191 C 
HETATM    3  C4  UNL     1     -23.162  17.442  10.014  1.00 20.00     0.219 C 
HETATM    4  C5  UNL     1     -25.803  18.178  12.313  1.00 20.00     0.099 C 
HETATM    5  N7  UNL     1     -23.336  18.132  12.277  1.00 20.00    -0.268 NA
HETATM    6  O9  UNL     1     -24.513  17.450  10.436  1.00 20.00    -0.323 OA
ENDROOT
BRANCH   3   7
HETATM    7  C2  UNL     1     -23.009  18.551   9.022  1.00 20.00     0.153 C 
HETATM    8  C6  UNL     1     -24.144  18.753   8.054  1.00 20.00     0.093 C 
HETATM    9  O8  UNL     1     -22.007  19.263   8.999  1.00 20.00    -0.295 OA
ENDBRANCH   3   7
TORSDOF 1
ENDMDL
MODEL 2
REMARK VINA RESULT:      -4.0      2.181      3.643
REMARK  1 active torsions:
REMARK  status: ('A' for Active; 'I' for Inactive)
REMARK    1  A    between atoms: C2_2  and  C4_4 
ROOT
HETATM    1  C1  UNL     1     -23.723  18.683   7.888  1.00 20.00     0.131 C 
HETATM    2  C3  UNL     1     -21.872  17.779   8.574  1.00 20.00     0.191 C 
HETATM    3  C4  UNL     1     -22.630  18.346   9.757  1.00 20.00     0.219 C 
HETATM    4  C5  UNL     1     -24.880  19.182   7.104  1.00 20.00     0.099 C 
HETATM    5  N7  UNL     1     -22.775  17.934   7.425  1.00 20.00    -0.268 NA
HETATM    6  O9  UNL     1     -23.711  19.060   9.186  1.00 20.00    -0.323 OA
ENDROOT
BRANCH   3   7
HETATM    7  C2  UNL     1     -23.220  17.284  10.628  1.00 20.00     0.153 C 
HETATM    8  C6  UNL     1     -22.911  17.367  12.099  1.00 20.00     0.093 C 
HETATM    9  O8  UNL     1     -23.924  16.388  10.167  1.00 20.00    -0.295 OA
ENDBRANCH   3   7
TORSDOF 1
ENDMDL
MODEL 3
REMARK VINA RESULT:      -3.9     17.962     19.422
REMARK  1 active torsions:
REMARK  status: ('A' for Active; 'I' for Inactive)
REMARK    1  A    between atoms: C2_2  and  C4_4 
ROOT
HETATM    1  C1  UNL     1     -35.069  14.754  -6.160  1.00 20.00     0.131 C 
HETATM    2  C3  UNL     1     -36.176  14.020  -4.442  1.00 20.00     0.191 C 
HETATM    3  C4  UNL     1     -34.717  14.194  -4.072  1.00 20.00     0.219 C 
HETATM    4  C5  UNL     1     -34.632  15.256  -7.487  1.00 20.00     0.099 C 
HETATM    5  N7  UNL     1     -36.298  14.569  -5.801  1.00 20.00    -0.268 NA
HETATM    6  O9  UNL     1     -34.066  14.495  -5.292  1.00 20.00    -0.323 OA
ENDROOT
BRANCH   3   7
HETATM    7  C2  UNL     1     -34.488  15.355  -3.157  1.00 20.00     0.153 C 
HETATM    8  C6  UNL     1     -33.166  16.062  -3.281  1.00 20.00     0.093 C 
HETATM    9  O8  UNL     1     -35.339  15.714  -2.345  1.00 20.00    -0.295 OA
ENDBRANCH   3   7
TORSDOF 1
ENDMDL
MODEL 4
REMARK VINA RESULT:      -3.9     17.994     19.418
REMARK  1 active torsions:
REMARK  status: ('A' for Active; 'I' for Inactive)
REMARK    1  A    between atoms: C2_2  and  C4_4 
ROOT
HETATM    1  C1  UNL     1     -34.118  16.076  -4.101  1.00 20.00     0.131 C 
HETATM    2  C3  UNL     1     -35.718  16.137  -5.567  1.00 20.00     0.191 C 
HETATM    3  C4  UNL     1     -35.202  14.719  -5.435  1.00 20.00     0.219 C 
HETATM    4  C5  UNL     1     -33.100  16.378  -3.063  1.00 20.00     0.099 C 
HETATM    5  N7  UNL     1     -35.021  16.901  -4.522  1.00 20.00    -0.268 NA
HETATM    6  O9  UNL     1     -34.060  14.824  -4.605  1.00 20.00    -0.323 OA
ENDROOT
BRANCH   3   7
HETATM    7  C2  UNL     1     -36.167  13.815  -4.736  1.00 20.00     0.153 C 
HETATM    8  C6  UNL     1     -37.490  14.414  -4.342  1.00 20.00     0.093 C 
HETATM    9  O8  UNL     1     -35.894  12.641  -4.496  1.00 20.00    -0.295 OA
ENDBRANCH   3   7
TORSDOF 1
ENDMDL
MODEL 5
REMARK VINA RESULT:      -3.8     17.473     18.797
REMARK  1 active torsions:
REMARK  status: ('A' for Active; 'I' for Inactive)
REMARK    1  A    between atoms: C2_2  and  C4_4 
ROOT
HETATM    1  C1  UNL     1     -34.386  15.791  -2.911  1.00 20.00     0.131 C 
HETATM    2  C3  UNL     1     -33.620  14.562  -4.529  1.00 20.00     0.191 C 
HETATM    3  C4  UNL     1     -34.874  13.931  -3.961  1.00 20.00     0.219 C 
HETATM    4  C5  UNL     1     -34.639  16.841  -1.893  1.00 20.00     0.099 C 
HETATM    5  N7  UNL     1     -33.497  15.859  -3.848  1.00 20.00    -0.268 NA
HETATM    6  O9  UNL     1     -35.181  14.702  -2.815  1.00 20.00    -0.323 OA
ENDROOT
BRANCH   3   7
HETATM    7  C2  UNL     1     -36.045  14.040  -4.886  1.00 20.00     0.153 C 
HETATM    8  C6  UNL     1     -35.779  14.623  -6.248  1.00 20.00     0.093 C 
HETATM    9  O8  UNL     1     -37.169  13.670  -4.551  1.00 20.00    -0.295 OA
ENDBRANCH   3   7
TORSDOF 1
ENDMDL
MODEL 6
REMARK VINA RESULT:      -3.8      1.920      3.641
REMARK  1 active torsions:
REMARK  status: ('A' for Active; 'I' for Inactive)
REMARK    1  A    between atoms: C2_2  and  C4_4 
ROOT
HETATM    1  C1  UNL     1     -22.630  17.672   8.801  1.00 20.00     0.131 C 
HETATM    2  C3  UNL     1     -24.573  18.500   9.303  1.00 20.00     0.191 C 
HETATM    3  C4  UNL     1     -24.272  17.323  10.207  1.00 20.00     0.219 C 
HETATM    4  C5  UNL     1     -21.294  17.373   8.227  1.00 20.00     0.099 C 
HETATM    5  N7  UNL     1     -23.342  18.716   8.527  1.00 20.00    -0.268 NA
HETATM    6  O9  UNL     1     -23.087  16.755   9.682  1.00 20.00    -0.323 OA
ENDROOT
BRANCH   3   7
HETATM    7  C2  UNL     1     -23.973  17.735  11.613  1.00 20.00     0.153 C 
HETATM    8  C6  UNL     1     -25.043  18.512  12.332  1.00 20.00     0.093 C 
HETATM    9  O8  UNL     1     -22.906  17.453  12.155  1.00 20.00    -0.295 OA
ENDBRANCH   3   7
TORSDOF 1
ENDMDL
MODEL 7
REMARK VINA RESULT:      -3.7     17.277     18.567
REMARK  1 active torsions:
REMARK  status: ('A' for Active; 'I' for Inactive)
REMARK    1  A    between atoms: C2_2  and  C4_4 
ROOT
HETATM    1  C1  UNL     1     -34.059  15.869  -2.882  1.00 20.00     0.131 C 
HETATM    2  C3  UNL     1     -33.301  14.517  -4.403  1.00 20.00     0.191 C 
HETATM    3  C4  UNL     1     -34.659  14.041  -3.930  1.00 20.00     0.219 C 
HETATM    4  C5  UNL     1     -34.280  16.971  -1.912  1.00 20.00     0.099 C 
HETATM    5  N7  UNL     1     -33.094  15.814  -3.741  1.00 20.00    -0.268 NA
HETATM    6  O9  UNL     1     -34.973  14.875  -2.830  1.00 20.00    -0.323 OA
ENDROOT
BRANCH   3   7
HETATM    7  C2  UNL     1     -35.731  14.246  -4.952  1.00 20.00     0.153 C 
HETATM    8  C6  UNL     1     -37.126  14.473  -4.433  1.00 20.00     0.093 C 
HETATM    9  O8  UNL     1     -35.486  14.230  -6.157  1.00 20.00    -0.295 OA
ENDBRANCH   3   7
TORSDOF 1
ENDMDL
MODEL 8
REMARK VINA RESULT:      -3.7     23.218     24.123
REMARK  1 active torsions:
REMARK  status: ('A' for Active; 'I' for Inactive)
REMARK    1  A    between atoms: C2_2  and  C4_4 
ROOT
HETATM    1  C1  UNL     1     -41.393   8.149  -0.079  1.00 20.00     0.131 C 
HETATM    2  C3  UNL     1     -41.242   6.268  -1.154  1.00 20.00     0.191 C 
HETATM    3  C4  UNL     1     -41.383   5.997   0.330  1.00 20.00     0.219 C 
HETATM    4  C5  UNL     1     -41.483   9.573   0.331  1.00 20.00     0.099 C 
HETATM    5  N7  UNL     1     -41.417   7.721  -1.299  1.00 20.00    -0.268 NA
HETATM    6  O9  UNL     1     -41.291   7.270   0.942  1.00 20.00    -0.323 OA
ENDROOT
BRANCH   3   7
HETATM    7  C2  UNL     1     -42.722   5.436   0.690  1.00 20.00     0.153 C 
HETATM    8  C6  UNL     1     -43.417   4.616  -0.364  1.00 20.00     0.093 C 
HETATM    9  O8  UNL     1     -43.230   5.634   1.792  1.00 20.00    -0.295 OA
ENDBRANCH   3   7
TORSDOF 1
ENDMDL
MODEL 9
REMARK VINA RESULT:      -3.7      1.751      3.495
REMARK  1 active torsions:
REMARK  status: ('A' for Active; 'I' for Inactive)
REMARK    1  A    between atoms: C2_2  and  C4_4 
ROOT
HETATM    1  C1  UNL     1     -24.206  18.346   8.924  1.00 20.00     0.131 C 
HETATM    2  C3  UNL     1     -22.829  17.417  10.322  1.00 20.00     0.191 C 
HETATM    3  C4  UNL     1     -24.024  17.966  11.073  1.00 20.00     0.219 C 
HETATM    4  C5  UNL     1     -24.915  18.867   7.728  1.00 20.00     0.099 C 
HETATM    5  N7  UNL     1     -23.150  17.600   8.899  1.00 20.00    -0.268 NA
HETATM    6  O9  UNL     1     -24.756  18.697  10.108  1.00 20.00    -0.323 OA
ENDROOT
BRANCH   3   7
HETATM    7  C2  UNL     1     -24.930  16.890  11.584  1.00 20.00     0.153 C 
HETATM    8  C6  UNL     1     -26.172  17.339  12.305  1.00 20.00     0.093 C 
HETATM    9  O8  UNL     1     -24.673  15.699  11.421  1.00 20.00    -0.295 OA
ENDBRANCH   3   7
TORSDOF 1
ENDMDL
