MODEL 1
REMARK VINA RESULT:      -4.9      0.000      0.000
REMARK  2 active torsions:
REMARK  status: ('A' for Active; 'I' for Inactive)
REMARK    1  A    between atoms: C3_3  and  C5_5 
REMARK    2  A    between atoms: C3_3  and  O11_11 
ROOT
HETATM    1  C1  UNL     1     -34.269  15.585  -7.456  1.00 20.00     0.013 C 
HETATM    2  C2  UNL     1     -34.471  15.194  -6.339  1.00 20.00    -0.096 C 
HETATM    3  C4  UNL     1     -33.499  14.361  -4.169  1.00 20.00     0.044 A 
HETATM    4  C5  UNL     1     -34.715  14.726  -4.998  1.00 20.00     0.118 A 
HETATM    5  C6  UNL     1     -34.279  15.601  -3.813  1.00 20.00    -0.018 A 
HETATM    6  C7  UNL     1     -35.091  15.573  -2.539  1.00 20.00     0.017 C 
HETATM    7  C8  UNL     1     -33.626  16.939  -4.067  1.00 20.00     0.017 C 
ENDROOT
BRANCH   4   8
HETATM    8  C3  UNL     1     -35.915  13.875  -4.856  1.00 20.00     0.280 C 
HETATM    9  O10 UNL     1     -35.895  12.728  -4.430  1.00 20.00    -0.263 OA
BRANCH   8  10
HETATM   10  O11 UNL     1     -37.015  14.567  -5.269  1.00 20.00    -0.325 OA
HETATM   11  C9  UNL     1     -38.084  14.643  -4.320  1.00 20.00     0.213 C 
ENDBRANCH   8  10
ENDBRANCH   4   8
TORSDOF 2
ENDMDL
MODEL 2
REMARK VINA RESULT:      -4.5      1.020      1.061
REMARK  2 active torsions:
REMARK  status: ('A' for Active; 'I' for Inactive)
REMARK    1  A    between atoms: C3_3  and  C5_5 
REMARK    2  A    between atoms: C3_3  and  O11_11 
ROOT
HETATM    1  C1  UNL     1     -34.004  15.163  -7.155  1.00 20.00     0.013 C 
HETATM    2  C2  UNL     1     -34.526  14.971  -6.091  1.00 20.00    -0.096 C 
HETATM    3  C4  UNL     1     -34.446  13.794  -3.865  1.00 20.00     0.044 A 
HETATM    4  C5  UNL     1     -35.154  14.741  -4.815  1.00 20.00     0.118 A 
HETATM    5  C6  UNL     1     -34.469  15.267  -3.543  1.00 20.00    -0.018 A 
HETATM    6  C7  UNL     1     -35.321  15.714  -2.379  1.00 20.00     0.017 C 
HETATM    7  C8  UNL     1     -33.169  16.028  -3.650  1.00 20.00     0.017 C 
ENDROOT
BRANCH   4   8
HETATM    8  C3  UNL     1     -36.630  14.682  -4.860  1.00 20.00     0.280 C 
HETATM    9  O10 UNL     1     -37.288  13.724  -4.479  1.00 20.00    -0.263 OA
BRANCH   8  10
HETATM   10  O11 UNL     1     -37.116  15.844  -5.382  1.00 20.00    -0.325 OA
HETATM   11  C9  UNL     1     -38.331  16.320  -4.795  1.00 20.00     0.213 C 
ENDBRANCH   8  10
ENDBRANCH   4   8
TORSDOF 2
ENDMDL
MODEL 3
REMARK VINA RESULT:      -4.0      1.350      2.261
REMARK  2 active torsions:
REMARK  status: ('A' for Active; 'I' for Inactive)
REMARK    1  A    between atoms: C3_3  and  C5_5 
REMARK    2  A    between atoms: C3_3  and  O11_11 
ROOT
HETATM    1  C1  UNL     1     -32.399  14.383  -4.362  1.00 20.00     0.013 C 
HETATM    2  C2  UNL     1     -33.545  14.697  -4.188  1.00 20.00    -0.096 C 
HETATM    3  C4  UNL     1     -35.288  15.586  -2.601  1.00 20.00     0.044 A 
HETATM    4  C5  UNL     1     -34.920  15.074  -3.980  1.00 20.00     0.118 A 
HETATM    5  C6  UNL     1     -35.260  16.555  -3.755  1.00 20.00    -0.018 A 
HETATM    6  C7  UNL     1     -36.583  17.092  -4.249  1.00 20.00     0.017 C 
HETATM    7  C8  UNL     1     -34.160  17.590  -3.774  1.00 20.00     0.017 C 
ENDROOT
BRANCH   4   8
HETATM    8  C3  UNL     1     -35.902  14.212  -4.670  1.00 20.00     0.280 C 
HETATM    9  O10 UNL     1     -36.949  13.828  -4.167  1.00 20.00    -0.263 OA
BRANCH   8  10
HETATM   10  O11 UNL     1     -35.455  13.927  -5.927  1.00 20.00    -0.325 OA
HETATM   11  C9  UNL     1     -35.914  14.808  -6.956  1.00 20.00     0.213 C 
ENDBRANCH   8  10
ENDBRANCH   4   8
TORSDOF 2
ENDMDL
MODEL 4
REMARK VINA RESULT:      -4.0      1.603      3.513
REMARK  2 active torsions:
REMARK  status: ('A' for Active; 'I' for Inactive)
REMARK    1  A    between atoms: C3_3  and  C5_5 
REMARK    2  A    between atoms: C3_3  and  O11_11 
ROOT
HETATM    1  C1  UNL     1     -35.029  16.252  -1.735  1.00 20.00     0.013 C 
HETATM    2  C2  UNL     1     -35.452  15.717  -2.722  1.00 20.00    -0.096 C 
HETATM    3  C4  UNL     1     -37.447  15.205  -4.174  1.00 20.00     0.044 A 
HETATM    4  C5  UNL     1     -35.960  15.075  -3.909  1.00 20.00     0.118 A 
HETATM    5  C6  UNL     1     -36.480  15.946  -5.062  1.00 20.00    -0.018 A 
HETATM    6  C7  UNL     1     -36.323  15.459  -6.483  1.00 20.00     0.017 C 
HETATM    7  C8  UNL     1     -36.434  17.452  -4.946  1.00 20.00     0.017 C 
ENDROOT
BRANCH   4   8
HETATM    8  C3  UNL     1     -35.324  13.778  -4.222  1.00 20.00     0.280 C 
HETATM    9  O10 UNL     1     -35.936  12.789  -4.599  1.00 20.00    -0.263 OA
BRANCH   8  10
HETATM   10  O11 UNL     1     -33.977  13.872  -4.026  1.00 20.00    -0.325 OA
HETATM   11  C9  UNL     1     -33.250  14.536  -5.064  1.00 20.00     0.213 C 
ENDBRANCH   8  10
ENDBRANCH   4   8
TORSDOF 2
ENDMDL
MODEL 5
REMARK VINA RESULT:      -3.9      1.285      2.701
REMARK  2 active torsions:
REMARK  status: ('A' for Active; 'I' for Inactive)
REMARK    1  A    between atoms: C3_3  and  C5_5 
REMARK    2  A    between atoms: C3_3  and  O11_11 
ROOT
HETATM    1  C1  UNL     1     -32.497  14.503  -4.186  1.00 20.00     0.013 C 
HETATM    2  C2  UNL     1     -33.590  14.658  -4.658  1.00 20.00    -0.096 C 
HETATM    3  C4  UNL     1     -35.270  16.251  -5.651  1.00 20.00     0.044 A 
HETATM    4  C5  UNL     1     -34.902  14.843  -5.224  1.00 20.00     0.118 A 
HETATM    5  C6  UNL     1     -35.027  15.207  -6.711  1.00 20.00    -0.018 A 
HETATM    6  C7  UNL     1     -36.221  14.714  -7.493  1.00 20.00     0.017 C 
HETATM    7  C8  UNL     1     -33.783  15.344  -7.558  1.00 20.00     0.017 C 
ENDROOT
BRANCH   4   8
HETATM    8  C3  UNL     1     -35.961  14.024  -4.597  1.00 20.00     0.280 C 
HETATM    9  O10 UNL     1     -35.997  12.802  -4.642  1.00 20.00    -0.263 OA
BRANCH   8  10
HETATM   10  O11 UNL     1     -36.862  14.840  -3.978  1.00 20.00    -0.325 OA
HETATM   11  C9  UNL     1     -38.235  14.578  -4.280  1.00 20.00     0.213 C 
ENDBRANCH   8  10
ENDBRANCH   4   8
TORSDOF 2
ENDMDL
MODEL 6
REMARK VINA RESULT:      -3.9      1.830      2.786
REMARK  2 active torsions:
REMARK  status: ('A' for Active; 'I' for Inactive)
REMARK    1  A    between atoms: C3_3  and  C5_5 
REMARK    2  A    between atoms: C3_3  and  O11_11 
ROOT
HETATM    1  C1  UNL     1     -34.006  18.621  -4.530  1.00 20.00     0.013 C 
HETATM    2  C2  UNL     1     -34.044  17.427  -4.649  1.00 20.00    -0.096 C 
HETATM    3  C4  UNL     1     -33.111  15.191  -3.956  1.00 20.00     0.044 A 
HETATM    4  C5  UNL     1     -34.089  15.994  -4.792  1.00 20.00     0.118 A 
HETATM    5  C6  UNL     1     -34.577  15.143  -3.609  1.00 20.00    -0.018 A 
HETATM    6  C7  UNL     1     -35.318  13.855  -3.883  1.00 20.00     0.017 C 
HETATM    7  C8  UNL     1     -35.018  15.816  -2.331  1.00 20.00     0.017 C 
ENDROOT
BRANCH   4   8
HETATM    8  C3  UNL     1     -34.354  15.524  -6.168  1.00 20.00     0.280 C 
HETATM    9  O10 UNL     1     -33.649  14.722  -6.764  1.00 20.00    -0.263 OA
BRANCH   8  10
HETATM   10  O11 UNL     1     -35.484  16.121  -6.643  1.00 20.00    -0.325 OA
HETATM   11  C9  UNL     1     -36.041  15.530  -7.821  1.00 20.00     0.213 C 
ENDBRANCH   8  10
ENDBRANCH   4   8
TORSDOF 2
ENDMDL
MODEL 7
REMARK VINA RESULT:      -3.8      2.006      2.695
REMARK  2 active torsions:
REMARK  status: ('A' for Active; 'I' for Inactive)
REMARK    1  A    between atoms: C3_3  and  C5_5 
REMARK    2  A    between atoms: C3_3  and  O11_11 
ROOT
HETATM    1  C1  UNL     1     -32.921  14.450  -4.376  1.00 20.00     0.013 C 
HETATM    2  C2  UNL     1     -33.750  15.205  -3.947  1.00 20.00    -0.096 C 
HETATM    3  C4  UNL     1     -35.027  16.045  -1.944  1.00 20.00     0.044 A 
HETATM    4  C5  UNL     1     -34.746  16.111  -3.433  1.00 20.00     0.118 A 
HETATM    5  C6  UNL     1     -34.306  17.248  -2.497  1.00 20.00    -0.018 A 
HETATM    6  C7  UNL     1     -35.054  18.559  -2.528  1.00 20.00     0.017 C 
HETATM    7  C8  UNL     1     -32.845  17.410  -2.149  1.00 20.00     0.017 C 
ENDROOT
BRANCH   4   8
HETATM    8  C3  UNL     1     -35.897  16.332  -4.334  1.00 20.00     0.280 C 
HETATM    9  O10 UNL     1     -35.813  16.863  -5.433  1.00 20.00    -0.263 OA
BRANCH   8  10
HETATM   10  O11 UNL     1     -37.032  15.856  -3.747  1.00 20.00    -0.325 OA
HETATM   11  C9  UNL     1     -37.556  14.651  -4.312  1.00 20.00     0.213 C 
ENDBRANCH   8  10
ENDBRANCH   4   8
TORSDOF 2
ENDMDL
MODEL 8
REMARK VINA RESULT:      -3.8      1.465      3.118
REMARK  2 active torsions:
REMARK  status: ('A' for Active; 'I' for Inactive)
REMARK    1  A    between atoms: C3_3  and  C5_5 
REMARK    2  A    between atoms: C3_3  and  O11_11 
ROOT
HETATM    1  C1  UNL     1     -38.016  16.298  -3.980  1.00 20.00     0.013 C 
HETATM    2  C2  UNL     1     -36.908  16.094  -4.396  1.00 20.00    -0.096 C 
HETATM    3  C4  UNL     1     -34.565  16.962  -4.719  1.00 20.00     0.044 A 
HETATM    4  C5  UNL     1     -35.579  15.848  -4.896  1.00 20.00     0.118 A 
HETATM    5  C6  UNL     1     -34.422  15.708  -3.896  1.00 20.00    -0.018 A 
HETATM    6  C7  UNL     1     -33.272  14.784  -4.223  1.00 20.00     0.017 C 
HETATM    7  C8  UNL     1     -34.694  15.807  -2.413  1.00 20.00     0.017 C 
ENDROOT
BRANCH   4   8
HETATM    8  C3  UNL     1     -35.532  15.079  -6.157  1.00 20.00     0.280 C 
HETATM    9  O10 UNL     1     -35.904  13.919  -6.265  1.00 20.00    -0.263 OA
BRANCH   8  10
HETATM   10  O11 UNL     1     -35.017  15.861  -7.149  1.00 20.00    -0.325 OA
HETATM   11  C9  UNL     1     -33.953  15.275  -7.904  1.00 20.00     0.213 C 
ENDBRANCH   8  10
ENDBRANCH   4   8
TORSDOF 2
ENDMDL
MODEL 9
REMARK VINA RESULT:      -3.8     17.931     19.466
REMARK  2 active torsions:
REMARK  status: ('A' for Active; 'I' for Inactive)
REMARK    1  A    between atoms: C3_3  and  C5_5 
REMARK    2  A    between atoms: C3_3  and  O11_11 
ROOT
HETATM    1  C1  UNL     1     -25.523  19.263   9.035  1.00 20.00     0.013 C 
HETATM    2  C2  UNL     1     -24.822  18.665   9.804  1.00 20.00    -0.096 C 
HETATM    3  C4  UNL     1     -24.020  18.392  12.177  1.00 20.00     0.044 A 
HETATM    4  C5  UNL     1     -23.979  17.948  10.727  1.00 20.00     0.118 A 
HETATM    5  C6  UNL     1     -24.634  17.067  11.802  1.00 20.00    -0.018 A 
HETATM    6  C7  UNL     1     -23.926  15.814  12.260  1.00 20.00     0.017 C 
HETATM    7  C8  UNL     1     -26.139  16.949  11.863  1.00 20.00     0.017 C 
ENDROOT
BRANCH   4   8
HETATM    8  C3  UNL     1     -22.668  17.547  10.175  1.00 20.00     0.280 C 
HETATM    9  O10 UNL     1     -21.601  17.734  10.742  1.00 20.00    -0.263 OA
BRANCH   8  10
HETATM   10  O11 UNL     1     -22.848  16.951   8.962  1.00 20.00    -0.325 OA
HETATM   11  C9  UNL     1     -21.930  17.349   7.939  1.00 20.00     0.213 C 
ENDBRANCH   8  10
ENDBRANCH   4   8
TORSDOF 2
ENDMDL
