MODEL 1
REMARK VINA RESULT:      -5.3      0.000      0.000
REMARK  2 active torsions:
REMARK  status: ('A' for Active; 'I' for Inactive)
REMARK    1  A    between atoms: C4_4  and  C10_10 
REMARK    2  A    between atoms: C5_5  and  C10_10 
ROOT
HETATM    1  C1  UNL     1     -34.375  15.903  -2.281  1.00 20.00    -0.026 C 
HETATM    2  C2  UNL     1     -35.579  16.188  -2.799  1.00 20.00    -0.024 C 
HETATM    3  C6  UNL     1     -34.010  17.017  -4.272  1.00 20.00     0.018 C 
HETATM    4  C7  UNL     1     -33.662  14.658  -4.302  1.00 20.00     0.030 C 
HETATM    5  C8  UNL     1     -33.388  15.904  -3.423  1.00 20.00     0.010 C 
HETATM    6  C9  UNL     1     -35.397  16.356  -4.294  1.00 20.00     0.028 C 
HETATM    7  C10 UNL     1     -35.064  14.972  -4.924  1.00 20.00     0.044 C 
ENDROOT
BRANCH   7   8
HETATM    8  C4  UNL     1     -35.034  15.006  -6.421  1.00 20.00    -0.019 C 
HETATM    9  C3  UNL     1     -33.912  15.018  -7.148  1.00 20.00     0.008 C 
ENDBRANCH   7   8
BRANCH   7  10
HETATM   10  C5  UNL     1     -36.085  13.922  -4.593  1.00 20.00     0.136 C 
HETATM   11  C11 UNL     1     -37.516  14.377  -4.494  1.00 20.00     0.092 C 
HETATM   12  O12 UNL     1     -35.769  12.746  -4.413  1.00 20.00    -0.297 OA
ENDBRANCH   7  10
TORSDOF 2
ENDMDL
MODEL 2
REMARK VINA RESULT:      -5.0      1.096      3.086
REMARK  2 active torsions:
REMARK  status: ('A' for Active; 'I' for Inactive)
REMARK    1  A    between atoms: C4_4  and  C10_10 
REMARK    2  A    between atoms: C5_5  and  C10_10 
ROOT
HETATM    1  C1  UNL     1     -36.340  16.136  -7.239  1.00 20.00    -0.026 C 
HETATM    2  C2  UNL     1     -35.720  14.947  -7.202  1.00 20.00    -0.024 C 
HETATM    3  C6  UNL     1     -34.262  16.484  -6.291  1.00 20.00     0.018 C 
HETATM    4  C7  UNL     1     -36.117  16.468  -4.793  1.00 20.00     0.030 C 
HETATM    5  C8  UNL     1     -35.699  17.005  -6.184  1.00 20.00     0.010 C 
HETATM    6  C9  UNL     1     -34.678  15.017  -6.103  1.00 20.00     0.028 C 
HETATM    7  C10 UNL     1     -35.397  15.080  -4.724  1.00 20.00     0.044 C 
ENDROOT
BRANCH   7   8
HETATM    8  C4  UNL     1     -34.450  14.980  -3.568  1.00 20.00    -0.019 C 
HETATM    9  C3  UNL     1     -34.437  15.829  -2.535  1.00 20.00     0.008 C 
ENDBRANCH   7   8
BRANCH   7  10
HETATM   10  C5  UNL     1     -36.360  13.945  -4.519  1.00 20.00     0.136 C 
HETATM   11  C11 UNL     1     -37.801  14.315  -4.286  1.00 20.00     0.092 C 
HETATM   12  O12 UNL     1     -35.991  12.772  -4.541  1.00 20.00    -0.297 OA
ENDBRANCH   7  10
TORSDOF 2
ENDMDL
MODEL 3
REMARK VINA RESULT:      -4.9      1.321      2.828
REMARK  2 active torsions:
REMARK  status: ('A' for Active; 'I' for Inactive)
REMARK    1  A    between atoms: C4_4  and  C10_10 
REMARK    2  A    between atoms: C5_5  and  C10_10 
ROOT
HETATM    1  C1  UNL     1     -33.703  17.699  -3.020  1.00 20.00    -0.026 C 
HETATM    2  C2  UNL     1     -33.119  16.496  -3.119  1.00 20.00    -0.024 C 
HETATM    3  C6  UNL     1     -35.028  16.203  -1.860  1.00 20.00     0.018 C 
HETATM    4  C7  UNL     1     -35.829  16.884  -4.001  1.00 20.00     0.030 C 
HETATM    5  C8  UNL     1     -35.164  17.460  -2.725  1.00 20.00     0.010 C 
HETATM    6  C9  UNL     1     -34.199  15.452  -2.913  1.00 20.00     0.028 C 
HETATM    7  C10 UNL     1     -35.166  15.473  -4.132  1.00 20.00     0.044 C 
ENDROOT
BRANCH   7   8
HETATM    8  C4  UNL     1     -36.168  14.360  -4.101  1.00 20.00    -0.019 C 
HETATM    9  C3  UNL     1     -37.464  14.512  -4.394  1.00 20.00     0.008 C 
ENDBRANCH   7   8
BRANCH   7  10
HETATM   10  C5  UNL     1     -34.451  15.297  -5.443  1.00 20.00     0.136 C 
HETATM   11  C11 UNL     1     -34.638  16.385  -6.466  1.00 20.00     0.092 C 
HETATM   12  O12 UNL     1     -33.747  14.314  -5.668  1.00 20.00    -0.297 OA
ENDBRANCH   7  10
TORSDOF 2
ENDMDL
MODEL 4
REMARK VINA RESULT:      -4.8      1.127      2.757
REMARK  2 active torsions:
REMARK  status: ('A' for Active; 'I' for Inactive)
REMARK    1  A    between atoms: C4_4  and  C10_10 
REMARK    2  A    between atoms: C5_5  and  C10_10 
ROOT
HETATM    1  C1  UNL     1     -33.020  15.440  -3.828  1.00 20.00    -0.026 C 
HETATM    2  C2  UNL     1     -33.709  14.307  -4.027  1.00 20.00    -0.024 C 
HETATM    3  C6  UNL     1     -34.966  15.602  -2.592  1.00 20.00     0.018 C 
HETATM    4  C7  UNL     1     -34.892  16.861  -4.617  1.00 20.00     0.030 C 
HETATM    5  C8  UNL     1     -34.012  16.493  -3.396  1.00 20.00     0.010 C 
HETATM    6  C9  UNL     1     -35.167  14.611  -3.749  1.00 20.00     0.028 C 
HETATM    7  C10 UNL     1     -35.712  15.551  -4.863  1.00 20.00     0.044 C 
ENDROOT
BRANCH   7   8
HETATM    8  C4  UNL     1     -37.191  15.771  -4.769  1.00 20.00    -0.019 C 
HETATM    9  C3  UNL     1     -38.050  14.877  -4.267  1.00 20.00     0.008 C 
ENDBRANCH   7   8
BRANCH   7  10
HETATM   10  C5  UNL     1     -35.503  14.997  -6.244  1.00 20.00     0.136 C 
HETATM   11  C11 UNL     1     -34.700  15.842  -7.197  1.00 20.00     0.092 C 
HETATM   12  O12 UNL     1     -35.963  13.907  -6.580  1.00 20.00    -0.297 OA
ENDBRANCH   7  10
TORSDOF 2
ENDMDL
MODEL 5
REMARK VINA RESULT:      -4.6      1.445      2.813
REMARK  2 active torsions:
REMARK  status: ('A' for Active; 'I' for Inactive)
REMARK    1  A    between atoms: C4_4  and  C10_10 
REMARK    2  A    between atoms: C5_5  and  C10_10 
ROOT
HETATM    1  C1  UNL     1     -33.314  14.668  -4.204  1.00 20.00    -0.026 C 
HETATM    2  C2  UNL     1     -34.486  14.104  -3.875  1.00 20.00    -0.024 C 
HETATM    3  C6  UNL     1     -34.230  15.946  -2.511  1.00 20.00     0.018 C 
HETATM    4  C7  UNL     1     -34.369  16.853  -4.713  1.00 20.00     0.030 C 
HETATM    5  C8  UNL     1     -33.381  16.113  -3.775  1.00 20.00     0.010 C 
HETATM    6  C9  UNL     1     -35.344  15.183  -3.245  1.00 20.00     0.028 C 
HETATM    7  C10 UNL     1     -35.748  16.214  -4.339  1.00 20.00     0.044 C 
ENDROOT
BRANCH   7   8
HETATM    8  C4  UNL     1     -36.738  17.226  -3.850  1.00 20.00    -0.019 C 
HETATM    9  C3  UNL     1     -36.559  18.548  -3.934  1.00 20.00     0.008 C 
ENDBRANCH   7   8
BRANCH   7  10
HETATM   10  C5  UNL     1     -36.420  15.573  -5.521  1.00 20.00     0.136 C 
HETATM   11  C11 UNL     1     -35.764  15.771  -6.861  1.00 20.00     0.092 C 
HETATM   12  O12 UNL     1     -37.454  14.918  -5.400  1.00 20.00    -0.297 OA
ENDBRANCH   7  10
TORSDOF 2
ENDMDL
MODEL 6
REMARK VINA RESULT:      -4.6      1.177      3.471
REMARK  2 active torsions:
REMARK  status: ('A' for Active; 'I' for Inactive)
REMARK    1  A    between atoms: C4_4  and  C10_10 
REMARK    2  A    between atoms: C5_5  and  C10_10 
ROOT
HETATM    1  C1  UNL     1     -36.302  15.477  -6.396  1.00 20.00    -0.026 C 
HETATM    2  C2  UNL     1     -34.979  15.696  -6.419  1.00 20.00    -0.024 C 
HETATM    3  C6  UNL     1     -35.891  17.283  -5.015  1.00 20.00     0.018 C 
HETATM    4  C7  UNL     1     -36.340  15.205  -3.933  1.00 20.00     0.030 C 
HETATM    5  C8  UNL     1     -36.830  16.077  -5.116  1.00 20.00     0.010 C 
HETATM    6  C9  UNL     1     -34.622  16.425  -5.138  1.00 20.00     0.028 C 
HETATM    7  C10 UNL     1     -34.794  15.452  -3.935  1.00 20.00     0.044 C 
ENDROOT
BRANCH   7   8
HETATM    8  C4  UNL     1     -34.301  16.029  -2.644  1.00 20.00    -0.019 C 
HETATM    9  C3  UNL     1     -35.084  16.280  -1.589  1.00 20.00     0.008 C 
ENDBRANCH   7   8
BRANCH   7  10
HETATM   10  C5  UNL     1     -34.012  14.180  -4.100  1.00 20.00     0.136 C 
HETATM   11  C11 UNL     1     -32.535  14.321  -4.351  1.00 20.00     0.092 C 
HETATM   12  O12 UNL     1     -34.552  13.076  -4.031  1.00 20.00    -0.297 OA
ENDBRANCH   7  10
TORSDOF 2
ENDMDL
MODEL 7
REMARK VINA RESULT:      -4.6      1.904      3.886
REMARK  2 active torsions:
REMARK  status: ('A' for Active; 'I' for Inactive)
REMARK    1  A    between atoms: C4_4  and  C10_10 
REMARK    2  A    between atoms: C5_5  and  C10_10 
ROOT
HETATM    1  C1  UNL     1     -33.929  14.944  -5.832  1.00 20.00    -0.026 C 
HETATM    2  C2  UNL     1     -35.215  15.292  -5.674  1.00 20.00    -0.024 C 
HETATM    3  C6  UNL     1     -34.675  13.920  -3.900  1.00 20.00     0.018 C 
HETATM    4  C7  UNL     1     -33.285  15.837  -3.611  1.00 20.00     0.030 C 
HETATM    5  C8  UNL     1     -33.403  14.554  -4.472  1.00 20.00     0.010 C 
HETATM    6  C9  UNL     1     -35.539  15.155  -4.199  1.00 20.00     0.028 C 
HETATM    7  C10 UNL     1     -34.779  16.258  -3.407  1.00 20.00     0.044 C 
ENDROOT
BRANCH   7   8
HETATM    8  C4  UNL     1     -35.169  16.311  -1.962  1.00 20.00    -0.019 C 
HETATM    9  C3  UNL     1     -34.573  17.091  -1.054  1.00 20.00     0.008 C 
ENDBRANCH   7   8
BRANCH   7  10
HETATM   10  C5  UNL     1     -35.059  17.641  -3.922  1.00 20.00     0.136 C 
HETATM   11  C11 UNL     1     -33.876  18.433  -4.411  1.00 20.00     0.092 C 
HETATM   12  O12 UNL     1     -36.198  18.104  -3.945  1.00 20.00    -0.297 OA
ENDBRANCH   7  10
TORSDOF 2
ENDMDL
MODEL 8
REMARK VINA RESULT:      -4.5      1.804      3.560
REMARK  2 active torsions:
REMARK  status: ('A' for Active; 'I' for Inactive)
REMARK    1  A    between atoms: C4_4  and  C10_10 
REMARK    2  A    between atoms: C5_5  and  C10_10 
ROOT
HETATM    1  C1  UNL     1     -35.616  14.598  -5.281  1.00 20.00    -0.026 C 
HETATM    2  C2  UNL     1     -35.493  14.263  -3.988  1.00 20.00    -0.024 C 
HETATM    3  C6  UNL     1     -33.360  14.632  -4.782  1.00 20.00     0.018 C 
HETATM    4  C7  UNL     1     -34.434  16.753  -4.962  1.00 20.00     0.030 C 
HETATM    5  C8  UNL     1     -34.375  15.371  -5.659  1.00 20.00     0.010 C 
HETATM    6  C9  UNL     1     -34.178  14.835  -3.498  1.00 20.00     0.028 C 
HETATM    7  C10 UNL     1     -34.285  16.387  -3.448  1.00 20.00     0.044 C 
ENDROOT
BRANCH   7   8
HETATM    8  C4  UNL     1     -33.092  17.034  -2.814  1.00 20.00    -0.019 C 
HETATM    9  C3  UNL     1     -32.696  18.285  -3.069  1.00 20.00     0.008 C 
ENDBRANCH   7   8
BRANCH   7  10
HETATM   10  C5  UNL     1     -35.450  16.863  -2.627  1.00 20.00     0.136 C 
HETATM   11  C11 UNL     1     -35.354  16.666  -1.138  1.00 20.00     0.092 C 
HETATM   12  O12 UNL     1     -36.434  17.390  -3.146  1.00 20.00    -0.297 OA
ENDBRANCH   7  10
TORSDOF 2
ENDMDL
MODEL 9
REMARK VINA RESULT:      -4.5      1.829      3.865
REMARK  2 active torsions:
REMARK  status: ('A' for Active; 'I' for Inactive)
REMARK    1  A    between atoms: C4_4  and  C10_10 
REMARK    2  A    between atoms: C5_5  and  C10_10 
ROOT
HETATM    1  C1  UNL     1     -35.831  14.638  -6.091  1.00 20.00    -0.026 C 
HETATM    2  C2  UNL     1     -35.587  15.936  -5.857  1.00 20.00    -0.024 C 
HETATM    3  C6  UNL     1     -37.114  15.253  -4.270  1.00 20.00     0.018 C 
HETATM    4  C7  UNL     1     -35.159  13.972  -3.800  1.00 20.00     0.030 C 
HETATM    5  C8  UNL     1     -36.339  14.043  -4.800  1.00 20.00     0.010 C 
HETATM    6  C9  UNL     1     -35.912  16.200  -4.400  1.00 20.00     0.028 C 
HETATM    7  C10 UNL     1     -34.860  15.480  -3.506  1.00 20.00     0.044 C 
ENDROOT
BRANCH   7   8
HETATM    8  C4  UNL     1     -34.997  15.822  -2.055  1.00 20.00    -0.019 C 
HETATM    9  C3  UNL     1     -35.495  16.977  -1.602  1.00 20.00     0.008 C 
ENDBRANCH   7   8
BRANCH   7  10
HETATM   10  C5  UNL     1     -33.447  15.861  -3.850  1.00 20.00     0.136 C 
HETATM   11  C11 UNL     1     -32.531  14.745  -4.276  1.00 20.00     0.092 C 
HETATM   12  O12 UNL     1     -33.059  17.026  -3.788  1.00 20.00    -0.297 OA
ENDBRANCH   7  10
TORSDOF 2
ENDMDL
