MODEL 1
REMARK VINA RESULT:      -4.3      0.000      0.000
REMARK  1 active torsions:
REMARK  status: ('A' for Active; 'I' for Inactive)
REMARK    1  A    between atoms: C1_1  and  C4_4 
ROOT
HETATM    1  C2  UNL     1     -34.088  16.179  -4.631  1.00 20.00     0.225 A 
HETATM    2  C3  UNL     1     -33.087  15.438  -3.815  1.00 20.00     0.225 A 
HETATM    3  C4  UNL     1     -34.562  15.232  -3.551  1.00 20.00     0.099 A 
HETATM    4  C5  UNL     1     -35.122  15.857  -2.297  1.00 20.00     0.031 C 
HETATM    5  F7  UNL     1     -34.244  15.798  -5.952  1.00 20.00    -0.245 F 
HETATM    6  F8  UNL     1     -32.385  14.420  -4.435  1.00 20.00    -0.245 F 
ENDROOT
BRANCH   3   7
HETATM    7  C1  UNL     1     -35.158  13.947  -3.987  1.00 20.00     0.233 C 
HETATM    8  O6  UNL     1     -34.535  12.892  -3.921  1.00 20.00    -0.279 OA
HETATM    9 CL9  UNL     1     -36.782  14.145  -4.572  1.00 20.00    -0.043 Cl
ENDBRANCH   3   7
TORSDOF 1
ENDMDL
MODEL 2
REMARK VINA RESULT:      -4.0     18.196     18.787
REMARK  1 active torsions:
REMARK  status: ('A' for Active; 'I' for Inactive)
REMARK    1  A    between atoms: C1_1  and  C4_4 
ROOT
HETATM    1  C2  UNL     1     -24.053  16.359  11.755  1.00 20.00     0.225 A 
HETATM    2  C3  UNL     1     -24.480  17.784  11.740  1.00 20.00     0.225 A 
HETATM    3  C4  UNL     1     -23.104  17.416  11.234  1.00 20.00     0.099 A 
HETATM    4  C5  UNL     1     -21.935  17.775  12.118  1.00 20.00     0.031 C 
HETATM    5  F7  UNL     1     -24.646  15.504  10.842  1.00 20.00    -0.245 F 
HETATM    6  F8  UNL     1     -25.441  18.154  10.816  1.00 20.00    -0.245 F 
ENDROOT
BRANCH   3   7
HETATM    7  C1  UNL     1     -22.881  17.467   9.770  1.00 20.00     0.233 C 
HETATM    8  O6  UNL     1     -22.540  16.474   9.134  1.00 20.00    -0.279 OA
HETATM    9 CL9  UNL     1     -23.160  19.054   9.121  1.00 20.00    -0.043 Cl
ENDBRANCH   3   7
TORSDOF 1
ENDMDL
MODEL 3
REMARK VINA RESULT:      -3.9     18.261     18.592
REMARK  1 active torsions:
REMARK  status: ('A' for Active; 'I' for Inactive)
REMARK    1  A    between atoms: C1_1  and  C4_4 
ROOT
HETATM    1  C2  UNL     1     -23.135  18.498  10.041  1.00 20.00     0.225 A 
HETATM    2  C3  UNL     1     -22.518  17.156   9.851  1.00 20.00     0.225 A 
HETATM    3  C4  UNL     1     -23.155  17.501  11.178  1.00 20.00     0.099 A 
HETATM    4  C5  UNL     1     -22.221  17.767  12.332  1.00 20.00     0.031 C 
HETATM    5  F7  UNL     1     -24.320  18.756   9.375  1.00 20.00    -0.245 F 
HETATM    6  F8  UNL     1     -23.173  16.263   9.021  1.00 20.00    -0.245 F 
ENDROOT
BRANCH   3   7
HETATM    7  C1  UNL     1     -24.452  16.859  11.497  1.00 20.00     0.233 C 
HETATM    8  O6  UNL     1     -24.667  15.677  11.241  1.00 20.00    -0.279 OA
HETATM    9 CL9  UNL     1     -25.563  17.964  12.246  1.00 20.00    -0.043 Cl
ENDBRANCH   3   7
TORSDOF 1
ENDMDL
MODEL 4
REMARK VINA RESULT:      -3.9     17.965     18.648
REMARK  1 active torsions:
REMARK  status: ('A' for Active; 'I' for Inactive)
REMARK    1  A    between atoms: C1_1  and  C4_4 
ROOT
HETATM    1  C2  UNL     1     -23.789  17.585  11.932  1.00 20.00     0.225 A 
HETATM    2  C3  UNL     1     -24.712  16.622  11.272  1.00 20.00     0.225 A 
HETATM    3  C4  UNL     1     -24.063  17.712  10.450  1.00 20.00     0.099 A 
HETATM    4  C5  UNL     1     -24.946  18.855  10.017  1.00 20.00     0.031 C 
HETATM    5  F7  UNL     1     -22.551  17.114  12.332  1.00 20.00    -0.245 F 
HETATM    6  F8  UNL     1     -24.267  15.322  11.106  1.00 20.00    -0.245 F 
ENDROOT
BRANCH   3   7
HETATM    7  C1  UNL     1     -22.979  17.310   9.522  1.00 20.00     0.233 C 
HETATM    8  O6  UNL     1     -22.972  16.210   8.977  1.00 20.00    -0.279 OA
HETATM    9 CL9  UNL     1     -21.788  18.559   9.327  1.00 20.00    -0.043 Cl
ENDBRANCH   3   7
TORSDOF 1
ENDMDL
MODEL 5
REMARK VINA RESULT:      -3.9     11.135     11.873
REMARK  1 active torsions:
REMARK  status: ('A' for Active; 'I' for Inactive)
REMARK    1  A    between atoms: C1_1  and  C4_4 
ROOT
HETATM    1  C2  UNL     1     -41.270   7.684   0.293  1.00 20.00     0.225 A 
HETATM    2  C3  UNL     1     -41.068   6.209   0.294  1.00 20.00     0.225 A 
HETATM    3  C4  UNL     1     -42.458   6.769   0.093  1.00 20.00     0.099 A 
HETATM    4  C5  UNL     1     -43.417   6.639   1.250  1.00 20.00     0.031 C 
HETATM    5  F7  UNL     1     -40.799   8.393  -0.798  1.00 20.00    -0.245 F 
HETATM    6  F8  UNL     1     -40.423   5.652  -0.796  1.00 20.00    -0.245 F 
ENDROOT
BRANCH   3   7
HETATM    7  C1  UNL     1     -43.034   6.690  -1.270  1.00 20.00     0.233 C 
HETATM    8  O6  UNL     1     -43.331   7.698  -1.904  1.00 20.00    -0.279 OA
HETATM    9 CL9  UNL     1     -43.213   5.049  -1.810  1.00 20.00    -0.043 Cl
ENDBRANCH   3   7
TORSDOF 1
ENDMDL
MODEL 6
REMARK VINA RESULT:      -3.9     17.984     18.582
REMARK  1 active torsions:
REMARK  status: ('A' for Active; 'I' for Inactive)
REMARK    1  A    between atoms: C1_1  and  C4_4 
ROOT
HETATM    1  C2  UNL     1     -23.359  17.483   8.861  1.00 20.00     0.225 A 
HETATM    2  C3  UNL     1     -22.678  18.726   9.317  1.00 20.00     0.225 A 
HETATM    3  C4  UNL     1     -23.765  18.117  10.173  1.00 20.00     0.099 A 
HETATM    4  C5  UNL     1     -25.091  18.834  10.200  1.00 20.00     0.031 C 
HETATM    5  F7  UNL     1     -22.633  16.306   8.898  1.00 20.00    -0.245 F 
HETATM    6  F8  UNL     1     -21.367  18.615   9.745  1.00 20.00    -0.245 F 
ENDROOT
BRANCH   3   7
HETATM    7  C1  UNL     1     -23.346  17.429  11.418  1.00 20.00     0.233 C 
HETATM    8  O6  UNL     1     -22.464  17.885  12.140  1.00 20.00    -0.279 OA
HETATM    9 CL9  UNL     1     -24.240  15.965  11.690  1.00 20.00    -0.043 Cl
ENDBRANCH   3   7
TORSDOF 1
ENDMDL
MODEL 7
REMARK VINA RESULT:      -3.9      1.792      2.546
REMARK  1 active torsions:
REMARK  status: ('A' for Active; 'I' for Inactive)
REMARK    1  A    between atoms: C1_1  and  C4_4 
ROOT
HETATM    1  C2  UNL     1     -33.909  14.873  -5.066  1.00 20.00     0.225 A 
HETATM    2  C3  UNL     1     -34.879  15.959  -4.756  1.00 20.00     0.225 A 
HETATM    3  C4  UNL     1     -35.351  14.732  -5.502  1.00 20.00     0.099 A 
HETATM    4  C5  UNL     1     -35.635  14.898  -6.974  1.00 20.00     0.031 C 
HETATM    5  F7  UNL     1     -33.463  14.093  -4.014  1.00 20.00    -0.245 F 
HETATM    6  F8  UNL     1     -35.265  16.112  -3.436  1.00 20.00    -0.245 F 
ENDROOT
BRANCH   3   7
HETATM    7  C1  UNL     1     -36.194  13.766  -4.759  1.00 20.00     0.233 C 
HETATM    8  O6  UNL     1     -35.826  12.613  -4.554  1.00 20.00    -0.279 OA
HETATM    9 CL9  UNL     1     -37.697  14.469  -4.246  1.00 20.00    -0.043 Cl
ENDBRANCH   3   7
TORSDOF 1
ENDMDL
MODEL 8
REMARK VINA RESULT:      -3.9      1.466      1.582
REMARK  1 active torsions:
REMARK  status: ('A' for Active; 'I' for Inactive)
REMARK    1  A    between atoms: C1_1  and  C4_4 
ROOT
HETATM    1  C2  UNL     1     -35.364  16.222  -5.166  1.00 20.00     0.225 A 
HETATM    2  C3  UNL     1     -34.219  15.272  -5.210  1.00 20.00     0.225 A 
HETATM    3  C4  UNL     1     -35.308  15.075  -4.181  1.00 20.00     0.099 A 
HETATM    4  C5  UNL     1     -34.967  15.421  -2.753  1.00 20.00     0.031 C 
HETATM    5  F7  UNL     1     -36.288  16.158  -6.194  1.00 20.00    -0.245 F 
HETATM    6  F8  UNL     1     -34.158  14.393  -6.277  1.00 20.00    -0.245 F 
ENDROOT
BRANCH   3   7
HETATM    7  C1  UNL     1     -36.250  13.950  -4.393  1.00 20.00     0.233 C 
HETATM    8  O6  UNL     1     -35.852  12.814  -4.635  1.00 20.00    -0.279 OA
HETATM    9 CL9  UNL     1     -37.908  14.449  -4.256  1.00 20.00    -0.043 Cl
ENDBRANCH   3   7
TORSDOF 1
ENDMDL
MODEL 9
REMARK VINA RESULT:      -3.8      2.609      3.134
REMARK  1 active torsions:
REMARK  status: ('A' for Active; 'I' for Inactive)
REMARK    1  A    between atoms: C1_1  and  C4_4 
ROOT
HETATM    1  C2  UNL     1     -36.079  15.307  -4.344  1.00 20.00     0.225 A 
HETATM    2  C3  UNL     1     -36.038  13.983  -5.023  1.00 20.00     0.225 A 
HETATM    3  C4  UNL     1     -34.848  14.910  -5.128  1.00 20.00     0.099 A 
HETATM    4  C5  UNL     1     -34.635  15.596  -6.454  1.00 20.00     0.031 C 
HETATM    5  F7  UNL     1     -36.001  15.321  -2.963  1.00 20.00    -0.245 F 
HETATM    6  F8  UNL     1     -35.925  12.859  -4.224  1.00 20.00    -0.245 F 
ENDROOT
BRANCH   3   7
HETATM    7  C1  UNL     1     -33.636  14.551  -4.353  1.00 20.00     0.233 C 
HETATM    8  O6  UNL     1     -33.179  13.412  -4.363  1.00 20.00    -0.279 OA
HETATM    9 CL9  UNL     1     -32.992  15.907  -3.480  1.00 20.00    -0.043 Cl
ENDBRANCH   3   7
TORSDOF 1
ENDMDL
