MODEL 1
REMARK VINA RESULT:      -4.9      0.000      0.000
REMARK  1 active torsions:
REMARK  status: ('A' for Active; 'I' for Inactive)
REMARK    1  A    between atoms: C3_3  and  C6_6 
ROOT
HETATM    1  C1  UNL     1     -34.756  16.040  -2.208  1.00 20.00    -0.022 C 
HETATM    2  C2  UNL     1     -34.574  17.170  -2.907  1.00 20.00    -0.022 C 
HETATM    3  C4  UNL     1     -34.751  14.896  -3.197  1.00 20.00     0.053 C 
HETATM    4  C5  UNL     1     -34.443  16.785  -4.363  1.00 20.00     0.047 C 
HETATM    5  C6  UNL     1     -36.064  15.006  -4.014  1.00 20.00     0.062 C 
HETATM    6  C7  UNL     1     -35.810  16.272  -4.902  1.00 20.00     0.003 C 
HETATM    7  C8  UNL     1     -33.723  15.446  -4.190  1.00 20.00     0.186 C 
HETATM    8  C9  UNL     1     -36.940  17.290  -4.833  1.00 20.00     0.011 C 
HETATM    9  F11 UNL     1     -32.498  15.587  -3.636  1.00 20.00    -0.248 F 
ENDROOT
BRANCH   5  10
HETATM   10  C3  UNL     1     -36.279  13.773  -4.839  1.00 20.00     0.236 C 
HETATM   11  O10 UNL     1     -35.898  12.658  -4.499  1.00 20.00    -0.306 OA
ENDBRANCH   5  10
TORSDOF 1
ENDMDL
MODEL 2
REMARK VINA RESULT:      -4.8      1.025      1.025
REMARK  1 active torsions:
REMARK  status: ('A' for Active; 'I' for Inactive)
REMARK    1  A    between atoms: C3_3  and  C6_6 
ROOT
HETATM    1  C1  UNL     1     -34.059  15.905  -2.659  1.00 20.00    -0.022 C 
HETATM    2  C2  UNL     1     -33.742  16.839  -3.567  1.00 20.00    -0.022 C 
HETATM    3  C4  UNL     1     -34.618  14.719  -3.412  1.00 20.00     0.053 C 
HETATM    4  C5  UNL     1     -34.084  16.279  -4.930  1.00 20.00     0.047 C 
HETATM    5  C6  UNL     1     -36.004  15.149  -3.956  1.00 20.00     0.062 C 
HETATM    6  C7  UNL     1     -35.628  16.167  -5.086  1.00 20.00     0.003 C 
HETATM    7  C8  UNL     1     -33.750  14.808  -4.671  1.00 20.00     0.186 C 
HETATM    8  C9  UNL     1     -36.373  17.491  -4.972  1.00 20.00     0.011 C 
HETATM    9  F11 UNL     1     -32.440  14.615  -4.407  1.00 20.00    -0.248 F 
ENDROOT
BRANCH   5  10
HETATM   10  C3  UNL     1     -36.752  13.965  -4.492  1.00 20.00     0.236 C 
HETATM   11  O10 UNL     1     -37.973  13.860  -4.443  1.00 20.00    -0.306 OA
ENDBRANCH   5  10
TORSDOF 1
ENDMDL
MODEL 3
REMARK VINA RESULT:      -4.8      1.279      1.999
REMARK  1 active torsions:
REMARK  status: ('A' for Active; 'I' for Inactive)
REMARK    1  A    between atoms: C3_3  and  C6_6 
ROOT
HETATM    1  C1  UNL     1     -35.312  17.268  -4.035  1.00 20.00    -0.022 C 
HETATM    2  C2  UNL     1     -34.003  17.175  -4.310  1.00 20.00    -0.022 C 
HETATM    3  C4  UNL     1     -35.773  15.901  -3.580  1.00 20.00     0.053 C 
HETATM    4  C5  UNL     1     -33.584  15.748  -4.036  1.00 20.00     0.047 C 
HETATM    5  C6  UNL     1     -35.752  14.984  -4.830  1.00 20.00     0.062 C 
HETATM    6  C7  UNL     1     -34.218  14.796  -5.091  1.00 20.00     0.003 C 
HETATM    7  C8  UNL     1     -34.503  15.455  -2.848  1.00 20.00     0.186 C 
HETATM    8  C9  UNL     1     -33.815  15.088  -6.530  1.00 20.00     0.011 C 
HETATM    9  F11 UNL     1     -34.227  16.232  -1.778  1.00 20.00    -0.248 F 
ENDROOT
BRANCH   5  10
HETATM   10  C3  UNL     1     -36.438  13.683  -4.542  1.00 20.00     0.236 C 
HETATM   11  O10 UNL     1     -35.853  12.605  -4.506  1.00 20.00    -0.306 OA
ENDBRANCH   5  10
TORSDOF 1
ENDMDL
MODEL 4
REMARK VINA RESULT:      -4.8      1.627      2.233
REMARK  1 active torsions:
REMARK  status: ('A' for Active; 'I' for Inactive)
REMARK    1  A    between atoms: C3_3  and  C6_6 
ROOT
HETATM    1  C1  UNL     1     -33.497  14.406  -4.304  1.00 20.00    -0.022 C 
HETATM    2  C2  UNL     1     -33.090  15.591  -3.828  1.00 20.00    -0.022 C 
HETATM    3  C4  UNL     1     -34.889  14.601  -4.861  1.00 20.00     0.053 C 
HETATM    4  C5  UNL     1     -34.206  16.583  -4.068  1.00 20.00     0.047 C 
HETATM    5  C6  UNL     1     -35.829  14.821  -3.648  1.00 20.00     0.062 C 
HETATM    6  C7  UNL     1     -35.419  16.250  -3.152  1.00 20.00     0.003 C 
HETATM    7  C8  UNL     1     -34.733  16.029  -5.394  1.00 20.00     0.186 C 
HETATM    8  C9  UNL     1     -35.118  16.302  -1.660  1.00 20.00     0.011 C 
HETATM    9  F11 UNL     1     -33.820  16.110  -6.386  1.00 20.00    -0.248 F 
ENDROOT
BRANCH   5  10
HETATM   10  C3  UNL     1     -37.265  14.764  -4.074  1.00 20.00     0.236 C 
HETATM   11  O10 UNL     1     -37.827  13.728  -4.413  1.00 20.00    -0.306 OA
ENDBRANCH   5  10
TORSDOF 1
ENDMDL
MODEL 5
REMARK VINA RESULT:      -4.7      1.542      2.551
REMARK  1 active torsions:
REMARK  status: ('A' for Active; 'I' for Inactive)
REMARK    1  A    between atoms: C3_3  and  C6_6 
ROOT
HETATM    1  C1  UNL     1     -34.961  17.369  -4.242  1.00 20.00    -0.022 C 
HETATM    2  C2  UNL     1     -33.844  17.176  -3.527  1.00 20.00    -0.022 C 
HETATM    3  C4  UNL     1     -35.898  16.225  -3.927  1.00 20.00     0.053 C 
HETATM    4  C5  UNL     1     -34.032  15.906  -2.728  1.00 20.00     0.047 C 
HETATM    5  C6  UNL     1     -35.291  14.957  -4.579  1.00 20.00     0.062 C 
HETATM    6  C7  UNL     1     -34.039  14.676  -3.680  1.00 20.00     0.003 C 
HETATM    7  C8  UNL     1     -35.533  16.020  -2.453  1.00 20.00     0.186 C 
HETATM    8  C9  UNL     1     -32.757  14.487  -4.480  1.00 20.00     0.011 C 
HETATM    9  F11 UNL     1     -35.839  17.094  -1.694  1.00 20.00    -0.248 F 
ENDROOT
BRANCH   5  10
HETATM   10  C3  UNL     1     -36.273  13.825  -4.548  1.00 20.00     0.236 C 
HETATM   11  O10 UNL     1     -35.940  12.644  -4.511  1.00 20.00    -0.306 OA
ENDBRANCH   5  10
TORSDOF 1
ENDMDL
MODEL 6
REMARK VINA RESULT:      -4.7     16.948     18.271
REMARK  1 active torsions:
REMARK  status: ('A' for Active; 'I' for Inactive)
REMARK    1  A    between atoms: C3_3  and  C6_6 
ROOT
HETATM    1  C1  UNL     1     -24.304  16.370  10.630  1.00 20.00    -0.022 C 
HETATM    2  C2  UNL     1     -24.893  17.525  10.975  1.00 20.00    -0.022 C 
HETATM    3  C4  UNL     1     -22.943  16.712  10.068  1.00 20.00     0.053 C 
HETATM    4  C5  UNL     1     -23.925  18.640  10.649  1.00 20.00     0.047 C 
HETATM    5  C6  UNL     1     -23.183  17.394   8.697  1.00 20.00     0.062 C 
HETATM    6  C7  UNL     1     -23.780  18.784   9.106  1.00 20.00     0.003 C 
HETATM    7  C8  UNL     1     -22.614  17.914  10.958  1.00 20.00     0.186 C 
HETATM    8  C9  UNL     1     -25.075  19.118   8.377  1.00 20.00     0.011 C 
HETATM    9  F11 UNL     1     -22.507  17.575  12.261  1.00 20.00    -0.248 F 
ENDROOT
BRANCH   5  10
HETATM   10  C3  UNL     1     -21.896  17.535   7.943  1.00 20.00     0.236 C 
HETATM   11  O10 UNL     1     -21.581  16.810   7.005  1.00 20.00    -0.306 OA
ENDBRANCH   5  10
TORSDOF 1
ENDMDL
MODEL 7
REMARK VINA RESULT:      -4.5     10.633     12.092
REMARK  1 active torsions:
REMARK  status: ('A' for Active; 'I' for Inactive)
REMARK    1  A    between atoms: C3_3  and  C6_6 
ROOT
HETATM    1  C1  UNL     1     -41.165   5.596  -0.810  1.00 20.00    -0.022 C 
HETATM    2  C2  UNL     1     -42.457   5.427  -1.125  1.00 20.00    -0.022 C 
HETATM    3  C4  UNL     1     -41.106   6.608   0.312  1.00 20.00     0.053 C 
HETATM    4  C5  UNL     1     -43.266   6.321  -0.213  1.00 20.00     0.047 C 
HETATM    5  C6  UNL     1     -41.489   7.979  -0.302  1.00 20.00     0.062 C 
HETATM    6  C7  UNL     1     -43.022   7.813  -0.580  1.00 20.00     0.003 C 
HETATM    7  C8  UNL     1     -42.397   6.225   1.043  1.00 20.00     0.186 C 
HETATM    8  C9  UNL     1     -43.417   8.189  -2.002  1.00 20.00     0.011 C 
HETATM    9  F11 UNL     1     -42.352   4.972   1.545  1.00 20.00    -0.248 F 
ENDROOT
BRANCH   5  10
HETATM   10  C3  UNL     1     -41.208   9.089   0.665  1.00 20.00     0.236 C 
HETATM   11  O10 UNL     1     -41.307  10.276   0.377  1.00 20.00    -0.306 OA
ENDBRANCH   5  10
TORSDOF 1
ENDMDL
MODEL 8
REMARK VINA RESULT:      -4.3      1.805      2.213
REMARK  1 active torsions:
REMARK  status: ('A' for Active; 'I' for Inactive)
REMARK    1  A    between atoms: C3_3  and  C6_6 
ROOT
HETATM    1  C1  UNL     1     -34.476  15.697  -2.662  1.00 20.00    -0.022 C 
HETATM    2  C2  UNL     1     -33.483  15.679  -3.563  1.00 20.00    -0.022 C 
HETATM    3  C4  UNL     1     -35.725  15.211  -3.361  1.00 20.00     0.053 C 
HETATM    4  C5  UNL     1     -34.065  15.177  -4.865  1.00 20.00     0.047 C 
HETATM    5  C6  UNL     1     -36.145  16.326  -4.352  1.00 20.00     0.062 C 
HETATM    6  C7  UNL     1     -35.038  16.237  -5.457  1.00 20.00     0.003 C 
HETATM    7  C8  UNL     1     -35.085  14.186  -4.302  1.00 20.00     0.186 C 
HETATM    8  C9  UNL     1     -34.394  17.582  -5.769  1.00 20.00     0.011 C 
HETATM    9  F11 UNL     1     -34.501  13.167  -3.633  1.00 20.00    -0.248 F 
ENDROOT
BRANCH   5  10
HETATM   10  C3  UNL     1     -37.513  16.056  -4.903  1.00 20.00     0.236 C 
HETATM   11  O10 UNL     1     -37.721  15.744  -6.070  1.00 20.00    -0.306 OA
ENDBRANCH   5  10
TORSDOF 1
ENDMDL
MODEL 9
REMARK VINA RESULT:      -4.2      1.688      2.222
REMARK  1 active torsions:
REMARK  status: ('A' for Active; 'I' for Inactive)
REMARK    1  A    between atoms: C3_3  and  C6_6 
ROOT
HETATM    1  C1  UNL     1     -34.840  16.500  -1.648  1.00 20.00    -0.022 C 
HETATM    2  C2  UNL     1     -35.960  16.962  -2.221  1.00 20.00    -0.022 C 
HETATM    3  C4  UNL     1     -33.850  16.222  -2.757  1.00 20.00     0.053 C 
HETATM    4  C5  UNL     1     -35.723  16.997  -3.714  1.00 20.00     0.047 C 
HETATM    5  C6  UNL     1     -34.376  14.982  -3.523  1.00 20.00     0.062 C 
HETATM    6  C7  UNL     1     -35.631  15.548  -4.272  1.00 20.00     0.003 C 
HETATM    7  C8  UNL     1     -34.236  17.359  -3.708  1.00 20.00     0.186 C 
HETATM    8  C9  UNL     1     -36.884  14.708  -4.062  1.00 20.00     0.011 C 
HETATM    9  F11 UNL     1     -34.004  18.578  -3.173  1.00 20.00    -0.248 F 
ENDROOT
BRANCH   5  10
HETATM   10  C3  UNL     1     -33.338  14.468  -4.474  1.00 20.00     0.236 C 
HETATM   11  O10 UNL     1     -33.498  14.425  -5.690  1.00 20.00    -0.306 OA
ENDBRANCH   5  10
TORSDOF 1
ENDMDL
