MODEL 1
REMARK VINA RESULT:      -4.3      0.000      0.000
REMARK  3 active torsions:
REMARK  status: ('A' for Active; 'I' for Inactive)
REMARK    1  A    between atoms: C1_1  and  C2_2 
REMARK    2  A    between atoms: C1_1  and  O10_10 
REMARK    3  A    between atoms: C7_7  and  O10_10 
ROOT
HETATM    1  C1  UNL     1     -33.760   5.353   3.068  1.00 20.00     0.291 C 
HETATM    2  O8  UNL     1     -32.976   4.487   2.702  1.00 20.00    -0.262 OA
ENDROOT
BRANCH   1   3
HETATM    3  C2  UNL     1     -34.911   5.102   3.934  1.00 20.00     0.250 A 
HETATM    4  C3  UNL     1     -34.965   5.612   5.351  1.00 20.00     0.157 A 
HETATM    5  C4  UNL     1     -33.875   6.420   5.960  1.00 20.00     0.042 C 
HETATM    6  O9  UNL     1     -34.610   4.258   5.058  1.00 20.00    -0.365 OA
ENDBRANCH   1   3
BRANCH   1   7
HETATM    7  O10 UNL     1     -33.711   6.677   2.748  1.00 20.00    -0.315 OA
BRANCH   7   8
HETATM    8  C7  UNL     1     -32.446   7.147   2.268  1.00 20.00     0.123 C 
HETATM    9  C5  UNL     1     -32.679   8.211   1.206  1.00 20.00     0.040 C 
HETATM   10  C6  UNL     1     -31.635   7.683   3.438  1.00 20.00     0.040 C 
ENDBRANCH   7   8
ENDBRANCH   1   7
TORSDOF 3
ENDMDL
MODEL 2
REMARK VINA RESULT:      -4.2     11.222     12.565
REMARK  3 active torsions:
REMARK  status: ('A' for Active; 'I' for Inactive)
REMARK    1  A    between atoms: C1_1  and  C2_2 
REMARK    2  A    between atoms: C1_1  and  O10_10 
REMARK    3  A    between atoms: C7_7  and  O10_10 
ROOT
HETATM    1  C1  UNL     1     -35.398  14.172  -4.290  1.00 20.00     0.291 C 
HETATM    2  O8  UNL     1     -34.765  13.180  -3.952  1.00 20.00    -0.262 OA
ENDROOT
BRANCH   1   3
HETATM    3  C2  UNL     1     -36.115  14.292  -5.559  1.00 20.00     0.250 A 
HETATM    4  C3  UNL     1     -35.432  14.764  -6.816  1.00 20.00     0.157 A 
HETATM    5  C4  UNL     1     -33.988  15.116  -6.866  1.00 20.00     0.042 C 
HETATM    6  O9  UNL     1     -36.233  15.646  -6.026  1.00 20.00    -0.365 OA
ENDBRANCH   1   3
BRANCH   1   7
HETATM    7  O10 UNL     1     -35.550  15.320  -3.571  1.00 20.00    -0.315 OA
BRANCH   7   8
HETATM    8  C7  UNL     1     -34.504  15.601  -2.634  1.00 20.00     0.123 C 
HETATM    9  C5  UNL     1     -33.338  16.248  -3.367  1.00 20.00     0.040 C 
HETATM   10  C6  UNL     1     -35.047  16.498  -1.531  1.00 20.00     0.040 C 
ENDBRANCH   7   8
ENDBRANCH   1   7
TORSDOF 3
ENDMDL
MODEL 3
REMARK VINA RESULT:      -4.1     11.585     12.451
REMARK  3 active torsions:
REMARK  status: ('A' for Active; 'I' for Inactive)
REMARK    1  A    between atoms: C1_1  and  C2_2 
REMARK    2  A    between atoms: C1_1  and  O10_10 
REMARK    3  A    between atoms: C7_7  and  O10_10 
ROOT
HETATM    1  C1  UNL     1     -34.212  14.925  -4.753  1.00 20.00     0.291 C 
HETATM    2  O8  UNL     1     -33.723  13.847  -4.442  1.00 20.00    -0.262 OA
ENDROOT
BRANCH   1   3
HETATM    3  C2  UNL     1     -35.188  15.101  -5.828  1.00 20.00     0.250 A 
HETATM    4  C3  UNL     1     -36.660  14.860  -5.612  1.00 20.00     0.157 A 
HETATM    5  C4  UNL     1     -37.226  14.454  -4.299  1.00 20.00     0.042 C 
HETATM    6  O9  UNL     1     -35.825  13.877  -6.231  1.00 20.00    -0.365 OA
ENDBRANCH   1   3
BRANCH   1   7
HETATM    7  O10 UNL     1     -33.949  16.131  -4.175  1.00 20.00    -0.315 OA
BRANCH   7   8
HETATM    8  C7  UNL     1     -33.701  16.095  -2.765  1.00 20.00     0.123 C 
HETATM    9  C5  UNL     1     -32.842  17.290  -2.378  1.00 20.00     0.040 C 
HETATM   10  C6  UNL     1     -35.030  16.089  -2.024  1.00 20.00     0.040 C 
ENDBRANCH   7   8
ENDBRANCH   1   7
TORSDOF 3
ENDMDL
MODEL 4
REMARK VINA RESULT:      -4.1     11.172     12.536
REMARK  3 active torsions:
REMARK  status: ('A' for Active; 'I' for Inactive)
REMARK    1  A    between atoms: C1_1  and  C2_2 
REMARK    2  A    between atoms: C1_1  and  O10_10 
REMARK    3  A    between atoms: C7_7  and  O10_10 
ROOT
HETATM    1  C1  UNL     1     -35.725  13.824  -4.131  1.00 20.00     0.291 C 
HETATM    2  O8  UNL     1     -35.908  12.701  -4.584  1.00 20.00    -0.262 OA
ENDROOT
BRANCH   1   3
HETATM    3  C2  UNL     1     -34.406  14.424  -3.940  1.00 20.00     0.250 A 
HETATM    4  C3  UNL     1     -33.622  15.003  -5.090  1.00 20.00     0.157 A 
HETATM    5  C4  UNL     1     -34.136  15.028  -6.485  1.00 20.00     0.042 C 
HETATM    6  O9  UNL     1     -33.345  13.695  -4.581  1.00 20.00    -0.365 OA
ENDBRANCH   1   3
BRANCH   1   7
HETATM    7  O10 UNL     1     -36.688  14.703  -3.733  1.00 20.00    -0.315 OA
BRANCH   7   8
HETATM    8  C7  UNL     1     -37.620  15.095  -4.747  1.00 20.00     0.123 C 
HETATM    9  C5  UNL     1     -39.036  14.925  -4.217  1.00 20.00     0.040 C 
HETATM   10  C6  UNL     1     -37.337  16.532  -5.158  1.00 20.00     0.040 C 
ENDBRANCH   7   8
ENDBRANCH   1   7
TORSDOF 3
ENDMDL
MODEL 5
REMARK VINA RESULT:      -4.0     11.298     12.468
REMARK  3 active torsions:
REMARK  status: ('A' for Active; 'I' for Inactive)
REMARK    1  A    between atoms: C1_1  and  C2_2 
REMARK    2  A    between atoms: C1_1  and  O10_10 
REMARK    3  A    between atoms: C7_7  and  O10_10 
ROOT
HETATM    1  C1  UNL     1     -35.322  13.849  -4.555  1.00 20.00     0.291 C 
HETATM    2  O8  UNL     1     -36.044  12.867  -4.443  1.00 20.00    -0.262 OA
ENDROOT
BRANCH   1   3
HETATM    3  C2  UNL     1     -35.332  14.744  -5.712  1.00 20.00     0.250 A 
HETATM    4  C3  UNL     1     -36.493  15.662  -5.996  1.00 20.00     0.157 A 
HETATM    5  C4  UNL     1     -37.690  15.743  -5.119  1.00 20.00     0.042 C 
HETATM    6  O9  UNL     1     -36.340  14.417  -6.682  1.00 20.00    -0.365 OA
ENDBRANCH   1   3
BRANCH   1   7
HETATM    7  O10 UNL     1     -34.400  14.285  -3.650  1.00 20.00    -0.315 OA
BRANCH   7   8
HETATM    8  C7  UNL     1     -34.424  15.690  -3.377  1.00 20.00     0.123 C 
HETATM    9  C5  UNL     1     -35.200  15.937  -2.092  1.00 20.00     0.040 C 
HETATM   10  C6  UNL     1     -32.995  16.205  -3.284  1.00 20.00     0.040 C 
ENDBRANCH   7   8
ENDBRANCH   1   7
TORSDOF 3
ENDMDL
MODEL 6
REMARK VINA RESULT:      -3.9     11.796     12.548
REMARK  3 active torsions:
REMARK  status: ('A' for Active; 'I' for Inactive)
REMARK    1  A    between atoms: C1_1  and  C2_2 
REMARK    2  A    between atoms: C1_1  and  O10_10 
REMARK    3  A    between atoms: C7_7  and  O10_10 
ROOT
HETATM    1  C1  UNL     1     -36.779  15.977  -3.827  1.00 20.00     0.291 C 
HETATM    2  O8  UNL     1     -37.880  16.461  -4.058  1.00 20.00    -0.262 OA
ENDROOT
BRANCH   1   3
HETATM    3  C2  UNL     1     -36.502  14.541  -3.825  1.00 20.00     0.250 A 
HETATM    4  C3  UNL     1     -36.077  13.812  -5.073  1.00 20.00     0.157 A 
HETATM    5  C4  UNL     1     -35.887  14.494  -6.381  1.00 20.00     0.042 C 
HETATM    6  O9  UNL     1     -37.430  13.775  -4.611  1.00 20.00    -0.365 OA
ENDBRANCH   1   3
BRANCH   1   7
HETATM    7  O10 UNL     1     -35.637  16.662  -3.540  1.00 20.00    -0.315 OA
BRANCH   7   8
HETATM    8  C7  UNL     1     -34.820  16.091  -2.512  1.00 20.00     0.123 C 
HETATM    9  C5  UNL     1     -33.355  16.260  -2.885  1.00 20.00     0.040 C 
HETATM   10  C6  UNL     1     -35.147  16.759  -1.184  1.00 20.00     0.040 C 
ENDBRANCH   7   8
ENDBRANCH   1   7
TORSDOF 3
ENDMDL
MODEL 7
REMARK VINA RESULT:      -3.8     11.434     12.704
REMARK  3 active torsions:
REMARK  status: ('A' for Active; 'I' for Inactive)
REMARK    1  A    between atoms: C1_1  and  C2_2 
REMARK    2  A    between atoms: C1_1  and  O10_10 
REMARK    3  A    between atoms: C7_7  and  O10_10 
ROOT
HETATM    1  C1  UNL     1     -33.936  14.582  -4.539  1.00 20.00     0.291 C 
HETATM    2  O8  UNL     1     -34.208  13.456  -4.143  1.00 20.00    -0.262 OA
ENDROOT
BRANCH   1   3
HETATM    3  C2  UNL     1     -33.132  15.543  -3.785  1.00 20.00     0.250 A 
HETATM    4  C3  UNL     1     -33.686  16.281  -2.594  1.00 20.00     0.157 A 
HETATM    5  C4  UNL     1     -35.068  16.072  -2.087  1.00 20.00     0.042 C 
HETATM    6  O9  UNL     1     -33.611  16.895  -3.884  1.00 20.00    -0.365 OA
ENDBRANCH   1   3
BRANCH   1   7
HETATM    7  O10 UNL     1     -34.319  15.138  -5.723  1.00 20.00    -0.315 OA
BRANCH   7   8
HETATM    8  C7  UNL     1     -35.634  14.789  -6.170  1.00 20.00     0.123 C 
HETATM    9  C5  UNL     1     -36.657  15.618  -5.407  1.00 20.00     0.040 C 
HETATM   10  C6  UNL     1     -35.729  15.014  -7.671  1.00 20.00     0.040 C 
ENDBRANCH   7   8
ENDBRANCH   1   7
TORSDOF 3
ENDMDL
MODEL 8
REMARK VINA RESULT:      -3.8     11.636     12.760
REMARK  3 active torsions:
REMARK  status: ('A' for Active; 'I' for Inactive)
REMARK    1  A    between atoms: C1_1  and  C2_2 
REMARK    2  A    between atoms: C1_1  and  O10_10 
REMARK    3  A    between atoms: C7_7  and  O10_10 
ROOT
HETATM    1  C1  UNL     1     -36.014  14.540  -5.064  1.00 20.00     0.291 C 
HETATM    2  O8  UNL     1     -35.980  13.646  -5.901  1.00 20.00    -0.262 OA
ENDROOT
BRANCH   1   3
HETATM    3  C2  UNL     1     -36.723  15.806  -5.249  1.00 20.00     0.250 A 
HETATM    4  C3  UNL     1     -38.165  15.974  -4.845  1.00 20.00     0.157 A 
HETATM    5  C4  UNL     1     -38.959  14.887  -4.215  1.00 20.00     0.042 C 
HETATM    6  O9  UNL     1     -37.794  15.730  -6.205  1.00 20.00    -0.365 OA
ENDBRANCH   1   3
BRANCH   1   7
HETATM    7  O10 UNL     1     -35.417  14.526  -3.839  1.00 20.00    -0.315 OA
BRANCH   7   8
HETATM    8  C7  UNL     1     -34.705  15.718  -3.489  1.00 20.00     0.123 C 
HETATM    9  C5  UNL     1     -34.977  16.053  -2.031  1.00 20.00     0.040 C 
HETATM   10  C6  UNL     1     -33.221  15.509  -3.755  1.00 20.00     0.040 C 
ENDBRANCH   7   8
ENDBRANCH   1   7
TORSDOF 3
ENDMDL
MODEL 9
REMARK VINA RESULT:      -3.8     11.448     13.018
REMARK  3 active torsions:
REMARK  status: ('A' for Active; 'I' for Inactive)
REMARK    1  A    between atoms: C1_1  and  C2_2 
REMARK    2  A    between atoms: C1_1  and  O10_10 
REMARK    3  A    between atoms: C7_7  and  O10_10 
ROOT
HETATM    1  C1  UNL     1     -37.108  14.223  -4.854  1.00 20.00     0.291 C 
HETATM    2  O8  UNL     1     -38.100  13.975  -4.180  1.00 20.00    -0.262 OA
ENDROOT
BRANCH   1   3
HETATM    3  C2  UNL     1     -35.825  13.537  -4.704  1.00 20.00     0.250 A 
HETATM    4  C3  UNL     1     -34.726  14.090  -3.834  1.00 20.00     0.157 A 
HETATM    5  C4  UNL     1     -34.870  15.347  -3.054  1.00 20.00     0.042 C 
HETATM    6  O9  UNL     1     -34.716  14.267  -5.253  1.00 20.00    -0.365 OA
ENDBRANCH   1   3
BRANCH   1   7
HETATM    7  O10 UNL     1     -37.013  15.156  -5.843  1.00 20.00    -0.315 OA
BRANCH   7   8
HETATM    8  C7  UNL     1     -37.553  16.444  -5.526  1.00 20.00     0.123 C 
HETATM    9  C5  UNL     1     -36.449  17.487  -5.624  1.00 20.00     0.040 C 
HETATM   10  C6  UNL     1     -38.706  16.749  -6.471  1.00 20.00     0.040 C 
ENDBRANCH   7   8
ENDBRANCH   1   7
TORSDOF 3
ENDMDL
