MODEL 1
REMARK VINA RESULT:      -4.6      0.000      0.000
REMARK  2 active torsions:
REMARK  status: ('A' for Active; 'I' for Inactive)
REMARK    1  A    between atoms: C3_3  and  C8_8 
REMARK    2  A    between atoms: C9_9  and  N11_11 
ROOT
HETATM    1  C1  UNL     1     -31.613  18.489  -0.670  1.00 20.00     0.089 C 
HETATM    2  C9  UNL     1     -33.020  18.525  -1.063  1.00 20.00     0.395 C 
HETATM    3  N10 UNL     1     -30.495  18.464  -0.357  1.00 20.00    -0.195 NA
ENDROOT
BRANCH   2   4
HETATM    4  N11 UNL     1     -33.430  17.251  -1.652  1.00 20.00     0.101 N 
HETATM    5  C6  UNL     1     -34.895  17.164  -1.720  1.00 20.00     0.274 C 
HETATM    6  C4  UNL     1     -35.340  15.813  -2.284  1.00 20.00     0.039 C 
HETATM    7  C8  UNL     1     -34.716  15.550  -3.653  1.00 20.00     0.011 C 
HETATM    8  C5  UNL     1     -33.200  15.728  -3.588  1.00 20.00     0.039 C 
HETATM    9  C7  UNL     1     -32.826  17.081  -2.981  1.00 20.00     0.274 C 
BRANCH   7  10
HETATM   10  C3  UNL     1     -35.040  14.162  -4.112  1.00 20.00    -0.032 C 
HETATM   11  C2  UNL     1     -36.252  13.773  -4.519  1.00 20.00     0.007 C 
ENDBRANCH   7  10
ENDBRANCH   2   4
TORSDOF 2
ENDMDL
MODEL 2
REMARK VINA RESULT:      -4.6      2.309      5.407
REMARK  2 active torsions:
REMARK  status: ('A' for Active; 'I' for Inactive)
REMARK    1  A    between atoms: C3_3  and  C8_8 
REMARK    2  A    between atoms: C9_9  and  N11_11 
ROOT
HETATM    1  C1  UNL     1     -36.892  14.068  -4.483  1.00 20.00     0.089 C 
HETATM    2  C9  UNL     1     -35.452  14.155  -4.716  1.00 20.00     0.395 C 
HETATM    3  N10 UNL     1     -38.036  13.997  -4.302  1.00 20.00    -0.195 NA
ENDROOT
BRANCH   2   4
HETATM    4  N11 UNL     1     -34.793  14.891  -3.637  1.00 20.00     0.101 N 
HETATM    5  C6  UNL     1     -33.665  15.671  -4.162  1.00 20.00     0.274 C 
HETATM    6  C4  UNL     1     -32.932  16.405  -3.036  1.00 20.00     0.039 C 
HETATM    7  C8  UNL     1     -33.885  17.295  -2.242  1.00 20.00     0.011 C 
HETATM    8  C5  UNL     1     -35.097  16.491  -1.775  1.00 20.00     0.039 C 
HETATM    9  C7  UNL     1     -35.757  15.755  -2.941  1.00 20.00     0.274 C 
BRANCH   7  10
HETATM   10  C3  UNL     1     -33.181  17.878  -1.055  1.00 20.00    -0.032 C 
HETATM   11  C2  UNL     1     -31.893  18.235  -1.051  1.00 20.00     0.007 C 
ENDBRANCH   7  10
ENDBRANCH   2   4
TORSDOF 2
ENDMDL
MODEL 3
REMARK VINA RESULT:      -4.5      2.413      5.055
REMARK  2 active torsions:
REMARK  status: ('A' for Active; 'I' for Inactive)
REMARK    1  A    between atoms: C3_3  and  C8_8 
REMARK    2  A    between atoms: C9_9  and  N11_11 
ROOT
HETATM    1  C1  UNL     1     -35.961  13.851  -4.897  1.00 20.00     0.089 C 
HETATM    2  C9  UNL     1     -35.693  15.157  -5.494  1.00 20.00     0.395 C 
HETATM    3  N10 UNL     1     -36.176  12.812  -4.426  1.00 20.00    -0.195 NA
ENDROOT
BRANCH   2   4
HETATM    4  N11 UNL     1     -35.069  16.056  -4.522  1.00 20.00     0.101 N 
HETATM    5  C6  UNL     1     -35.982  16.313  -3.400  1.00 20.00     0.274 C 
HETATM    6  C4  UNL     1     -35.364  17.295  -2.402  1.00 20.00     0.039 C 
HETATM    7  C8  UNL     1     -34.010  16.796  -1.899  1.00 20.00     0.011 C 
HETATM    8  C5  UNL     1     -33.101  16.451  -3.076  1.00 20.00     0.039 C 
HETATM    9  C7  UNL     1     -33.793  15.498  -4.052  1.00 20.00     0.274 C 
BRANCH   7  10
HETATM   10  C3  UNL     1     -33.357  17.841  -1.049  1.00 20.00    -0.032 C 
HETATM   11  C2  UNL     1     -32.074  18.199  -1.156  1.00 20.00     0.007 C 
ENDBRANCH   7  10
ENDBRANCH   2   4
TORSDOF 2
ENDMDL
MODEL 4
REMARK VINA RESULT:      -4.5      2.210      5.111
REMARK  2 active torsions:
REMARK  status: ('A' for Active; 'I' for Inactive)
REMARK    1  A    between atoms: C3_3  and  C8_8 
REMARK    2  A    between atoms: C9_9  and  N11_11 
ROOT
HETATM    1  C1  UNL     1     -35.184  13.658  -4.402  1.00 20.00     0.089 C 
HETATM    2  C9  UNL     1     -34.181  14.716  -4.503  1.00 20.00     0.395 C 
HETATM    3  N10 UNL     1     -35.981  12.817  -4.326  1.00 20.00    -0.195 NA
ENDROOT
BRANCH   2   4
HETATM    4  N11 UNL     1     -34.035  15.419  -3.229  1.00 20.00     0.101 N 
HETATM    5  C6  UNL     1     -33.124  16.562  -3.375  1.00 20.00     0.274 C 
HETATM    6  C4  UNL     1     -32.918  17.276  -2.037  1.00 20.00     0.039 C 
HETATM    7  C8  UNL     1     -34.250  17.716  -1.432  1.00 20.00     0.011 C 
HETATM    8  C5  UNL     1     -35.218  16.537  -1.366  1.00 20.00     0.039 C 
HETATM    9  C7  UNL     1     -35.347  15.847  -2.725  1.00 20.00     0.274 C 
BRANCH   7  10
HETATM   10  C3  UNL     1     -34.037  18.269  -0.057  1.00 20.00    -0.032 C 
HETATM   11  C2  UNL     1     -34.555  17.734   1.053  1.00 20.00     0.007 C 
ENDBRANCH   7  10
ENDBRANCH   2   4
TORSDOF 2
ENDMDL
MODEL 5
REMARK VINA RESULT:      -4.5      2.435      5.289
REMARK  2 active torsions:
REMARK  status: ('A' for Active; 'I' for Inactive)
REMARK    1  A    between atoms: C3_3  and  C8_8 
REMARK    2  A    between atoms: C9_9  and  N11_11 
ROOT
HETATM    1  C1  UNL     1     -37.091  14.404  -4.658  1.00 20.00     0.089 C 
HETATM    2  C9  UNL     1     -35.807  14.914  -5.133  1.00 20.00     0.395 C 
HETATM    3  N10 UNL     1     -38.111  13.997  -4.283  1.00 20.00    -0.195 NA
ENDROOT
BRANCH   2   4
HETATM    4  N11 UNL     1     -35.270  15.915  -4.212  1.00 20.00     0.101 N 
HETATM    5  C6  UNL     1     -34.991  15.311  -2.902  1.00 20.00     0.274 C 
HETATM    6  C4  UNL     1     -34.480  16.359  -1.910  1.00 20.00     0.039 C 
HETATM    7  C8  UNL     1     -33.245  17.078  -2.452  1.00 20.00     0.011 C 
HETATM    8  C5  UNL     1     -33.521  17.627  -3.850  1.00 20.00     0.039 C 
HETATM    9  C7  UNL     1     -34.065  16.538  -4.776  1.00 20.00     0.274 C 
BRANCH   7  10
HETATM   10  C3  UNL     1     -32.858  18.200  -1.538  1.00 20.00    -0.032 C 
HETATM   11  C2  UNL     1     -31.691  18.269  -0.891  1.00 20.00     0.007 C 
ENDBRANCH   7  10
ENDBRANCH   2   4
TORSDOF 2
ENDMDL
MODEL 6
REMARK VINA RESULT:      -4.3      0.819      1.626
REMARK  2 active torsions:
REMARK  status: ('A' for Active; 'I' for Inactive)
REMARK    1  A    between atoms: C3_3  and  C8_8 
REMARK    2  A    between atoms: C9_9  and  N11_11 
ROOT
HETATM    1  C1  UNL     1     -31.634  18.699  -0.870  1.00 20.00     0.089 C 
HETATM    2  C9  UNL     1     -32.872  19.263  -1.403  1.00 20.00     0.395 C 
HETATM    3  N10 UNL     1     -30.649  18.255  -0.444  1.00 20.00    -0.195 NA
ENDROOT
BRANCH   2   4
HETATM    4  N11 UNL     1     -33.658  18.238  -2.089  1.00 20.00     0.101 N 
HETATM    5  C6  UNL     1     -32.852  17.581  -3.127  1.00 20.00     0.274 C 
HETATM    6  C4  UNL     1     -33.678  16.543  -3.890  1.00 20.00     0.039 C 
HETATM    7  C8  UNL     1     -34.287  15.512  -2.941  1.00 20.00     0.011 C 
HETATM    8  C5  UNL     1     -35.050  16.210  -1.818  1.00 20.00     0.039 C 
HETATM    9  C7  UNL     1     -34.180  17.259  -1.124  1.00 20.00     0.274 C 
BRANCH   7  10
HETATM   10  C3  UNL     1     -35.213  14.604  -3.690  1.00 20.00    -0.032 C 
HETATM   11  C2  UNL     1     -36.482  14.905  -3.981  1.00 20.00     0.007 C 
ENDBRANCH   7  10
ENDBRANCH   2   4
TORSDOF 2
ENDMDL
MODEL 7
REMARK VINA RESULT:      -4.3      1.172      1.361
REMARK  2 active torsions:
REMARK  status: ('A' for Active; 'I' for Inactive)
REMARK    1  A    between atoms: C3_3  and  C8_8 
REMARK    2  A    between atoms: C9_9  and  N11_11 
ROOT
HETATM    1  C1  UNL     1     -31.355  18.911   0.453  1.00 20.00     0.089 C 
HETATM    2  C9  UNL     1     -32.763  19.066   0.094  1.00 20.00     0.395 C 
HETATM    3  N10 UNL     1     -30.236  18.791   0.740  1.00 20.00    -0.195 NA
ENDROOT
BRANCH   2   4
HETATM    4  N11 UNL     1     -33.251  17.886  -0.620  1.00 20.00     0.101 N 
HETATM    5  C6  UNL     1     -34.720  17.871  -0.643  1.00 20.00     0.274 C 
HETATM    6  C4  UNL     1     -35.247  16.615  -1.340  1.00 20.00     0.039 C 
HETATM    7  C8  UNL     1     -34.680  16.486  -2.753  1.00 20.00     0.011 C 
HETATM    8  C5  UNL     1     -33.157  16.589  -2.725  1.00 20.00     0.039 C 
HETATM    9  C7  UNL     1     -32.699  17.845  -1.982  1.00 20.00     0.274 C 
BRANCH   7  10
HETATM   10  C3  UNL     1     -35.084  15.175  -3.354  1.00 20.00    -0.032 C 
HETATM   11  C2  UNL     1     -34.239  14.344  -3.973  1.00 20.00     0.007 C 
ENDBRANCH   7  10
ENDBRANCH   2   4
TORSDOF 2
ENDMDL
MODEL 8
REMARK VINA RESULT:      -4.2     11.679     15.100
REMARK  2 active torsions:
REMARK  status: ('A' for Active; 'I' for Inactive)
REMARK    1  A    between atoms: C3_3  and  C8_8 
REMARK    2  A    between atoms: C9_9  and  N11_11 
ROOT
HETATM    1  C1  UNL     1     -26.226  18.885   5.596  1.00 20.00     0.089 C 
HETATM    2  C9  UNL     1     -26.475  19.263   6.985  1.00 20.00     0.395 C 
HETATM    3  N10 UNL     1     -26.031  18.587   4.491  1.00 20.00    -0.195 NA
ENDROOT
BRANCH   2   4
HETATM    4  N11 UNL     1     -25.507  18.628   7.880  1.00 20.00     0.101 N 
HETATM    5  C6  UNL     1     -24.139  18.840   7.389  1.00 20.00     0.274 C 
HETATM    6  C4  UNL     1     -23.117  18.136   8.285  1.00 20.00     0.039 C 
HETATM    7  C8  UNL     1     -23.250  18.588   9.738  1.00 20.00     0.011 C 
HETATM    8  C5  UNL     1     -24.695  18.444  10.210  1.00 20.00     0.039 C 
HETATM    9  C7  UNL     1     -25.664  19.137   9.250  1.00 20.00     0.274 C 
BRANCH   7  10
HETATM   10  C3  UNL     1     -22.351  17.775  10.618  1.00 20.00    -0.032 C 
HETATM   11  C2  UNL     1     -22.426  17.757  11.952  1.00 20.00     0.007 C 
ENDBRANCH   7  10
ENDBRANCH   2   4
TORSDOF 2
ENDMDL
MODEL 9
REMARK VINA RESULT:      -4.2      2.716      5.107
REMARK  2 active torsions:
REMARK  status: ('A' for Active; 'I' for Inactive)
REMARK    1  A    between atoms: C3_3  and  C8_8 
REMARK    2  A    between atoms: C9_9  and  N11_11 
ROOT
HETATM    1  C1  UNL     1     -35.324  14.869  -6.778  1.00 20.00     0.089 C 
HETATM    2  C9  UNL     1     -34.157  14.855  -5.898  1.00 20.00     0.395 C 
HETATM    3  N10 UNL     1     -36.249  14.878  -7.480  1.00 20.00    -0.195 NA
ENDROOT
BRANCH   2   4
HETATM    4  N11 UNL     1     -34.365  15.728  -4.743  1.00 20.00     0.101 N 
HETATM    5  C6  UNL     1     -35.655  15.437  -4.104  1.00 20.00     0.274 C 
HETATM    6  C4  UNL     1     -35.911  16.381  -2.926  1.00 20.00     0.039 C 
HETATM    7  C8  UNL     1     -34.773  16.318  -1.908  1.00 20.00     0.011 C 
HETATM    8  C5  UNL     1     -33.429  16.537  -2.600  1.00 20.00     0.039 C 
HETATM    9  C7  UNL     1     -33.256  15.590  -3.789  1.00 20.00     0.274 C 
BRANCH   7  10
HETATM   10  C3  UNL     1     -34.968  17.359  -0.849  1.00 20.00    -0.032 C 
HETATM   11  C2  UNL     1     -35.464  17.105   0.366  1.00 20.00     0.007 C 
ENDBRANCH   7  10
ENDBRANCH   2   4
TORSDOF 2
ENDMDL
