MODEL 1
REMARK VINA RESULT:      -3.8      0.000      0.000
REMARK  3 active torsions:
REMARK  status: ('A' for Active; 'I' for Inactive)
REMARK    1  A    between atoms: C7_7  and  C8_8 
REMARK    2  A    between atoms: C8_8  and  N10_10 
REMARK    3  A    between atoms: C9_9  and  N10_10 
ROOT
HETATM    1  C1  UNL     1     -24.607  15.364  11.163  1.00 20.00     0.015 C 
HETATM    2  C2  UNL     1     -24.189  16.475  11.337  1.00 20.00    -0.076 C 
HETATM    3  C4  UNL     1     -24.707  18.663  12.332  1.00 20.00     0.063 C 
HETATM    4  C5  UNL     1     -22.357  17.786  12.332  1.00 20.00     0.063 C 
HETATM    5  C9  UNL     1     -23.674  17.843  11.551  1.00 20.00     0.213 C 
ENDROOT
BRANCH   5   6
HETATM    6  N10 UNL     1     -23.437  18.466  10.263  1.00 20.00     0.104 N 
HETATM    7  C6  UNL     1     -22.583  17.621   9.422  1.00 20.00     0.312 C 
BRANCH   6   8
HETATM    8  C8  UNL     1     -24.702  18.744   9.574  1.00 20.00     0.273 C 
BRANCH   8   9
HETATM    9  C7  UNL     1     -24.503  19.044   8.094  1.00 20.00     0.026 C 
HETATM   10  C3  UNL     1     -25.794  18.943   7.294  1.00 20.00     0.007 C 
ENDBRANCH   8   9
ENDBRANCH   6   8
ENDBRANCH   5   6
TORSDOF 3
ENDMDL
MODEL 2
REMARK VINA RESULT:      -3.7      1.355      2.722
REMARK  3 active torsions:
REMARK  status: ('A' for Active; 'I' for Inactive)
REMARK    1  A    between atoms: C7_7  and  C8_8 
REMARK    2  A    between atoms: C8_8  and  N10_10 
REMARK    3  A    between atoms: C9_9  and  N10_10 
ROOT
HETATM    1  C1  UNL     1     -24.668  15.454  11.534  1.00 20.00     0.015 C 
HETATM    2  C2  UNL     1     -24.102  16.498  11.359  1.00 20.00    -0.076 C 
HETATM    3  C4  UNL     1     -22.481  18.070  12.331  1.00 20.00     0.063 C 
HETATM    4  C5  UNL     1     -22.584  17.717   9.850  1.00 20.00     0.063 C 
HETATM    5  C9  UNL     1     -23.405  17.782  11.143  1.00 20.00     0.213 C 
ENDROOT
BRANCH   5   6
HETATM    6  N10 UNL     1     -24.389  18.841  11.029  1.00 20.00     0.104 N 
HETATM    7  C6  UNL     1     -25.034  18.815   9.712  1.00 20.00     0.312 C 
BRANCH   6   8
HETATM    8  C8  UNL     1     -25.400  18.733  12.086  1.00 20.00     0.273 C 
BRANCH   8   9
HETATM    9  C7  UNL     1     -26.803  19.042  11.580  1.00 20.00     0.026 C 
HETATM   10  C3  UNL     1     -27.860  18.125  12.179  1.00 20.00     0.007 C 
ENDBRANCH   8   9
ENDBRANCH   6   8
ENDBRANCH   5   6
TORSDOF 3
ENDMDL
MODEL 3
REMARK VINA RESULT:      -3.7     16.788     18.887
REMARK  3 active torsions:
REMARK  status: ('A' for Active; 'I' for Inactive)
REMARK    1  A    between atoms: C7_7  and  C8_8 
REMARK    2  A    between atoms: C8_8  and  N10_10 
REMARK    3  A    between atoms: C9_9  and  N10_10 
ROOT
HETATM    1  C1  UNL     1     -34.672  16.320  -1.968  1.00 20.00     0.015 C 
HETATM    2  C2  UNL     1     -34.571  15.652  -2.960  1.00 20.00    -0.076 C 
HETATM    3  C4  UNL     1     -32.974  14.479  -4.416  1.00 20.00     0.063 C 
HETATM    4  C5  UNL     1     -35.269  13.545  -4.027  1.00 20.00     0.063 C 
HETATM    5  C9  UNL     1     -34.447  14.829  -4.181  1.00 20.00     0.213 C 
ENDROOT
BRANCH   5   6
HETATM    6  N10 UNL     1     -34.950  15.583  -5.312  1.00 20.00     0.104 N 
HETATM    7  C6  UNL     1     -34.183  15.281  -6.525  1.00 20.00     0.312 C 
BRANCH   6   8
HETATM    8  C8  UNL     1     -36.373  15.305  -5.537  1.00 20.00     0.273 C 
BRANCH   8   9
HETATM    9  C7  UNL     1     -37.247  16.530  -5.304  1.00 20.00     0.026 C 
HETATM   10  C3  UNL     1     -38.086  16.422  -4.038  1.00 20.00     0.007 C 
ENDBRANCH   8   9
ENDBRANCH   6   8
ENDBRANCH   5   6
TORSDOF 3
ENDMDL
MODEL 4
REMARK VINA RESULT:      -3.6      1.176      2.544
REMARK  3 active torsions:
REMARK  status: ('A' for Active; 'I' for Inactive)
REMARK    1  A    between atoms: C7_7  and  C8_8 
REMARK    2  A    between atoms: C8_8  and  N10_10 
REMARK    3  A    between atoms: C9_9  and  N10_10 
ROOT
HETATM    1  C1  UNL     1     -25.017  15.478  11.672  1.00 20.00     0.015 C 
HETATM    2  C2  UNL     1     -24.724  16.615  11.424  1.00 20.00    -0.076 C 
HETATM    3  C4  UNL     1     -24.979  18.422   9.776  1.00 20.00     0.063 C 
HETATM    4  C5  UNL     1     -24.877  18.937  12.229  1.00 20.00     0.063 C 
HETATM    5  C9  UNL     1     -24.362  18.014  11.119  1.00 20.00     0.213 C 
ENDROOT
BRANCH   5   6
HETATM    6  N10 UNL     1     -22.919  18.123  11.040  1.00 20.00     0.104 N 
HETATM    7  C6  UNL     1     -22.299  17.810  12.332  1.00 20.00     0.312 C 
BRANCH   6   8
HETATM    8  C8  UNL     1     -22.382  17.241   9.999  1.00 20.00     0.273 C 
BRANCH   8   9
HETATM    9  C7  UNL     1     -21.516  17.989   8.993  1.00 20.00     0.026 C 
HETATM   10  C3  UNL     1     -21.541  17.355   7.610  1.00 20.00     0.007 C 
ENDBRANCH   8   9
ENDBRANCH   6   8
ENDBRANCH   5   6
TORSDOF 3
ENDMDL
MODEL 5
REMARK VINA RESULT:      -3.6     13.133     16.260
REMARK  3 active torsions:
REMARK  status: ('A' for Active; 'I' for Inactive)
REMARK    1  A    between atoms: C7_7  and  C8_8 
REMARK    2  A    between atoms: C8_8  and  N10_10 
REMARK    3  A    between atoms: C9_9  and  N10_10 
ROOT
HETATM    1  C1  UNL     1     -33.030  14.412  -4.419  1.00 20.00     0.015 C 
HETATM    2  C2  UNL     1     -33.453  15.402  -3.888  1.00 20.00    -0.076 C 
HETATM    3  C4  UNL     1     -34.909  17.359  -4.197  1.00 20.00     0.063 C 
HETATM    4  C5  UNL     1     -34.732  16.242  -1.958  1.00 20.00     0.063 C 
HETATM    5  C9  UNL     1     -33.973  16.621  -3.234  1.00 20.00     0.213 C 
ENDROOT
BRANCH   5   6
HETATM    6  N10 UNL     1     -32.860  17.483  -2.887  1.00 20.00     0.104 N 
HETATM    7  C6  UNL     1     -32.890  18.719  -3.676  1.00 20.00     0.312 C 
BRANCH   6   8
HETATM    8  C8  UNL     1     -32.870  17.801  -1.456  1.00 20.00     0.273 C 
BRANCH   8   9
HETATM    9  C7  UNL     1     -31.757  18.766  -1.068  1.00 20.00     0.026 C 
HETATM   10  C3  UNL     1     -31.041  18.355   0.211  1.00 20.00     0.007 C 
ENDBRANCH   8   9
ENDBRANCH   6   8
ENDBRANCH   5   6
TORSDOF 3
ENDMDL
MODEL 6
REMARK VINA RESULT:      -3.6     16.417     18.367
REMARK  3 active torsions:
REMARK  status: ('A' for Active; 'I' for Inactive)
REMARK    1  A    between atoms: C7_7  and  C8_8 
REMARK    2  A    between atoms: C8_8  and  N10_10 
REMARK    3  A    between atoms: C9_9  and  N10_10 
ROOT
HETATM    1  C1  UNL     1     -35.181  16.611  -1.084  1.00 20.00     0.015 C 
HETATM    2  C2  UNL     1     -34.917  16.221  -2.188  1.00 20.00    -0.076 C 
HETATM    3  C4  UNL     1     -33.073  15.606  -3.694  1.00 20.00     0.063 C 
HETATM    4  C5  UNL     1     -35.262  14.386  -3.794  1.00 20.00     0.063 C 
HETATM    5  C9  UNL     1     -34.592  15.742  -3.548  1.00 20.00     0.213 C 
ENDROOT
BRANCH   5   6
HETATM    6  N10 UNL     1     -35.087  16.700  -4.517  1.00 20.00     0.104 N 
HETATM    7  C6  UNL     1     -34.076  17.724  -4.804  1.00 20.00     0.312 C 
BRANCH   6   8
HETATM    8  C8  UNL     1     -35.487  16.030  -5.759  1.00 20.00     0.273 C 
BRANCH   8   9
HETATM    9  C7  UNL     1     -34.627  16.443  -6.945  1.00 20.00     0.026 C 
HETATM   10  C3  UNL     1     -33.894  15.269  -7.579  1.00 20.00     0.007 C 
ENDBRANCH   8   9
ENDBRANCH   6   8
ENDBRANCH   5   6
TORSDOF 3
ENDMDL
MODEL 7
REMARK VINA RESULT:      -3.6     16.706     18.208
REMARK  3 active torsions:
REMARK  status: ('A' for Active; 'I' for Inactive)
REMARK    1  A    between atoms: C7_7  and  C8_8 
REMARK    2  A    between atoms: C8_8  and  N10_10 
REMARK    3  A    between atoms: C9_9  and  N10_10 
ROOT
HETATM    1  C1  UNL     1     -35.187  16.291  -1.482  1.00 20.00     0.015 C 
HETATM    2  C2  UNL     1     -34.569  16.388  -2.506  1.00 20.00    -0.076 C 
HETATM    3  C4  UNL     1     -33.018  17.821  -3.766  1.00 20.00     0.063 C 
HETATM    4  C5  UNL     1     -32.847  15.323  -3.908  1.00 20.00     0.063 C 
HETATM    5  C9  UNL     1     -33.808  16.508  -3.767  1.00 20.00     0.213 C 
ENDROOT
BRANCH   5   6
HETATM    6  N10 UNL     1     -34.736  16.504  -4.881  1.00 20.00     0.104 N 
HETATM    7  C6  UNL     1     -34.535  17.680  -5.734  1.00 20.00     0.312 C 
BRANCH   6   8
HETATM    8  C8  UNL     1     -34.596  15.279  -5.675  1.00 20.00     0.273 C 
BRANCH   8   9
HETATM    9  C7  UNL     1     -35.904  14.505  -5.784  1.00 20.00     0.026 C 
HETATM   10  C3  UNL     1     -36.200  13.673  -4.545  1.00 20.00     0.007 C 
ENDBRANCH   8   9
ENDBRANCH   6   8
ENDBRANCH   5   6
TORSDOF 3
ENDMDL
MODEL 8
REMARK VINA RESULT:      -3.6     15.834     18.450
REMARK  3 active torsions:
REMARK  status: ('A' for Active; 'I' for Inactive)
REMARK    1  A    between atoms: C7_7  and  C8_8 
REMARK    2  A    between atoms: C8_8  and  N10_10 
REMARK    3  A    between atoms: C9_9  and  N10_10 
ROOT
HETATM    1  C1  UNL     1     -34.409  15.519  -7.328  1.00 20.00     0.015 C 
HETATM    2  C2  UNL     1     -34.511  15.215  -6.171  1.00 20.00    -0.076 C 
HETATM    3  C4  UNL     1     -35.762  13.814  -4.584  1.00 20.00     0.063 C 
HETATM    4  C5  UNL     1     -33.315  14.250  -4.247  1.00 20.00     0.063 C 
HETATM    5  C9  UNL     1     -34.637  14.842  -4.747  1.00 20.00     0.213 C 
ENDROOT
BRANCH   5   6
HETATM    6  N10 UNL     1     -34.951  16.027  -3.974  1.00 20.00     0.104 N 
HETATM    7  C6  UNL     1     -36.304  16.506  -4.275  1.00 20.00     0.312 C 
BRANCH   6   8
HETATM    8  C8  UNL     1     -34.820  15.765  -2.537  1.00 20.00     0.273 C 
BRANCH   8   9
HETATM    9  C7  UNL     1     -34.287  16.970  -1.773  1.00 20.00     0.026 C 
HETATM   10  C3  UNL     1     -32.897  17.389  -2.230  1.00 20.00     0.007 C 
ENDBRANCH   8   9
ENDBRANCH   6   8
ENDBRANCH   5   6
TORSDOF 3
ENDMDL
MODEL 9
REMARK VINA RESULT:      -3.5     15.901     18.295
REMARK  3 active torsions:
REMARK  status: ('A' for Active; 'I' for Inactive)
REMARK    1  A    between atoms: C7_7  and  C8_8 
REMARK    2  A    between atoms: C8_8  and  N10_10 
REMARK    3  A    between atoms: C9_9  and  N10_10 
ROOT
HETATM    1  C1  UNL     1     -32.653  14.365  -4.461  1.00 20.00     0.015 C 
HETATM    2  C2  UNL     1     -33.804  14.690  -4.561  1.00 20.00    -0.076 C 
HETATM    3  C4  UNL     1     -35.499  15.557  -6.116  1.00 20.00     0.063 C 
HETATM    4  C5  UNL     1     -36.127  13.905  -4.336  1.00 20.00     0.063 C 
HETATM    5  C9  UNL     1     -35.220  15.091  -4.683  1.00 20.00     0.213 C 
ENDROOT
BRANCH   5   6
HETATM    6  N10 UNL     1     -35.485  16.178  -3.762  1.00 20.00     0.104 N 
HETATM    7  C6  UNL     1     -36.878  16.628  -3.869  1.00 20.00     0.312 C 
BRANCH   6   8
HETATM    8  C8  UNL     1     -35.192  15.779  -2.381  1.00 20.00     0.273 C 
BRANCH   8   9
HETATM    9  C7  UNL     1     -34.568  16.907  -1.571  1.00 20.00     0.026 C 
HETATM   10  C3  UNL     1     -33.193  17.310  -2.084  1.00 20.00     0.007 C 
ENDBRANCH   8   9
ENDBRANCH   6   8
ENDBRANCH   5   6
TORSDOF 3
ENDMDL
