MODEL 1
REMARK VINA RESULT:      -4.3      0.000      0.000
REMARK  0 active torsions:
REMARK  status: ('A' for Active; 'I' for Inactive)
ROOT
HETATM    1  C1  UNL     1     -34.636  14.706  -4.104  1.00 20.00     0.007 C 
HETATM    2  C2  UNL     1     -36.907  14.358  -4.222  1.00 20.00     0.226 C 
HETATM    3  C3  UNL     1     -33.340  14.437  -4.293  1.00 20.00     0.038 C 
HETATM    4  C4  UNL     1     -35.224  15.965  -3.530  1.00 20.00     0.043 C 
HETATM    5  C5  UNL     1     -36.739  15.813  -3.817  1.00 20.00     0.083 C 
HETATM    6  C6  UNL     1     -34.957  16.073  -2.027  1.00 20.00     0.017 C 
HETATM    7  C7  UNL     1     -37.198  16.710  -4.961  1.00 20.00     0.020 C 
HETATM    8  N8  UNL     1     -35.640  13.838  -4.416  1.00 20.00    -0.331 N 
HETATM    9  O9  UNL     1     -37.974  13.789  -4.392  1.00 20.00    -0.273 OA
HETATM   10  H20 UNL     1     -35.466  12.898  -4.757  1.00 20.00     0.168 HD
ENDROOT
TORSDOF 0
ENDMDL
MODEL 2
REMARK VINA RESULT:      -4.3      1.520      2.122
REMARK  0 active torsions:
REMARK  status: ('A' for Active; 'I' for Inactive)
ROOT
HETATM    1  C1  UNL     1     -34.666  14.981  -6.117  1.00 20.00     0.007 C 
HETATM    2  C2  UNL     1     -36.344  14.147  -4.782  1.00 20.00     0.226 C 
HETATM    3  C3  UNL     1     -34.058  15.321  -7.258  1.00 20.00     0.038 C 
HETATM    4  C4  UNL     1     -34.181  15.247  -4.719  1.00 20.00     0.043 C 
HETATM    5  C5  UNL     1     -35.407  14.887  -3.842  1.00 20.00     0.083 C 
HETATM    6  C6  UNL     1     -32.977  14.372  -4.367  1.00 20.00     0.017 C 
HETATM    7  C7  UNL     1     -36.110  16.128  -3.303  1.00 20.00     0.020 C 
HETATM    8  N8  UNL     1     -35.855  14.315  -6.065  1.00 20.00    -0.331 N 
HETATM    9  O9  UNL     1     -37.365  13.565  -4.450  1.00 20.00    -0.273 OA
HETATM   10  H20 UNL     1     -36.331  13.977  -6.895  1.00 20.00     0.168 HD
ENDROOT
TORSDOF 0
ENDMDL
MODEL 3
REMARK VINA RESULT:      -4.2     10.025     11.281
REMARK  0 active torsions:
REMARK  status: ('A' for Active; 'I' for Inactive)
ROOT
HETATM    1  C1  UNL     1     -41.680   8.124   0.143  1.00 20.00     0.007 C 
HETATM    2  C2  UNL     1     -42.188   5.958   0.728  1.00 20.00     0.226 C 
HETATM    3  C3  UNL     1     -41.253   9.377   0.324  1.00 20.00     0.038 C 
HETATM    4  C4  UNL     1     -42.083   7.483  -1.157  1.00 20.00     0.043 C 
HETATM    5  C5  UNL     1     -42.206   5.983  -0.791  1.00 20.00     0.083 C 
HETATM    6  C6  UNL     1     -43.415   8.037  -1.665  1.00 20.00     0.017 C 
HETATM    7  C7  UNL     1     -41.035   5.165  -1.323  1.00 20.00     0.020 C 
HETATM    8  N8  UNL     1     -41.819   7.220   1.155  1.00 20.00    -0.331 N 
HETATM    9  O9  UNL     1     -42.408   4.977   1.423  1.00 20.00    -0.273 OA
HETATM   10  H20 UNL     1     -41.663   7.460   2.129  1.00 20.00     0.168 HD
ENDROOT
TORSDOF 0
ENDMDL
MODEL 4
REMARK VINA RESULT:      -4.1      2.305      2.978
REMARK  0 active torsions:
REMARK  status: ('A' for Active; 'I' for Inactive)
ROOT
HETATM    1  C1  UNL     1     -34.202  16.854  -3.971  1.00 20.00     0.007 C 
HETATM    2  C2  UNL     1     -33.599  14.646  -4.207  1.00 20.00     0.226 C 
HETATM    3  C3  UNL     1     -34.153  18.171  -4.191  1.00 20.00     0.038 C 
HETATM    4  C4  UNL     1     -35.207  16.113  -3.133  1.00 20.00     0.043 C 
HETATM    5  C5  UNL     1     -34.931  14.628  -3.476  1.00 20.00     0.083 C 
HETATM    6  C6  UNL     1     -35.001  16.381  -1.641  1.00 20.00     0.017 C 
HETATM    7  C7  UNL     1     -36.000  14.043  -4.392  1.00 20.00     0.020 C 
HETATM    8  N8  UNL     1     -33.306  15.968  -4.492  1.00 20.00    -0.331 N 
HETATM    9  O9  UNL     1     -32.951  13.660  -4.525  1.00 20.00    -0.273 OA
HETATM   10  H20 UNL     1     -32.501  16.259  -5.037  1.00 20.00     0.168 HD
ENDROOT
TORSDOF 0
ENDMDL
MODEL 5
REMARK VINA RESULT:      -4.1     19.078     19.891
REMARK  0 active torsions:
REMARK  status: ('A' for Active; 'I' for Inactive)
ROOT
HETATM    1  C1  UNL     1     -22.864  17.683  11.949  1.00 20.00     0.007 C 
HETATM    2  C2  UNL     1     -25.089  18.266  11.980  1.00 20.00     0.226 C 
HETATM    3  C3  UNL     1     -21.566  17.772  12.256  1.00 20.00     0.038 C 
HETATM    4  C4  UNL     1     -23.533  16.598  11.151  1.00 20.00     0.043 C 
HETATM    5  C5  UNL     1     -25.042  16.877  11.365  1.00 20.00     0.083 C 
HETATM    6  C6  UNL     1     -23.162  16.682   9.670  1.00 20.00     0.017 C 
HETATM    7  C7  UNL     1     -25.679  15.880  12.326  1.00 20.00     0.020 C 
HETATM    8  N8  UNL     1     -23.794  18.605  12.329  1.00 20.00    -0.331 N 
HETATM    9  O9  UNL     1     -26.101  18.922  12.171  1.00 20.00    -0.273 OA
HETATM   10  H20 UNL     1     -23.551  19.457  12.823  1.00 20.00     0.168 HD
ENDROOT
TORSDOF 0
ENDMDL
MODEL 6
REMARK VINA RESULT:      -4.1      1.726      1.965
REMARK  0 active torsions:
REMARK  status: ('A' for Active; 'I' for Inactive)
ROOT
HETATM    1  C1  UNL     1     -34.318  15.610  -3.723  1.00 20.00     0.007 C 
HETATM    2  C2  UNL     1     -35.561  13.810  -4.437  1.00 20.00     0.226 C 
HETATM    3  C3  UNL     1     -33.321  16.245  -3.099  1.00 20.00     0.038 C 
HETATM    4  C4  UNL     1     -35.372  16.224  -4.603  1.00 20.00     0.043 C 
HETATM    5  C5  UNL     1     -36.058  14.994  -5.249  1.00 20.00     0.083 C 
HETATM    6  C6  UNL     1     -36.371  17.048  -3.789  1.00 20.00     0.017 C 
HETATM    7  C7  UNL     1     -35.651  14.811  -6.707  1.00 20.00     0.020 C 
HETATM    8  N8  UNL     1     -34.527  14.265  -3.639  1.00 20.00    -0.331 N 
HETATM    9  O9  UNL     1     -35.975  12.665  -4.528  1.00 20.00    -0.273 OA
HETATM   10  H20 UNL     1     -33.970  13.661  -3.043  1.00 20.00     0.168 HD
ENDROOT
TORSDOF 0
ENDMDL
MODEL 7
REMARK VINA RESULT:      -4.0     10.334     11.356
REMARK  0 active torsions:
REMARK  status: ('A' for Active; 'I' for Inactive)
ROOT
HETATM    1  C1  UNL     1     -42.501   6.086   0.712  1.00 20.00     0.007 C 
HETATM    2  C2  UNL     1     -41.973   8.283   0.281  1.00 20.00     0.226 C 
HETATM    3  C3  UNL     1     -42.867   5.032   1.448  1.00 20.00     0.038 C 
HETATM    4  C4  UNL     1     -42.298   6.123  -0.777  1.00 20.00     0.043 C 
HETATM    5  C5  UNL     1     -42.163   7.637  -1.081  1.00 20.00     0.083 C 
HETATM    6  C6  UNL     1     -41.034   5.365  -1.189  1.00 20.00     0.017 C 
HETATM    7  C7  UNL     1     -43.417   8.203  -1.736  1.00 20.00     0.020 C 
HETATM    8  N8  UNL     1     -42.248   7.320   1.235  1.00 20.00    -0.331 N 
HETATM    9  O9  UNL     1     -41.685   9.454   0.476  1.00 20.00    -0.273 OA
HETATM   10  H20 UNL     1     -42.261   7.505   2.232  1.00 20.00     0.168 HD
ENDROOT
TORSDOF 0
ENDMDL
MODEL 8
REMARK VINA RESULT:      -4.0      1.751      2.956
REMARK  0 active torsions:
REMARK  status: ('A' for Active; 'I' for Inactive)
ROOT
HETATM    1  C1  UNL     1     -35.269  16.485  -1.847  1.00 20.00     0.007 C 
HETATM    2  C2  UNL     1     -36.133  15.945  -3.909  1.00 20.00     0.226 C 
HETATM    3  C3  UNL     1     -35.289  16.903  -0.578  1.00 20.00     0.038 C 
HETATM    4  C4  UNL     1     -34.090  15.932  -2.599  1.00 20.00     0.043 C 
HETATM    5  C5  UNL     1     -34.726  15.371  -3.896  1.00 20.00     0.083 C 
HETATM    6  C6  UNL     1     -33.066  17.024  -2.916  1.00 20.00     0.017 C 
HETATM    7  C7  UNL     1     -34.803  13.849  -3.884  1.00 20.00     0.020 C 
HETATM    8  N8  UNL     1     -36.359  16.508  -2.667  1.00 20.00    -0.331 N 
HETATM    9  O9  UNL     1     -36.923  15.863  -4.838  1.00 20.00    -0.273 OA
HETATM   10  H20 UNL     1     -37.249  16.905  -2.384  1.00 20.00     0.168 HD
ENDROOT
TORSDOF 0
ENDMDL
MODEL 9
REMARK VINA RESULT:      -3.9      3.327      4.174
REMARK  0 active torsions:
REMARK  status: ('A' for Active; 'I' for Inactive)
ROOT
HETATM    1  C1  UNL     1     -33.483  15.824  -3.792  1.00 20.00     0.007 C 
HETATM    2  C2  UNL     1     -33.287  18.116  -3.811  1.00 20.00     0.226 C 
HETATM    3  C3  UNL     1     -33.412  14.581  -4.278  1.00 20.00     0.038 C 
HETATM    4  C4  UNL     1     -33.829  16.228  -2.385  1.00 20.00     0.043 C 
HETATM    5  C5  UNL     1     -33.480  17.737  -2.352  1.00 20.00     0.083 C 
HETATM    6  C6  UNL     1     -35.311  16.000  -2.085  1.00 20.00     0.017 C 
HETATM    7  C7  UNL     1     -32.190  18.011  -1.586  1.00 20.00     0.020 C 
HETATM    8  N8  UNL     1     -33.246  16.941  -4.539  1.00 20.00    -0.331 N 
HETATM    9  O9  UNL     1     -33.141  19.253  -4.234  1.00 20.00    -0.273 OA
HETATM   10  H20 UNL     1     -33.059  16.904  -5.535  1.00 20.00     0.168 HD
ENDROOT
TORSDOF 0
ENDMDL
