MODEL 1
REMARK VINA RESULT:      -6.1      0.000      0.000
REMARK  0 active torsions:
REMARK  status: ('A' for Active; 'I' for Inactive)
ROOT
HETATM    1  C1  UNL     1     -33.131   7.278   4.497  1.00 20.00     0.047 A 
HETATM    2  C2  UNL     1     -33.939   6.806   5.463  1.00 20.00     0.052 A 
HETATM    3  C3  UNL     1     -32.956   6.538   3.267  1.00 20.00     0.153 A 
HETATM    4  C4  UNL     1     -33.585   5.371   3.058  1.00 20.00     0.167 A 
HETATM    5  C5  UNL     1     -34.482   4.752   4.049  1.00 20.00     0.262 A 
HETATM    6  C6  UNL     1     -34.673   5.532   5.352  1.00 20.00     0.258 A 
HETATM    7  O7  UNL     1     -35.745   5.325   4.422  1.00 20.00    -0.327 OA
HETATM    8  F8  UNL     1     -32.143   7.057   2.324  1.00 20.00    -0.203 F 
HETATM    9  F9  UNL     1     -33.386   4.731   1.883  1.00 20.00    -0.204 F 
HETATM   10  F10 UNL     1     -34.721   4.763   6.510  1.00 20.00    -0.203 F 
ENDROOT
TORSDOF 0
ENDMDL
MODEL 2
REMARK VINA RESULT:      -5.2      1.641      3.486
REMARK  0 active torsions:
REMARK  status: ('A' for Active; 'I' for Inactive)
ROOT
HETATM    1  C1  UNL     1     -34.885   5.273   4.900  1.00 20.00     0.047 A 
HETATM    2  C2  UNL     1     -34.589   4.752   3.696  1.00 20.00     0.052 A 
HETATM    3  C3  UNL     1     -34.140   6.402   5.409  1.00 20.00     0.153 A 
HETATM    4  C4  UNL     1     -33.141   6.957   4.704  1.00 20.00     0.167 A 
HETATM    5  C5  UNL     1     -32.722   6.463   3.380  1.00 20.00     0.262 A 
HETATM    6  C6  UNL     1     -33.508   5.269   2.836  1.00 20.00     0.258 A 
HETATM    7  O7  UNL     1     -33.552   6.560   2.214  1.00 20.00    -0.327 OA
HETATM    8  F8  UNL     1     -34.480   6.894   6.619  1.00 20.00    -0.203 F 
HETATM    9  F9  UNL     1     -32.488   8.016   5.231  1.00 20.00    -0.204 F 
HETATM   10  F10 UNL     1     -32.755   4.305   2.174  1.00 20.00    -0.203 F 
ENDROOT
TORSDOF 0
ENDMDL
MODEL 3
REMARK VINA RESULT:      -5.2      1.582      3.316
REMARK  0 active torsions:
REMARK  status: ('A' for Active; 'I' for Inactive)
ROOT
HETATM    1  C1  UNL     1     -33.239   7.149   5.176  1.00 20.00     0.047 A 
HETATM    2  C2  UNL     1     -32.587   7.339   4.016  1.00 20.00     0.052 A 
HETATM    3  C3  UNL     1     -34.266   6.136   5.277  1.00 20.00     0.153 A 
HETATM    4  C4  UNL     1     -34.595   5.366   4.228  1.00 20.00     0.167 A 
HETATM    5  C5  UNL     1     -33.957   5.494   2.906  1.00 20.00     0.262 A 
HETATM    6  C6  UNL     1     -32.869   6.564   2.793  1.00 20.00     0.258 A 
HETATM    7  O7  UNL     1     -32.580   5.165   2.670  1.00 20.00    -0.327 OA
HETATM    8  F8  UNL     1     -34.885   5.976   6.465  1.00 20.00    -0.203 F 
HETATM    9  F9  UNL     1     -35.558   4.430   4.389  1.00 20.00    -0.204 F 
HETATM   10  F10 UNL     1     -32.860   7.289   1.606  1.00 20.00    -0.203 F 
ENDROOT
TORSDOF 0
ENDMDL
MODEL 4
REMARK VINA RESULT:      -5.0      1.449      3.822
REMARK  0 active torsions:
REMARK  status: ('A' for Active; 'I' for Inactive)
ROOT
HETATM    1  C1  UNL     1     -34.736   4.523   4.367  1.00 20.00     0.047 A 
HETATM    2  C2  UNL     1     -34.059   4.792   3.237  1.00 20.00     0.052 A 
HETATM    3  C3  UNL     1     -34.707   5.453   5.474  1.00 20.00     0.153 A 
HETATM    4  C4  UNL     1     -34.011   6.599   5.406  1.00 20.00     0.167 A 
HETATM    5  C5  UNL     1     -33.223   6.992   4.225  1.00 20.00     0.262 A 
HETATM    6  C6  UNL     1     -33.251   6.011   3.050  1.00 20.00     0.258 A 
HETATM    7  O7  UNL     1     -33.823   7.324   2.963  1.00 20.00    -0.327 OA
HETATM    8  F8  UNL     1     -35.410   5.142   6.583  1.00 20.00    -0.203 F 
HETATM    9  F9  UNL     1     -34.030   7.431   6.471  1.00 20.00    -0.204 F 
HETATM   10  F10 UNL     1     -32.041   5.834   2.386  1.00 20.00    -0.203 F 
ENDROOT
TORSDOF 0
ENDMDL
MODEL 5
REMARK VINA RESULT:      -4.8     16.951     17.781
REMARK  0 active torsions:
REMARK  status: ('A' for Active; 'I' for Inactive)
ROOT
HETATM    1  C1  UNL     1     -24.657  18.384   9.710  1.00 20.00     0.047 A 
HETATM    2  C2  UNL     1     -23.935  18.378   8.577  1.00 20.00     0.052 A 
HETATM    3  C3  UNL     1     -24.022  18.118  10.981  1.00 20.00     0.153 A 
HETATM    4  C4  UNL     1     -22.707  17.858  11.066  1.00 20.00     0.167 A 
HETATM    5  C5  UNL     1     -21.820  17.813   9.890  1.00 20.00     0.262 A 
HETATM    6  C6  UNL     1     -22.487  18.095   8.542  1.00 20.00     0.258 A 
HETATM    7  O7  UNL     1     -21.505  18.974   9.107  1.00 20.00    -0.327 OA
HETATM    8  F8  UNL     1     -24.788  18.144  12.092  1.00 20.00    -0.203 F 
HETATM    9  F9  UNL     1     -22.171  17.626  12.285  1.00 20.00    -0.204 F 
HETATM   10  F10 UNL     1     -22.054  17.307   7.481  1.00 20.00    -0.203 F 
ENDROOT
TORSDOF 0
ENDMDL
MODEL 6
REMARK VINA RESULT:      -4.8      1.311      2.339
REMARK  0 active torsions:
REMARK  status: ('A' for Active; 'I' for Inactive)
ROOT
HETATM    1  C1  UNL     1     -34.247   4.211   3.990  1.00 20.00     0.047 A 
HETATM    2  C2  UNL     1     -34.577   4.495   5.262  1.00 20.00     0.052 A 
HETATM    3  C3  UNL     1     -33.718   5.242   3.126  1.00 20.00     0.153 A 
HETATM    4  C4  UNL     1     -33.544   6.500   3.564  1.00 20.00     0.167 A 
HETATM    5  C5  UNL     1     -33.882   6.928   4.932  1.00 20.00     0.262 A 
HETATM    6  C6  UNL     1     -34.441   5.840   5.851  1.00 20.00     0.258 A 
HETATM    7  O7  UNL     1     -33.173   6.465   6.091  1.00 20.00    -0.327 OA
HETATM    8  F8  UNL     1     -33.393   4.906   1.860  1.00 20.00    -0.203 F 
HETATM    9  F9  UNL     1     -33.037   7.417   2.709  1.00 20.00    -0.204 F 
HETATM   10  F10 UNL     1     -35.478   6.236   6.689  1.00 20.00    -0.203 F 
ENDROOT
TORSDOF 0
ENDMDL
MODEL 7
REMARK VINA RESULT:      -4.7      1.714      2.542
REMARK  0 active torsions:
REMARK  status: ('A' for Active; 'I' for Inactive)
ROOT
HETATM    1  C1  UNL     1     -33.055   5.832   2.708  1.00 20.00     0.047 A 
HETATM    2  C2  UNL     1     -34.119   5.048   2.953  1.00 20.00     0.052 A 
HETATM    3  C3  UNL     1     -32.635   6.817   3.679  1.00 20.00     0.153 A 
HETATM    4  C4  UNL     1     -33.289   6.976   4.841  1.00 20.00     0.167 A 
HETATM    5  C5  UNL     1     -34.475   6.183   5.211  1.00 20.00     0.262 A 
HETATM    6  C6  UNL     1     -34.923   5.139   4.186  1.00 20.00     0.258 A 
HETATM    7  O7  UNL     1     -34.417   4.774   5.478  1.00 20.00    -0.327 OA
HETATM    8  F8  UNL     1     -31.555   7.573   3.391  1.00 20.00    -0.203 F 
HETATM    9  F9  UNL     1     -32.842   7.909   5.712  1.00 20.00    -0.204 F 
HETATM   10  F10 UNL     1     -36.298   5.013   4.018  1.00 20.00    -0.203 F 
ENDROOT
TORSDOF 0
ENDMDL
MODEL 8
REMARK VINA RESULT:      -4.6     17.012     17.556
REMARK  0 active torsions:
REMARK  status: ('A' for Active; 'I' for Inactive)
ROOT
HETATM    1  C1  UNL     1     -23.769  18.465   9.483  1.00 20.00     0.047 A 
HETATM    2  C2  UNL     1     -24.985  18.585  10.045  1.00 20.00     0.052 A 
HETATM    3  C3  UNL     1     -22.627  18.097  10.289  1.00 20.00     0.153 A 
HETATM    4  C4  UNL     1     -22.744  17.869  11.606  1.00 20.00     0.167 A 
HETATM    5  C5  UNL     1     -24.022  17.983  12.331  1.00 20.00     0.262 A 
HETATM    6  C6  UNL     1     -25.235  18.371  11.483  1.00 20.00     0.258 A 
HETATM    7  O7  UNL     1     -25.123  17.088  12.114  1.00 20.00    -0.327 OA
HETATM    8  F8  UNL     1     -21.430  17.980   9.677  1.00 20.00    -0.203 F 
HETATM    9  F9  UNL     1     -21.639  17.520  12.303  1.00 20.00    -0.204 F 
HETATM   10  F10 UNL     1     -26.124  19.261  12.077  1.00 20.00    -0.203 F 
ENDROOT
TORSDOF 0
ENDMDL
MODEL 9
REMARK VINA RESULT:      -4.4     16.190     16.534
REMARK  0 active torsions:
REMARK  status: ('A' for Active; 'I' for Inactive)
ROOT
HETATM    1  C1  UNL     1     -24.046  16.173  11.226  1.00 20.00     0.047 A 
HETATM    2  C2  UNL     1     -25.038  16.409  12.102  1.00 20.00     0.052 A 
HETATM    3  C3  UNL     1     -23.757  17.127  10.178  1.00 20.00     0.153 A 
HETATM    4  C4  UNL     1     -24.464  18.261  10.050  1.00 20.00     0.167 A 
HETATM    5  C5  UNL     1     -25.580  18.617  10.943  1.00 20.00     0.262 A 
HETATM    6  C6  UNL     1     -25.890  17.612  12.054  1.00 20.00     0.258 A 
HETATM    7  O7  UNL     1     -25.397  18.930  12.332  1.00 20.00    -0.327 OA
HETATM    8  F8  UNL     1     -22.745  16.850   9.330  1.00 20.00    -0.203 F 
HETATM    9  F9  UNL     1     -24.139  19.116   9.054  1.00 20.00    -0.204 F 
HETATM   10  F10 UNL     1     -27.240  17.404  12.317  1.00 20.00    -0.203 F 
ENDROOT
TORSDOF 0
ENDMDL
