MODEL 1
REMARK VINA RESULT:      -4.5      0.000      0.000
REMARK  1 active torsions:
REMARK  status: ('A' for Active; 'I' for Inactive)
REMARK    1  A    between atoms: C1_1  and  C4_4 
ROOT
HETATM    1  C2  UNL     1     -36.794  17.319  -5.638  1.00 20.00     0.014 C 
HETATM    2  C3  UNL     1     -36.624  17.363  -4.116  1.00 20.00     0.012 C 
HETATM    3  C4  UNL     1     -35.438  16.589  -5.727  1.00 20.00     0.064 C 
HETATM    4  C5  UNL     1     -35.859  14.868  -3.642  1.00 20.00    -0.000 A 
HETATM    5  C6  UNL     1     -35.694  16.210  -4.301  1.00 20.00    -0.019 A 
HETATM    6  C7  UNL     1     -34.675  15.755  -3.275  1.00 20.00    -0.035 A 
HETATM    7  C9  UNL     1     -35.689  13.561  -4.333  1.00 20.00     0.011 C 
HETATM    8  C10 UNL     1     -33.283  15.406  -3.738  1.00 20.00     0.016 C 
HETATM    9  C11 UNL     1     -34.699  16.378  -1.899  1.00 20.00     0.016 C 
ENDROOT
BRANCH   3  10
HETATM   10  C1  UNL     1     -35.311  15.468  -6.754  1.00 20.00     0.128 C 
HETATM   11  C8  UNL     1     -33.919  15.115  -7.203  1.00 20.00     0.091 C 
HETATM   12  O12 UNL     1     -36.299  14.881  -7.193  1.00 20.00    -0.298 OA
ENDBRANCH   3  10
TORSDOF 1
ENDMDL
MODEL 2
REMARK VINA RESULT:      -4.4      1.617      3.181
REMARK  1 active torsions:
REMARK  status: ('A' for Active; 'I' for Inactive)
REMARK    1  A    between atoms: C1_1  and  C4_4 
ROOT
HETATM    1  C2  UNL     1     -33.336  14.226  -4.547  1.00 20.00     0.014 C 
HETATM    2  C3  UNL     1     -32.626  15.355  -3.794  1.00 20.00     0.012 C 
HETATM    3  C4  UNL     1     -34.599  14.516  -3.710  1.00 20.00     0.064 C 
HETATM    4  C5  UNL     1     -34.486  17.244  -3.889  1.00 20.00    -0.000 A 
HETATM    5  C6  UNL     1     -33.997  15.873  -3.509  1.00 20.00    -0.019 A 
HETATM    6  C7  UNL     1     -34.330  16.872  -2.419  1.00 20.00    -0.035 A 
HETATM    7  C9  UNL     1     -35.813  17.529  -4.501  1.00 20.00     0.011 C 
HETATM    8  C10 UNL     1     -35.543  16.630  -1.556  1.00 20.00     0.016 C 
HETATM    9  C11 UNL     1     -33.198  17.536  -1.671  1.00 20.00     0.016 C 
ENDROOT
BRANCH   3  10
HETATM   10  C1  UNL     1     -35.946  14.427  -4.420  1.00 20.00     0.128 C 
HETATM   11  C8  UNL     1     -35.919  14.389  -5.923  1.00 20.00     0.091 C 
HETATM   12  O12 UNL     1     -37.004  14.389  -3.793  1.00 20.00    -0.298 OA
ENDBRANCH   3  10
TORSDOF 1
ENDMDL
MODEL 3
REMARK VINA RESULT:      -4.4      1.544      2.834
REMARK  1 active torsions:
REMARK  status: ('A' for Active; 'I' for Inactive)
REMARK    1  A    between atoms: C1_1  and  C4_4 
ROOT
HETATM    1  C2  UNL     1     -35.542  16.917  -2.314  1.00 20.00     0.014 C 
HETATM    2  C3  UNL     1     -34.277  16.054  -2.358  1.00 20.00     0.012 C 
HETATM    3  C4  UNL     1     -35.648  16.765  -3.846  1.00 20.00     0.064 C 
HETATM    4  C5  UNL     1     -35.085  14.089  -3.945  1.00 20.00    -0.000 A 
HETATM    5  C6  UNL     1     -34.810  15.539  -3.653  1.00 20.00    -0.019 A 
HETATM    6  C7  UNL     1     -33.981  14.821  -4.700  1.00 20.00    -0.035 A 
HETATM    7  C9  UNL     1     -36.309  13.581  -4.623  1.00 20.00     0.011 C 
HETATM    8  C10 UNL     1     -34.159  15.192  -6.150  1.00 20.00     0.016 C 
HETATM    9  C11 UNL     1     -32.561  14.432  -4.361  1.00 20.00     0.016 C 
ENDROOT
BRANCH   3  10
HETATM   10  C1  UNL     1     -37.044  16.592  -4.437  1.00 20.00     0.128 C 
HETATM   11  C8  UNL     1     -37.209  16.932  -5.893  1.00 20.00     0.091 C 
HETATM   12  O12 UNL     1     -37.989  16.194  -3.757  1.00 20.00    -0.298 OA
ENDBRANCH   3  10
TORSDOF 1
ENDMDL
MODEL 4
REMARK VINA RESULT:      -4.2      1.652      3.249
REMARK  1 active torsions:
REMARK  status: ('A' for Active; 'I' for Inactive)
REMARK    1  A    between atoms: C1_1  and  C4_4 
ROOT
HETATM    1  C2  UNL     1     -34.271  16.328  -2.437  1.00 20.00     0.014 C 
HETATM    2  C3  UNL     1     -35.472  17.260  -2.627  1.00 20.00     0.012 C 
HETATM    3  C4  UNL     1     -35.136  15.171  -2.978  1.00 20.00     0.064 C 
HETATM    4  C5  UNL     1     -36.256  16.550  -5.059  1.00 20.00    -0.000 A 
HETATM    5  C6  UNL     1     -35.954  16.251  -3.616  1.00 20.00    -0.019 A 
HETATM    6  C7  UNL     1     -37.382  16.149  -4.113  1.00 20.00    -0.035 A 
HETATM    7  C9  UNL     1     -35.837  15.696  -6.204  1.00 20.00     0.011 C 
HETATM    8  C10 UNL     1     -38.021  14.787  -4.215  1.00 20.00     0.016 C 
HETATM    9  C11 UNL     1     -38.363  17.233  -3.734  1.00 20.00     0.016 C 
ENDROOT
BRANCH   3  10
HETATM   10  C1  UNL     1     -34.456  14.154  -3.889  1.00 20.00     0.128 C 
HETATM   11  C8  UNL     1     -33.092  14.516  -4.409  1.00 20.00     0.091 C 
HETATM   12  O12 UNL     1     -34.997  13.089  -4.184  1.00 20.00    -0.298 OA
ENDBRANCH   3  10
TORSDOF 1
ENDMDL
MODEL 5
REMARK VINA RESULT:      -4.2      1.492      3.202
REMARK  1 active torsions:
REMARK  status: ('A' for Active; 'I' for Inactive)
REMARK    1  A    between atoms: C1_1  and  C4_4 
ROOT
HETATM    1  C2  UNL     1     -33.653  14.167  -4.174  1.00 20.00     0.014 C 
HETATM    2  C3  UNL     1     -33.125  15.522  -3.694  1.00 20.00     0.012 C 
HETATM    3  C4  UNL     1     -35.080  14.654  -3.845  1.00 20.00     0.064 C 
HETATM    4  C5  UNL     1     -34.819  17.161  -4.909  1.00 20.00    -0.000 A 
HETATM    5  C6  UNL     1     -34.501  16.029  -3.970  1.00 20.00    -0.019 A 
HETATM    6  C7  UNL     1     -35.071  17.319  -3.413  1.00 20.00    -0.035 A 
HETATM    7  C9  UNL     1     -35.926  17.149  -5.904  1.00 20.00     0.011 C 
HETATM    8  C10 UNL     1     -36.476  17.317  -2.867  1.00 20.00     0.016 C 
HETATM    9  C11 UNL     1     -34.151  18.258  -2.669  1.00 20.00     0.016 C 
ENDROOT
BRANCH   3  10
HETATM   10  C1  UNL     1     -36.195  14.256  -4.807  1.00 20.00     0.128 C 
HETATM   11  C8  UNL     1     -37.605  14.379  -4.298  1.00 20.00     0.091 C 
HETATM   12  O12 UNL     1     -35.953  13.854  -5.945  1.00 20.00    -0.298 OA
ENDBRANCH   3  10
TORSDOF 1
ENDMDL
MODEL 6
REMARK VINA RESULT:      -4.1      1.505      3.527
REMARK  1 active torsions:
REMARK  status: ('A' for Active; 'I' for Inactive)
REMARK    1  A    between atoms: C1_1  and  C4_4 
ROOT
HETATM    1  C2  UNL     1     -34.609  15.093  -3.043  1.00 20.00     0.014 C 
HETATM    2  C3  UNL     1     -33.852  16.170  -3.826  1.00 20.00     0.012 C 
HETATM    3  C4  UNL     1     -35.902  15.543  -3.756  1.00 20.00     0.064 C 
HETATM    4  C5  UNL     1     -34.825  15.774  -6.261  1.00 20.00    -0.000 A 
HETATM    5  C6  UNL     1     -34.980  16.095  -4.799  1.00 20.00    -0.019 A 
HETATM    6  C7  UNL     1     -35.297  17.159  -5.832  1.00 20.00    -0.035 A 
HETATM    7  C9  UNL     1     -35.699  14.836  -7.017  1.00 20.00     0.011 C 
HETATM    8  C10 UNL     1     -36.732  17.576  -6.030  1.00 20.00     0.016 C 
HETATM    9  C11 UNL     1     -34.321  18.295  -6.029  1.00 20.00     0.016 C 
ENDROOT
BRANCH   3  10
HETATM   10  C1  UNL     1     -36.887  14.455  -4.173  1.00 20.00     0.128 C 
HETATM   11  C8  UNL     1     -38.327  14.865  -4.319  1.00 20.00     0.091 C 
HETATM   12  O12 UNL     1     -36.521  13.299  -4.382  1.00 20.00    -0.298 OA
ENDBRANCH   3  10
TORSDOF 1
ENDMDL
MODEL 7
REMARK VINA RESULT:      -4.0      1.282      1.686
REMARK  1 active torsions:
REMARK  status: ('A' for Active; 'I' for Inactive)
REMARK    1  A    between atoms: C1_1  and  C4_4 
ROOT
HETATM    1  C2  UNL     1     -36.989  15.258  -5.303  1.00 20.00     0.014 C 
HETATM    2  C3  UNL     1     -36.831  15.256  -3.779  1.00 20.00     0.012 C 
HETATM    3  C4  UNL     1     -35.785  16.219  -5.385  1.00 20.00     0.064 C 
HETATM    4  C5  UNL     1     -34.209  14.917  -3.565  1.00 20.00    -0.000 A 
HETATM    5  C6  UNL     1     -35.422  15.672  -4.039  1.00 20.00    -0.019 A 
HETATM    6  C7  UNL     1     -34.508  16.305  -3.007  1.00 20.00    -0.035 A 
HETATM    7  C9  UNL     1     -33.009  14.638  -4.400  1.00 20.00     0.011 C 
HETATM    8  C10 UNL     1     -33.668  17.490  -3.410  1.00 20.00     0.016 C 
HETATM    9  C11 UNL     1     -34.968  16.369  -1.571  1.00 20.00     0.016 C 
ENDROOT
BRANCH   3  10
HETATM   10  C1  UNL     1     -34.800  16.012  -6.532  1.00 20.00     0.128 C 
HETATM   11  C8  UNL     1     -34.077  17.232  -7.033  1.00 20.00     0.091 C 
HETATM   12  O12 UNL     1     -34.606  14.900  -7.023  1.00 20.00    -0.298 OA
ENDBRANCH   3  10
TORSDOF 1
ENDMDL
MODEL 8
REMARK VINA RESULT:      -4.0      1.676      3.282
REMARK  1 active torsions:
REMARK  status: ('A' for Active; 'I' for Inactive)
REMARK    1  A    between atoms: C1_1  and  C4_4 
ROOT
HETATM    1  C2  UNL     1     -36.060  13.651  -4.532  1.00 20.00     0.014 C 
HETATM    2  C3  UNL     1     -34.724  14.144  -3.968  1.00 20.00     0.012 C 
HETATM    3  C4  UNL     1     -36.738  14.874  -3.882  1.00 20.00     0.064 C 
HETATM    4  C5  UNL     1     -34.848  16.715  -4.607  1.00 20.00    -0.000 A 
HETATM    5  C6  UNL     1     -35.372  15.487  -3.914  1.00 20.00    -0.019 A 
HETATM    6  C7  UNL     1     -34.869  16.651  -3.083  1.00 20.00    -0.035 A 
HETATM    7  C9  UNL     1     -35.688  17.675  -5.374  1.00 20.00     0.011 C 
HETATM    8  C10 UNL     1     -35.863  17.466  -2.296  1.00 20.00     0.016 C 
HETATM    9  C11 UNL     1     -33.530  16.529  -2.395  1.00 20.00     0.016 C 
ENDROOT
BRANCH   3  10
HETATM   10  C1  UNL     1     -37.850  15.561  -4.670  1.00 20.00     0.128 C 
HETATM   11  C8  UNL     1     -38.850  16.356  -3.878  1.00 20.00     0.091 C 
HETATM   12  O12 UNL     1     -37.923  15.469  -5.895  1.00 20.00    -0.298 OA
ENDBRANCH   3  10
TORSDOF 1
ENDMDL
MODEL 9
REMARK VINA RESULT:      -3.9      2.176      4.171
REMARK  1 active torsions:
REMARK  status: ('A' for Active; 'I' for Inactive)
REMARK    1  A    between atoms: C1_1  and  C4_4 
ROOT
HETATM    1  C2  UNL     1     -33.869  14.450  -4.164  1.00 20.00     0.014 C 
HETATM    2  C3  UNL     1     -34.137  14.943  -5.589  1.00 20.00     0.012 C 
HETATM    3  C4  UNL     1     -33.578  15.909  -3.758  1.00 20.00     0.064 C 
HETATM    4  C5  UNL     1     -35.680  17.043  -5.093  1.00 20.00    -0.000 A 
HETATM    5  C6  UNL     1     -34.395  16.271  -4.959  1.00 20.00    -0.019 A 
HETATM    6  C7  UNL     1     -34.395  17.591  -5.705  1.00 20.00    -0.035 A 
HETATM    7  C9  UNL     1     -36.378  17.723  -3.968  1.00 20.00     0.011 C 
HETATM    8  C10 UNL     1     -33.697  18.776  -5.087  1.00 20.00     0.016 C 
HETATM    9  C11 UNL     1     -34.305  17.575  -7.212  1.00 20.00     0.016 C 
ENDROOT
BRANCH   3  10
HETATM   10  C1  UNL     1     -34.073  16.368  -2.390  1.00 20.00     0.128 C 
HETATM   11  C8  UNL     1     -33.324  17.501  -1.744  1.00 20.00     0.091 C 
HETATM   12  O12 UNL     1     -35.038  15.837  -1.841  1.00 20.00    -0.298 OA
ENDBRANCH   3  10
TORSDOF 1
ENDMDL
