MODEL 1
REMARK VINA RESULT:      -4.9      0.000      0.000
REMARK  1 active torsions:
REMARK  status: ('A' for Active; 'I' for Inactive)
REMARK    1  A    between atoms: C2_2  and  C5_5 
ROOT
HETATM    1  C1  UNL     1     -23.543  18.321   7.999  1.00 20.00     0.016 C 
HETATM    2  C2  UNL     1     -24.669  18.726   8.607  1.00 20.00    -0.019 C 
HETATM    3  C3  UNL     1     -22.395  17.841   8.749  1.00 20.00    -0.066 C 
HETATM    4  C4  UNL     1     -21.335  17.295   8.135  1.00 20.00     0.019 C 
HETATM    5  C6  UNL     1     -24.876  18.702  10.095  1.00 20.00     0.050 C 
HETATM    6  C7  UNL     1     -22.455  17.987  10.255  1.00 20.00     0.047 C 
HETATM    7  C8  UNL     1     -23.878  17.769  10.830  1.00 20.00    -0.040 C 
HETATM    8  C9  UNL     1     -24.304  16.293  10.673  1.00 20.00     0.015 C 
HETATM    9  C10 UNL     1     -23.879  18.108  12.331  1.00 20.00     0.015 C 
ENDROOT
BRANCH   2  10
HETATM   10  C5  UNL     1     -25.767  19.196   7.758  1.00 20.00     0.265 C 
HETATM   11  O11 UNL     1     -25.974  18.743   6.639  1.00 20.00    -0.302 OA
ENDBRANCH   2  10
TORSDOF 1
ENDMDL
MODEL 2
REMARK VINA RESULT:      -4.7     13.034     14.967
REMARK  1 active torsions:
REMARK  status: ('A' for Active; 'I' for Inactive)
REMARK    1  A    between atoms: C2_2  and  C5_5 
ROOT
HETATM    1  C1  UNL     1     -32.854  17.096  -2.290  1.00 20.00     0.016 C 
HETATM    2  C2  UNL     1     -32.787  17.959  -1.265  1.00 20.00    -0.019 C 
HETATM    3  C3  UNL     1     -34.034  16.283  -2.533  1.00 20.00    -0.066 C 
HETATM    4  C4  UNL     1     -34.156  15.539  -3.642  1.00 20.00     0.019 C 
HETATM    5  C6  UNL     1     -33.907  18.200  -0.293  1.00 20.00     0.050 C 
HETATM    6  C7  UNL     1     -35.117  16.320  -1.475  1.00 20.00     0.047 C 
HETATM    7  C8  UNL     1     -35.283  17.717  -0.824  1.00 20.00    -0.040 C 
HETATM    8  C9  UNL     1     -35.852  18.725  -1.845  1.00 20.00     0.015 C 
HETATM    9  C10 UNL     1     -36.273  17.617   0.351  1.00 20.00     0.015 C 
ENDROOT
BRANCH   2  10
HETATM   10  C5  UNL     1     -31.549  18.728  -1.106  1.00 20.00     0.265 C 
HETATM   11  O11 UNL     1     -30.562  18.276  -0.540  1.00 20.00    -0.302 OA
ENDBRANCH   2  10
TORSDOF 1
ENDMDL
MODEL 3
REMARK VINA RESULT:      -4.6     16.186     18.520
REMARK  1 active torsions:
REMARK  status: ('A' for Active; 'I' for Inactive)
REMARK    1  A    between atoms: C2_2  and  C5_5 
ROOT
HETATM    1  C1  UNL     1     -35.742  15.570  -3.272  1.00 20.00     0.016 C 
HETATM    2  C2  UNL     1     -36.428  15.116  -4.332  1.00 20.00    -0.019 C 
HETATM    3  C3  UNL     1     -34.316  15.842  -3.340  1.00 20.00    -0.066 C 
HETATM    4  C4  UNL     1     -33.668  16.438  -2.329  1.00 20.00     0.019 C 
HETATM    5  C6  UNL     1     -35.822  14.872  -5.685  1.00 20.00     0.050 C 
HETATM    6  C7  UNL     1     -33.601  15.421  -4.607  1.00 20.00     0.047 C 
HETATM    7  C8  UNL     1     -34.466  15.600  -5.881  1.00 20.00    -0.040 C 
HETATM    8  C9  UNL     1     -34.695  17.098  -6.172  1.00 20.00     0.015 C 
HETATM    9  C10 UNL     1     -33.730  14.987  -7.086  1.00 20.00     0.015 C 
ENDROOT
BRANCH   2  10
HETATM   10  C5  UNL     1     -37.862  14.869  -4.156  1.00 20.00     0.265 C 
HETATM   11  O11 UNL     1     -38.389  13.806  -4.460  1.00 20.00    -0.302 OA
ENDBRANCH   2  10
TORSDOF 1
ENDMDL
MODEL 4
REMARK VINA RESULT:      -4.6     15.527     17.741
REMARK  1 active torsions:
REMARK  status: ('A' for Active; 'I' for Inactive)
REMARK    1  A    between atoms: C2_2  and  C5_5 
ROOT
HETATM    1  C1  UNL     1     -35.599  15.766  -5.466  1.00 20.00     0.016 C 
HETATM    2  C2  UNL     1     -35.790  14.990  -4.389  1.00 20.00    -0.019 C 
HETATM    3  C3  UNL     1     -34.983  17.078  -5.367  1.00 20.00    -0.066 C 
HETATM    4  C4  UNL     1     -34.654  17.782  -6.460  1.00 20.00     0.019 C 
HETATM    5  C6  UNL     1     -35.373  15.367  -2.995  1.00 20.00     0.050 C 
HETATM    6  C7  UNL     1     -34.729  17.609  -3.972  1.00 20.00     0.047 C 
HETATM    7  C8  UNL     1     -34.317  16.504  -2.967  1.00 20.00    -0.040 C 
HETATM    8  C9  UNL     1     -32.919  15.950  -3.315  1.00 20.00     0.015 C 
HETATM    9  C10 UNL     1     -34.254  17.101  -1.550  1.00 20.00     0.015 C 
ENDROOT
BRANCH   2  10
HETATM   10  C5  UNL     1     -36.425  13.685  -4.597  1.00 20.00     0.265 C 
HETATM   11  O11 UNL     1     -35.803  12.632  -4.528  1.00 20.00    -0.302 OA
ENDBRANCH   2  10
TORSDOF 1
ENDMDL
MODEL 5
REMARK VINA RESULT:      -4.4     15.692     18.124
REMARK  1 active torsions:
REMARK  status: ('A' for Active; 'I' for Inactive)
REMARK    1  A    between atoms: C2_2  and  C5_5 
ROOT
HETATM    1  C1  UNL     1     -35.048  15.242  -3.232  1.00 20.00     0.016 C 
HETATM    2  C2  UNL     1     -35.510  14.890  -4.442  1.00 20.00    -0.019 C 
HETATM    3  C3  UNL     1     -34.274  16.455  -3.029  1.00 20.00    -0.066 C 
HETATM    4  C4  UNL     1     -33.948  16.880  -1.799  1.00 20.00     0.019 C 
HETATM    5  C6  UNL     1     -35.309  15.705  -5.689  1.00 20.00     0.050 C 
HETATM    6  C7  UNL     1     -33.855  17.213  -4.271  1.00 20.00     0.047 C 
HETATM    7  C8  UNL     1     -34.924  17.179  -5.392  1.00 20.00    -0.040 C 
HETATM    8  C9  UNL     1     -36.171  17.988  -4.975  1.00 20.00     0.015 C 
HETATM    9  C10 UNL     1     -34.346  17.818  -6.668  1.00 20.00     0.015 C 
ENDROOT
BRANCH   2  10
HETATM   10  C5  UNL     1     -36.277  13.645  -4.540  1.00 20.00     0.265 C 
HETATM   11  O11 UNL     1     -35.753  12.542  -4.461  1.00 20.00    -0.302 OA
ENDBRANCH   2  10
TORSDOF 1
ENDMDL
MODEL 6
REMARK VINA RESULT:      -4.3     16.018     17.559
REMARK  1 active torsions:
REMARK  status: ('A' for Active; 'I' for Inactive)
REMARK    1  A    between atoms: C2_2  and  C5_5 
ROOT
HETATM    1  C1  UNL     1     -35.395  14.769  -4.375  1.00 20.00     0.016 C 
HETATM    2  C2  UNL     1     -36.482  15.492  -4.065  1.00 20.00    -0.019 C 
HETATM    3  C3  UNL     1     -34.050  15.278  -4.167  1.00 20.00    -0.066 C 
HETATM    4  C4  UNL     1     -32.972  14.496  -4.333  1.00 20.00     0.019 C 
HETATM    5  C6  UNL     1     -36.433  16.864  -3.455  1.00 20.00     0.050 C 
HETATM    6  C7  UNL     1     -33.925  16.729  -3.754  1.00 20.00     0.047 C 
HETATM    7  C8  UNL     1     -35.062  17.189  -2.806  1.00 20.00    -0.040 C 
HETATM    8  C9  UNL     1     -34.937  16.494  -1.433  1.00 20.00     0.015 C 
HETATM    9  C10 UNL     1     -34.955  18.708  -2.582  1.00 20.00     0.015 C 
ENDROOT
BRANCH   2  10
HETATM   10  C5  UNL     1     -37.793  14.887  -4.319  1.00 20.00     0.265 C 
HETATM   11  O11 UNL     1     -37.954  13.677  -4.405  1.00 20.00    -0.302 OA
ENDBRANCH   2  10
TORSDOF 1
ENDMDL
MODEL 7
REMARK VINA RESULT:      -4.3     15.440     17.870
REMARK  1 active torsions:
REMARK  status: ('A' for Active; 'I' for Inactive)
REMARK    1  A    between atoms: C2_2  and  C5_5 
ROOT
HETATM    1  C1  UNL     1     -37.015  15.718  -3.916  1.00 20.00     0.016 C 
HETATM    2  C2  UNL     1     -35.971  14.888  -4.062  1.00 20.00    -0.019 C 
HETATM    3  C3  UNL     1     -36.897  16.983  -3.209  1.00 20.00    -0.066 C 
HETATM    4  C4  UNL     1     -37.898  17.876  -3.200  1.00 20.00     0.019 C 
HETATM    5  C6  UNL     1     -34.588  15.177  -3.550  1.00 20.00     0.050 C 
HETATM    6  C7  UNL     1     -35.591  17.242  -2.488  1.00 20.00     0.047 C 
HETATM    7  C8  UNL     1     -34.359  16.681  -3.242  1.00 20.00    -0.040 C 
HETATM    8  C9  UNL     1     -34.120  17.468  -4.549  1.00 20.00     0.015 C 
HETATM    9  C10 UNL     1     -33.108  16.832  -2.358  1.00 20.00     0.015 C 
ENDROOT
BRANCH   2  10
HETATM   10  C5  UNL     1     -36.197  13.635  -4.788  1.00 20.00     0.265 C 
HETATM   11  O11 UNL     1     -35.753  12.561  -4.403  1.00 20.00    -0.302 OA
ENDBRANCH   2  10
TORSDOF 1
ENDMDL
MODEL 8
REMARK VINA RESULT:      -4.3     13.691     15.825
REMARK  1 active torsions:
REMARK  status: ('A' for Active; 'I' for Inactive)
REMARK    1  A    between atoms: C2_2  and  C5_5 
ROOT
HETATM    1  C1  UNL     1     -35.485  16.231  -2.226  1.00 20.00     0.016 C 
HETATM    2  C2  UNL     1     -34.373  15.890  -2.896  1.00 20.00    -0.019 C 
HETATM    3  C3  UNL     1     -35.467  17.223  -1.164  1.00 20.00    -0.066 C 
HETATM    4  C4  UNL     1     -36.602  17.671  -0.606  1.00 20.00     0.019 C 
HETATM    5  C6  UNL     1     -33.023  16.501  -2.650  1.00 20.00     0.050 C 
HETATM    6  C7  UNL     1     -34.109  17.725  -0.722  1.00 20.00     0.047 C 
HETATM    7  C8  UNL     1     -33.098  17.852  -1.890  1.00 20.00    -0.040 C 
HETATM    8  C9  UNL     1     -33.519  18.986  -2.849  1.00 20.00     0.015 C 
HETATM    9  C10 UNL     1     -31.708  18.195  -1.326  1.00 20.00     0.015 C 
ENDROOT
BRANCH   2  10
HETATM   10  C5  UNL     1     -34.499  14.875  -3.946  1.00 20.00     0.265 C 
HETATM   11  O11 UNL     1     -33.570  14.147  -4.272  1.00 20.00    -0.302 OA
ENDBRANCH   2  10
TORSDOF 1
ENDMDL
MODEL 9
REMARK VINA RESULT:      -4.2     13.857     15.448
REMARK  1 active torsions:
REMARK  status: ('A' for Active; 'I' for Inactive)
REMARK    1  A    between atoms: C2_2  and  C5_5 
ROOT
HETATM    1  C1  UNL     1     -33.894  18.128  -0.481  1.00 20.00     0.016 C 
HETATM    2  C2  UNL     1     -34.957  17.308  -0.491  1.00 20.00    -0.019 C 
HETATM    3  C3  UNL     1     -32.841  18.032  -1.477  1.00 20.00    -0.066 C 
HETATM    4  C4  UNL     1     -31.864  18.948  -1.554  1.00 20.00     0.019 C 
HETATM    5  C6  UNL     1     -35.188  16.244  -1.526  1.00 20.00     0.050 C 
HETATM    6  C7  UNL     1     -32.902  16.851  -2.422  1.00 20.00     0.047 C 
HETATM    7  C8  UNL     1     -34.350  16.460  -2.814  1.00 20.00    -0.040 C 
HETATM    8  C9  UNL     1     -34.987  17.557  -3.694  1.00 20.00     0.015 C 
HETATM    9  C10 UNL     1     -34.323  15.153  -3.627  1.00 20.00     0.015 C 
ENDROOT
BRANCH   2  10
HETATM   10  C5  UNL     1     -35.961  17.486   0.562  1.00 20.00     0.265 C 
HETATM   11  O11 UNL     1     -37.111  17.831   0.323  1.00 20.00    -0.302 OA
ENDBRANCH   2  10
TORSDOF 1
ENDMDL
