MODEL 1
REMARK VINA RESULT:      -4.8      0.000      0.000
REMARK  1 active torsions:
REMARK  status: ('A' for Active; 'I' for Inactive)
REMARK    1  A    between atoms: C9_9  and  O10_10 
ROOT
HETATM    1  C1  UNL     1     -32.944  17.306  -2.206  1.00 20.00     0.012 C 
HETATM    2  C2  UNL     1     -33.892  16.655  -2.550  1.00 20.00    -0.112 C 
HETATM    3  C3  UNL     1     -34.413  15.035  -5.754  1.00 20.00     0.007 C 
HETATM    4  C4  UNL     1     -33.636  14.451  -4.565  1.00 20.00     0.009 C 
HETATM    5  C5  UNL     1     -35.778  16.442  -4.199  1.00 20.00     0.024 C 
HETATM    6  C6  UNL     1     -35.048  15.859  -2.970  1.00 20.00     0.071 C 
HETATM    7  C7  UNL     1     -35.823  15.247  -5.173  1.00 20.00     0.016 C 
HETATM    8  C8  UNL     1     -34.694  14.428  -3.438  1.00 20.00     0.030 C 
HETATM    9  C9  UNL     1     -35.971  14.066  -4.208  1.00 20.00     0.127 C 
ENDROOT
BRANCH   9  10
HETATM   10  O10 UNL     1     -35.912  12.814  -4.856  1.00 20.00    -0.395 OA
HETATM   11  H22 UNL     1     -35.102  12.804  -5.395  1.00 20.00     0.210 HD
ENDBRANCH   9  10
TORSDOF 1
ENDMDL
MODEL 2
REMARK VINA RESULT:      -4.7     17.408     18.833
REMARK  1 active torsions:
REMARK  status: ('A' for Active; 'I' for Inactive)
REMARK    1  A    between atoms: C9_9  and  O10_10 
ROOT
HETATM    1  C1  UNL     1     -21.325  18.254   9.255  1.00 20.00     0.012 C 
HETATM    2  C2  UNL     1     -22.018  17.762  10.103  1.00 20.00    -0.112 C 
HETATM    3  C3  UNL     1     -25.341  18.803  11.119  1.00 20.00     0.007 C 
HETATM    4  C4  UNL     1     -25.008  17.868   9.947  1.00 20.00     0.009 C 
HETATM    5  C5  UNL     1     -23.225  18.139  12.276  1.00 20.00     0.024 C 
HETATM    6  C6  UNL     1     -22.863  17.161  11.138  1.00 20.00     0.071 C 
HETATM    7  C7  UNL     1     -24.764  18.052  12.332  1.00 20.00     0.016 C 
HETATM    8  C8  UNL     1     -24.253  16.707  10.633  1.00 20.00     0.030 C 
HETATM    9  C9  UNL     1     -25.003  16.584  11.965  1.00 20.00     0.127 C 
ENDROOT
BRANCH   9  10
HETATM   10  O10 UNL     1     -26.371  16.267  11.824  1.00 20.00    -0.395 OA
HETATM   11  H22 UNL     1     -26.803  16.459  12.675  1.00 20.00     0.210 HD
ENDBRANCH   9  10
TORSDOF 1
ENDMDL
MODEL 3
REMARK VINA RESULT:      -4.7     10.696     12.104
REMARK  1 active torsions:
REMARK  status: ('A' for Active; 'I' for Inactive)
REMARK    1  A    between atoms: C9_9  and  O10_10 
ROOT
HETATM    1  C1  UNL     1     -41.184   9.738   0.405  1.00 20.00     0.012 C 
HETATM    2  C2  UNL     1     -41.968   8.839   0.276  1.00 20.00    -0.112 C 
HETATM    3  C3  UNL     1     -41.338   5.537  -1.089  1.00 20.00     0.007 C 
HETATM    4  C4  UNL     1     -41.101   5.971   0.365  1.00 20.00     0.009 C 
HETATM    5  C5  UNL     1     -43.104   7.290  -1.347  1.00 20.00     0.024 C 
HETATM    6  C6  UNL     1     -42.926   7.741   0.119  1.00 20.00     0.071 C 
HETATM    7  C7  UNL     1     -42.848   5.771  -1.276  1.00 20.00     0.016 C 
HETATM    8  C8  UNL     1     -42.505   6.429   0.823  1.00 20.00     0.030 C 
HETATM    9  C9  UNL     1     -43.417   5.426   0.105  1.00 20.00     0.127 C 
ENDROOT
BRANCH   9  10
HETATM   10  O10 UNL     1     -43.191   4.083   0.474  1.00 20.00    -0.395 OA
HETATM   11  H22 UNL     1     -43.932   3.811   1.045  1.00 20.00     0.210 HD
ENDBRANCH   9  10
TORSDOF 1
ENDMDL
MODEL 4
REMARK VINA RESULT:      -4.6      1.627      2.067
REMARK  1 active torsions:
REMARK  status: ('A' for Active; 'I' for Inactive)
REMARK    1  A    between atoms: C9_9  and  O10_10 
ROOT
HETATM    1  C1  UNL     1     -35.210  17.001  -1.228  1.00 20.00     0.012 C 
HETATM    2  C2  UNL     1     -34.953  16.157  -2.041  1.00 20.00    -0.112 C 
HETATM    3  C3  UNL     1     -35.343  16.367  -5.642  1.00 20.00     0.007 C 
HETATM    4  C4  UNL     1     -34.133  16.862  -4.836  1.00 20.00     0.009 C 
HETATM    5  C5  UNL     1     -35.864  14.685  -3.865  1.00 20.00     0.024 C 
HETATM    6  C6  UNL     1     -34.640  15.126  -3.034  1.00 20.00     0.071 C 
HETATM    7  C7  UNL     1     -35.378  14.862  -5.318  1.00 20.00     0.016 C 
HETATM    8  C8  UNL     1     -33.642  15.581  -4.124  1.00 20.00     0.030 C 
HETATM    9  C9  UNL     1     -33.892  14.509  -5.192  1.00 20.00     0.127 C 
ENDROOT
BRANCH   9  10
HETATM   10  O10 UNL     1     -33.174  14.715  -6.389  1.00 20.00    -0.395 OA
HETATM   11  H22 UNL     1     -32.327  15.134  -6.151  1.00 20.00     0.210 HD
ENDBRANCH   9  10
TORSDOF 1
ENDMDL
MODEL 5
REMARK VINA RESULT:      -4.5      1.346      2.258
REMARK  1 active torsions:
REMARK  status: ('A' for Active; 'I' for Inactive)
REMARK    1  A    between atoms: C9_9  and  O10_10 
ROOT
HETATM    1  C1  UNL     1     -35.213  16.867  -1.104  1.00 20.00     0.012 C 
HETATM    2  C2  UNL     1     -34.784  16.699  -2.212  1.00 20.00    -0.112 C 
HETATM    3  C3  UNL     1     -34.408  13.554  -3.981  1.00 20.00     0.007 C 
HETATM    4  C4  UNL     1     -35.685  14.404  -3.915  1.00 20.00     0.009 C 
HETATM    5  C5  UNL     1     -33.007  15.593  -3.605  1.00 20.00     0.024 C 
HETATM    6  C6  UNL     1     -34.260  16.494  -3.565  1.00 20.00     0.071 C 
HETATM    7  C7  UNL     1     -33.392  14.510  -4.633  1.00 20.00     0.016 C 
HETATM    8  C8  UNL     1     -35.233  15.756  -4.514  1.00 20.00     0.030 C 
HETATM    9  C9  UNL     1     -34.260  15.308  -5.612  1.00 20.00     0.127 C 
ENDROOT
BRANCH   9  10
HETATM   10  O10 UNL     1     -34.853  14.501  -6.607  1.00 20.00    -0.395 OA
HETATM   11  H22 UNL     1     -35.777  14.346  -6.342  1.00 20.00     0.210 HD
ENDBRANCH   9  10
TORSDOF 1
ENDMDL
MODEL 6
REMARK VINA RESULT:      -4.3     11.022     12.744
REMARK  1 active torsions:
REMARK  status: ('A' for Active; 'I' for Inactive)
REMARK    1  A    between atoms: C9_9  and  O10_10 
ROOT
HETATM    1  C1  UNL     1     -42.279   3.833  -2.429  1.00 20.00     0.012 C 
HETATM    2  C2  UNL     1     -42.791   4.652  -1.717  1.00 20.00    -0.112 C 
HETATM    3  C3  UNL     1     -41.133   7.075   0.413  1.00 20.00     0.007 C 
HETATM    4  C4  UNL     1     -41.438   7.249  -1.081  1.00 20.00     0.009 C 
HETATM    5  C5  UNL     1     -43.050   5.484   0.641  1.00 20.00     0.024 C 
HETATM    6  C6  UNL     1     -43.417   5.652  -0.849  1.00 20.00     0.071 C 
HETATM    7  C7  UNL     1     -42.531   6.883   1.030  1.00 20.00     0.016 C 
HETATM    8  C8  UNL     1     -42.976   7.106  -1.140  1.00 20.00     0.030 C 
HETATM    9  C9  UNL     1     -43.409   7.791   0.163  1.00 20.00     0.127 C 
ENDROOT
BRANCH   9  10
HETATM   10  O10 UNL     1     -43.043   9.151   0.242  1.00 20.00    -0.395 OA
HETATM   11  H22 UNL     1     -42.981   9.489  -0.669  1.00 20.00     0.210 HD
ENDBRANCH   9  10
TORSDOF 1
ENDMDL
MODEL 7
REMARK VINA RESULT:      -4.2      1.807      3.538
REMARK  1 active torsions:
REMARK  status: ('A' for Active; 'I' for Inactive)
REMARK    1  A    between atoms: C9_9  and  O10_10 
ROOT
HETATM    1  C1  UNL     1     -33.994  15.307  -7.520  1.00 20.00     0.012 C 
HETATM    2  C2  UNL     1     -34.144  15.076  -6.352  1.00 20.00    -0.112 C 
HETATM    3  C3  UNL     1     -33.722  17.372  -3.575  1.00 20.00     0.007 C 
HETATM    4  C4  UNL     1     -34.991  17.209  -4.424  1.00 20.00     0.009 C 
HETATM    5  C5  UNL     1     -33.049  15.018  -4.089  1.00 20.00     0.024 C 
HETATM    6  C6  UNL     1     -34.328  14.794  -4.926  1.00 20.00     0.071 C 
HETATM    7  C7  UNL     1     -33.529  15.969  -2.973  1.00 20.00     0.016 C 
HETATM    8  C8  UNL     1     -35.352  15.719  -4.225  1.00 20.00     0.030 C 
HETATM    9  C9  UNL     1     -34.968  15.492  -2.758  1.00 20.00     0.127 C 
ENDROOT
BRANCH   9  10
HETATM   10  O10 UNL     1     -35.686  16.298  -1.849  1.00 20.00    -0.395 OA
HETATM   11  H22 UNL     1     -36.357  16.785  -2.360  1.00 20.00     0.210 HD
ENDBRANCH   9  10
TORSDOF 1
ENDMDL
MODEL 8
REMARK VINA RESULT:      -4.1      1.747      3.291
REMARK  1 active torsions:
REMARK  status: ('A' for Active; 'I' for Inactive)
REMARK    1  A    between atoms: C9_9  and  O10_10 
ROOT
HETATM    1  C1  UNL     1     -38.750  15.048  -4.147  1.00 20.00     0.012 C 
HETATM    2  C2  UNL     1     -37.736  15.316  -4.732  1.00 20.00    -0.112 C 
HETATM    3  C3  UNL     1     -34.343  15.149  -3.460  1.00 20.00     0.007 C 
HETATM    4  C4  UNL     1     -35.137  13.982  -4.064  1.00 20.00     0.009 C 
HETATM    5  C5  UNL     1     -35.695  16.783  -4.786  1.00 20.00     0.024 C 
HETATM    6  C6  UNL     1     -36.499  15.641  -5.446  1.00 20.00     0.071 C 
HETATM    7  C7  UNL     1     -34.293  16.165  -4.616  1.00 20.00     0.016 C 
HETATM    8  C8  UNL     1     -35.470  14.487  -5.486  1.00 20.00     0.030 C 
HETATM    9  C9  UNL     1     -34.199  15.264  -5.852  1.00 20.00     0.127 C 
ENDROOT
BRANCH   9  10
HETATM   10  O10 UNL     1     -33.031  14.473  -5.870  1.00 20.00    -0.395 OA
HETATM   11  H22 UNL     1     -32.939  14.113  -6.770  1.00 20.00     0.210 HD
ENDBRANCH   9  10
TORSDOF 1
ENDMDL
MODEL 9
REMARK VINA RESULT:      -4.1     10.292     11.755
REMARK  1 active torsions:
REMARK  status: ('A' for Active; 'I' for Inactive)
REMARK    1  A    between atoms: C9_9  and  O10_10 
ROOT
HETATM    1  C1  UNL     1     -41.168   9.889   0.580  1.00 20.00     0.012 C 
HETATM    2  C2  UNL     1     -41.246   8.692   0.611  1.00 20.00    -0.112 C 
HETATM    3  C3  UNL     1     -43.416   6.567  -1.374  1.00 20.00     0.007 C 
HETATM    4  C4  UNL     1     -42.043   7.105  -1.803  1.00 20.00     0.009 C 
HETATM    5  C5  UNL     1     -42.745   6.718   1.032  1.00 20.00     0.024 C 
HETATM    6  C6  UNL     1     -41.340   7.230   0.648  1.00 20.00     0.071 C 
HETATM    7  C7  UNL     1     -43.084   5.744  -0.116  1.00 20.00     0.016 C 
HETATM    8  C8  UNL     1     -41.096   6.546  -0.718  1.00 20.00     0.030 C 
HETATM    9  C9  UNL     1     -41.705   5.164  -0.446  1.00 20.00     0.127 C 
ENDROOT
BRANCH   9  10
HETATM   10  O10 UNL     1     -41.720   4.315  -1.573  1.00 20.00    -0.395 OA
HETATM   11  H22 UNL     1     -42.326   4.709  -2.226  1.00 20.00     0.210 HD
ENDBRANCH   9  10
TORSDOF 1
ENDMDL
