MODEL 1
REMARK VINA RESULT:      -5.0      0.000      0.000
REMARK  3 active torsions:
REMARK  status: ('A' for Active; 'I' for Inactive)
REMARK    1  A    between atoms: C8_8  and  C9_9 
REMARK    2  A    between atoms: C9_9  and  C10_10 
REMARK    3  A    between atoms: C10_10  and  O11_11 
ROOT
HETATM    1  C1  UNL     1     -35.327  17.355  -0.280  1.00 20.00     0.017 C 
HETATM    2  C2  UNL     1     -35.009  16.736  -1.258  1.00 20.00    -0.083 C 
HETATM    3  C3  UNL     1     -35.481  15.085  -2.918  1.00 20.00    -0.010 C 
HETATM    4  C4  UNL     1     -34.633  16.002  -2.421  1.00 20.00    -0.009 C 
HETATM    5  C5  UNL     1     -35.195  14.260  -4.141  1.00 20.00     0.033 C 
HETATM    6  C6  UNL     1     -33.288  16.268  -3.047  1.00 20.00     0.048 C 
HETATM    7  C7  UNL     1     -32.863  15.203  -4.064  1.00 20.00     0.010 C 
HETATM    8  C8  UNL     1     -34.014  14.772  -4.983  1.00 20.00    -0.009 C 
ENDROOT
BRANCH   8   9
HETATM    9  C9  UNL     1     -34.443  15.904  -5.923  1.00 20.00     0.031 C 
BRANCH   9  10
HETATM   10  C10 UNL     1     -34.170  15.556  -7.374  1.00 20.00     0.164 C 
BRANCH  10  11
HETATM   11  O11 UNL     1     -33.309  14.426  -7.414  1.00 20.00    -0.401 OA
HETATM   12  H25 UNL     1     -33.825  13.668  -7.091  1.00 20.00     0.209 HD
ENDBRANCH  10  11
ENDBRANCH   9  10
ENDBRANCH   8   9
TORSDOF 3
ENDMDL
MODEL 2
REMARK VINA RESULT:      -4.9      1.291      1.337
REMARK  3 active torsions:
REMARK  status: ('A' for Active; 'I' for Inactive)
REMARK    1  A    between atoms: C8_8  and  C9_9 
REMARK    2  A    between atoms: C9_9  and  C10_10 
REMARK    3  A    between atoms: C10_10  and  O11_11 
ROOT
HETATM    1  C1  UNL     1     -33.397  18.250  -0.611  1.00 20.00     0.017 C 
HETATM    2  C2  UNL     1     -33.656  17.419  -1.438  1.00 20.00    -0.083 C 
HETATM    3  C3  UNL     1     -35.177  15.852  -2.403  1.00 20.00    -0.010 C 
HETATM    4  C4  UNL     1     -33.965  16.432  -2.419  1.00 20.00    -0.009 C 
HETATM    5  C5  UNL     1     -35.616  14.809  -3.392  1.00 20.00     0.033 C 
HETATM    6  C6  UNL     1     -32.914  16.060  -3.434  1.00 20.00     0.048 C 
HETATM    7  C7  UNL     1     -33.234  14.775  -4.205  1.00 20.00     0.010 C 
HETATM    8  C8  UNL     1     -34.707  14.692  -4.628  1.00 20.00    -0.009 C 
ENDROOT
BRANCH   8   9
HETATM    9  C9  UNL     1     -35.055  15.748  -5.683  1.00 20.00     0.031 C 
BRANCH   9  10
HETATM   10  C10 UNL     1     -35.181  15.133  -7.064  1.00 20.00     0.164 C 
BRANCH  10  11
HETATM   11  O11 UNL     1     -35.868  13.895  -6.947  1.00 20.00    -0.401 OA
HETATM   12  H25 UNL     1     -35.219  13.243  -6.632  1.00 20.00     0.209 HD
ENDBRANCH  10  11
ENDBRANCH   9  10
ENDBRANCH   8   9
TORSDOF 3
ENDMDL
MODEL 3
REMARK VINA RESULT:      -4.9     17.393     18.647
REMARK  3 active torsions:
REMARK  status: ('A' for Active; 'I' for Inactive)
REMARK    1  A    between atoms: C8_8  and  C9_9 
REMARK    2  A    between atoms: C9_9  and  C10_10 
REMARK    3  A    between atoms: C10_10  and  O11_11 
ROOT
HETATM    1  C1  UNL     1     -21.561  17.318   7.570  1.00 20.00     0.017 C 
HETATM    2  C2  UNL     1     -22.131  17.284   8.626  1.00 20.00    -0.083 C 
HETATM    3  C3  UNL     1     -22.261  17.874  10.937  1.00 20.00    -0.010 C 
HETATM    4  C4  UNL     1     -22.807  17.247   9.880  1.00 20.00    -0.009 C 
HETATM    5  C5  UNL     1     -22.889  17.909  12.302  1.00 20.00     0.033 C 
HETATM    6  C6  UNL     1     -24.107  16.490   9.985  1.00 20.00     0.048 C 
HETATM    7  C7  UNL     1     -24.556  16.238  11.429  1.00 20.00     0.010 C 
HETATM    8  C8  UNL     1     -24.361  17.466  12.329  1.00 20.00    -0.009 C 
ENDROOT
BRANCH   8   9
HETATM    9  C9  UNL     1     -25.300  18.611  11.938  1.00 20.00     0.031 C 
BRANCH   9  10
HETATM   10  C10 UNL     1     -26.754  18.240  12.161  1.00 20.00     0.164 C 
BRANCH  10  11
HETATM   11  O11 UNL     1     -27.487  18.550  10.984  1.00 20.00    -0.401 OA
HETATM   12  H25 UNL     1     -28.427  18.547  11.229  1.00 20.00     0.209 HD
ENDBRANCH  10  11
ENDBRANCH   9  10
ENDBRANCH   8   9
TORSDOF 3
ENDMDL
MODEL 4
REMARK VINA RESULT:      -4.6      1.983      2.757
REMARK  3 active torsions:
REMARK  status: ('A' for Active; 'I' for Inactive)
REMARK    1  A    between atoms: C8_8  and  C9_9 
REMARK    2  A    between atoms: C9_9  and  C10_10 
REMARK    3  A    between atoms: C10_10  and  O11_11 
ROOT
HETATM    1  C1  UNL     1     -35.357  17.653   0.972  1.00 20.00     0.017 C 
HETATM    2  C2  UNL     1     -35.154  17.331  -0.166  1.00 20.00    -0.083 C 
HETATM    3  C3  UNL     1     -33.644  16.813  -1.942  1.00 20.00    -0.010 C 
HETATM    4  C4  UNL     1     -34.913  16.948  -1.518  1.00 20.00    -0.009 C 
HETATM    5  C5  UNL     1     -33.271  16.405  -3.340  1.00 20.00     0.033 C 
HETATM    6  C6  UNL     1     -36.089  16.721  -2.432  1.00 20.00     0.048 C 
HETATM    7  C7  UNL     1     -35.709  16.648  -3.915  1.00 20.00     0.010 C 
HETATM    8  C8  UNL     1     -34.437  15.825  -4.159  1.00 20.00    -0.009 C 
ENDROOT
BRANCH   8   9
HETATM    9  C9  UNL     1     -34.655  14.340  -3.851  1.00 20.00     0.031 C 
BRANCH   9  10
HETATM   10  C10 UNL     1     -35.875  13.796  -4.571  1.00 20.00     0.164 C 
BRANCH  10  11
HETATM   11  O11 UNL     1     -35.992  12.410  -4.279  1.00 20.00    -0.401 OA
HETATM   12  H25 UNL     1     -36.900  12.266  -3.966  1.00 20.00     0.209 HD
ENDBRANCH  10  11
ENDBRANCH   9  10
ENDBRANCH   8   9
TORSDOF 3
ENDMDL
MODEL 5
REMARK VINA RESULT:      -4.6      2.139      3.155
REMARK  3 active torsions:
REMARK  status: ('A' for Active; 'I' for Inactive)
REMARK    1  A    between atoms: C8_8  and  C9_9 
REMARK    2  A    between atoms: C9_9  and  C10_10 
REMARK    3  A    between atoms: C10_10  and  O11_11 
ROOT
HETATM    1  C1  UNL     1     -31.568  18.219  -0.770  1.00 20.00     0.017 C 
HETATM    2  C2  UNL     1     -32.472  17.827  -1.457  1.00 20.00    -0.083 C 
HETATM    3  C3  UNL     1     -33.442  17.467  -3.609  1.00 20.00    -0.010 C 
HETATM    4  C4  UNL     1     -33.543  17.360  -2.272  1.00 20.00    -0.009 C 
HETATM    5  C5  UNL     1     -34.503  17.001  -4.566  1.00 20.00     0.033 C 
HETATM    6  C6  UNL     1     -34.764  16.776  -1.608  1.00 20.00     0.048 C 
HETATM    7  C7  UNL     1     -35.964  16.627  -2.550  1.00 20.00     0.010 C 
HETATM    8  C8  UNL     1     -35.566  16.088  -3.931  1.00 20.00    -0.009 C 
ENDROOT
BRANCH   8   9
HETATM    9  C9  UNL     1     -35.085  14.635  -3.855  1.00 20.00     0.031 C 
BRANCH   9  10
HETATM   10  C10 UNL     1     -36.049  13.692  -4.551  1.00 20.00     0.164 C 
BRANCH  10  11
HETATM   11  O11 UNL     1     -35.697  12.357  -4.217  1.00 20.00    -0.401 OA
HETATM   12  H25 UNL     1     -34.805  12.390  -3.833  1.00 20.00     0.209 HD
ENDBRANCH  10  11
ENDBRANCH   9  10
ENDBRANCH   8   9
TORSDOF 3
ENDMDL
MODEL 6
REMARK VINA RESULT:      -4.5      3.195      5.231
REMARK  3 active torsions:
REMARK  status: ('A' for Active; 'I' for Inactive)
REMARK    1  A    between atoms: C8_8  and  C9_9 
REMARK    2  A    between atoms: C9_9  and  C10_10 
REMARK    3  A    between atoms: C10_10  and  O11_11 
ROOT
HETATM    1  C1  UNL     1     -34.518  14.159  -3.842  1.00 20.00     0.017 C 
HETATM    2  C2  UNL     1     -34.433  15.178  -3.214  1.00 20.00    -0.083 C 
HETATM    3  C3  UNL     1     -35.151  16.580  -1.419  1.00 20.00    -0.010 C 
HETATM    4  C4  UNL     1     -34.332  16.389  -2.468  1.00 20.00    -0.009 C 
HETATM    5  C5  UNL     1     -35.128  17.810  -0.556  1.00 20.00     0.033 C 
HETATM    6  C6  UNL     1     -33.320  17.423  -2.890  1.00 20.00     0.048 C 
HETATM    7  C7  UNL     1     -33.534  18.793  -2.237  1.00 20.00     0.010 C 
HETATM    8  C8  UNL     1     -33.880  18.688  -0.745  1.00 20.00    -0.009 C 
ENDROOT
BRANCH   8   9
HETATM    9  C9  UNL     1     -32.696  18.166   0.076  1.00 20.00     0.031 C 
BRANCH   9  10
HETATM   10  C10 UNL     1     -31.488  19.075  -0.050  1.00 20.00     0.164 C 
BRANCH  10  11
HETATM   11  O11 UNL     1     -30.375  18.293  -0.462  1.00 20.00    -0.401 OA
HETATM   12  H25 UNL     1     -30.007  18.723  -1.251  1.00 20.00     0.209 HD
ENDBRANCH  10  11
ENDBRANCH   9  10
ENDBRANCH   8   9
TORSDOF 3
ENDMDL
MODEL 7
REMARK VINA RESULT:      -4.5     17.439     18.335
REMARK  3 active torsions:
REMARK  status: ('A' for Active; 'I' for Inactive)
REMARK    1  A    between atoms: C8_8  and  C9_9 
REMARK    2  A    between atoms: C9_9  and  C10_10 
REMARK    3  A    between atoms: C10_10  and  O11_11 
ROOT
HETATM    1  C1  UNL     1     -28.723  17.302  12.271  1.00 20.00     0.017 C 
HETATM    2  C2  UNL     1     -27.527  17.313  12.176  1.00 20.00    -0.083 C 
HETATM    3  C3  UNL     1     -25.452  16.159  11.913  1.00 20.00    -0.010 C 
HETATM    4  C4  UNL     1     -26.106  17.325  12.061  1.00 20.00    -0.009 C 
HETATM    5  C5  UNL     1     -23.960  16.051  11.774  1.00 20.00     0.033 C 
HETATM    6  C6  UNL     1     -25.381  18.645  12.126  1.00 20.00     0.048 C 
HETATM    7  C7  UNL     1     -23.868  18.504  12.330  1.00 20.00     0.010 C 
HETATM    8  C8  UNL     1     -23.258  17.387  11.474  1.00 20.00    -0.009 C 
ENDROOT
BRANCH   8   9
HETATM    9  C9  UNL     1     -23.310  17.725   9.980  1.00 20.00     0.031 C 
BRANCH   9  10
HETATM   10  C10 UNL     1     -21.941  17.611   9.336  1.00 20.00     0.164 C 
BRANCH  10  11
HETATM   11  O11 UNL     1     -21.728  16.257   8.963  1.00 20.00    -0.401 OA
HETATM   12  H25 UNL     1     -22.524  15.765   9.226  1.00 20.00     0.209 HD
ENDBRANCH  10  11
ENDBRANCH   9  10
ENDBRANCH   8   9
TORSDOF 3
ENDMDL
MODEL 8
REMARK VINA RESULT:      -4.5     11.708     13.404
REMARK  3 active torsions:
REMARK  status: ('A' for Active; 'I' for Inactive)
REMARK    1  A    between atoms: C8_8  and  C9_9 
REMARK    2  A    between atoms: C9_9  and  C10_10 
REMARK    3  A    between atoms: C10_10  and  O11_11 
ROOT
HETATM    1  C1  UNL     1     -42.449   3.144  -3.193  1.00 20.00     0.017 C 
HETATM    2  C2  UNL     1     -42.344   3.905  -2.270  1.00 20.00    -0.083 C 
HETATM    3  C3  UNL     1     -41.033   5.402  -0.950  1.00 20.00    -0.010 C 
HETATM    4  C4  UNL     1     -42.218   4.809  -1.175  1.00 20.00    -0.009 C 
HETATM    5  C5  UNL     1     -40.787   6.378   0.166  1.00 20.00     0.033 C 
HETATM    6  C6  UNL     1     -43.417   5.058  -0.295  1.00 20.00     0.048 C 
HETATM    7  C7  UNL     1     -43.075   5.767   1.020  1.00 20.00     0.010 C 
HETATM    8  C8  UNL     1     -42.069   6.911   0.830  1.00 20.00    -0.009 C 
ENDROOT
BRANCH   8   9
HETATM    9  C9  UNL     1     -42.674   8.071   0.033  1.00 20.00     0.031 C 
BRANCH   9  10
HETATM   10  C10 UNL     1     -41.598   8.993  -0.510  1.00 20.00     0.164 C 
BRANCH  10  11
HETATM   11  O11 UNL     1     -41.552  10.161   0.298  1.00 20.00    -0.401 OA
HETATM   12  H25 UNL     1     -42.396  10.203   0.777  1.00 20.00     0.209 HD
ENDBRANCH  10  11
ENDBRANCH   9  10
ENDBRANCH   8   9
TORSDOF 3
ENDMDL
MODEL 9
REMARK VINA RESULT:      -4.4     10.656     11.283
REMARK  3 active torsions:
REMARK  status: ('A' for Active; 'I' for Inactive)
REMARK    1  A    between atoms: C8_8  and  C9_9 
REMARK    2  A    between atoms: C9_9  and  C10_10 
REMARK    3  A    between atoms: C10_10  and  O11_11 
ROOT
HETATM    1  C1  UNL     1     -35.200   5.373   6.343  1.00 20.00     0.017 C 
HETATM    2  C2  UNL     1     -34.512   5.746   5.433  1.00 20.00    -0.083 C 
HETATM    3  C3  UNL     1     -33.748   5.529   3.181  1.00 20.00    -0.010 C 
HETATM    4  C4  UNL     1     -33.697   6.189   4.351  1.00 20.00    -0.009 C 
HETATM    5  C5  UNL     1     -32.942   5.912   1.971  1.00 20.00     0.033 C 
HETATM    6  C6  UNL     1     -32.791   7.376   4.559  1.00 20.00     0.048 C 
HETATM    7  C7  UNL     1     -31.737   7.544   3.460  1.00 20.00     0.010 C 
HETATM    8  C8  UNL     1     -32.307   7.310   2.054  1.00 20.00    -0.009 C 
ENDROOT
BRANCH   8   9
HETATM    9  C9  UNL     1     -33.304   8.404   1.658  1.00 20.00     0.031 C 
BRANCH   9  10
HETATM   10  C10 UNL     1     -32.907   9.074   0.356  1.00 20.00     0.164 C 
BRANCH  10  11
HETATM   11  O11 UNL     1     -33.669   8.500  -0.698  1.00 20.00    -0.401 OA
HETATM   12  H25 UNL     1     -33.885   7.593  -0.426  1.00 20.00     0.209 HD
ENDBRANCH  10  11
ENDBRANCH   9  10
ENDBRANCH   8   9
TORSDOF 3
ENDMDL
