MODEL 1
REMARK VINA RESULT:      -3.8      0.000      0.000
REMARK  5 active torsions:
REMARK  status: ('A' for Active; 'I' for Inactive)
REMARK    1  A    between atoms: C2_2  and  C7_7 
REMARK    2  A    between atoms: C7_7  and  N11_11 
REMARK    3  A    between atoms: C8_8  and  C9_9 
REMARK    4  A    between atoms: C8_8  and  C10_10 
REMARK    5  A    between atoms: C9_9  and  N11_11 
ROOT
HETATM    1  C1  UNL     1     -34.345  16.474  -2.023  1.00 20.00    -0.109 C 
HETATM    2  C2  UNL     1     -34.952  16.932  -1.094  1.00 20.00    -0.077 C 
HETATM    3  C3  UNL     1     -33.607  15.917  -3.156  1.00 20.00     0.112 C 
ENDROOT
BRANCH   2   4
HETATM    4  C7  UNL     1     -35.691  17.484   0.045  1.00 20.00     0.365 C 
BRANCH   4   5
HETATM    5  N11 UNL     1     -34.798  17.706   1.194  1.00 20.00     0.095 N 
HETATM    6  C6  UNL     1     -35.568  18.275   2.311  1.00 20.00     0.310 C 
BRANCH   5   7
HETATM    7  C9  UNL     1     -33.689  18.546   0.840  1.00 20.00     0.273 C 
BRANCH   7   8
HETATM    8  C8  UNL     1     -32.485  18.342   1.756  1.00 20.00     0.034 C 
BRANCH   8   9
HETATM    9  C10 UNL     1     -31.130  18.204   1.032  1.00 20.00    -0.021 C 
HETATM   10  C4  UNL     1     -30.153  19.258   1.561  1.00 20.00     0.009 C 
HETATM   11  C5  UNL     1     -31.264  18.340  -0.485  1.00 20.00     0.009 C 
ENDBRANCH   8   9
ENDBRANCH   7   8
ENDBRANCH   5   7
ENDBRANCH   4   5
ENDBRANCH   2   4
TORSDOF 5
ENDMDL
MODEL 2
REMARK VINA RESULT:      -3.7      2.249      5.532
REMARK  5 active torsions:
REMARK  status: ('A' for Active; 'I' for Inactive)
REMARK    1  A    between atoms: C2_2  and  C7_7 
REMARK    2  A    between atoms: C7_7  and  N11_11 
REMARK    3  A    between atoms: C8_8  and  C9_9 
REMARK    4  A    between atoms: C8_8  and  C10_10 
REMARK    5  A    between atoms: C9_9  and  N11_11 
ROOT
HETATM    1  C1  UNL     1     -31.385  18.438  -0.372  1.00 20.00    -0.109 C 
HETATM    2  C2  UNL     1     -31.924  18.549  -1.438  1.00 20.00    -0.077 C 
HETATM    3  C3  UNL     1     -30.727  18.305   0.928  1.00 20.00     0.112 C 
ENDROOT
BRANCH   2   4
HETATM    4  C7  UNL     1     -32.587  18.676  -2.740  1.00 20.00     0.365 C 
BRANCH   4   5
HETATM    5  N11 UNL     1     -33.818  17.870  -2.784  1.00 20.00     0.095 N 
HETATM    6  C6  UNL     1     -34.763  18.364  -1.770  1.00 20.00     0.310 C 
BRANCH   5   7
HETATM    7  C9  UNL     1     -33.537  16.474  -2.602  1.00 20.00     0.273 C 
BRANCH   7   8
HETATM    8  C8  UNL     1     -34.780  15.602  -2.759  1.00 20.00     0.034 C 
BRANCH   8   9
HETATM    9  C10 UNL     1     -34.611  14.386  -3.692  1.00 20.00    -0.021 C 
HETATM   10  C4  UNL     1     -33.516  14.675  -4.722  1.00 20.00     0.009 C 
HETATM   11  C5  UNL     1     -35.909  14.017  -4.409  1.00 20.00     0.009 C 
ENDBRANCH   8   9
ENDBRANCH   7   8
ENDBRANCH   5   7
ENDBRANCH   4   5
ENDBRANCH   2   4
TORSDOF 5
ENDMDL
MODEL 3
REMARK VINA RESULT:      -3.7      3.999      6.403
REMARK  5 active torsions:
REMARK  status: ('A' for Active; 'I' for Inactive)
REMARK    1  A    between atoms: C2_2  and  C7_7 
REMARK    2  A    between atoms: C7_7  and  N11_11 
REMARK    3  A    between atoms: C8_8  and  C9_9 
REMARK    4  A    between atoms: C8_8  and  C10_10 
REMARK    5  A    between atoms: C9_9  and  N11_11 
ROOT
HETATM    1  C1  UNL     1     -38.571  14.863  -4.179  1.00 20.00    -0.109 C 
HETATM    2  C2  UNL     1     -37.484  14.448  -4.474  1.00 20.00    -0.077 C 
HETATM    3  C3  UNL     1     -39.896  15.367  -3.819  1.00 20.00     0.112 C 
ENDROOT
BRANCH   2   4
HETATM    4  C7  UNL     1     -36.155  13.949  -4.839  1.00 20.00     0.365 C 
BRANCH   4   5
HETATM    5  N11 UNL     1     -35.374  14.990  -5.529  1.00 20.00     0.095 N 
HETATM    6  C6  UNL     1     -35.636  14.919  -6.975  1.00 20.00     0.310 C 
BRANCH   5   7
HETATM    7  C9  UNL     1     -33.973  14.869  -5.243  1.00 20.00     0.273 C 
BRANCH   7   8
HETATM    8  C8  UNL     1     -33.667  15.004  -3.753  1.00 20.00     0.034 C 
BRANCH   8   9
HETATM    9  C10 UNL     1     -34.123  16.329  -3.111  1.00 20.00    -0.021 C 
HETATM   10  C4  UNL     1     -32.904  17.100  -2.596  1.00 20.00     0.009 C 
HETATM   11  C5  UNL     1     -35.116  16.112  -1.969  1.00 20.00     0.009 C 
ENDBRANCH   8   9
ENDBRANCH   7   8
ENDBRANCH   5   7
ENDBRANCH   4   5
ENDBRANCH   2   4
TORSDOF 5
ENDMDL
MODEL 4
REMARK VINA RESULT:      -3.6      4.456      6.226
REMARK  5 active torsions:
REMARK  status: ('A' for Active; 'I' for Inactive)
REMARK    1  A    between atoms: C2_2  and  C7_7 
REMARK    2  A    between atoms: C7_7  and  N11_11 
REMARK    3  A    between atoms: C8_8  and  C9_9 
REMARK    4  A    between atoms: C8_8  and  C10_10 
REMARK    5  A    between atoms: C9_9  and  N11_11 
ROOT
HETATM    1  C1  UNL     1     -36.965  17.483  -4.827  1.00 20.00    -0.109 C 
HETATM    2  C2  UNL     1     -36.629  16.627  -5.599  1.00 20.00    -0.077 C 
HETATM    3  C3  UNL     1     -37.373  18.525  -3.886  1.00 20.00     0.112 C 
ENDROOT
BRANCH   2   4
HETATM    4  C7  UNL     1     -36.226  15.582  -6.545  1.00 20.00     0.365 C 
BRANCH   4   5
HETATM    5  N11 UNL     1     -35.487  14.509  -5.858  1.00 20.00     0.095 N 
HETATM    6  C6  UNL     1     -36.359  13.878  -4.856  1.00 20.00     0.310 C 
BRANCH   5   7
HETATM    7  C9  UNL     1     -34.277  15.004  -5.264  1.00 20.00     0.273 C 
BRANCH   7   8
HETATM    8  C8  UNL     1     -34.179  14.673  -3.777  1.00 20.00     0.034 C 
BRANCH   8   9
HETATM    9  C10 UNL     1     -33.832  15.866  -2.864  1.00 20.00    -0.021 C 
HETATM   10  C4  UNL     1     -35.020  16.177  -1.950  1.00 20.00     0.009 C 
HETATM   11  C5  UNL     1     -33.450  17.115  -3.658  1.00 20.00     0.009 C 
ENDBRANCH   8   9
ENDBRANCH   7   8
ENDBRANCH   5   7
ENDBRANCH   4   5
ENDBRANCH   2   4
TORSDOF 5
ENDMDL
MODEL 5
REMARK VINA RESULT:      -3.6     13.654     15.140
REMARK  5 active torsions:
REMARK  status: ('A' for Active; 'I' for Inactive)
REMARK    1  A    between atoms: C2_2  and  C7_7 
REMARK    2  A    between atoms: C7_7  and  N11_11 
REMARK    3  A    between atoms: C8_8  and  C9_9 
REMARK    4  A    between atoms: C8_8  and  C10_10 
REMARK    5  A    between atoms: C9_9  and  N11_11 
ROOT
HETATM    1  C1  UNL     1     -42.969   2.759  -2.838  1.00 20.00    -0.109 C 
HETATM    2  C2  UNL     1     -43.032   3.790  -2.225  1.00 20.00    -0.077 C 
HETATM    3  C3  UNL     1     -42.891   1.503  -3.584  1.00 20.00     0.112 C 
ENDROOT
BRANCH   2   4
HETATM    4  C7  UNL     1     -43.115   5.050  -1.481  1.00 20.00     0.365 C 
BRANCH   4   5
HETATM    5  N11 UNL     1     -42.165   5.060  -0.357  1.00 20.00     0.095 N 
HETATM    6  C6  UNL     1     -42.897   5.278   0.901  1.00 20.00     0.310 C 
BRANCH   5   7
HETATM    7  C9  UNL     1     -41.141   6.049  -0.545  1.00 20.00     0.273 C 
BRANCH   7   8
HETATM    8  C8  UNL     1     -41.306   7.246   0.388  1.00 20.00     0.034 C 
BRANCH   8   9
HETATM    9  C10 UNL     1     -41.708   8.563  -0.306  1.00 20.00    -0.021 C 
HETATM   10  C4  UNL     1     -41.159   9.752   0.487  1.00 20.00     0.009 C 
HETATM   11  C5  UNL     1     -43.222   8.702  -0.462  1.00 20.00     0.009 C 
ENDBRANCH   8   9
ENDBRANCH   7   8
ENDBRANCH   5   7
ENDBRANCH   4   5
ENDBRANCH   2   4
TORSDOF 5
ENDMDL
MODEL 6
REMARK VINA RESULT:      -3.6      4.166      7.282
REMARK  5 active torsions:
REMARK  status: ('A' for Active; 'I' for Inactive)
REMARK    1  A    between atoms: C2_2  and  C7_7 
REMARK    2  A    between atoms: C7_7  and  N11_11 
REMARK    3  A    between atoms: C8_8  and  C9_9 
REMARK    4  A    between atoms: C8_8  and  C10_10 
REMARK    5  A    between atoms: C9_9  and  N11_11 
ROOT
HETATM    1  C1  UNL     1     -34.638  15.902  -2.463  1.00 20.00    -0.109 C 
HETATM    2  C2  UNL     1     -34.193  15.349  -3.431  1.00 20.00    -0.077 C 
HETATM    3  C3  UNL     1     -35.180  16.578  -1.284  1.00 20.00     0.112 C 
ENDROOT
BRANCH   2   4
HETATM    4  C7  UNL     1     -33.646  14.668  -4.608  1.00 20.00     0.365 C 
BRANCH   4   5
HETATM    5  N11 UNL     1     -34.296  15.146  -5.840  1.00 20.00     0.095 N 
HETATM    6  C6  UNL     1     -34.260  16.616  -5.874  1.00 20.00     0.310 C 
BRANCH   5   7
HETATM    7  C9  UNL     1     -35.638  14.651  -5.950  1.00 20.00     0.273 C 
BRANCH   7   8
HETATM    8  C8  UNL     1     -36.657  15.767  -6.168  1.00 20.00     0.034 C 
BRANCH   8   9
HETATM    9  C10 UNL     1     -37.797  15.822  -5.131  1.00 20.00    -0.021 C 
HETATM   10  C4  UNL     1     -37.660  17.088  -4.281  1.00 20.00     0.009 C 
HETATM   11  C5  UNL     1     -37.819  14.592  -4.224  1.00 20.00     0.009 C 
ENDBRANCH   8   9
ENDBRANCH   7   8
ENDBRANCH   5   7
ENDBRANCH   4   5
ENDBRANCH   2   4
TORSDOF 5
ENDMDL
MODEL 7
REMARK VINA RESULT:      -3.5     11.464     12.226
REMARK  5 active torsions:
REMARK  status: ('A' for Active; 'I' for Inactive)
REMARK    1  A    between atoms: C2_2  and  C7_7 
REMARK    2  A    between atoms: C7_7  and  N11_11 
REMARK    3  A    between atoms: C8_8  and  C9_9 
REMARK    4  A    between atoms: C8_8  and  C10_10 
REMARK    5  A    between atoms: C9_9  and  N11_11 
ROOT
HETATM    1  C1  UNL     1     -32.905   8.364   0.747  1.00 20.00    -0.109 C 
HETATM    2  C2  UNL     1     -32.532   7.752   1.710  1.00 20.00    -0.077 C 
HETATM    3  C3  UNL     1     -33.359   9.110  -0.425  1.00 20.00     0.112 C 
ENDROOT
BRANCH   2   4
HETATM    4  C7  UNL     1     -32.082   7.000   2.886  1.00 20.00     0.365 C 
BRANCH   4   5
HETATM    5  N11 UNL     1     -33.043   5.939   3.230  1.00 20.00     0.095 N 
HETATM    6  C6  UNL     1     -33.064   4.931   2.158  1.00 20.00     0.310 C 
BRANCH   5   7
HETATM    7  C9  UNL     1     -34.353   6.476   3.470  1.00 20.00     0.273 C 
BRANCH   7   8
HETATM    8  C8  UNL     1     -35.184   5.596   4.400  1.00 20.00     0.034 C 
BRANCH   8   9
HETATM    9  C10 UNL     1     -34.796   5.674   5.891  1.00 20.00    -0.021 C 
HETATM   10  C4  UNL     1     -34.063   6.991   6.164  1.00 20.00     0.009 C 
HETATM   11  C5  UNL     1     -33.924   4.498   6.328  1.00 20.00     0.009 C 
ENDBRANCH   8   9
ENDBRANCH   7   8
ENDBRANCH   5   7
ENDBRANCH   4   5
ENDBRANCH   2   4
TORSDOF 5
ENDMDL
MODEL 8
REMARK VINA RESULT:      -3.5      2.715      6.391
REMARK  5 active torsions:
REMARK  status: ('A' for Active; 'I' for Inactive)
REMARK    1  A    between atoms: C2_2  and  C7_7 
REMARK    2  A    between atoms: C7_7  and  N11_11 
REMARK    3  A    between atoms: C8_8  and  C9_9 
REMARK    4  A    between atoms: C8_8  and  C10_10 
REMARK    5  A    between atoms: C9_9  and  N11_11 
ROOT
HETATM    1  C1  UNL     1     -34.963  17.417   0.108  1.00 20.00    -0.109 C 
HETATM    2  C2  UNL     1     -35.072  16.880  -0.960  1.00 20.00    -0.077 C 
HETATM    3  C3  UNL     1     -34.829  18.070   1.409  1.00 20.00     0.112 C 
ENDROOT
BRANCH   2   4
HETATM    4  C7  UNL     1     -35.212  16.229  -2.267  1.00 20.00     0.365 C 
BRANCH   4   5
HETATM    5  N11 UNL     1     -33.896  15.857  -2.812  1.00 20.00     0.095 N 
HETATM    6  C6  UNL     1     -33.112  17.075  -3.072  1.00 20.00     0.310 C 
BRANCH   5   7
HETATM    7  C9  UNL     1     -34.027  15.054  -3.995  1.00 20.00     0.273 C 
BRANCH   7   8
HETATM    8  C8  UNL     1     -35.017  13.906  -3.815  1.00 20.00     0.034 C 
BRANCH   8   9
HETATM    9  C10 UNL     1     -36.131  13.833  -4.878  1.00 20.00    -0.021 C 
HETATM   10  C4  UNL     1     -35.686  14.573  -6.143  1.00 20.00     0.009 C 
HETATM   11  C5  UNL     1     -37.453  14.416  -4.378  1.00 20.00     0.009 C 
ENDBRANCH   8   9
ENDBRANCH   7   8
ENDBRANCH   5   7
ENDBRANCH   4   5
ENDBRANCH   2   4
TORSDOF 5
ENDMDL
MODEL 9
REMARK VINA RESULT:      -3.5      3.828      5.599
REMARK  5 active torsions:
REMARK  status: ('A' for Active; 'I' for Inactive)
REMARK    1  A    between atoms: C2_2  and  C7_7 
REMARK    2  A    between atoms: C7_7  and  N11_11 
REMARK    3  A    between atoms: C8_8  and  C9_9 
REMARK    4  A    between atoms: C8_8  and  C10_10 
REMARK    5  A    between atoms: C9_9  and  N11_11 
ROOT
HETATM    1  C1  UNL     1     -34.936  14.941  -6.728  1.00 20.00    -0.109 C 
HETATM    2  C2  UNL     1     -35.547  14.496  -5.796  1.00 20.00    -0.077 C 
HETATM    3  C3  UNL     1     -34.193  15.484  -7.865  1.00 20.00     0.112 C 
ENDROOT
BRANCH   2   4
HETATM    4  C7  UNL     1     -36.286  13.952  -4.653  1.00 20.00     0.365 C 
BRANCH   4   5
HETATM    5  N11 UNL     1     -36.962  15.025  -3.905  1.00 20.00     0.095 N 
HETATM    6  C6  UNL     1     -38.130  15.492  -4.668  1.00 20.00     0.310 C 
BRANCH   5   7
HETATM    7  C9  UNL     1     -36.062  16.104  -3.609  1.00 20.00     0.273 C 
BRANCH   7   8
HETATM    8  C8  UNL     1     -35.276  15.872  -2.321  1.00 20.00     0.034 C 
BRANCH   8   9
HETATM    9  C10 UNL     1     -33.809  16.344  -2.358  1.00 20.00    -0.021 C 
HETATM   10  C4  UNL     1     -33.757  17.873  -2.309  1.00 20.00     0.009 C 
HETATM   11  C5  UNL     1     -33.067  15.842  -3.598  1.00 20.00     0.009 C 
ENDBRANCH   8   9
ENDBRANCH   7   8
ENDBRANCH   5   7
ENDBRANCH   4   5
ENDBRANCH   2   4
TORSDOF 5
ENDMDL
