MODEL 1
REMARK VINA RESULT:      -4.5      0.000      0.000
REMARK  1 active torsions:
REMARK  status: ('A' for Active; 'I' for Inactive)
REMARK    1  A    between atoms: C1_1  and  C7_7 
ROOT
HETATM    1  C2  UNL     1     -33.925  15.662  -3.147  1.00 20.00     0.004 C 
HETATM    2  C3  UNL     1     -33.266  14.999  -4.350  1.00 20.00     0.037 C 
HETATM    3  C4  UNL     1     -35.398  15.273  -3.025  1.00 20.00     0.016 C 
HETATM    4  C5  UNL     1     -35.497  14.886  -5.524  1.00 20.00     0.053 C 
HETATM    5  C6  UNL     1     -34.030  15.283  -5.635  1.00 20.00     0.171 C 
HETATM    6  C7  UNL     1     -36.205  15.523  -4.315  1.00 20.00     0.012 C 
HETATM    7  C8  UNL     1     -36.454  17.020  -4.537  1.00 20.00     0.023 C 
HETATM    8  F10 UNL     1     -33.462  14.563  -6.642  1.00 20.00    -0.249 F 
ENDROOT
BRANCH   6   9
HETATM    9  C1  UNL     1     -37.558  14.875  -4.162  1.00 20.00     0.240 C 
HETATM   10  O9  UNL     1     -37.780  13.700  -4.435  1.00 20.00    -0.306 OA
ENDBRANCH   6   9
TORSDOF 1
ENDMDL
MODEL 2
REMARK VINA RESULT:      -4.4      1.634      1.899
REMARK  1 active torsions:
REMARK  status: ('A' for Active; 'I' for Inactive)
REMARK    1  A    between atoms: C1_1  and  C7_7 
ROOT
HETATM    1  C2  UNL     1     -34.859  16.803  -2.783  1.00 20.00     0.004 C 
HETATM    2  C3  UNL     1     -33.436  16.259  -2.727  1.00 20.00     0.037 C 
HETATM    3  C4  UNL     1     -35.867  15.710  -3.135  1.00 20.00     0.016 C 
HETATM    4  C5  UNL     1     -34.055  14.442  -4.366  1.00 20.00     0.053 C 
HETATM    5  C6  UNL     1     -33.059  15.542  -4.015  1.00 20.00     0.171 C 
HETATM    6  C7  UNL     1     -35.510  14.941  -4.422  1.00 20.00     0.012 C 
HETATM    7  C8  UNL     1     -35.759  15.795  -5.671  1.00 20.00     0.023 C 
HETATM    8  F10 UNL     1     -31.831  14.977  -3.850  1.00 20.00    -0.249 F 
ENDROOT
BRANCH   6   9
HETATM    9  C1  UNL     1     -36.418  13.742  -4.527  1.00 20.00     0.240 C 
HETATM   10  O9  UNL     1     -36.012  12.584  -4.536  1.00 20.00    -0.306 OA
ENDBRANCH   6   9
TORSDOF 1
ENDMDL
MODEL 3
REMARK VINA RESULT:      -4.4      2.464      3.250
REMARK  1 active torsions:
REMARK  status: ('A' for Active; 'I' for Inactive)
REMARK    1  A    between atoms: C1_1  and  C7_7 
ROOT
HETATM    1  C2  UNL     1     -34.209  17.341  -4.705  1.00 20.00     0.004 C 
HETATM    2  C3  UNL     1     -34.328  17.734  -3.237  1.00 20.00     0.037 C 
HETATM    3  C4  UNL     1     -35.111  16.155  -5.046  1.00 20.00     0.016 C 
HETATM    4  C5  UNL     1     -34.977  15.369  -2.644  1.00 20.00     0.053 C 
HETATM    5  C6  UNL     1     -34.072  16.551  -2.316  1.00 20.00     0.171 C 
HETATM    6  C7  UNL     1     -34.900  14.941  -4.120  1.00 20.00     0.012 C 
HETATM    7  C8  UNL     1     -33.578  14.227  -4.427  1.00 20.00     0.023 C 
HETATM    8  F10 UNL     1     -34.316  16.940  -1.034  1.00 20.00    -0.249 F 
ENDROOT
BRANCH   6   9
HETATM    9  C1  UNL     1     -36.002  13.946  -4.383  1.00 20.00     0.240 C 
HETATM   10  O9  UNL     1     -35.818  12.735  -4.454  1.00 20.00    -0.306 OA
ENDBRANCH   6   9
TORSDOF 1
ENDMDL
MODEL 4
REMARK VINA RESULT:      -4.4      2.729      3.587
REMARK  1 active torsions:
REMARK  status: ('A' for Active; 'I' for Inactive)
REMARK    1  A    between atoms: C1_1  and  C7_7 
ROOT
HETATM    1  C2  UNL     1     -35.392  16.859  -1.691  1.00 20.00     0.004 C 
HETATM    2  C3  UNL     1     -34.081  17.413  -1.146  1.00 20.00     0.037 C 
HETATM    3  C4  UNL     1     -35.165  15.613  -2.547  1.00 20.00     0.016 C 
HETATM    4  C5  UNL     1     -32.837  16.431  -3.111  1.00 20.00     0.053 C 
HETATM    5  C6  UNL     1     -33.076  17.673  -2.260  1.00 20.00     0.171 C 
HETATM    6  C7  UNL     1     -34.135  15.826  -3.675  1.00 20.00     0.012 C 
HETATM    7  C8  UNL     1     -34.711  16.692  -4.802  1.00 20.00     0.023 C 
HETATM    8  F10 UNL     1     -31.894  18.045  -1.696  1.00 20.00    -0.249 F 
ENDROOT
BRANCH   6   9
HETATM    9  C1  UNL     1     -33.810  14.484  -4.280  1.00 20.00     0.240 C 
HETATM   10  O9  UNL     1     -34.456  13.466  -4.055  1.00 20.00    -0.306 OA
ENDBRANCH   6   9
TORSDOF 1
ENDMDL
MODEL 5
REMARK VINA RESULT:      -4.2     10.638     12.105
REMARK  1 active torsions:
REMARK  status: ('A' for Active; 'I' for Inactive)
REMARK    1  A    between atoms: C1_1  and  C7_7 
ROOT
HETATM    1  C2  UNL     1     -42.027   5.445  -1.205  1.00 20.00     0.004 C 
HETATM    2  C3  UNL     1     -42.409   4.955   0.187  1.00 20.00     0.037 C 
HETATM    3  C4  UNL     1     -41.307   6.792  -1.150  1.00 20.00     0.016 C 
HETATM    4  C5  UNL     1     -42.501   7.338   1.013  1.00 20.00     0.053 C 
HETATM    5  C6  UNL     1     -43.220   5.995   0.945  1.00 20.00     0.171 C 
HETATM    6  C7  UNL     1     -42.084   7.870  -0.370  1.00 20.00     0.012 C 
HETATM    7  C8  UNL     1     -43.297   8.370  -1.164  1.00 20.00     0.023 C 
HETATM    8  F10 UNL     1     -43.417   5.546   2.215  1.00 20.00    -0.249 F 
ENDROOT
BRANCH   6   9
HETATM    9  C1  UNL     1     -41.177   9.057  -0.167  1.00 20.00     0.240 C 
HETATM   10  O9  UNL     1     -41.548  10.114   0.334  1.00 20.00    -0.306 OA
ENDBRANCH   6   9
TORSDOF 1
ENDMDL
MODEL 6
REMARK VINA RESULT:      -4.1     18.374     19.265
REMARK  1 active torsions:
REMARK  status: ('A' for Active; 'I' for Inactive)
REMARK    1  A    between atoms: C1_1  and  C7_7 
ROOT
HETATM    1  C2  UNL     1     -25.327  18.747  11.455  1.00 20.00     0.004 C 
HETATM    2  C3  UNL     1     -25.750  17.363  11.930  1.00 20.00     0.037 C 
HETATM    3  C4  UNL     1     -24.704  18.699  10.060  1.00 20.00     0.016 C 
HETATM    4  C5  UNL     1     -23.980  16.309  10.471  1.00 20.00     0.053 C 
HETATM    5  C6  UNL     1     -24.598  16.370  11.864  1.00 20.00     0.171 C 
HETATM    6  C7  UNL     1     -23.547  17.688   9.942  1.00 20.00     0.012 C 
HETATM    7  C8  UNL     1     -22.289  18.192  10.660  1.00 20.00     0.023 C 
HETATM    8  F10 UNL     1     -25.074  15.135  12.181  1.00 20.00    -0.249 F 
ENDROOT
BRANCH   6   9
HETATM    9  C1  UNL     1     -23.188  17.544   8.484  1.00 20.00     0.240 C 
HETATM   10  O9  UNL     1     -22.348  16.753   8.069  1.00 20.00    -0.306 OA
ENDBRANCH   6   9
TORSDOF 1
ENDMDL
MODEL 7
REMARK VINA RESULT:      -4.1      1.716      1.910
REMARK  1 active torsions:
REMARK  status: ('A' for Active; 'I' for Inactive)
REMARK    1  A    between atoms: C1_1  and  C7_7 
ROOT
HETATM    1  C2  UNL     1     -34.096  16.048  -2.606  1.00 20.00     0.004 C 
HETATM    2  C3  UNL     1     -33.445  16.955  -3.644  1.00 20.00     0.037 C 
HETATM    3  C4  UNL     1     -34.744  14.825  -3.254  1.00 20.00     0.016 C 
HETATM    4  C5  UNL     1     -35.068  16.136  -5.395  1.00 20.00     0.053 C 
HETATM    5  C6  UNL     1     -34.427  17.352  -4.737  1.00 20.00     0.171 C 
HETATM    6  C7  UNL     1     -35.730  15.181  -4.384  1.00 20.00     0.012 C 
HETATM    7  C8  UNL     1     -37.030  15.773  -3.826  1.00 20.00     0.023 C 
HETATM    8  F10 UNL     1     -33.752  18.053  -5.689  1.00 20.00    -0.249 F 
ENDROOT
BRANCH   6   9
HETATM    9  C1  UNL     1     -36.105  13.912  -5.106  1.00 20.00     0.240 C 
HETATM   10  O9  UNL     1     -35.970  12.793  -4.621  1.00 20.00    -0.306 OA
ENDBRANCH   6   9
TORSDOF 1
ENDMDL
MODEL 8
REMARK VINA RESULT:      -4.1      2.382      3.064
REMARK  1 active torsions:
REMARK  status: ('A' for Active; 'I' for Inactive)
REMARK    1  A    between atoms: C1_1  and  C7_7 
ROOT
HETATM    1  C2  UNL     1     -33.063  15.401  -3.825  1.00 20.00     0.004 C 
HETATM    2  C3  UNL     1     -33.584  16.278  -2.692  1.00 20.00     0.037 C 
HETATM    3  C4  UNL     1     -34.041  15.358  -4.998  1.00 20.00     0.016 C 
HETATM    4  C5  UNL     1     -35.958  15.818  -3.412  1.00 20.00     0.053 C 
HETATM    5  C6  UNL     1     -34.975  15.852  -2.247  1.00 20.00     0.171 C 
HETATM    6  C7  UNL     1     -35.471  14.953  -4.588  1.00 20.00     0.012 C 
HETATM    7  C8  UNL     1     -35.555  13.459  -4.255  1.00 20.00     0.023 C 
HETATM    8  F10 UNL     1     -35.427  16.749  -1.327  1.00 20.00    -0.249 F 
ENDROOT
BRANCH   6   9
HETATM    9  C1  UNL     1     -36.386  15.190  -5.762  1.00 20.00     0.240 C 
HETATM   10  O9  UNL     1     -36.291  14.587  -6.827  1.00 20.00    -0.306 OA
ENDBRANCH   6   9
TORSDOF 1
ENDMDL
MODEL 9
REMARK VINA RESULT:      -4.0     10.927     12.320
REMARK  1 active torsions:
REMARK  status: ('A' for Active; 'I' for Inactive)
REMARK    1  A    between atoms: C1_1  and  C7_7 
ROOT
HETATM    1  C2  UNL     1     -43.256   5.339   1.303  1.00 20.00     0.004 C 
HETATM    2  C3  UNL     1     -43.417   4.661  -0.052  1.00 20.00     0.037 C 
HETATM    3  C4  UNL     1     -43.279   6.862   1.177  1.00 20.00     0.016 C 
HETATM    4  C5  UNL     1     -42.411   6.675  -1.194  1.00 20.00     0.053 C 
HETATM    5  C6  UNL     1     -42.385   5.157  -1.055  1.00 20.00     0.171 C 
HETATM    6  C7  UNL     1     -42.264   7.407   0.153  1.00 20.00     0.012 C 
HETATM    7  C8  UNL     1     -40.828   7.312   0.685  1.00 20.00     0.023 C 
HETATM    8  F10 UNL     1     -42.664   4.607  -2.269  1.00 20.00    -0.249 F 
ENDROOT
BRANCH   6   9
HETATM    9  C1  UNL     1     -42.550   8.870  -0.069  1.00 20.00     0.240 C 
HETATM   10  O9  UNL     1     -41.816   9.771   0.325  1.00 20.00    -0.306 OA
ENDBRANCH   6   9
TORSDOF 1
ENDMDL
