MODEL 1
REMARK VINA RESULT:      -3.8      0.000      0.000
REMARK  2 active torsions:
REMARK  status: ('A' for Active; 'I' for Inactive)
REMARK    1  A    between atoms: C7_7  and  O10_10 
REMARK    2  A    between atoms: C9_9  and  O10_10 
ROOT
HETATM    1  C1  UNL     1     -24.668  15.445  11.265  1.00 20.00     0.015 C 
HETATM    2  C2  UNL     1     -24.375  16.605  11.167  1.00 20.00    -0.079 C 
HETATM    3  C3  UNL     1     -26.167  19.104  10.778  1.00 20.00     0.004 C 
HETATM    4  C4  UNL     1     -25.796  19.131  12.262  1.00 20.00     0.004 C 
HETATM    5  C5  UNL     1     -24.885  18.757  10.026  1.00 20.00     0.051 C 
HETATM    6  C6  UNL     1     -24.307  18.797  12.332  1.00 20.00     0.051 C 
HETATM    7  C7  UNL     1     -24.016  18.026  11.047  1.00 20.00     0.122 C 
ENDROOT
BRANCH   7   8
HETATM    8  O10 UNL     1     -22.641  18.144  10.714  1.00 20.00    -0.368 OA
BRANCH   8   9
HETATM    9  C9  UNL     1     -22.462  18.511   9.352  1.00 20.00     0.165 C 
HETATM   10  C8  UNL     1     -21.721  17.401   8.636  1.00 20.00     0.033 C 
ENDBRANCH   8   9
ENDBRANCH   7   8
TORSDOF 2
ENDMDL
MODEL 2
REMARK VINA RESULT:      -3.8     15.658     16.673
REMARK  2 active torsions:
REMARK  status: ('A' for Active; 'I' for Inactive)
REMARK    1  A    between atoms: C7_7  and  O10_10 
REMARK    2  A    between atoms: C9_9  and  O10_10 
ROOT
HETATM    1  C1  UNL     1     -35.002  19.039  -3.927  1.00 20.00     0.015 C 
HETATM    2  C2  UNL     1     -34.531  18.190  -3.220  1.00 20.00    -0.079 C 
HETATM    3  C3  UNL     1     -35.073  15.139  -3.111  1.00 20.00     0.004 C 
HETATM    4  C4  UNL     1     -33.743  15.262  -3.857  1.00 20.00     0.004 C 
HETATM    5  C5  UNL     1     -34.992  16.109  -1.935  1.00 20.00     0.051 C 
HETATM    6  C6  UNL     1     -32.924  16.301  -3.094  1.00 20.00     0.051 C 
HETATM    7  C7  UNL     1     -33.955  17.150  -2.354  1.00 20.00     0.122 C 
ENDROOT
BRANCH   7   8
HETATM    8  O10 UNL     1     -33.358  17.753  -1.216  1.00 20.00    -0.368 OA
BRANCH   8   9
HETATM    9  C9  UNL     1     -32.124  18.381  -1.543  1.00 20.00     0.165 C 
HETATM   10  C8  UNL     1     -31.229  18.373  -0.322  1.00 20.00     0.033 C 
ENDBRANCH   8   9
ENDBRANCH   7   8
TORSDOF 2
ENDMDL
MODEL 3
REMARK VINA RESULT:      -3.7      1.260      3.550
REMARK  2 active torsions:
REMARK  status: ('A' for Active; 'I' for Inactive)
REMARK    1  A    between atoms: C7_7  and  O10_10 
REMARK    2  A    between atoms: C9_9  and  O10_10 
ROOT
HETATM    1  C1  UNL     1     -24.668  15.502  11.560  1.00 20.00     0.015 C 
HETATM    2  C2  UNL     1     -24.353  16.584  11.148  1.00 20.00    -0.079 C 
HETATM    3  C3  UNL     1     -21.806  17.495   9.633  1.00 20.00     0.004 C 
HETATM    4  C4  UNL     1     -22.876  17.386   8.546  1.00 20.00     0.004 C 
HETATM    5  C5  UNL     1     -22.475  18.184  10.819  1.00 20.00     0.051 C 
HETATM    6  C6  UNL     1     -24.139  18.015   9.130  1.00 20.00     0.051 C 
HETATM    7  C7  UNL     1     -23.967  17.911  10.643  1.00 20.00     0.122 C 
ENDROOT
BRANCH   7   8
HETATM    8  O10 UNL     1     -24.742  18.911  11.287  1.00 20.00    -0.368 OA
BRANCH   8   9
HETATM    9  C9  UNL     1     -25.939  19.189  10.571  1.00 20.00     0.165 C 
HETATM   10  C8  UNL     1     -27.110  19.138  11.529  1.00 20.00     0.033 C 
ENDBRANCH   8   9
ENDBRANCH   7   8
TORSDOF 2
ENDMDL
MODEL 4
REMARK VINA RESULT:      -3.7     19.507     20.514
REMARK  2 active torsions:
REMARK  status: ('A' for Active; 'I' for Inactive)
REMARK    1  A    between atoms: C7_7  and  O10_10 
REMARK    2  A    between atoms: C9_9  and  O10_10 
ROOT
HETATM    1  C1  UNL     1     -36.367  15.724  -6.938  1.00 20.00     0.015 C 
HETATM    2  C2  UNL     1     -36.522  15.180  -5.878  1.00 20.00    -0.079 C 
HETATM    3  C3  UNL     1     -34.439  14.078  -3.864  1.00 20.00     0.004 C 
HETATM    4  C4  UNL     1     -34.892  15.405  -3.254  1.00 20.00     0.004 C 
HETATM    5  C5  UNL     1     -35.705  13.384  -4.360  1.00 20.00     0.051 C 
HETATM    6  C6  UNL     1     -36.410  15.448  -3.412  1.00 20.00     0.051 C 
HETATM    7  C7  UNL     1     -36.711  14.514  -4.581  1.00 20.00     0.122 C 
ENDROOT
BRANCH   7   8
HETATM    8  O10 UNL     1     -38.042  14.029  -4.483  1.00 20.00    -0.368 OA
BRANCH   8   9
HETATM    9  C9  UNL     1     -38.939  15.047  -4.058  1.00 20.00     0.165 C 
HETATM   10  C8  UNL     1     -40.271  14.850  -4.752  1.00 20.00     0.033 C 
ENDBRANCH   8   9
ENDBRANCH   7   8
TORSDOF 2
ENDMDL
MODEL 5
REMARK VINA RESULT:      -3.7     17.156     18.076
REMARK  2 active torsions:
REMARK  status: ('A' for Active; 'I' for Inactive)
REMARK    1  A    between atoms: C7_7  and  O10_10 
REMARK    2  A    between atoms: C9_9  and  O10_10 
ROOT
HETATM    1  C1  UNL     1     -35.398  17.957  -5.172  1.00 20.00     0.015 C 
HETATM    2  C2  UNL     1     -34.892  17.119  -4.477  1.00 20.00    -0.079 C 
HETATM    3  C3  UNL     1     -33.172  17.407  -1.914  1.00 20.00     0.004 C 
HETATM    4  C4  UNL     1     -34.555  17.005  -1.400  1.00 20.00     0.004 C 
HETATM    5  C5  UNL     1     -32.893  16.517  -3.122  1.00 20.00     0.051 C 
HETATM    6  C6  UNL     1     -35.043  15.891  -2.324  1.00 20.00     0.051 C 
HETATM    7  C7  UNL     1     -34.272  16.093  -3.626  1.00 20.00     0.122 C 
ENDROOT
BRANCH   7   8
HETATM    8  O10 UNL     1     -34.193  14.867  -4.336  1.00 20.00    -0.368 OA
BRANCH   8   9
HETATM    9  C9  UNL     1     -35.147  13.925  -3.861  1.00 20.00     0.165 C 
HETATM   10  C8  UNL     1     -36.182  13.685  -4.940  1.00 20.00     0.033 C 
ENDBRANCH   8   9
ENDBRANCH   7   8
TORSDOF 2
ENDMDL
MODEL 6
REMARK VINA RESULT:      -3.7     17.997     18.847
REMARK  2 active torsions:
REMARK  status: ('A' for Active; 'I' for Inactive)
REMARK    1  A    between atoms: C7_7  and  O10_10 
REMARK    2  A    between atoms: C9_9  and  O10_10 
ROOT
HETATM    1  C1  UNL     1     -33.803  15.091  -7.115  1.00 20.00     0.015 C 
HETATM    2  C2  UNL     1     -34.125  15.146  -5.959  1.00 20.00    -0.079 C 
HETATM    3  C3  UNL     1     -36.938  15.259  -4.662  1.00 20.00     0.004 C 
HETATM    4  C4  UNL     1     -36.490  13.809  -4.471  1.00 20.00     0.004 C 
HETATM    5  C5  UNL     1     -35.727  16.126  -4.325  1.00 20.00     0.051 C 
HETATM    6  C6  UNL     1     -35.030  13.871  -4.030  1.00 20.00     0.051 C 
HETATM    7  C7  UNL     1     -34.520  15.215  -4.544  1.00 20.00     0.122 C 
ENDROOT
BRANCH   7   8
HETATM    8  O10 UNL     1     -33.417  15.645  -3.761  1.00 20.00    -0.368 OA
BRANCH   8   9
HETATM    9  C9  UNL     1     -33.840  16.231  -2.536  1.00 20.00     0.165 C 
HETATM   10  C8  UNL     1     -32.897  17.359  -2.178  1.00 20.00     0.033 C 
ENDBRANCH   8   9
ENDBRANCH   7   8
TORSDOF 2
ENDMDL
MODEL 7
REMARK VINA RESULT:      -3.6     16.762     17.684
REMARK  2 active torsions:
REMARK  status: ('A' for Active; 'I' for Inactive)
REMARK    1  A    between atoms: C7_7  and  O10_10 
REMARK    2  A    between atoms: C9_9  and  O10_10 
ROOT
HETATM    1  C1  UNL     1     -35.364  17.088  -0.231  1.00 20.00     0.015 C 
HETATM    2  C2  UNL     1     -35.064  16.722  -1.334  1.00 20.00    -0.079 C 
HETATM    3  C3  UNL     1     -34.287  18.358  -3.850  1.00 20.00     0.004 C 
HETATM    4  C4  UNL     1     -32.955  17.836  -3.311  1.00 20.00     0.004 C 
HETATM    5  C5  UNL     1     -35.265  17.189  -3.771  1.00 20.00     0.051 C 
HETATM    6  C6  UNL     1     -33.194  16.376  -2.931  1.00 20.00     0.051 C 
HETATM    7  C7  UNL     1     -34.697  16.275  -2.686  1.00 20.00     0.122 C 
ENDROOT
BRANCH   7   8
HETATM    8  O10 UNL     1     -35.129  14.936  -2.880  1.00 20.00    -0.368 OA
BRANCH   8   9
HETATM    9  C9  UNL     1     -35.002  14.536  -4.238  1.00 20.00     0.165 C 
HETATM   10  C8  UNL     1     -36.182  13.661  -4.607  1.00 20.00     0.033 C 
ENDBRANCH   8   9
ENDBRANCH   7   8
TORSDOF 2
ENDMDL
MODEL 8
REMARK VINA RESULT:      -3.6     18.034     18.888
REMARK  2 active torsions:
REMARK  status: ('A' for Active; 'I' for Inactive)
REMARK    1  A    between atoms: C7_7  and  O10_10 
REMARK    2  A    between atoms: C9_9  and  O10_10 
ROOT
HETATM    1  C1  UNL     1     -35.796  18.421  -5.134  1.00 20.00     0.015 C 
HETATM    2  C2  UNL     1     -35.403  17.331  -4.819  1.00 20.00    -0.079 C 
HETATM    3  C3  UNL     1     -33.584  16.454  -2.467  1.00 20.00     0.004 C 
HETATM    4  C4  UNL     1     -34.996  16.079  -2.015  1.00 20.00     0.004 C 
HETATM    5  C5  UNL     1     -33.479  16.026  -3.929  1.00 20.00     0.051 C 
HETATM    6  C6  UNL     1     -35.675  15.445  -3.227  1.00 20.00     0.051 C 
HETATM    7  C7  UNL     1     -34.921  15.996  -4.434  1.00 20.00     0.122 C 
ENDROOT
BRANCH   7   8
HETATM    8  O10 UNL     1     -35.050  15.106  -5.532  1.00 20.00    -0.368 OA
BRANCH   8   9
HETATM    9  C9  UNL     1     -33.815  14.934  -6.215  1.00 20.00     0.165 C 
HETATM   10  C8  UNL     1     -33.993  15.337  -7.664  1.00 20.00     0.033 C 
ENDBRANCH   8   9
ENDBRANCH   7   8
TORSDOF 2
ENDMDL
MODEL 9
REMARK VINA RESULT:      -3.6     18.285     19.303
REMARK  2 active torsions:
REMARK  status: ('A' for Active; 'I' for Inactive)
REMARK    1  A    between atoms: C7_7  and  O10_10 
REMARK    2  A    between atoms: C9_9  and  O10_10 
ROOT
HETATM    1  C1  UNL     1     -35.155  16.488  -1.614  1.00 20.00     0.015 C 
HETATM    2  C2  UNL     1     -35.363  15.817  -2.587  1.00 20.00    -0.079 C 
HETATM    3  C3  UNL     1     -33.862  15.689  -5.297  1.00 20.00     0.004 C 
HETATM    4  C4  UNL     1     -33.384  14.450  -4.539  1.00 20.00     0.004 C 
HETATM    5  C5  UNL     1     -35.371  15.766  -5.076  1.00 20.00     0.051 C 
HETATM    6  C6  UNL     1     -34.627  13.839  -3.896  1.00 20.00     0.051 C 
HETATM    7  C7  UNL     1     -35.618  14.995  -3.780  1.00 20.00     0.122 C 
ENDROOT
BRANCH   7   8
HETATM    8  O10 UNL     1     -36.945  14.492  -3.739  1.00 20.00    -0.368 OA
BRANCH   8   9
HETATM    9  C9  UNL     1     -37.832  15.291  -4.511  1.00 20.00     0.165 C 
HETATM   10  C8  UNL     1     -39.258  14.943  -4.140  1.00 20.00     0.033 C 
ENDBRANCH   8   9
ENDBRANCH   7   8
TORSDOF 2
ENDMDL
