MODEL 1
REMARK VINA RESULT:      -3.6      0.000      0.000
REMARK  1 active torsions:
REMARK  status: ('A' for Active; 'I' for Inactive)
REMARK    1  A    between atoms: C1_1  and  C3_3 
ROOT
HETATM    1  C2  UNL     1     -34.239  15.724  -3.780  1.00 20.00     0.030 A 
HETATM    2  C3  UNL     1     -34.477  14.240  -3.834  1.00 20.00     0.070 A 
HETATM    3  C4  UNL     1     -33.544  14.895  -4.821  1.00 20.00     0.070 A 
HETATM    4 BR7  UNL     1     -34.057  15.132  -6.644  1.00 20.00    -0.090 Br
ENDROOT
BRANCH   2   5
HETATM    5  C1  UNL     1     -35.795  13.734  -4.235  1.00 20.00     0.128 C 
HETATM    6  C5  UNL     1     -36.950  14.692  -4.121  1.00 20.00     0.091 C 
HETATM    7  O6  UNL     1     -35.947  12.585  -4.645  1.00 20.00    -0.298 OA
ENDBRANCH   2   5
TORSDOF 1
ENDMDL
MODEL 2
REMARK VINA RESULT:      -3.6      1.811      1.957
REMARK  1 active torsions:
REMARK  status: ('A' for Active; 'I' for Inactive)
REMARK    1  A    between atoms: C1_1  and  C3_3 
ROOT
HETATM    1  C2  UNL     1     -33.503  14.532  -4.445  1.00 20.00     0.030 A 
HETATM    2  C3  UNL     1     -34.882  14.700  -5.023  1.00 20.00     0.070 A 
HETATM    3  C4  UNL     1     -34.309  15.755  -4.111  1.00 20.00     0.070 A 
HETATM    4 BR7  UNL     1     -34.942  15.949  -2.320  1.00 20.00    -0.090 Br
ENDROOT
BRANCH   2   5
HETATM    5  C1  UNL     1     -35.960  13.804  -4.589  1.00 20.00     0.128 C 
HETATM    6  C5  UNL     1     -37.333  14.407  -4.466  1.00 20.00     0.091 C 
HETATM    7  O6  UNL     1     -35.751  12.618  -4.340  1.00 20.00    -0.298 OA
ENDBRANCH   2   5
TORSDOF 1
ENDMDL
MODEL 3
REMARK VINA RESULT:      -3.5     10.525     11.391
REMARK  1 active torsions:
REMARK  status: ('A' for Active; 'I' for Inactive)
REMARK    1  A    between atoms: C1_1  and  C3_3 
ROOT
HETATM    1  C2  UNL     1     -41.515   5.415  -1.133  1.00 20.00     0.030 A 
HETATM    2  C3  UNL     1     -41.053   6.751  -0.618  1.00 20.00     0.070 A 
HETATM    3  C4  UNL     1     -41.522   5.689   0.344  1.00 20.00     0.070 A 
HETATM    4 BR7  UNL     1     -43.213   5.839   1.219  1.00 20.00    -0.090 Br
ENDROOT
BRANCH   2   5
HETATM    5  C1  UNL     1     -41.854   7.949  -0.899  1.00 20.00     0.128 C 
HETATM    6  C5  UNL     1     -41.632   9.136  -0.003  1.00 20.00     0.091 C 
HETATM    7  O6  UNL     1     -42.665   7.979  -1.823  1.00 20.00    -0.298 OA
ENDBRANCH   2   5
TORSDOF 1
ENDMDL
MODEL 4
REMARK VINA RESULT:      -3.4     19.100     19.473
REMARK  1 active torsions:
REMARK  status: ('A' for Active; 'I' for Inactive)
REMARK    1  A    between atoms: C1_1  and  C3_3 
ROOT
HETATM    1  C2  UNL     1     -24.596  18.110  10.294  1.00 20.00     0.030 A 
HETATM    2  C3  UNL     1     -23.562  17.319   9.540  1.00 20.00     0.070 A 
HETATM    3  C4  UNL     1     -23.747  17.106  11.021  1.00 20.00     0.070 A 
HETATM    4 BR7  UNL     1     -22.462  17.760  12.272  1.00 20.00    -0.090 Br
ENDROOT
BRANCH   2   5
HETATM    5  C1  UNL     1     -22.383  18.005   8.999  1.00 20.00     0.128 C 
HETATM    6  C5  UNL     1     -21.293  17.135   8.435  1.00 20.00     0.091 C 
HETATM    7  O6  UNL     1     -22.292  19.232   9.004  1.00 20.00    -0.298 OA
ENDBRANCH   2   5
TORSDOF 1
ENDMDL
MODEL 5
REMARK VINA RESULT:      -3.4      1.862      2.196
REMARK  1 active torsions:
REMARK  status: ('A' for Active; 'I' for Inactive)
REMARK    1  A    between atoms: C1_1  and  C3_3 
ROOT
HETATM    1  C2  UNL     1     -36.423  16.315  -4.038  1.00 20.00     0.030 A 
HETATM    2  C3  UNL     1     -36.466  14.838  -3.755  1.00 20.00     0.070 A 
HETATM    3  C4  UNL     1     -35.484  15.720  -3.028  1.00 20.00     0.070 A 
HETATM    4 BR7  UNL     1     -33.623  15.671  -3.455  1.00 20.00    -0.090 Br
ENDROOT
BRANCH   2   5
HETATM    5  C1  UNL     1     -36.037  13.892  -4.792  1.00 20.00     0.128 C 
HETATM    6  C5  UNL     1     -35.841  14.449  -6.176  1.00 20.00     0.091 C 
HETATM    7  O6  UNL     1     -35.846  12.703  -4.541  1.00 20.00    -0.298 OA
ENDBRANCH   2   5
TORSDOF 1
ENDMDL
MODEL 6
REMARK VINA RESULT:      -3.4     18.493     19.108
REMARK  1 active torsions:
REMARK  status: ('A' for Active; 'I' for Inactive)
REMARK    1  A    between atoms: C1_1  and  C3_3 
ROOT
HETATM    1  C2  UNL     1     -21.845  18.277   9.214  1.00 20.00     0.030 A 
HETATM    2  C3  UNL     1     -22.701  17.118   9.646  1.00 20.00     0.070 A 
HETATM    3  C4  UNL     1     -23.147  18.010   8.516  1.00 20.00     0.070 A 
HETATM    4 BR7  UNL     1     -24.568  19.262   8.760  1.00 20.00    -0.090 Br
ENDROOT
BRANCH   2   5
HETATM    5  C1  UNL     1     -23.351  17.151  10.961  1.00 20.00     0.128 C 
HETATM    6  C5  UNL     1     -24.435  16.137  11.206  1.00 20.00     0.091 C 
HETATM    7  O6  UNL     1     -23.023  17.967  11.821  1.00 20.00    -0.298 OA
ENDBRANCH   2   5
TORSDOF 1
ENDMDL
MODEL 7
REMARK VINA RESULT:      -3.3     11.053     11.694
REMARK  1 active torsions:
REMARK  status: ('A' for Active; 'I' for Inactive)
REMARK    1  A    between atoms: C1_1  and  C3_3 
ROOT
HETATM    1  C2  UNL     1     -43.027   6.661   0.996  1.00 20.00     0.030 A 
HETATM    2  C3  UNL     1     -41.852   5.843   0.534  1.00 20.00     0.070 A 
HETATM    3  C4  UNL     1     -41.669   7.295   0.895  1.00 20.00     0.070 A 
HETATM    4 BR7  UNL     1     -41.395   8.613  -0.460  1.00 20.00    -0.090 Br
ENDROOT
BRANCH   2   5
HETATM    5  C1  UNL     1     -41.799   5.379  -0.858  1.00 20.00     0.128 C 
HETATM    6  C5  UNL     1     -43.113   5.257  -1.581  1.00 20.00     0.091 C 
HETATM    7  O6  UNL     1     -40.732   5.105  -1.406  1.00 20.00    -0.298 OA
ENDBRANCH   2   5
TORSDOF 1
ENDMDL
MODEL 8
REMARK VINA RESULT:      -3.2      2.396      2.855
REMARK  1 active torsions:
REMARK  status: ('A' for Active; 'I' for Inactive)
REMARK    1  A    between atoms: C1_1  and  C3_3 
ROOT
HETATM    1  C2  UNL     1     -35.777  16.015  -3.389  1.00 20.00     0.030 A 
HETATM    2  C3  UNL     1     -34.899  14.794  -3.431  1.00 20.00     0.070 A 
HETATM    3  C4  UNL     1     -34.654  15.869  -2.402  1.00 20.00     0.070 A 
HETATM    4 BR7  UNL     1     -33.164  17.052  -2.559  1.00 20.00    -0.090 Br
ENDROOT
BRANCH   2   5
HETATM    5  C1  UNL     1     -33.996  14.594  -4.570  1.00 20.00     0.128 C 
HETATM    6  C5  UNL     1     -34.344  15.316  -5.844  1.00 20.00     0.091 C 
HETATM    7  O6  UNL     1     -33.003  13.873  -4.487  1.00 20.00    -0.298 OA
ENDBRANCH   2   5
TORSDOF 1
ENDMDL
MODEL 9
REMARK VINA RESULT:      -3.2      1.466      2.626
REMARK  1 active torsions:
REMARK  status: ('A' for Active; 'I' for Inactive)
REMARK    1  A    between atoms: C1_1  and  C3_3 
ROOT
HETATM    1  C2  UNL     1     -36.155  13.561  -4.526  1.00 20.00     0.030 A 
HETATM    2  C3  UNL     1     -35.384  14.696  -3.909  1.00 20.00     0.070 A 
HETATM    3  C4  UNL     1     -36.254  14.940  -5.114  1.00 20.00     0.070 A 
HETATM    4 BR7  UNL     1     -35.482  15.237  -6.835  1.00 20.00    -0.090 Br
ENDROOT
BRANCH   2   5
HETATM    5  C1  UNL     1     -33.919  14.705  -3.998  1.00 20.00     0.128 C 
HETATM    6  C5  UNL     1     -33.217  15.931  -3.481  1.00 20.00     0.091 C 
HETATM    7  O6  UNL     1     -33.296  13.755  -4.469  1.00 20.00    -0.298 OA
ENDBRANCH   2   5
TORSDOF 1
ENDMDL
