MODEL 1
REMARK VINA RESULT:      -4.4      0.000      0.000
REMARK  1 active torsions:
REMARK  status: ('A' for Active; 'I' for Inactive)
REMARK    1  A    between atoms: C3_3  and  C9_9 
ROOT
HETATM    1  C1  UNL     1     -33.792  16.204  -2.606  1.00 20.00    -0.030 C 
HETATM    2  C2  UNL     1     -33.017  15.670  -3.573  1.00 20.00    -0.029 C 
HETATM    3  C4  UNL     1     -35.289  15.986  -2.504  1.00 20.00     0.032 C 
HETATM    4  C5  UNL     1     -33.543  14.817  -4.714  1.00 20.00     0.044 C 
HETATM    5  C6  UNL     1     -36.965  14.486  -4.126  1.00 20.00     0.007 C 
HETATM    6  C7  UNL     1     -36.074  13.985  -5.309  1.00 20.00     0.018 C 
HETATM    7  C8  UNL     1     -35.631  14.830  -3.425  1.00 20.00     0.005 C 
HETATM    8  C9  UNL     1     -35.047  15.083  -4.859  1.00 20.00     0.027 C 
ENDROOT
BRANCH   8   9
HETATM    9  C3  UNL     1     -35.302  16.467  -5.564  1.00 20.00     0.132 C 
HETATM   10  C10 UNL     1     -34.464  16.775  -6.775  1.00 20.00     0.091 C 
HETATM   11  O11 UNL     1     -36.147  17.257  -5.146  1.00 20.00    -0.298 OA
ENDBRANCH   8   9
TORSDOF 1
ENDMDL
MODEL 2
REMARK VINA RESULT:      -4.3      1.728      3.021
REMARK  1 active torsions:
REMARK  status: ('A' for Active; 'I' for Inactive)
REMARK    1  A    between atoms: C3_3  and  C9_9 
ROOT
HETATM    1  C1  UNL     1     -34.636  15.555  -2.679  1.00 20.00    -0.030 C 
HETATM    2  C2  UNL     1     -35.605  16.493  -2.716  1.00 20.00    -0.029 C 
HETATM    3  C4  UNL     1     -34.189  14.750  -3.884  1.00 20.00     0.032 C 
HETATM    4  C5  UNL     1     -36.410  16.839  -3.957  1.00 20.00     0.044 C 
HETATM    5  C6  UNL     1     -35.084  14.860  -6.506  1.00 20.00     0.007 C 
HETATM    6  C7  UNL     1     -36.291  15.856  -6.501  1.00 20.00     0.018 C 
HETATM    7  C8  UNL     1     -34.757  15.439  -5.110  1.00 20.00     0.005 C 
HETATM    8  C9  UNL     1     -36.300  15.669  -4.943  1.00 20.00     0.027 C 
ENDROOT
BRANCH   8   9
HETATM    9  C3  UNL     1     -37.214  14.470  -4.489  1.00 20.00     0.132 C 
HETATM   10  C10 UNL     1     -38.648  14.796  -4.170  1.00 20.00     0.091 C 
HETATM   11  O11 UNL     1     -36.778  13.324  -4.401  1.00 20.00    -0.298 OA
ENDBRANCH   8   9
TORSDOF 1
ENDMDL
MODEL 3
REMARK VINA RESULT:      -4.3      1.873      2.848
REMARK  1 active torsions:
REMARK  status: ('A' for Active; 'I' for Inactive)
REMARK    1  A    between atoms: C3_3  and  C9_9 
ROOT
HETATM    1  C1  UNL     1     -34.812  17.785  -0.801  1.00 20.00    -0.030 C 
HETATM    2  C2  UNL     1     -33.504  18.082  -0.947  1.00 20.00    -0.029 C 
HETATM    3  C4  UNL     1     -35.534  16.724  -1.606  1.00 20.00     0.032 C 
HETATM    4  C5  UNL     1     -32.589  17.426  -1.968  1.00 20.00     0.044 C 
HETATM    5  C6  UNL     1     -34.554  15.033  -3.573  1.00 20.00     0.007 C 
HETATM    6  C7  UNL     1     -33.076  15.480  -3.819  1.00 20.00     0.018 C 
HETATM    7  C8  UNL     1     -34.470  15.883  -2.284  1.00 20.00     0.005 C 
HETATM    8  C9  UNL     1     -33.462  16.800  -3.062  1.00 20.00     0.027 C 
ENDROOT
BRANCH   8   9
HETATM    9  C3  UNL     1     -34.018  17.907  -4.034  1.00 20.00     0.132 C 
HETATM   10  C10 UNL     1     -33.080  19.028  -4.389  1.00 20.00     0.091 C 
HETATM   11  O11 UNL     1     -35.162  17.856  -4.483  1.00 20.00    -0.298 OA
ENDBRANCH   8   9
TORSDOF 1
ENDMDL
MODEL 4
REMARK VINA RESULT:      -4.3      1.693      2.983
REMARK  1 active torsions:
REMARK  status: ('A' for Active; 'I' for Inactive)
REMARK    1  A    between atoms: C3_3  and  C9_9 
ROOT
HETATM    1  C1  UNL     1     -35.759  16.644  -2.475  1.00 20.00    -0.030 C 
HETATM    2  C2  UNL     1     -36.359  17.045  -3.614  1.00 20.00    -0.029 C 
HETATM    3  C4  UNL     1     -34.581  15.691  -2.428  1.00 20.00     0.032 C 
HETATM    4  C5  UNL     1     -35.966  16.562  -5.000  1.00 20.00     0.044 C 
HETATM    5  C6  UNL     1     -33.225  14.461  -4.511  1.00 20.00     0.007 C 
HETATM    6  C7  UNL     1     -34.015  14.833  -5.808  1.00 20.00     0.018 C 
HETATM    7  C8  UNL     1     -34.034  15.595  -3.839  1.00 20.00     0.005 C 
HETATM    8  C9  UNL     1     -35.184  15.252  -4.849  1.00 20.00     0.027 C 
ENDROOT
BRANCH   8   9
HETATM    9  C3  UNL     1     -36.157  14.055  -4.533  1.00 20.00     0.132 C 
HETATM   10  C10 UNL     1     -37.622  14.382  -4.435  1.00 20.00     0.091 C 
HETATM   11  O11 UNL     1     -35.740  12.909  -4.377  1.00 20.00    -0.298 OA
ENDBRANCH   8   9
TORSDOF 1
ENDMDL
MODEL 5
REMARK VINA RESULT:      -4.2      1.529      3.062
REMARK  1 active torsions:
REMARK  status: ('A' for Active; 'I' for Inactive)
REMARK    1  A    between atoms: C3_3  and  C9_9 
ROOT
HETATM    1  C1  UNL     1     -36.559  13.979  -4.425  1.00 20.00    -0.030 C 
HETATM    2  C2  UNL     1     -37.088  15.157  -4.816  1.00 20.00    -0.029 C 
HETATM    3  C4  UNL     1     -35.149  13.818  -3.892  1.00 20.00     0.032 C 
HETATM    4  C5  UNL     1     -36.328  16.473  -4.819  1.00 20.00     0.044 C 
HETATM    5  C6  UNL     1     -33.187  15.736  -3.494  1.00 20.00     0.007 C 
HETATM    6  C7  UNL     1     -33.770  17.066  -4.073  1.00 20.00     0.018 C 
HETATM    7  C8  UNL     1     -34.638  15.209  -3.568  1.00 20.00     0.005 C 
HETATM    8  C9  UNL     1     -34.827  16.161  -4.800  1.00 20.00     0.027 C 
ENDROOT
BRANCH   8   9
HETATM    9  C3  UNL     1     -34.337  15.692  -6.221  1.00 20.00     0.132 C 
HETATM   10  C10 UNL     1     -34.724  16.557  -7.390  1.00 20.00     0.091 C 
HETATM   11  O11 UNL     1     -33.668  14.670  -6.367  1.00 20.00    -0.298 OA
ENDBRANCH   8   9
TORSDOF 1
ENDMDL
MODEL 6
REMARK VINA RESULT:      -4.1      1.453      2.951
REMARK  1 active torsions:
REMARK  status: ('A' for Active; 'I' for Inactive)
REMARK    1  A    between atoms: C3_3  and  C9_9 
ROOT
HETATM    1  C1  UNL     1     -33.886  16.268  -2.327  1.00 20.00    -0.030 C 
HETATM    2  C2  UNL     1     -35.213  16.070  -2.179  1.00 20.00    -0.029 C 
HETATM    3  C4  UNL     1     -33.237  16.725  -3.619  1.00 20.00     0.032 C 
HETATM    4  C5  UNL     1     -36.229  16.233  -3.296  1.00 20.00     0.044 C 
HETATM    5  C6  UNL     1     -34.406  17.331  -6.060  1.00 20.00     0.007 C 
HETATM    6  C7  UNL     1     -35.920  16.971  -5.906  1.00 20.00     0.018 C 
HETATM    7  C8  UNL     1     -34.350  17.230  -4.518  1.00 20.00     0.005 C 
HETATM    8  C9  UNL     1     -35.487  16.157  -4.636  1.00 20.00     0.027 C 
ENDROOT
BRANCH   8   9
HETATM    9  C3  UNL     1     -35.110  14.667  -4.981  1.00 20.00     0.132 C 
HETATM   10  C10 UNL     1     -36.111  13.610  -4.598  1.00 20.00     0.091 C 
HETATM   11  O11 UNL     1     -34.051  14.382  -5.537  1.00 20.00    -0.298 OA
ENDBRANCH   8   9
TORSDOF 1
ENDMDL
MODEL 7
REMARK VINA RESULT:      -4.1      1.417      2.977
REMARK  1 active torsions:
REMARK  status: ('A' for Active; 'I' for Inactive)
REMARK    1  A    between atoms: C3_3  and  C9_9 
ROOT
HETATM    1  C1  UNL     1     -33.424  14.803  -4.260  1.00 20.00    -0.030 C 
HETATM    2  C2  UNL     1     -34.682  14.327  -4.163  1.00 20.00    -0.029 C 
HETATM    3  C4  UNL     1     -32.899  15.980  -3.460  1.00 20.00     0.032 C 
HETATM    4  C5  UNL     1     -35.757  14.932  -3.276  1.00 20.00     0.044 C 
HETATM    5  C6  UNL     1     -34.194  17.542  -1.570  1.00 20.00     0.007 C 
HETATM    6  C7  UNL     1     -35.681  17.060  -1.568  1.00 20.00     0.018 C 
HETATM    7  C8  UNL     1     -33.899  16.240  -2.350  1.00 20.00     0.005 C 
HETATM    8  C9  UNL     1     -35.347  16.371  -2.938  1.00 20.00     0.027 C 
ENDROOT
BRANCH   8   9
HETATM    9  C3  UNL     1     -35.600  17.325  -4.165  1.00 20.00     0.132 C 
HETATM   10  C10 UNL     1     -36.886  17.130  -4.921  1.00 20.00     0.091 C 
HETATM   11  O11 UNL     1     -34.785  18.188  -4.489  1.00 20.00    -0.298 OA
ENDBRANCH   8   9
TORSDOF 1
ENDMDL
MODEL 8
REMARK VINA RESULT:      -4.1      1.674      3.205
REMARK  1 active torsions:
REMARK  status: ('A' for Active; 'I' for Inactive)
REMARK    1  A    between atoms: C3_3  and  C9_9 
ROOT
HETATM    1  C1  UNL     1     -34.915  15.839  -6.817  1.00 20.00    -0.030 C 
HETATM    2  C2  UNL     1     -33.959  14.977  -6.416  1.00 20.00    -0.029 C 
HETATM    3  C4  UNL     1     -35.811  16.612  -5.869  1.00 20.00     0.032 C 
HETATM    4  C5  UNL     1     -33.680  14.629  -4.963  1.00 20.00     0.044 C 
HETATM    5  C6  UNL     1     -35.860  16.611  -3.097  1.00 20.00     0.007 C 
HETATM    6  C7  UNL     1     -34.838  15.513  -2.655  1.00 20.00     0.018 C 
HETATM    7  C8  UNL     1     -35.195  16.499  -4.488  1.00 20.00     0.005 C 
HETATM    8  C9  UNL     1     -34.917  14.996  -4.135  1.00 20.00     0.027 C 
ENDROOT
BRANCH   8   9
HETATM    9  C3  UNL     1     -36.059  13.931  -4.337  1.00 20.00     0.132 C 
HETATM   10  C10 UNL     1     -37.474  14.443  -4.316  1.00 20.00     0.091 C 
HETATM   11  O11 UNL     1     -35.806  12.739  -4.505  1.00 20.00    -0.298 OA
ENDBRANCH   8   9
TORSDOF 1
ENDMDL
MODEL 9
REMARK VINA RESULT:      -4.0      1.096      1.648
REMARK  1 active torsions:
REMARK  status: ('A' for Active; 'I' for Inactive)
REMARK    1  A    between atoms: C3_3  and  C9_9 
ROOT
HETATM    1  C1  UNL     1     -35.163  15.878  -2.286  1.00 20.00    -0.030 C 
HETATM    2  C2  UNL     1     -33.867  16.188  -2.497  1.00 20.00    -0.029 C 
HETATM    3  C4  UNL     1     -36.072  15.274  -3.338  1.00 20.00     0.032 C 
HETATM    4  C5  UNL     1     -33.155  16.016  -3.829  1.00 20.00     0.044 C 
HETATM    5  C6  UNL     1     -35.508  14.571  -5.960  1.00 20.00     0.007 C 
HETATM    6  C7  UNL     1     -34.045  15.056  -6.224  1.00 20.00     0.018 C 
HETATM    7  C8  UNL     1     -35.181  14.787  -4.464  1.00 20.00     0.005 C 
HETATM    8  C9  UNL     1     -34.216  15.932  -4.933  1.00 20.00     0.027 C 
ENDROOT
BRANCH   8   9
HETATM    9  C3  UNL     1     -34.806  17.357  -5.250  1.00 20.00     0.132 C 
HETATM   10  C10 UNL     1     -33.839  18.510  -5.225  1.00 20.00     0.091 C 
HETATM   11  O11 UNL     1     -35.997  17.519  -5.507  1.00 20.00    -0.298 OA
ENDBRANCH   8   9
TORSDOF 1
ENDMDL
