MODEL 1
REMARK VINA RESULT:      -5.1      0.000      0.000
REMARK  0 active torsions:
REMARK  status: ('A' for Active; 'I' for Inactive)
ROOT
HETATM    1  C1  UNL     1     -31.983  18.246  -1.293  1.00 20.00     0.012 C 
HETATM    2  C2  UNL     1     -32.741  17.619  -1.982  1.00 20.00    -0.112 C 
HETATM    3  C3  UNL     1     -35.654  15.306  -2.763  1.00 20.00    -0.015 C 
HETATM    4  C4  UNL     1     -35.274  14.688  -3.891  1.00 20.00    -0.020 C 
HETATM    5  C5  UNL     1     -33.885  14.907  -4.399  1.00 20.00     0.156 C 
HETATM    6  C6  UNL     1     -34.809  16.270  -1.984  1.00 20.00     0.045 C 
HETATM    7  C7  UNL     1     -32.933  15.739  -3.566  1.00 20.00     0.101 C 
HETATM    8  C8  UNL     1     -33.670  16.852  -2.826  1.00 20.00     0.075 C 
HETATM    9  C9  UNL     1     -36.158  13.758  -4.659  1.00 20.00     0.052 C 
HETATM   10  O10 UNL     1     -33.510  14.371  -5.441  1.00 20.00    -0.293 OA
ENDROOT
TORSDOF 0
ENDMDL
MODEL 2
REMARK VINA RESULT:      -5.0     11.650     12.238
REMARK  0 active torsions:
REMARK  status: ('A' for Active; 'I' for Inactive)
ROOT
HETATM    1  C1  UNL     1     -32.104   7.968   0.706  1.00 20.00     0.012 C 
HETATM    2  C2  UNL     1     -32.416   7.354   1.689  1.00 20.00    -0.112 C 
HETATM    3  C3  UNL     1     -34.306   4.779   3.748  1.00 20.00    -0.015 C 
HETATM    4  C4  UNL     1     -34.382   5.339   4.965  1.00 20.00    -0.020 C 
HETATM    5  C5  UNL     1     -33.915   6.749   5.138  1.00 20.00     0.156 C 
HETATM    6  C6  UNL     1     -33.723   5.437   2.534  1.00 20.00     0.045 C 
HETATM    7  C7  UNL     1     -33.469   7.519   3.913  1.00 20.00     0.101 C 
HETATM    8  C8  UNL     1     -32.797   6.602   2.895  1.00 20.00     0.075 C 
HETATM    9  C9  UNL     1     -34.941   4.638   6.162  1.00 20.00     0.052 C 
HETATM   10  O10 UNL     1     -33.952   7.287   6.244  1.00 20.00    -0.293 OA
ENDROOT
TORSDOF 0
ENDMDL
MODEL 3
REMARK VINA RESULT:      -4.8     11.604     12.134
REMARK  0 active torsions:
REMARK  status: ('A' for Active; 'I' for Inactive)
ROOT
HETATM    1  C1  UNL     1     -31.839   8.002   0.687  1.00 20.00     0.012 C 
HETATM    2  C2  UNL     1     -32.513   7.558   1.576  1.00 20.00    -0.112 C 
HETATM    3  C3  UNL     1     -33.572   6.907   5.167  1.00 20.00    -0.015 C 
HETATM    4  C4  UNL     1     -34.141   5.693   5.115  1.00 20.00    -0.020 C 
HETATM    5  C5  UNL     1     -34.064   4.916   3.840  1.00 20.00     0.156 C 
HETATM    6  C6  UNL     1     -32.905   7.594   4.013  1.00 20.00     0.045 C 
HETATM    7  C7  UNL     1     -33.260   5.489   2.692  1.00 20.00     0.101 C 
HETATM    8  C8  UNL     1     -33.339   7.013   2.665  1.00 20.00     0.075 C 
HETATM    9  C9  UNL     1     -34.828   5.053   6.280  1.00 20.00     0.052 C 
HETATM   10  O10 UNL     1     -34.591   3.808   3.751  1.00 20.00    -0.293 OA
ENDROOT
TORSDOF 0
ENDMDL
MODEL 4
REMARK VINA RESULT:      -4.7     14.295     17.048
REMARK  0 active torsions:
REMARK  status: ('A' for Active; 'I' for Inactive)
ROOT
HETATM    1  C1  UNL     1     -25.210  19.263   6.070  1.00 20.00     0.012 C 
HETATM    2  C2  UNL     1     -24.690  19.159   7.147  1.00 20.00    -0.112 C 
HETATM    3  C3  UNL     1     -22.329  17.741   9.765  1.00 20.00    -0.015 C 
HETATM    4  C4  UNL     1     -22.998  17.904  10.917  1.00 20.00    -0.020 C 
HETATM    5  C5  UNL     1     -24.413  18.382  10.866  1.00 20.00     0.156 C 
HETATM    6  C6  UNL     1     -22.869  18.064   8.404  1.00 20.00     0.045 C 
HETATM    7  C7  UNL     1     -25.065  18.568   9.511  1.00 20.00     0.101 C 
HETATM    8  C8  UNL     1     -24.054  19.033   8.467  1.00 20.00     0.075 C 
HETATM    9  C9  UNL     1     -22.413  17.601  12.260  1.00 20.00     0.052 C 
HETATM   10  O10 UNL     1     -25.050  18.561  11.903  1.00 20.00    -0.293 OA
ENDROOT
TORSDOF 0
ENDMDL
MODEL 5
REMARK VINA RESULT:      -4.7      2.216      4.303
REMARK  0 active torsions:
REMARK  status: ('A' for Active; 'I' for Inactive)
ROOT
HETATM    1  C1  UNL     1     -34.036  14.762  -5.382  1.00 20.00     0.012 C 
HETATM    2  C2  UNL     1     -33.865  15.275  -4.310  1.00 20.00    -0.112 C 
HETATM    3  C3  UNL     1     -34.843  16.976  -1.056  1.00 20.00    -0.015 C 
HETATM    4  C4  UNL     1     -33.794  17.767  -0.783  1.00 20.00    -0.020 C 
HETATM    5  C5  UNL     1     -32.709  17.899  -1.803  1.00 20.00     0.156 C 
HETATM    6  C6  UNL     1     -34.995  16.145  -2.295  1.00 20.00     0.045 C 
HETATM    7  C7  UNL     1     -32.887  17.213  -3.141  1.00 20.00     0.101 C 
HETATM    8  C8  UNL     1     -33.656  15.903  -2.996  1.00 20.00     0.075 C 
HETATM    9  C9  UNL     1     -33.662  18.555   0.481  1.00 20.00     0.052 C 
HETATM   10  O10 UNL     1     -31.723  18.600  -1.578  1.00 20.00    -0.293 OA
ENDROOT
TORSDOF 0
ENDMDL
MODEL 6
REMARK VINA RESULT:      -4.4      2.054      4.627
REMARK  0 active torsions:
REMARK  status: ('A' for Active; 'I' for Inactive)
ROOT
HETATM    1  C1  UNL     1     -36.200  13.639  -4.541  1.00 20.00     0.012 C 
HETATM    2  C2  UNL     1     -35.623  14.591  -4.090  1.00 20.00    -0.112 C 
HETATM    3  C3  UNL     1     -32.637  16.689  -3.031  1.00 20.00    -0.015 C 
HETATM    4  C4  UNL     1     -33.099  17.393  -1.987  1.00 20.00    -0.020 C 
HETATM    5  C5  UNL     1     -34.459  17.080  -1.452  1.00 20.00     0.156 C 
HETATM    6  C6  UNL     1     -33.410  15.634  -3.766  1.00 20.00     0.045 C 
HETATM    7  C7  UNL     1     -35.219  15.914  -2.049  1.00 20.00     0.101 C 
HETATM    8  C8  UNL     1     -34.919  15.758  -3.536  1.00 20.00     0.075 C 
HETATM    9  C9  UNL     1     -32.310  18.463  -1.300  1.00 20.00     0.052 C 
HETATM   10  O10 UNL     1     -34.921  17.719  -0.508  1.00 20.00    -0.293 OA
ENDROOT
TORSDOF 0
ENDMDL
MODEL 7
REMARK VINA RESULT:      -4.4      1.554      2.112
REMARK  0 active torsions:
REMARK  status: ('A' for Active; 'I' for Inactive)
ROOT
HETATM    1  C1  UNL     1     -32.164  18.425  -1.591  1.00 20.00     0.012 C 
HETATM    2  C2  UNL     1     -32.894  17.550  -1.968  1.00 20.00    -0.112 C 
HETATM    3  C3  UNL     1     -34.034  14.637  -4.127  1.00 20.00    -0.015 C 
HETATM    4  C4  UNL     1     -35.370  14.758  -4.143  1.00 20.00    -0.020 C 
HETATM    5  C5  UNL     1     -35.990  15.971  -3.528  1.00 20.00     0.156 C 
HETATM    6  C6  UNL     1     -33.091  15.604  -3.475  1.00 20.00     0.045 C 
HETATM    7  C7  UNL     1     -35.079  17.060  -3.001  1.00 20.00     0.101 C 
HETATM    8  C8  UNL     1     -33.790  16.478  -2.430  1.00 20.00     0.075 C 
HETATM    9  C9  UNL     1     -36.281  13.754  -4.776  1.00 20.00     0.052 C 
HETATM   10  O10 UNL     1     -37.213  16.105  -3.509  1.00 20.00    -0.293 OA
ENDROOT
TORSDOF 0
ENDMDL
MODEL 8
REMARK VINA RESULT:      -4.4      1.528      1.854
REMARK  0 active torsions:
REMARK  status: ('A' for Active; 'I' for Inactive)
ROOT
HETATM    1  C1  UNL     1     -32.552  18.019  -1.246  1.00 20.00     0.012 C 
HETATM    2  C2  UNL     1     -32.901  17.382  -2.202  1.00 20.00    -0.112 C 
HETATM    3  C3  UNL     1     -34.700  16.705  -5.480  1.00 20.00    -0.015 C 
HETATM    4  C4  UNL     1     -34.986  15.395  -5.421  1.00 20.00    -0.020 C 
HETATM    5  C5  UNL     1     -34.715  14.657  -4.149  1.00 20.00     0.156 C 
HETATM    6  C6  UNL     1     -34.060  17.496  -4.379  1.00 20.00     0.045 C 
HETATM    7  C7  UNL     1     -34.223  15.439  -2.950  1.00 20.00     0.101 C 
HETATM    8  C8  UNL     1     -33.330  16.602  -3.373  1.00 20.00     0.075 C 
HETATM    9  C9  UNL     1     -35.595  14.632  -6.554  1.00 20.00     0.052 C 
HETATM   10  O10 UNL     1     -34.947  13.452  -4.066  1.00 20.00    -0.293 OA
ENDROOT
TORSDOF 0
ENDMDL
MODEL 9
REMARK VINA RESULT:      -4.3      1.793      2.682
REMARK  0 active torsions:
REMARK  status: ('A' for Active; 'I' for Inactive)
ROOT
HETATM    1  C1  UNL     1     -35.448  17.367   0.190  1.00 20.00     0.012 C 
HETATM    2  C2  UNL     1     -35.256  16.787  -0.843  1.00 20.00    -0.112 C 
HETATM    3  C3  UNL     1     -33.358  15.749  -3.968  1.00 20.00    -0.015 C 
HETATM    4  C4  UNL     1     -34.328  15.519  -4.866  1.00 20.00    -0.020 C 
HETATM    5  C5  UNL     1     -35.737  15.862  -4.507  1.00 20.00     0.156 C 
HETATM    6  C6  UNL     1     -33.579  16.273  -2.580  1.00 20.00     0.045 C 
HETATM    7  C7  UNL     1     -36.000  16.547  -3.182  1.00 20.00     0.101 C 
HETATM    8  C8  UNL     1     -35.022  16.076  -2.110  1.00 20.00     0.075 C 
HETATM    9  C9  UNL     1     -34.071  14.963  -6.231  1.00 20.00     0.052 C 
HETATM   10  O10 UNL     1     -36.654  15.647  -5.299  1.00 20.00    -0.293 OA
ENDROOT
TORSDOF 0
ENDMDL
