MODEL 1
REMARK VINA RESULT:      -4.7      0.000      0.000
REMARK  0 active torsions:
REMARK  status: ('A' for Active; 'I' for Inactive)
ROOT
HETATM    1  C1  UNL     1     -21.393  17.409   8.674  1.00 20.00     0.015 C 
HETATM    2  C2  UNL     1     -22.406  17.585   9.294  1.00 20.00    -0.076 C 
HETATM    3  C3  UNL     1     -25.675  19.256  10.077  1.00 20.00     0.004 C 
HETATM    4  C4  UNL     1     -25.997  18.679  11.451  1.00 20.00     0.003 C 
HETATM    5  C5  UNL     1     -24.808  18.297   9.265  1.00 20.00     0.055 C 
HETATM    6  C6  UNL     1     -24.731  18.533  12.290  1.00 20.00     0.042 C 
HETATM    7  C7  UNL     1     -23.615  17.795  10.036  1.00 20.00     0.154 A 
HETATM    8  C8  UNL     1     -23.590  17.868  11.563  1.00 20.00     0.102 A 
HETATM    9  C9  UNL     1     -22.303  17.765  12.327  1.00 20.00     0.050 C 
HETATM   10  O10 UNL     1     -23.941  16.666  10.875  1.00 20.00    -0.350 OA
ENDROOT
TORSDOF 0
ENDMDL
MODEL 2
REMARK VINA RESULT:      -4.7     16.271     17.109
REMARK  0 active torsions:
REMARK  status: ('A' for Active; 'I' for Inactive)
ROOT
HETATM    1  C1  UNL     1     -32.122   7.662   1.800  1.00 20.00     0.015 C 
HETATM    2  C2  UNL     1     -32.797   7.146   2.648  1.00 20.00    -0.076 C 
HETATM    3  C3  UNL     1     -33.834   6.365   6.171  1.00 20.00     0.004 C 
HETATM    4  C4  UNL     1     -34.836   5.237   5.956  1.00 20.00     0.003 C 
HETATM    5  C5  UNL     1     -33.769   7.285   4.954  1.00 20.00     0.055 C 
HETATM    6  C6  UNL     1     -34.384   4.316   4.827  1.00 20.00     0.042 C 
HETATM    7  C7  UNL     1     -33.603   6.529   3.661  1.00 20.00     0.154 A 
HETATM    8  C8  UNL     1     -33.957   5.044   3.579  1.00 20.00     0.102 A 
HETATM    9  C9  UNL     1     -33.439   4.181   2.466  1.00 20.00     0.050 C 
HETATM   10  O10 UNL     1     -34.864   6.056   3.138  1.00 20.00    -0.350 OA
ENDROOT
TORSDOF 0
ENDMDL
MODEL 3
REMARK VINA RESULT:      -4.6      1.045      3.875
REMARK  0 active torsions:
REMARK  status: ('A' for Active; 'I' for Inactive)
ROOT
HETATM    1  C1  UNL     1     -26.506  18.075  12.332  1.00 20.00     0.015 C 
HETATM    2  C2  UNL     1     -25.449  17.930  11.782  1.00 20.00    -0.076 C 
HETATM    3  C3  UNL     1     -21.701  17.867  11.566  1.00 20.00     0.004 C 
HETATM    4  C4  UNL     1     -21.480  17.763  10.061  1.00 20.00     0.003 C 
HETATM    5  C5  UNL     1     -23.042  17.257  11.970  1.00 20.00     0.055 C 
HETATM    6  C6  UNL     1     -22.504  18.601   9.302  1.00 20.00     0.042 C 
HETATM    7  C7  UNL     1     -24.186  17.756  11.125  1.00 20.00     0.154 A 
HETATM    8  C8  UNL     1     -23.924  18.391   9.760  1.00 20.00     0.102 A 
HETATM    9  C9  UNL     1     -24.957  19.246   9.087  1.00 20.00     0.050 C 
HETATM   10  O10 UNL     1     -24.313  17.023   9.887  1.00 20.00    -0.350 OA
ENDROOT
TORSDOF 0
ENDMDL
MODEL 4
REMARK VINA RESULT:      -4.4     17.999     19.635
REMARK  0 active torsions:
REMARK  status: ('A' for Active; 'I' for Inactive)
ROOT
HETATM    1  C1  UNL     1     -38.599  14.871  -4.233  1.00 20.00     0.015 C 
HETATM    2  C2  UNL     1     -37.400  14.816  -4.199  1.00 20.00    -0.076 C 
HETATM    3  C3  UNL     1     -33.970  15.880  -3.107  1.00 20.00     0.004 C 
HETATM    4  C4  UNL     1     -33.082  15.084  -4.055  1.00 20.00     0.003 C 
HETATM    5  C5  UNL     1     -35.303  15.173  -2.874  1.00 20.00     0.055 C 
HETATM    6  C6  UNL     1     -33.702  15.010  -5.448  1.00 20.00     0.042 C 
HETATM    7  C7  UNL     1     -35.968  14.749  -4.158  1.00 20.00     0.154 A 
HETATM    8  C8  UNL     1     -35.157  14.619  -5.447  1.00 20.00     0.102 A 
HETATM    9  C9  UNL     1     -35.826  14.601  -6.790  1.00 20.00     0.050 C 
HETATM   10  O10 UNL     1     -35.469  13.483  -4.641  1.00 20.00    -0.350 OA
ENDROOT
TORSDOF 0
ENDMDL
MODEL 5
REMARK VINA RESULT:      -4.4      1.724      3.000
REMARK  0 active torsions:
REMARK  status: ('A' for Active; 'I' for Inactive)
ROOT
HETATM    1  C1  UNL     1     -21.293  16.998   6.802  1.00 20.00     0.015 C 
HETATM    2  C2  UNL     1     -22.019  17.374   7.682  1.00 20.00    -0.076 C 
HETATM    3  C3  UNL     1     -24.192  16.963  10.715  1.00 20.00     0.004 C 
HETATM    4  C4  UNL     1     -24.870  18.325  10.797  1.00 20.00     0.003 C 
HETATM    5  C5  UNL     1     -22.830  17.064  10.033  1.00 20.00     0.055 C 
HETATM    6  C6  UNL     1     -25.199  18.854   9.404  1.00 20.00     0.042 C 
HETATM    7  C7  UNL     1     -22.886  17.823   8.732  1.00 20.00     0.154 A 
HETATM    8  C8  UNL     1     -24.053  18.762   8.430  1.00 20.00     0.102 A 
HETATM    9  C9  UNL     1     -24.354  19.208   7.029  1.00 20.00     0.050 C 
HETATM   10  O10 UNL     1     -22.807  19.252   8.928  1.00 20.00    -0.350 OA
ENDROOT
TORSDOF 0
ENDMDL
MODEL 6
REMARK VINA RESULT:      -4.2      1.364      2.371
REMARK  0 active torsions:
REMARK  status: ('A' for Active; 'I' for Inactive)
ROOT
HETATM    1  C1  UNL     1     -22.043  16.674   8.469  1.00 20.00     0.015 C 
HETATM    2  C2  UNL     1     -22.814  16.953   9.346  1.00 20.00    -0.076 C 
HETATM    3  C3  UNL     1     -25.397  16.224  11.971  1.00 20.00     0.004 C 
HETATM    4  C4  UNL     1     -25.876  17.625  12.332  1.00 20.00     0.003 C 
HETATM    5  C5  UNL     1     -23.958  16.246  11.461  1.00 20.00     0.055 C 
HETATM    6  C6  UNL     1     -25.943  18.513  11.093  1.00 20.00     0.042 C 
HETATM    7  C7  UNL     1     -23.736  17.286  10.393  1.00 20.00     0.154 A 
HETATM    8  C8  UNL     1     -24.707  18.456  10.234  1.00 20.00     0.102 A 
HETATM    9  C9  UNL     1     -24.756  19.261   8.968  1.00 20.00     0.050 C 
HETATM   10  O10 UNL     1     -23.478  18.594  10.947  1.00 20.00    -0.350 OA
ENDROOT
TORSDOF 0
ENDMDL
MODEL 7
REMARK VINA RESULT:      -4.1     13.931     15.448
REMARK  0 active torsions:
REMARK  status: ('A' for Active; 'I' for Inactive)
ROOT
HETATM    1  C1  UNL     1     -35.124  15.514  -2.738  1.00 20.00     0.015 C 
HETATM    2  C2  UNL     1     -34.566  16.399  -2.147  1.00 20.00    -0.076 C 
HETATM    3  C3  UNL     1     -31.592  18.247  -0.795  1.00 20.00     0.004 C 
HETATM    4  C4  UNL     1     -32.253  19.263   0.130  1.00 20.00     0.003 C 
HETATM    5  C5  UNL     1     -32.529  17.842  -1.930  1.00 20.00     0.055 C 
HETATM    6  C6  UNL     1     -33.449  18.647   0.849  1.00 20.00     0.042 C 
HETATM    7  C7  UNL     1     -33.901  17.455  -1.441  1.00 20.00     0.154 A 
HETATM    8  C8  UNL     1     -34.388  17.898  -0.062  1.00 20.00     0.102 A 
HETATM    9  C9  UNL     1     -35.543  17.217   0.613  1.00 20.00     0.050 C 
HETATM   10  O10 UNL     1     -34.757  18.602  -1.248  1.00 20.00    -0.350 OA
ENDROOT
TORSDOF 0
ENDMDL
MODEL 8
REMARK VINA RESULT:      -4.1     14.143     15.758
REMARK  0 active torsions:
REMARK  status: ('A' for Active; 'I' for Inactive)
ROOT
HETATM    1  C1  UNL     1     -34.266  18.311   1.917  1.00 20.00     0.015 C 
HETATM    2  C2  UNL     1     -34.250  18.024   0.752  1.00 20.00    -0.076 C 
HETATM    3  C3  UNL     1     -34.918  15.843  -2.230  1.00 20.00     0.004 C 
HETATM    4  C4  UNL     1     -34.114  16.548  -3.316  1.00 20.00     0.003 C 
HETATM    5  C5  UNL     1     -35.361  16.823  -1.146  1.00 20.00     0.055 C 
HETATM    6  C6  UNL     1     -32.802  17.090  -2.756  1.00 20.00     0.042 C 
HETATM    7  C7  UNL     1     -34.231  17.682  -0.641  1.00 20.00     0.154 A 
HETATM    8  C8  UNL     1     -32.959  17.858  -1.469  1.00 20.00     0.102 A 
HETATM    9  C9  UNL     1     -31.686  18.351  -0.847  1.00 20.00     0.050 C 
HETATM   10  O10 UNL     1     -34.001  18.834  -1.481  1.00 20.00    -0.350 OA
ENDROOT
TORSDOF 0
ENDMDL
MODEL 9
REMARK VINA RESULT:      -4.0     15.704     17.309
REMARK  0 active torsions:
REMARK  status: ('A' for Active; 'I' for Inactive)
ROOT
HETATM    1  C1  UNL     1     -35.848  17.401  -0.045  1.00 20.00     0.015 C 
HETATM    2  C2  UNL     1     -35.411  16.974  -1.079  1.00 20.00    -0.076 C 
HETATM    3  C3  UNL     1     -34.757  14.342  -3.674  1.00 20.00     0.004 C 
HETATM    4  C4  UNL     1     -33.745  15.040  -4.575  1.00 20.00     0.003 C 
HETATM    5  C5  UNL     1     -35.662  15.353  -2.973  1.00 20.00     0.055 C 
HETATM    6  C6  UNL     1     -32.777  15.884  -3.752  1.00 20.00     0.042 C 
HETATM    7  C7  UNL     1     -34.889  16.466  -2.313  1.00 20.00     0.154 A 
HETATM    8  C8  UNL     1     -33.451  16.769  -2.735  1.00 20.00     0.102 A 
HETATM    9  C9  UNL     1     -32.533  17.566  -1.856  1.00 20.00     0.050 C 
HETATM   10  O10 UNL     1     -34.554  17.523  -3.238  1.00 20.00    -0.350 OA
ENDROOT
TORSDOF 0
ENDMDL
