MODEL 1
REMARK VINA RESULT:      -5.3      0.000      0.000
REMARK  1 active torsions:
REMARK  status: ('A' for Active; 'I' for Inactive)
REMARK    1  A    between atoms: C1_1  and  C4_4 
ROOT
HETATM    1  C1  UNL     1     -32.768   7.300   2.020  1.00 20.00    -0.047 C 
HETATM    2  C2  UNL     1     -32.817   8.201   1.226  1.00 20.00    -0.106 C 
HETATM    3  C6  UNL     1     -32.879   9.297   0.261  1.00 20.00     0.112 C 
ENDROOT
BRANCH   1   4
HETATM    4  C4  UNL     1     -32.707   6.203   2.985  1.00 20.00     0.343 C 
HETATM    5  O8  UNL     1     -33.475   5.087   2.511  1.00 20.00    -0.348 OA
HETATM    6  C3  UNL     1     -34.210   4.649   3.655  1.00 20.00     0.203 C 
HETATM    7  C5  UNL     1     -34.446   5.928   4.419  1.00 20.00     0.145 C 
HETATM    8  C7  UNL     1     -34.757   5.721   5.886  1.00 20.00     0.042 C 
HETATM    9  O9  UNL     1     -33.211   6.632   4.260  1.00 20.00    -0.343 OA
ENDBRANCH   1   4
TORSDOF 1
ENDMDL
MODEL 2
REMARK VINA RESULT:      -4.1     15.459     16.335
REMARK  1 active torsions:
REMARK  status: ('A' for Active; 'I' for Inactive)
REMARK    1  A    between atoms: C1_1  and  C4_4 
ROOT
HETATM    1  C1  UNL     1     -24.637  19.260   7.641  1.00 20.00    -0.047 C 
HETATM    2  C2  UNL     1     -25.172  19.257   6.566  1.00 20.00    -0.106 C 
HETATM    3  C6  UNL     1     -25.824  19.254   5.257  1.00 20.00     0.112 C 
ENDROOT
BRANCH   1   4
HETATM    4  C4  UNL     1     -23.986  19.262   8.952  1.00 20.00     0.343 C 
HETATM    5  O8  UNL     1     -22.588  18.974   8.807  1.00 20.00    -0.348 OA
HETATM    6  C3  UNL     1     -22.308  18.035   9.845  1.00 20.00     0.203 C 
HETATM    7  C5  UNL     1     -23.602  17.270   9.971  1.00 20.00     0.145 C 
HETATM    8  C7  UNL     1     -23.773  16.560  11.297  1.00 20.00     0.042 C 
HETATM    9  O9  UNL     1     -24.596  18.288   9.812  1.00 20.00    -0.343 OA
ENDBRANCH   1   4
TORSDOF 1
ENDMDL
MODEL 3
REMARK VINA RESULT:      -3.9     11.822     12.377
REMARK  1 active torsions:
REMARK  status: ('A' for Active; 'I' for Inactive)
REMARK    1  A    between atoms: C1_1  and  C4_4 
ROOT
HETATM    1  C1  UNL     1     -32.551  17.755  -1.676  1.00 20.00    -0.047 C 
HETATM    2  C2  UNL     1     -33.042  16.932  -2.399  1.00 20.00    -0.106 C 
HETATM    3  C6  UNL     1     -33.639  15.929  -3.281  1.00 20.00     0.112 C 
ENDROOT
BRANCH   1   4
HETATM    4  C4  UNL     1     -31.952  18.758  -0.795  1.00 20.00     0.343 C 
HETATM    5  O8  UNL     1     -30.598  18.397  -0.486  1.00 20.00    -0.348 OA
HETATM    6  C3  UNL     1     -30.478  18.628   0.917  1.00 20.00     0.203 C 
HETATM    7  C5  UNL     1     -31.863  18.325   1.432  1.00 20.00     0.145 C 
HETATM    8  C7  UNL     1     -32.171  18.947   2.778  1.00 20.00     0.042 C 
HETATM    9  O9  UNL     1     -32.712  18.873   0.418  1.00 20.00    -0.343 OA
ENDBRANCH   1   4
TORSDOF 1
ENDMDL
MODEL 4
REMARK VINA RESULT:      -3.8     16.054     16.878
REMARK  1 active torsions:
REMARK  status: ('A' for Active; 'I' for Inactive)
REMARK    1  A    between atoms: C1_1  and  C4_4 
ROOT
HETATM    1  C1  UNL     1     -25.275  17.113  11.828  1.00 20.00    -0.047 C 
HETATM    2  C2  UNL     1     -26.395  17.481  12.055  1.00 20.00    -0.106 C 
HETATM    3  C6  UNL     1     -27.759  17.929  12.332  1.00 20.00     0.112 C 
ENDROOT
BRANCH   1   4
HETATM    4  C4  UNL     1     -23.909  16.664  11.552  1.00 20.00     0.343 C 
HETATM    5  O8  UNL     1     -22.965  17.590  12.108  1.00 20.00    -0.348 OA
HETATM    6  C3  UNL     1     -21.987  17.761  11.081  1.00 20.00     0.203 C 
HETATM    7  C5  UNL     1     -22.793  17.607   9.815  1.00 20.00     0.145 C 
HETATM    8  C7  UNL     1     -21.965  17.250   8.598  1.00 20.00     0.042 C 
HETATM    9  O9  UNL     1     -23.700  16.549  10.136  1.00 20.00    -0.343 OA
ENDBRANCH   1   4
TORSDOF 1
ENDMDL
MODEL 5
REMARK VINA RESULT:      -3.6     11.057     12.136
REMARK  1 active torsions:
REMARK  status: ('A' for Active; 'I' for Inactive)
REMARK    1  A    between atoms: C1_1  and  C4_4 
ROOT
HETATM    1  C1  UNL     1     -34.815  15.417  -2.876  1.00 20.00    -0.047 C 
HETATM    2  C2  UNL     1     -34.989  16.131  -1.926  1.00 20.00    -0.106 C 
HETATM    3  C6  UNL     1     -35.199  17.000  -0.769  1.00 20.00     0.112 C 
ENDROOT
BRANCH   1   4
HETATM    4  C4  UNL     1     -34.605  14.547  -4.034  1.00 20.00     0.343 C 
HETATM    5  O8  UNL     1     -33.362  14.870  -4.674  1.00 20.00    -0.348 OA
HETATM    6  C3  UNL     1     -33.671  14.879  -6.067  1.00 20.00     0.203 C 
HETATM    7  C5  UNL     1     -35.103  15.353  -6.096  1.00 20.00     0.145 C 
HETATM    8  C7  UNL     1     -35.846  14.996  -7.367  1.00 20.00     0.042 C 
HETATM    9  O9  UNL     1     -35.685  14.693  -4.969  1.00 20.00    -0.343 OA
ENDBRANCH   1   4
TORSDOF 1
ENDMDL
MODEL 6
REMARK VINA RESULT:      -3.6      9.980     10.625
REMARK  1 active torsions:
REMARK  status: ('A' for Active; 'I' for Inactive)
REMARK    1  A    between atoms: C1_1  and  C4_4 
ROOT
HETATM    1  C1  UNL     1     -42.682   4.130  -2.273  1.00 20.00    -0.047 C 
HETATM    2  C2  UNL     1     -42.293   3.279  -3.026  1.00 20.00    -0.106 C 
HETATM    3  C6  UNL     1     -41.818   2.244  -3.943  1.00 20.00     0.112 C 
ENDROOT
BRANCH   1   4
HETATM    4  C4  UNL     1     -43.156   5.167  -1.356  1.00 20.00     0.343 C 
HETATM    5  O8  UNL     1     -43.417   6.380  -2.077  1.00 20.00    -0.348 OA
HETATM    6  C3  UNL     1     -42.849   7.406  -1.264  1.00 20.00     0.203 C 
HETATM    7  C5  UNL     1     -41.671   6.718  -0.619  1.00 20.00     0.145 C 
HETATM    8  C7  UNL     1     -41.182   7.389   0.647  1.00 20.00     0.042 C 
HETATM    9  O9  UNL     1     -42.178   5.411  -0.333  1.00 20.00    -0.343 OA
ENDBRANCH   1   4
TORSDOF 1
ENDMDL
MODEL 7
REMARK VINA RESULT:      -3.5     11.092     11.796
REMARK  1 active torsions:
REMARK  status: ('A' for Active; 'I' for Inactive)
REMARK    1  A    between atoms: C1_1  and  C4_4 
ROOT
HETATM    1  C1  UNL     1     -33.344  16.242  -3.007  1.00 20.00    -0.047 C 
HETATM    2  C2  UNL     1     -32.888  17.157  -2.379  1.00 20.00    -0.106 C 
HETATM    3  C6  UNL     1     -32.331  18.271  -1.613  1.00 20.00     0.112 C 
ENDROOT
BRANCH   1   4
HETATM    4  C4  UNL     1     -33.902  15.126  -3.772  1.00 20.00     0.343 C 
HETATM    5  O8  UNL     1     -33.944  15.458  -5.167  1.00 20.00    -0.348 OA
HETATM    6  C3  UNL     1     -35.231  15.016  -5.599  1.00 20.00     0.203 C 
HETATM    7  C5  UNL     1     -36.089  15.214  -4.374  1.00 20.00     0.145 C 
HETATM    8  C7  UNL     1     -37.358  14.388  -4.370  1.00 20.00     0.042 C 
HETATM    9  O9  UNL     1     -35.224  14.814  -3.307  1.00 20.00    -0.343 OA
ENDBRANCH   1   4
TORSDOF 1
ENDMDL
MODEL 8
REMARK VINA RESULT:      -3.5     10.933     12.227
REMARK  1 active torsions:
REMARK  status: ('A' for Active; 'I' for Inactive)
REMARK    1  A    between atoms: C1_1  and  C4_4 
ROOT
HETATM    1  C1  UNL     1     -32.386  17.954  -1.853  1.00 20.00    -0.047 C 
HETATM    2  C2  UNL     1     -31.727  18.259  -0.897  1.00 20.00    -0.106 C 
HETATM    3  C6  UNL     1     -30.925  18.633   0.268  1.00 20.00     0.112 C 
ENDROOT
BRANCH   1   4
HETATM    4  C4  UNL     1     -33.189  17.581  -3.018  1.00 20.00     0.343 C 
HETATM    5  O8  UNL     1     -34.570  17.894  -2.786  1.00 20.00    -0.348 OA
HETATM    6  C3  UNL     1     -35.279  16.747  -3.253  1.00 20.00     0.203 C 
HETATM    7  C5  UNL     1     -34.323  15.615  -2.965  1.00 20.00     0.145 C 
HETATM    8  C7  UNL     1     -34.581  14.367  -3.783  1.00 20.00     0.042 C 
HETATM    9  O9  UNL     1     -33.049  16.178  -3.291  1.00 20.00    -0.343 OA
ENDBRANCH   1   4
TORSDOF 1
ENDMDL
MODEL 9
REMARK VINA RESULT:      -3.5     10.984     11.863
REMARK  1 active torsions:
REMARK  status: ('A' for Active; 'I' for Inactive)
REMARK    1  A    between atoms: C1_1  and  C4_4 
ROOT
HETATM    1  C1  UNL     1     -33.902  15.062  -5.254  1.00 20.00    -0.047 C 
HETATM    2  C2  UNL     1     -33.988  15.119  -6.451  1.00 20.00    -0.106 C 
HETATM    3  C6  UNL     1     -34.092  15.188  -7.908  1.00 20.00     0.112 C 
ENDROOT
BRANCH   1   4
HETATM    4  C4  UNL     1     -33.796  14.993  -3.796  1.00 20.00     0.343 C 
HETATM    5  O8  UNL     1     -35.095  15.124  -3.202  1.00 20.00    -0.348 OA
HETATM    6  C3  UNL     1     -34.900  16.030  -2.116  1.00 20.00     0.203 C 
HETATM    7  C5  UNL     1     -33.802  16.934  -2.619  1.00 20.00     0.145 C 
HETATM    8  C7  UNL     1     -33.054  17.664  -1.524  1.00 20.00     0.042 C 
HETATM    9  O9  UNL     1     -32.933  16.032  -3.310  1.00 20.00    -0.343 OA
ENDBRANCH   1   4
TORSDOF 1
ENDMDL
