MODEL 1
REMARK VINA RESULT:      -4.8      0.000      0.000
REMARK  1 active torsions:
REMARK  status: ('A' for Active; 'I' for Inactive)
REMARK    1  A    between atoms: C8_8  and  N10_10 
ROOT
HETATM    1  C1  UNL     1     -21.816  17.513   8.322  1.00 20.00     0.089 C 
HETATM    2  C8  UNL     1     -21.996  18.145   9.629  1.00 20.00     0.396 C 
HETATM    3  N9  UNL     1     -21.672  17.015   7.284  1.00 20.00    -0.195 NA
ENDROOT
BRANCH   2   4
HETATM    4  N10 UNL     1     -22.668  17.245  10.550  1.00 20.00     0.110 N 
HETATM    5  C5  UNL     1     -22.726  17.764  11.948  1.00 20.00     0.283 C 
HETATM    6  C6  UNL     1     -24.199  17.508  12.331  1.00 20.00     0.038 C 
HETATM    7  C2  UNL     1     -25.042  18.508  11.573  1.00 20.00    -0.022 C 
HETATM    8  C4  UNL     1     -24.501  16.265  11.497  1.00 20.00     0.050 C 
HETATM    9  C3  UNL     1     -24.963  18.172  10.277  1.00 20.00     0.005 C 
HETATM   10  C7  UNL     1     -24.078  16.946  10.194  1.00 20.00     0.247 C 
ENDBRANCH   2   4
TORSDOF 1
ENDMDL
MODEL 2
REMARK VINA RESULT:      -4.6      0.866      1.872
REMARK  1 active torsions:
REMARK  status: ('A' for Active; 'I' for Inactive)
REMARK    1  A    between atoms: C8_8  and  N10_10 
ROOT
HETATM    1  C1  UNL     1     -22.313  17.753   8.206  1.00 20.00     0.089 C 
HETATM    2  C8  UNL     1     -22.162  17.335   9.599  1.00 20.00     0.396 C 
HETATM    3  N9  UNL     1     -22.429  18.083   7.099  1.00 20.00    -0.195 NA
ENDROOT
BRANCH   2   4
HETATM    4  N10 UNL     1     -23.047  18.095  10.466  1.00 20.00     0.110 N 
HETATM    5  C5  UNL     1     -24.459  18.129   9.986  1.00 20.00     0.283 C 
HETATM    6  C6  UNL     1     -25.250  17.812  11.273  1.00 20.00     0.038 C 
HETATM    7  C2  UNL     1     -25.042  16.346  11.580  1.00 20.00    -0.022 C 
HETATM    8  C4  UNL     1     -24.325  18.408  12.332  1.00 20.00     0.050 C 
HETATM    9  C3  UNL     1     -23.753  16.207  11.927  1.00 20.00     0.005 C 
HETATM   10  C7  UNL     1     -23.127  17.584  11.857  1.00 20.00     0.247 C 
ENDBRANCH   2   4
TORSDOF 1
ENDMDL
MODEL 3
REMARK VINA RESULT:      -4.5     17.644     18.760
REMARK  1 active torsions:
REMARK  status: ('A' for Active; 'I' for Inactive)
REMARK    1  A    between atoms: C8_8  and  N10_10 
ROOT
HETATM    1  C1  UNL     1     -37.488  14.963  -4.373  1.00 20.00     0.089 C 
HETATM    2  C8  UNL     1     -36.735  16.216  -4.409  1.00 20.00     0.396 C 
HETATM    3  N9  UNL     1     -38.090  13.971  -4.344  1.00 20.00    -0.195 NA
ENDROOT
BRANCH   2   4
HETATM    4  N10 UNL     1     -35.309  15.958  -4.521  1.00 20.00     0.110 N 
HETATM    5  C5  UNL     1     -34.487  17.201  -4.589  1.00 20.00     0.283 C 
HETATM    6  C6  UNL     1     -33.357  16.903  -3.581  1.00 20.00     0.038 C 
HETATM    7  C2  UNL     1     -33.957  16.981  -2.196  1.00 20.00    -0.022 C 
HETATM    8  C4  UNL     1     -33.253  15.385  -3.708  1.00 20.00     0.050 C 
HETATM    9  C3  UNL     1     -34.799  15.943  -2.084  1.00 20.00     0.005 C 
HETATM   10  C7  UNL     1     -34.737  15.183  -3.392  1.00 20.00     0.247 C 
ENDBRANCH   2   4
TORSDOF 1
ENDMDL
MODEL 4
REMARK VINA RESULT:      -4.5      1.382      2.079
REMARK  1 active torsions:
REMARK  status: ('A' for Active; 'I' for Inactive)
REMARK    1  A    between atoms: C8_8  and  N10_10 
ROOT
HETATM    1  C1  UNL     1     -23.477  18.264   8.073  1.00 20.00     0.089 C 
HETATM    2  C8  UNL     1     -24.680  18.468   8.880  1.00 20.00     0.396 C 
HETATM    3  N9  UNL     1     -22.525  18.100   7.431  1.00 20.00    -0.195 NA
ENDROOT
BRANCH   2   4
HETATM    4  N10 UNL     1     -24.338  18.662  10.279  1.00 20.00     0.110 N 
HETATM    5  C5  UNL     1     -25.529  18.737  11.174  1.00 20.00     0.283 C 
HETATM    6  C6  UNL     1     -25.129  17.798  12.331  1.00 20.00     0.038 C 
HETATM    7  C2  UNL     1     -25.199  16.382  11.808  1.00 20.00    -0.022 C 
HETATM    8  C4  UNL     1     -23.612  17.975  12.332  1.00 20.00     0.050 C 
HETATM    9  C3  UNL     1     -24.211  16.257  10.909  1.00 20.00     0.005 C 
HETATM   10  C7  UNL     1     -23.492  17.589  10.856  1.00 20.00     0.247 C 
ENDBRANCH   2   4
TORSDOF 1
ENDMDL
MODEL 5
REMARK VINA RESULT:      -4.4     17.656     18.722
REMARK  1 active torsions:
REMARK  status: ('A' for Active; 'I' for Inactive)
REMARK    1  A    between atoms: C8_8  and  N10_10 
ROOT
HETATM    1  C1  UNL     1     -36.996  14.167  -4.563  1.00 20.00     0.089 C 
HETATM    2  C8  UNL     1     -35.587  14.405  -4.875  1.00 20.00     0.396 C 
HETATM    3  N9  UNL     1     -38.115  13.978  -4.319  1.00 20.00    -0.195 NA
ENDROOT
BRANCH   2   4
HETATM    4  N10 UNL     1     -34.861  14.838  -3.693  1.00 20.00     0.110 N 
HETATM    5  C5  UNL     1     -33.413  15.089  -3.946  1.00 20.00     0.283 C 
HETATM    6  C6  UNL     1     -33.189  16.448  -3.250  1.00 20.00     0.038 C 
HETATM    7  C2  UNL     1     -33.858  17.504  -4.098  1.00 20.00    -0.022 C 
HETATM    8  C4  UNL     1     -34.214  16.365  -2.122  1.00 20.00     0.050 C 
HETATM    9  C3  UNL     1     -35.179  17.288  -4.007  1.00 20.00     0.005 C 
HETATM   10  C7  UNL     1     -35.368  16.097  -3.091  1.00 20.00     0.247 C 
ENDBRANCH   2   4
TORSDOF 1
ENDMDL
MODEL 6
REMARK VINA RESULT:      -4.3     15.986     16.908
REMARK  1 active torsions:
REMARK  status: ('A' for Active; 'I' for Inactive)
REMARK    1  A    between atoms: C8_8  and  N10_10 
ROOT
HETATM    1  C1  UNL     1     -32.521   7.611   1.840  1.00 20.00     0.089 C 
HETATM    2  C8  UNL     1     -32.521   6.774   3.040  1.00 20.00     0.396 C 
HETATM    3  N9  UNL     1     -32.518   8.276   0.890  1.00 20.00    -0.195 NA
ENDROOT
BRANCH   2   4
HETATM    4  N10 UNL     1     -33.789   6.079   3.186  1.00 20.00     0.110 N 
HETATM    5  C5  UNL     1     -33.635   4.631   3.511  1.00 20.00     0.283 C 
HETATM    6  C6  UNL     1     -34.643   4.446   4.666  1.00 20.00     0.038 C 
HETATM    7  C2  UNL     1     -34.059   5.121   5.886  1.00 20.00    -0.022 C 
HETATM    8  C4  UNL     1     -35.694   5.490   4.298  1.00 20.00     0.050 C 
HETATM    9  C3  UNL     1     -34.065   6.438   5.634  1.00 20.00     0.005 C 
HETATM   10  C7  UNL     1     -34.664   6.621   4.255  1.00 20.00     0.247 C 
ENDBRANCH   2   4
TORSDOF 1
ENDMDL
MODEL 7
REMARK VINA RESULT:      -4.0     18.014     19.043
REMARK  1 active torsions:
REMARK  status: ('A' for Active; 'I' for Inactive)
REMARK    1  A    between atoms: C8_8  and  N10_10 
ROOT
HETATM    1  C1  UNL     1     -36.072  15.579  -6.831  1.00 20.00     0.089 C 
HETATM    2  C8  UNL     1     -35.780  16.520  -5.750  1.00 20.00     0.396 C 
HETATM    3  N9  UNL     1     -36.308  14.834  -7.689  1.00 20.00    -0.195 NA
ENDROOT
BRANCH   2   4
HETATM    4  N10 UNL     1     -34.447  16.298  -5.217  1.00 20.00     0.110 N 
HETATM    5  C5  UNL     1     -33.989  17.379  -4.297  1.00 20.00     0.283 C 
HETATM    6  C6  UNL     1     -33.417  16.577  -3.108  1.00 20.00     0.038 C 
HETATM    7  C2  UNL     1     -34.589  15.983  -2.361  1.00 20.00    -0.022 C 
HETATM    8  C4  UNL     1     -32.928  15.319  -3.821  1.00 20.00     0.050 C 
HETATM    9  C3  UNL     1     -35.129  15.058  -3.168  1.00 20.00     0.005 C 
HETATM   10  C7  UNL     1     -34.301  15.043  -4.437  1.00 20.00     0.247 C 
ENDBRANCH   2   4
TORSDOF 1
ENDMDL
MODEL 8
REMARK VINA RESULT:      -4.0     17.770     18.891
REMARK  1 active torsions:
REMARK  status: ('A' for Active; 'I' for Inactive)
REMARK    1  A    between atoms: C8_8  and  N10_10 
ROOT
HETATM    1  C1  UNL     1     -37.070  14.305  -4.539  1.00 20.00     0.089 C 
HETATM    2  C8  UNL     1     -35.687  14.697  -4.809  1.00 20.00     0.396 C 
HETATM    3  N9  UNL     1     -38.167  13.990  -4.327  1.00 20.00    -0.195 NA
ENDROOT
BRANCH   2   4
HETATM    4  N10 UNL     1     -35.497  16.118  -4.574  1.00 20.00     0.110 N 
HETATM    5  C5  UNL     1     -36.074  16.587  -3.281  1.00 20.00     0.283 C 
HETATM    6  C6  UNL     1     -34.929  17.446  -2.704  1.00 20.00     0.038 C 
HETATM    7  C2  UNL     1     -33.839  16.501  -2.255  1.00 20.00    -0.022 C 
HETATM    8  C4  UNL     1     -34.283  17.961  -3.988  1.00 20.00     0.050 C 
HETATM    9  C3  UNL     1     -33.327  15.951  -3.366  1.00 20.00     0.005 C 
HETATM   10  C7  UNL     1     -34.077  16.548  -4.539  1.00 20.00     0.247 C 
ENDBRANCH   2   4
TORSDOF 1
ENDMDL
MODEL 9
REMARK VINA RESULT:      -4.0     18.220     19.321
REMARK  1 active torsions:
REMARK  status: ('A' for Active; 'I' for Inactive)
REMARK    1  A    between atoms: C8_8  and  N10_10 
ROOT
HETATM    1  C1  UNL     1     -37.483  14.913  -4.693  1.00 20.00     0.089 C 
HETATM    2  C8  UNL     1     -36.870  16.145  -5.189  1.00 20.00     0.396 C 
HETATM    3  N9  UNL     1     -37.972  13.936  -4.301  1.00 20.00    -0.195 NA
ENDROOT
BRANCH   2   4
HETATM    4  N10 UNL     1     -35.782  16.567  -4.323  1.00 20.00     0.110 N 
HETATM    5  C5  UNL     1     -35.641  15.728  -3.098  1.00 20.00     0.283 C 
HETATM    6  C6  UNL     1     -34.122  15.459  -3.057  1.00 20.00     0.038 C 
HETATM    7  C2  UNL     1     -33.809  14.479  -4.165  1.00 20.00    -0.022 C 
HETATM    8  C4  UNL     1     -33.589  16.732  -3.710  1.00 20.00     0.050 C 
HETATM    9  C3  UNL     1     -34.010  15.130  -5.320  1.00 20.00     0.005 C 
HETATM   10  C7  UNL     1     -34.444  16.537  -4.964  1.00 20.00     0.247 C 
ENDBRANCH   2   4
TORSDOF 1
ENDMDL
