MODEL 1
REMARK VINA RESULT:      -3.5      0.000      0.000
REMARK  1 active torsions:
REMARK  status: ('A' for Active; 'I' for Inactive)
REMARK    1  A    between atoms: C6_6  and  N7_7 
ROOT
HETATM    1  C1  UNL     1     -23.755  16.749  11.893  1.00 20.00     0.284 C 
HETATM    2  C2  UNL     1     -22.476  17.578  11.846  1.00 20.00     0.106 C 
HETATM    3  C3  UNL     1     -24.013  17.548   9.693  1.00 20.00     0.280 C 
HETATM    4  C4  UNL     1     -24.615  18.562   8.726  1.00 20.00     0.055 C 
HETATM    5  N7  UNL     1     -24.745  17.307  10.953  1.00 20.00     0.102 N 
HETATM    6  S8  UNL     1     -22.286  17.992  10.098  1.00 20.00    -0.132 SA
ENDROOT
BRANCH   5   7
HETATM    7  C6  UNL     1     -25.402  18.487  11.515  1.00 20.00     0.269 C 
HETATM    8  C5  UNL     1     -26.644  18.112  12.249  1.00 20.00     0.037 C 
ENDBRANCH   5   7
TORSDOF 1
ENDMDL
MODEL 2
REMARK VINA RESULT:      -3.5      1.850      3.054
REMARK  1 active torsions:
REMARK  status: ('A' for Active; 'I' for Inactive)
REMARK    1  A    between atoms: C6_6  and  N7_7 
ROOT
HETATM    1  C1  UNL     1     -23.203  17.042  11.912  1.00 20.00     0.284 C 
HETATM    2  C2  UNL     1     -24.216  15.901  11.906  1.00 20.00     0.106 C 
HETATM    3  C3  UNL     1     -25.141  18.378  11.987  1.00 20.00     0.280 C 
HETATM    4  C4  UNL     1     -26.191  19.212  11.259  1.00 20.00     0.055 C 
HETATM    5  N7  UNL     1     -23.817  18.255  11.342  1.00 20.00     0.102 N 
HETATM    6  S8  UNL     1     -25.779  16.700  12.332  1.00 20.00    -0.132 SA
ENDROOT
BRANCH   5   7
HETATM    7  C6  UNL     1     -23.851  18.196   9.881  1.00 20.00     0.269 C 
HETATM    8  C5  UNL     1     -22.512  18.493   9.300  1.00 20.00     0.037 C 
ENDBRANCH   5   7
TORSDOF 1
ENDMDL
MODEL 3
REMARK VINA RESULT:      -3.3      1.849      2.655
REMARK  1 active torsions:
REMARK  status: ('A' for Active; 'I' for Inactive)
REMARK    1  A    between atoms: C6_6  and  N7_7 
ROOT
HETATM    1  C1  UNL     1     -24.655  18.635  11.061  1.00 20.00     0.284 C 
HETATM    2  C2  UNL     1     -25.489  18.986   9.833  1.00 20.00     0.106 C 
HETATM    3  C3  UNL     1     -22.923  18.449   9.476  1.00 20.00     0.280 C 
HETATM    4  C4  UNL     1     -22.073  17.579   8.555  1.00 20.00     0.055 C 
HETATM    5  N7  UNL     1     -23.512  17.793  10.661  1.00 20.00     0.102 N 
HETATM    6  S8  UNL     1     -24.263  19.263   8.535  1.00 20.00    -0.132 SA
ENDROOT
BRANCH   5   7
HETATM    7  C6  UNL     1     -23.923  16.405  10.453  1.00 20.00     0.269 C 
HETATM    8  C5  UNL     1     -24.667  15.882  11.633  1.00 20.00     0.037 C 
ENDBRANCH   5   7
TORSDOF 1
ENDMDL
MODEL 4
REMARK VINA RESULT:      -3.3      1.518      3.035
REMARK  1 active torsions:
REMARK  status: ('A' for Active; 'I' for Inactive)
REMARK    1  A    between atoms: C6_6  and  N7_7 
ROOT
HETATM    1  C1  UNL     1     -22.914  17.250  10.069  1.00 20.00     0.284 C 
HETATM    2  C2  UNL     1     -23.207  18.534   9.301  1.00 20.00     0.106 C 
HETATM    3  C3  UNL     1     -24.965  17.747  11.113  1.00 20.00     0.280 C 
HETATM    4  C4  UNL     1     -25.729  18.363  12.282  1.00 20.00     0.055 C 
HETATM    5  N7  UNL     1     -23.586  17.291  11.381  1.00 20.00     0.102 N 
HETATM    6  S8  UNL     1     -24.933  18.894   9.690  1.00 20.00    -0.132 SA
ENDROOT
BRANCH   5   7
HETATM    7  C6  UNL     1     -22.841  18.116  12.332  1.00 20.00     0.269 C 
HETATM    8  C5  UNL     1     -21.393  17.763  12.332  1.00 20.00     0.037 C 
ENDBRANCH   5   7
TORSDOF 1
ENDMDL
MODEL 5
REMARK VINA RESULT:      -3.2     16.382     16.762
REMARK  1 active torsions:
REMARK  status: ('A' for Active; 'I' for Inactive)
REMARK    1  A    between atoms: C6_6  and  N7_7 
ROOT
HETATM    1  C1  UNL     1     -35.111   5.419   4.158  1.00 20.00     0.284 C 
HETATM    2  C2  UNL     1     -34.271   4.169   3.914  1.00 20.00     0.106 C 
HETATM    3  C3  UNL     1     -33.428   6.450   2.873  1.00 20.00     0.280 C 
HETATM    4  C4  UNL     1     -32.127   7.243   2.806  1.00 20.00     0.055 C 
HETATM    5  N7  UNL     1     -34.253   6.616   4.088  1.00 20.00     0.102 N 
HETATM    6  S8  UNL     1     -33.107   4.667   2.626  1.00 20.00    -0.132 SA
ENDROOT
BRANCH   5   7
HETATM    7  C6  UNL     1     -33.492   6.796   5.324  1.00 20.00     0.269 C 
HETATM    8  C5  UNL     1     -34.310   6.434   6.516  1.00 20.00     0.037 C 
ENDBRANCH   5   7
TORSDOF 1
ENDMDL
MODEL 6
REMARK VINA RESULT:      -3.2     17.813     19.110
REMARK  1 active torsions:
REMARK  status: ('A' for Active; 'I' for Inactive)
REMARK    1  A    between atoms: C6_6  and  N7_7 
ROOT
HETATM    1  C1  UNL     1     -33.772  14.509  -4.519  1.00 20.00     0.284 C 
HETATM    2  C2  UNL     1     -34.017  15.184  -5.865  1.00 20.00     0.106 C 
HETATM    3  C3  UNL     1     -36.079  14.060  -4.648  1.00 20.00     0.280 C 
HETATM    4  C4  UNL     1     -37.513  14.435  -4.285  1.00 20.00     0.055 C 
HETATM    5  N7  UNL     1     -35.016  14.511  -3.728  1.00 20.00     0.102 N 
HETATM    6  S8  UNL     1     -35.672  14.635  -6.335  1.00 20.00    -0.132 SA
ENDROOT
BRANCH   5   7
HETATM    7  C6  UNL     1     -35.251  15.817  -3.113  1.00 20.00     0.269 C 
HETATM    8  C5  UNL     1     -34.071  16.256  -2.315  1.00 20.00     0.037 C 
ENDBRANCH   5   7
TORSDOF 1
ENDMDL
MODEL 7
REMARK VINA RESULT:      -3.1      1.984      3.742
REMARK  1 active torsions:
REMARK  status: ('A' for Active; 'I' for Inactive)
REMARK    1  A    between atoms: C6_6  and  N7_7 
ROOT
HETATM    1  C1  UNL     1     -24.532  18.236   8.797  1.00 20.00     0.284 C 
HETATM    2  C2  UNL     1     -25.169  19.263   9.728  1.00 20.00     0.106 C 
HETATM    3  C3  UNL     1     -24.382  16.964  10.773  1.00 20.00     0.280 C 
HETATM    4  C4  UNL     1     -23.567  16.493  11.974  1.00 20.00     0.055 C 
HETATM    5  N7  UNL     1     -23.628  17.361   9.566  1.00 20.00     0.102 N 
HETATM    6  S8  UNL     1     -25.490  18.339  11.246  1.00 20.00    -0.132 SA
ENDROOT
BRANCH   5   7
HETATM    7  C6  UNL     1     -22.350  18.020   9.831  1.00 20.00     0.269 C 
HETATM    8  C5  UNL     1     -21.326  17.636   8.820  1.00 20.00     0.037 C 
ENDBRANCH   5   7
TORSDOF 1
ENDMDL
MODEL 8
REMARK VINA RESULT:      -3.1      1.792      3.081
REMARK  1 active torsions:
REMARK  status: ('A' for Active; 'I' for Inactive)
REMARK    1  A    between atoms: C6_6  and  N7_7 
ROOT
HETATM    1  C1  UNL     1     -23.073  18.084   9.530  1.00 20.00     0.284 C 
HETATM    2  C2  UNL     1     -23.397  16.612   9.765  1.00 20.00     0.106 C 
HETATM    3  C3  UNL     1     -24.780  18.416  11.117  1.00 20.00     0.280 C 
HETATM    4  C4  UNL     1     -26.245  18.709  11.430  1.00 20.00     0.055 C 
HETATM    5  N7  UNL     1     -24.259  18.908   9.826  1.00 20.00     0.102 N 
HETATM    6  S8  UNL     1     -24.444  16.622  11.236  1.00 20.00    -0.132 SA
ENDROOT
BRANCH   5   7
HETATM    7  C6  UNL     1     -25.219  18.869   8.723  1.00 20.00     0.269 C 
HETATM    8  C5  UNL     1     -24.567  19.216   7.429  1.00 20.00     0.037 C 
ENDBRANCH   5   7
TORSDOF 1
ENDMDL
MODEL 9
REMARK VINA RESULT:      -3.1      1.228      2.597
REMARK  1 active torsions:
REMARK  status: ('A' for Active; 'I' for Inactive)
REMARK    1  A    between atoms: C6_6  and  N7_7 
ROOT
HETATM    1  C1  UNL     1     -24.336  18.247   9.418  1.00 20.00     0.284 C 
HETATM    2  C2  UNL     1     -23.208  17.638   8.592  1.00 20.00     0.106 C 
HETATM    3  C3  UNL     1     -22.704  18.252  11.115  1.00 20.00     0.280 C 
HETATM    4  C4  UNL     1     -22.072  17.582  12.331  1.00 20.00     0.055 C 
HETATM    5  N7  UNL     1     -24.125  17.949  10.846  1.00 20.00     0.102 N 
HETATM    6  S8  UNL     1     -21.736  17.891   9.607  1.00 20.00    -0.132 SA
ENDROOT
BRANCH   5   7
HETATM    7  C6  UNL     1     -24.530  16.581  11.167  1.00 20.00     0.269 C 
HETATM    8  C5  UNL     1     -25.563  16.564  12.241  1.00 20.00     0.037 C 
ENDBRANCH   5   7
TORSDOF 1
ENDMDL
