MODEL 1
REMARK VINA RESULT:      -4.1      0.000      0.000
REMARK  1 active torsions:
REMARK  status: ('A' for Active; 'I' for Inactive)
REMARK    1  A    between atoms: C1_1  and  C2_2 
ROOT
HETATM    1  C2  UNL     1     -24.243  16.965  10.321  1.00 20.00     0.084 A 
HETATM    2  C3  UNL     1     -24.079  18.444  10.064  1.00 20.00     0.018 A 
HETATM    3  C4  UNL     1     -22.862  17.601  10.391  1.00 20.00     0.048 A 
HETATM    4  C6  UNL     1     -24.342  18.997   8.704  1.00 20.00     0.012 C 
HETATM    5  C7  UNL     1     -22.186  17.816  11.715  1.00 20.00     0.034 C 
HETATM    6 CL9  UNL     1     -21.736  17.162   9.084  1.00 20.00    -0.118 Cl
ENDROOT
BRANCH   1   7
HETATM    7  C1  UNL     1     -24.928  16.522  11.543  1.00 20.00     0.129 C 
HETATM    8  C5  UNL     1     -25.917  17.479  12.150  1.00 20.00     0.091 C 
HETATM    9  O8  UNL     1     -24.704  15.422  12.045  1.00 20.00    -0.298 OA
ENDBRANCH   1   7
TORSDOF 1
ENDMDL
MODEL 2
REMARK VINA RESULT:      -4.0     17.782     18.996
REMARK  1 active torsions:
REMARK  status: ('A' for Active; 'I' for Inactive)
REMARK    1  A    between atoms: C1_1  and  C2_2 
ROOT
HETATM    1  C2  UNL     1     -35.406  14.686  -3.713  1.00 20.00     0.084 A 
HETATM    2  C3  UNL     1     -34.411  15.758  -4.087  1.00 20.00     0.018 A 
HETATM    3  C4  UNL     1     -35.562  16.096  -3.161  1.00 20.00     0.048 A 
HETATM    4  C6  UNL     1     -32.998  15.657  -3.621  1.00 20.00     0.012 C 
HETATM    5  C7  UNL     1     -36.643  17.003  -3.675  1.00 20.00     0.034 C 
HETATM    6 CL9  UNL     1     -35.245  16.289  -1.419  1.00 20.00    -0.118 Cl
ENDROOT
BRANCH   1   7
HETATM    7  C1  UNL     1     -36.327  14.175  -4.737  1.00 20.00     0.129 C 
HETATM    8  C5  UNL     1     -35.906  14.342  -6.171  1.00 20.00     0.091 C 
HETATM    9  O8  UNL     1     -37.391  13.636  -4.436  1.00 20.00    -0.298 OA
ENDBRANCH   1   7
TORSDOF 1
ENDMDL
MODEL 3
REMARK VINA RESULT:      -3.8     17.804     18.923
REMARK  1 active torsions:
REMARK  status: ('A' for Active; 'I' for Inactive)
REMARK    1  A    between atoms: C1_1  and  C2_2 
ROOT
HETATM    1  C2  UNL     1     -34.962  14.769  -4.760  1.00 20.00     0.084 A 
HETATM    2  C3  UNL     1     -35.259  16.247  -4.847  1.00 20.00     0.018 A 
HETATM    3  C4  UNL     1     -34.499  15.705  -3.653  1.00 20.00     0.048 A 
HETATM    4  C6  UNL     1     -34.618  17.072  -5.911  1.00 20.00     0.012 C 
HETATM    5  C7  UNL     1     -35.184  15.707  -2.317  1.00 20.00     0.034 C 
HETATM    6 CL9  UNL     1     -32.742  15.976  -3.548  1.00 20.00    -0.118 Cl
ENDROOT
BRANCH   1   7
HETATM    7  C1  UNL     1     -36.069  13.829  -4.533  1.00 20.00     0.129 C 
HETATM    8  C5  UNL     1     -37.455  14.411  -4.493  1.00 20.00     0.091 C 
HETATM    9  O8  UNL     1     -35.870  12.624  -4.385  1.00 20.00    -0.298 OA
ENDBRANCH   1   7
TORSDOF 1
ENDMDL
MODEL 4
REMARK VINA RESULT:      -3.8     17.374     18.576
REMARK  1 active torsions:
REMARK  status: ('A' for Active; 'I' for Inactive)
REMARK    1  A    between atoms: C1_1  and  C2_2 
ROOT
HETATM    1  C2  UNL     1     -35.177  15.581  -4.247  1.00 20.00     0.084 A 
HETATM    2  C3  UNL     1     -34.742  15.353  -2.820  1.00 20.00     0.018 A 
HETATM    3  C4  UNL     1     -33.719  15.769  -3.858  1.00 20.00     0.048 A 
HETATM    4  C6  UNL     1     -35.221  16.263  -1.741  1.00 20.00     0.012 C 
HETATM    5  C7  UNL     1     -32.681  14.766  -4.273  1.00 20.00     0.034 C 
HETATM    6 CL9  UNL     1     -33.123  17.447  -3.861  1.00 20.00    -0.118 Cl
ENDROOT
BRANCH   1   7
HETATM    7  C1  UNL     1     -35.595  14.432  -5.062  1.00 20.00     0.129 C 
HETATM    8  C5  UNL     1     -35.686  14.652  -6.548  1.00 20.00     0.091 C 
HETATM    9  O8  UNL     1     -35.855  13.343  -4.554  1.00 20.00    -0.298 OA
ENDBRANCH   1   7
TORSDOF 1
ENDMDL
MODEL 5
REMARK VINA RESULT:      -3.8     18.361     19.525
REMARK  1 active torsions:
REMARK  status: ('A' for Active; 'I' for Inactive)
REMARK    1  A    between atoms: C1_1  and  C2_2 
ROOT
HETATM    1  C2  UNL     1     -35.461  15.146  -4.311  1.00 20.00     0.084 A 
HETATM    2  C3  UNL     1     -33.990  14.891  -4.529  1.00 20.00     0.018 A 
HETATM    3  C4  UNL     1     -34.772  15.683  -5.557  1.00 20.00     0.048 A 
HETATM    4  C6  UNL     1     -32.984  15.511  -3.619  1.00 20.00     0.012 C 
HETATM    5  C7  UNL     1     -35.020  15.054  -6.898  1.00 20.00     0.034 C 
HETATM    6 CL9  UNL     1     -34.564  17.450  -5.631  1.00 20.00    -0.118 Cl
ENDROOT
BRANCH   1   7
HETATM    7  C1  UNL     1     -36.404  14.023  -4.399  1.00 20.00     0.129 C 
HETATM    8  C5  UNL     1     -37.869  14.361  -4.340  1.00 20.00     0.091 C 
HETATM    9  O8  UNL     1     -36.015  12.863  -4.517  1.00 20.00    -0.298 OA
ENDBRANCH   1   7
TORSDOF 1
ENDMDL
MODEL 6
REMARK VINA RESULT:      -3.8      2.462      3.419
REMARK  1 active torsions:
REMARK  status: ('A' for Active; 'I' for Inactive)
REMARK    1  A    between atoms: C1_1  and  C2_2 
ROOT
HETATM    1  C2  UNL     1     -24.128  18.888   9.963  1.00 20.00     0.084 A 
HETATM    2  C3  UNL     1     -25.324  18.411  10.751  1.00 20.00     0.018 A 
HETATM    3  C4  UNL     1     -24.008  17.669  10.867  1.00 20.00     0.048 A 
HETATM    4  C6  UNL     1     -25.879  19.257  11.848  1.00 20.00     0.012 C 
HETATM    5  C7  UNL     1     -23.919  16.289  10.280  1.00 20.00     0.034 C 
HETATM    6 CL9  UNL     1     -23.020  17.881  12.332  1.00 20.00    -0.118 Cl
ENDROOT
BRANCH   1   7
HETATM    7  C1  UNL     1     -24.129  18.742   8.501  1.00 20.00     0.129 C 
HETATM    8  C5  UNL     1     -25.455  18.889   7.806  1.00 20.00     0.091 C 
HETATM    9  O8  UNL     1     -23.095  18.511   7.876  1.00 20.00    -0.298 OA
ENDBRANCH   1   7
TORSDOF 1
ENDMDL
MODEL 7
REMARK VINA RESULT:      -3.8     17.186     18.395
REMARK  1 active torsions:
REMARK  status: ('A' for Active; 'I' for Inactive)
REMARK    1  A    between atoms: C1_1  and  C2_2 
ROOT
HETATM    1  C2  UNL     1     -34.158  15.225  -3.714  1.00 20.00     0.084 A 
HETATM    2  C3  UNL     1     -35.570  14.995  -4.195  1.00 20.00     0.018 A 
HETATM    3  C4  UNL     1     -34.589  15.736  -5.081  1.00 20.00     0.048 A 
HETATM    4  C6  UNL     1     -36.042  13.610  -4.486  1.00 20.00     0.012 C 
HETATM    5  C7  UNL     1     -34.812  17.203  -5.313  1.00 20.00     0.034 C 
HETATM    6 CL9  UNL     1     -33.884  14.896  -6.483  1.00 20.00    -0.118 Cl
ENDROOT
BRANCH   1   7
HETATM    7  C1  UNL     1     -33.922  16.158  -2.604  1.00 20.00     0.129 C 
HETATM    8  C5  UNL     1     -35.058  16.363  -1.638  1.00 20.00     0.091 C 
HETATM    9  O8  UNL     1     -32.848  16.742  -2.470  1.00 20.00    -0.298 OA
ENDBRANCH   1   7
TORSDOF 1
ENDMDL
MODEL 8
REMARK VINA RESULT:      -3.8     17.288     18.502
REMARK  1 active torsions:
REMARK  status: ('A' for Active; 'I' for Inactive)
REMARK    1  A    between atoms: C1_1  and  C2_2 
ROOT
HETATM    1  C2  UNL     1     -34.836  15.405  -3.542  1.00 20.00     0.084 A 
HETATM    2  C3  UNL     1     -33.503  16.112  -3.566  1.00 20.00     0.018 A 
HETATM    3  C4  UNL     1     -34.615  16.581  -4.482  1.00 20.00     0.048 A 
HETATM    4  C6  UNL     1     -33.050  16.887  -2.375  1.00 20.00     0.012 C 
HETATM    5  C7  UNL     1     -34.458  16.361  -5.959  1.00 20.00     0.034 C 
HETATM    6 CL9  UNL     1     -35.497  18.075  -4.079  1.00 20.00    -0.118 Cl
ENDROOT
BRANCH   1   7
HETATM    7  C1  UNL     1     -34.930  14.034  -4.064  1.00 20.00     0.129 C 
HETATM    8  C5  UNL     1     -36.288  13.575  -4.521  1.00 20.00     0.091 C 
HETATM    9  O8  UNL     1     -33.946  13.300  -4.126  1.00 20.00    -0.298 OA
ENDBRANCH   1   7
TORSDOF 1
ENDMDL
MODEL 9
REMARK VINA RESULT:      -3.7     16.644     17.931
REMARK  1 active torsions:
REMARK  status: ('A' for Active; 'I' for Inactive)
REMARK    1  A    between atoms: C1_1  and  C2_2 
ROOT
HETATM    1  C2  UNL     1     -34.083  15.397  -3.083  1.00 20.00     0.084 A 
HETATM    2  C3  UNL     1     -33.904  16.865  -3.387  1.00 20.00     0.018 A 
HETATM    3  C4  UNL     1     -35.156  16.396  -2.673  1.00 20.00     0.048 A 
HETATM    4  C6  UNL     1     -32.825  17.639  -2.710  1.00 20.00     0.012 C 
HETATM    5  C7  UNL     1     -36.461  16.462  -3.412  1.00 20.00     0.034 C 
HETATM    6 CL9  UNL     1     -35.317  16.690  -0.924  1.00 20.00    -0.118 Cl
ENDROOT
BRANCH   1   7
HETATM    7  C1  UNL     1     -34.315  14.459  -4.190  1.00 20.00     0.129 C 
HETATM    8  C5  UNL     1     -33.903  14.917  -5.563  1.00 20.00     0.091 C 
HETATM    9  O8  UNL     1     -34.820  13.354  -4.003  1.00 20.00    -0.298 OA
ENDBRANCH   1   7
TORSDOF 1
ENDMDL
