MODEL 1
REMARK VINA RESULT:      -4.1      0.000      0.000
REMARK  0 active torsions:
REMARK  status: ('A' for Active; 'I' for Inactive)
ROOT
HETATM    1  C1  UNL     1     -36.311  13.852  -4.763  1.00 20.00     0.459 C 
HETATM    2  C2  UNL     1     -35.185  15.204  -6.205  1.00 20.00     0.090 C 
HETATM    3  C3  UNL     1     -34.713  15.470  -4.761  1.00 20.00     0.090 C 
HETATM    4  C4  UNL     1     -34.069  15.130  -7.245  1.00 20.00     0.049 C 
HETATM    5  C5  UNL     1     -36.269  16.176  -6.701  1.00 20.00     0.049 C 
HETATM    6  C6  UNL     1     -33.437  14.707  -4.365  1.00 20.00     0.049 C 
HETATM    7  C7  UNL     1     -34.539  16.945  -4.400  1.00 20.00     0.049 C 
HETATM    8  O8  UNL     1     -35.803  13.907  -6.096  1.00 20.00    -0.322 OA
HETATM    9  O9  UNL     1     -35.795  14.930  -3.979  1.00 20.00    -0.322 OA
HETATM   10  F10 UNL     1     -35.887  12.689  -4.205  1.00 20.00    -0.189 F 
ENDROOT
TORSDOF 0
ENDMDL
MODEL 2
REMARK VINA RESULT:      -4.0      0.718      2.735
REMARK  0 active torsions:
REMARK  status: ('A' for Active; 'I' for Inactive)
ROOT
HETATM    1  C1  UNL     1     -36.232  13.707  -4.581  1.00 20.00     0.459 C 
HETATM    2  C2  UNL     1     -34.589  15.278  -4.618  1.00 20.00     0.090 C 
HETATM    3  C3  UNL     1     -35.220  15.148  -6.020  1.00 20.00     0.090 C 
HETATM    4  C4  UNL     1     -34.333  16.712  -4.157  1.00 20.00     0.049 C 
HETATM    5  C5  UNL     1     -33.304  14.454  -4.429  1.00 20.00     0.049 C 
HETATM    6  C6  UNL     1     -36.318  16.184  -6.314  1.00 20.00     0.049 C 
HETATM    7  C7  UNL     1     -34.223  15.140  -7.178  1.00 20.00     0.049 C 
HETATM    8  O8  UNL     1     -35.592  14.691  -3.769  1.00 20.00    -0.322 OA
HETATM    9  O9  UNL     1     -35.855  13.858  -5.951  1.00 20.00    -0.322 OA
HETATM   10  F10 UNL     1     -37.573  13.902  -4.492  1.00 20.00    -0.189 F 
ENDROOT
TORSDOF 0
ENDMDL
MODEL 3
REMARK VINA RESULT:      -4.0      1.348      2.615
REMARK  0 active torsions:
REMARK  status: ('A' for Active; 'I' for Inactive)
ROOT
HETATM    1  C1  UNL     1     -36.154  14.151  -4.105  1.00 20.00     0.459 C 
HETATM    2  C2  UNL     1     -34.797  15.965  -3.903  1.00 20.00     0.090 C 
HETATM    3  C3  UNL     1     -34.072  14.854  -4.690  1.00 20.00     0.090 C 
HETATM    4  C4  UNL     1     -34.635  17.372  -4.474  1.00 20.00     0.049 C 
HETATM    5  C5  UNL     1     -34.461  15.992  -2.402  1.00 20.00     0.049 C 
HETATM    6  C6  UNL     1     -34.165  15.003  -6.218  1.00 20.00     0.049 C 
HETATM    7  C7  UNL     1     -32.610  14.636  -4.301  1.00 20.00     0.049 C 
HETATM    8  O8  UNL     1     -36.179  15.576  -4.016  1.00 20.00    -0.322 OA
HETATM    9  O9  UNL     1     -34.823  13.680  -4.327  1.00 20.00    -0.322 OA
HETATM   10  F10 UNL     1     -36.910  13.788  -5.173  1.00 20.00    -0.189 F 
ENDROOT
TORSDOF 0
ENDMDL
MODEL 4
REMARK VINA RESULT:      -3.9      1.746      3.130
REMARK  0 active torsions:
REMARK  status: ('A' for Active; 'I' for Inactive)
ROOT
HETATM    1  C1  UNL     1     -32.960  14.618  -4.619  1.00 20.00     0.459 C 
HETATM    2  C2  UNL     1     -34.658  15.954  -3.910  1.00 20.00     0.090 C 
HETATM    3  C3  UNL     1     -35.188  14.937  -4.943  1.00 20.00     0.090 C 
HETATM    4  C4  UNL     1     -35.552  16.158  -2.688  1.00 20.00     0.049 C 
HETATM    5  C5  UNL     1     -34.303  17.327  -4.506  1.00 20.00     0.049 C 
HETATM    6  C6  UNL     1     -35.820  13.680  -4.320  1.00 20.00     0.049 C 
HETATM    7  C7  UNL     1     -36.150  15.513  -5.981  1.00 20.00     0.049 C 
HETATM    8  O8  UNL     1     -33.423  15.349  -3.484  1.00 20.00    -0.322 OA
HETATM    9  O9  UNL     1     -33.982  14.523  -5.612  1.00 20.00    -0.322 OA
HETATM   10  F10 UNL     1     -32.659  13.359  -4.207  1.00 20.00    -0.189 F 
ENDROOT
TORSDOF 0
ENDMDL
MODEL 5
REMARK VINA RESULT:      -3.9      1.258      1.784
REMARK  0 active torsions:
REMARK  status: ('A' for Active; 'I' for Inactive)
ROOT
HETATM    1  C1  UNL     1     -36.492  14.441  -5.050  1.00 20.00     0.459 C 
HETATM    2  C2  UNL     1     -34.258  14.868  -5.086  1.00 20.00     0.090 C 
HETATM    3  C3  UNL     1     -34.992  15.982  -4.311  1.00 20.00     0.090 C 
HETATM    4  C4  UNL     1     -32.965  14.377  -4.439  1.00 20.00     0.049 C 
HETATM    5  C5  UNL     1     -33.984  15.205  -6.562  1.00 20.00     0.049 C 
HETATM    6  C6  UNL     1     -35.004  15.785  -2.785  1.00 20.00     0.049 C 
HETATM    7  C7  UNL     1     -34.521  17.403  -4.623  1.00 20.00     0.049 C 
HETATM    8  O8  UNL     1     -35.218  13.795  -5.072  1.00 20.00    -0.322 OA
HETATM    9  O9  UNL     1     -36.348  15.835  -4.773  1.00 20.00    -0.322 OA
HETATM   10  F10 UNL     1     -37.221  13.888  -4.046  1.00 20.00    -0.189 F 
ENDROOT
TORSDOF 0
ENDMDL
MODEL 6
REMARK VINA RESULT:      -3.8     10.339     12.019
REMARK  0 active torsions:
REMARK  status: ('A' for Active; 'I' for Inactive)
ROOT
HETATM    1  C1  UNL     1     -40.757   7.916  -0.479  1.00 20.00     0.459 C 
HETATM    2  C2  UNL     1     -42.096   6.159  -1.018  1.00 20.00     0.090 C 
HETATM    3  C3  UNL     1     -42.220   6.468   0.488  1.00 20.00     0.090 C 
HETATM    4  C4  UNL     1     -43.417   5.872  -1.729  1.00 20.00     0.049 C 
HETATM    5  C5  UNL     1     -41.095   5.038  -1.349  1.00 20.00     0.049 C 
HETATM    6  C6  UNL     1     -43.417   7.364   0.850  1.00 20.00     0.049 C 
HETATM    7  C7  UNL     1     -42.224   5.242   1.401  1.00 20.00     0.049 C 
HETATM    8  O8  UNL     1     -41.545   7.381  -1.543  1.00 20.00    -0.322 OA
HETATM    9  O9  UNL     1     -41.024   7.228   0.745  1.00 20.00    -0.322 OA
HETATM   10  F10 UNL     1     -41.111   9.217  -0.313  1.00 20.00    -0.189 F 
ENDROOT
TORSDOF 0
ENDMDL
MODEL 7
REMARK VINA RESULT:      -3.8      1.895      2.664
REMARK  0 active torsions:
REMARK  status: ('A' for Active; 'I' for Inactive)
ROOT
HETATM    1  C1  UNL     1     -33.374  14.582  -4.850  1.00 20.00     0.459 C 
HETATM    2  C2  UNL     1     -35.257  15.646  -5.551  1.00 20.00     0.090 C 
HETATM    3  C3  UNL     1     -35.561  14.828  -4.279  1.00 20.00     0.090 C 
HETATM    4  C4  UNL     1     -35.865  17.047  -5.579  1.00 20.00     0.049 C 
HETATM    5  C5  UNL     1     -35.608  14.921  -6.862  1.00 20.00     0.049 C 
HETATM    6  C6  UNL     1     -35.497  15.645  -2.976  1.00 20.00     0.049 C 
HETATM    7  C7  UNL     1     -36.875  14.049  -4.311  1.00 20.00     0.049 C 
HETATM    8  O8  UNL     1     -33.823  15.766  -5.510  1.00 20.00    -0.322 OA
HETATM    9  O9  UNL     1     -34.470  13.889  -4.250  1.00 20.00    -0.322 OA
HETATM   10  F10 UNL     1     -32.522  14.955  -3.860  1.00 20.00    -0.189 F 
ENDROOT
TORSDOF 0
ENDMDL
MODEL 8
REMARK VINA RESULT:      -3.8      1.996      2.716
REMARK  0 active torsions:
REMARK  status: ('A' for Active; 'I' for Inactive)
ROOT
HETATM    1  C1  UNL     1     -34.461  15.187  -6.994  1.00 20.00     0.459 C 
HETATM    2  C2  UNL     1     -34.748  16.525  -5.177  1.00 20.00     0.090 C 
HETATM    3  C3  UNL     1     -34.519  15.069  -4.723  1.00 20.00     0.090 C 
HETATM    4  C4  UNL     1     -33.991  17.579  -4.372  1.00 20.00     0.049 C 
HETATM    5  C5  UNL     1     -36.229  16.930  -5.264  1.00 20.00     0.049 C 
HETATM    6  C6  UNL     1     -33.061  14.749  -4.348  1.00 20.00     0.049 C 
HETATM    7  C7  UNL     1     -35.436  14.592  -3.598  1.00 20.00     0.049 C 
HETATM    8  O8  UNL     1     -34.236  16.516  -6.523  1.00 20.00    -0.322 OA
HETATM    9  O9  UNL     1     -34.827  14.324  -5.916  1.00 20.00    -0.322 OA
HETATM   10  F10 UNL     1     -33.295  14.729  -7.518  1.00 20.00    -0.189 F 
ENDROOT
TORSDOF 0
ENDMDL
MODEL 9
REMARK VINA RESULT:      -3.7      2.069      2.811
REMARK  0 active torsions:
REMARK  status: ('A' for Active; 'I' for Inactive)
ROOT
HETATM    1  C1  UNL     1     -34.808  16.535  -2.976  1.00 20.00     0.459 C 
HETATM    2  C2  UNL     1     -35.765  15.052  -4.410  1.00 20.00     0.090 C 
HETATM    3  C3  UNL     1     -34.354  15.426  -4.909  1.00 20.00     0.090 C 
HETATM    4  C4  UNL     1     -36.108  13.566  -4.497  1.00 20.00     0.049 C 
HETATM    5  C5  UNL     1     -36.897  15.866  -5.060  1.00 20.00     0.049 C 
HETATM    6  C6  UNL     1     -33.256  14.430  -4.496  1.00 20.00     0.049 C 
HETATM    7  C7  UNL     1     -34.249  15.685  -6.411  1.00 20.00     0.049 C 
HETATM    8  O8  UNL     1     -35.717  15.435  -3.023  1.00 20.00    -0.322 OA
HETATM    9  O9  UNL     1     -34.099  16.659  -4.210  1.00 20.00    -0.322 OA
HETATM   10  F10 UNL     1     -33.902  16.284  -1.996  1.00 20.00    -0.189 F 
ENDROOT
TORSDOF 0
ENDMDL
