MODEL 1
REMARK VINA RESULT:      -4.9      0.000      0.000
REMARK  2 active torsions:
REMARK  status: ('A' for Active; 'I' for Inactive)
REMARK    1  A    between atoms: C3_3  and  C4_4 
REMARK    2  A    between atoms: C3_3  and  O10_10 
ROOT
HETATM    1  C1  UNL     1     -34.765  15.036  -3.378  1.00 20.00    -0.065 A 
HETATM    2  C2  UNL     1     -35.054  15.766  -2.323  1.00 20.00    -0.027 C 
HETATM    3  C4  UNL     1     -35.104  13.903  -4.152  1.00 20.00     0.122 A 
HETATM    4  C5  UNL     1     -33.908  14.868  -4.484  1.00 20.00     0.029 A 
HETATM    5  C6  UNL     1     -34.302  16.999  -1.903  1.00 20.00     0.036 C 
HETATM    6  C7  UNL     1     -32.505  14.406  -4.312  1.00 20.00     0.016 C 
ENDROOT
BRANCH   3   7
HETATM    7  C3  UNL     1     -36.340  14.010  -4.927  1.00 20.00     0.267 C 
HETATM    8  O9  UNL     1     -36.376  14.210  -6.134  1.00 20.00    -0.265 OA
BRANCH   7   9
HETATM    9  O10 UNL     1     -37.412  13.851  -4.101  1.00 20.00    -0.326 OA
HETATM   10  C8  UNL     1     -38.447  14.831  -4.241  1.00 20.00     0.213 C 
ENDBRANCH   7   9
ENDBRANCH   3   7
TORSDOF 2
ENDMDL
MODEL 2
REMARK VINA RESULT:      -4.6      0.973      2.299
REMARK  2 active torsions:
REMARK  status: ('A' for Active; 'I' for Inactive)
REMARK    1  A    between atoms: C3_3  and  C4_4 
REMARK    2  A    between atoms: C3_3  and  O10_10 
ROOT
HETATM    1  C1  UNL     1     -34.496  14.861  -4.094  1.00 20.00    -0.065 A 
HETATM    2  C2  UNL     1     -33.389  14.685  -4.781  1.00 20.00    -0.027 C 
HETATM    3  C4  UNL     1     -35.904  14.969  -4.143  1.00 20.00     0.122 A 
HETATM    4  C5  UNL     1     -35.061  15.071  -2.819  1.00 20.00     0.029 A 
HETATM    5  C6  UNL     1     -32.008  14.648  -4.185  1.00 20.00     0.036 C 
HETATM    6  C7  UNL     1     -34.925  16.375  -2.119  1.00 20.00     0.016 C 
ENDROOT
BRANCH   3   7
HETATM    7  C3  UNL     1     -36.627  13.730  -4.432  1.00 20.00     0.267 C 
HETATM    8  O9  UNL     1     -36.084  12.656  -4.651  1.00 20.00    -0.265 OA
BRANCH   7   9
HETATM    9  O10 UNL     1     -37.968  13.969  -4.414  1.00 20.00    -0.326 OA
HETATM   10  C8  UNL     1     -38.347  15.346  -4.316  1.00 20.00     0.213 C 
ENDBRANCH   7   9
ENDBRANCH   3   7
TORSDOF 2
ENDMDL
MODEL 3
REMARK VINA RESULT:      -4.6      0.814      1.521
REMARK  2 active torsions:
REMARK  status: ('A' for Active; 'I' for Inactive)
REMARK    1  A    between atoms: C3_3  and  C4_4 
REMARK    2  A    between atoms: C3_3  and  O10_10 
ROOT
HETATM    1  C1  UNL     1     -34.713  15.048  -3.276  1.00 20.00    -0.065 A 
HETATM    2  C2  UNL     1     -35.025  15.788  -2.235  1.00 20.00    -0.027 C 
HETATM    3  C4  UNL     1     -34.985  13.865  -4.000  1.00 20.00     0.122 A 
HETATM    4  C5  UNL     1     -33.880  14.908  -4.404  1.00 20.00     0.029 A 
HETATM    5  C6  UNL     1     -34.361  17.091  -1.881  1.00 20.00     0.036 C 
HETATM    6  C7  UNL     1     -32.440  14.563  -4.265  1.00 20.00     0.016 C 
ENDROOT
BRANCH   3   7
HETATM    7  C3  UNL     1     -36.250  13.848  -4.736  1.00 20.00     0.267 C 
HETATM    8  O9  UNL     1     -37.350  13.938  -4.209  1.00 20.00    -0.265 OA
BRANCH   7   9
HETATM    9  O10 UNL     1     -36.000  13.720  -6.070  1.00 20.00    -0.326 OA
HETATM   10  C8  UNL     1     -36.076  14.931  -6.829  1.00 20.00     0.213 C 
ENDBRANCH   7   9
ENDBRANCH   3   7
TORSDOF 2
ENDMDL
MODEL 4
REMARK VINA RESULT:      -4.3     10.868     11.544
REMARK  2 active torsions:
REMARK  status: ('A' for Active; 'I' for Inactive)
REMARK    1  A    between atoms: C3_3  and  C4_4 
REMARK    2  A    between atoms: C3_3  and  O10_10 
ROOT
HETATM    1  C1  UNL     1     -33.810   5.887   3.539  1.00 20.00    -0.065 A 
HETATM    2  C2  UNL     1     -34.516   6.158   4.614  1.00 20.00    -0.027 C 
HETATM    3  C4  UNL     1     -33.336   6.361   2.295  1.00 20.00     0.122 A 
HETATM    4  C5  UNL     1     -33.028   4.927   2.864  1.00 20.00     0.029 A 
HETATM    5  C6  UNL     1     -34.729   5.207   5.761  1.00 20.00     0.036 C 
HETATM    6  C7  UNL     1     -33.647   3.727   2.240  1.00 20.00     0.016 C 
ENDROOT
BRANCH   3   7
HETATM    7  C3  UNL     1     -32.297   7.389   2.361  1.00 20.00     0.267 C 
HETATM    8  O9  UNL     1     -31.716   7.711   3.388  1.00 20.00    -0.265 OA
BRANCH   7   9
HETATM    9  O10 UNL     1     -32.092   7.911   1.118  1.00 20.00    -0.326 OA
HETATM   10  C8  UNL     1     -32.945   9.004   0.762  1.00 20.00     0.213 C 
ENDBRANCH   7   9
ENDBRANCH   3   7
TORSDOF 2
ENDMDL
MODEL 5
REMARK VINA RESULT:      -4.3      1.840      2.872
REMARK  2 active torsions:
REMARK  status: ('A' for Active; 'I' for Inactive)
REMARK    1  A    between atoms: C3_3  and  C4_4 
REMARK    2  A    between atoms: C3_3  and  O10_10 
ROOT
HETATM    1  C1  UNL     1     -33.848  16.409  -2.944  1.00 20.00    -0.065 A 
HETATM    2  C2  UNL     1     -32.756  17.139  -2.878  1.00 20.00    -0.027 C 
HETATM    3  C4  UNL     1     -34.669  15.595  -3.755  1.00 20.00     0.122 A 
HETATM    4  C5  UNL     1     -34.975  15.926  -2.249  1.00 20.00     0.029 A 
HETATM    5  C6  UNL     1     -32.287  17.869  -1.649  1.00 20.00     0.036 C 
HETATM    6  C7  UNL     1     -36.108  16.823  -1.896  1.00 20.00     0.016 C 
ENDROOT
BRANCH   3   7
HETATM    7  C3  UNL     1     -34.123  14.282  -4.098  1.00 20.00     0.267 C 
HETATM    8  O9  UNL     1     -32.948  14.080  -4.374  1.00 20.00    -0.265 OA
BRANCH   7   9
HETATM    9  O10 UNL     1     -35.116  13.349  -4.056  1.00 20.00    -0.326 OA
HETATM   10  C8  UNL     1     -36.326  13.708  -4.731  1.00 20.00     0.213 C 
ENDBRANCH   7   9
ENDBRANCH   3   7
TORSDOF 2
ENDMDL
MODEL 6
REMARK VINA RESULT:      -4.3      1.779      2.278
REMARK  2 active torsions:
REMARK  status: ('A' for Active; 'I' for Inactive)
REMARK    1  A    between atoms: C3_3  and  C4_4 
REMARK    2  A    between atoms: C3_3  and  O10_10 
ROOT
HETATM    1  C1  UNL     1     -35.237  15.873  -4.799  1.00 20.00    -0.065 A 
HETATM    2  C2  UNL     1     -35.479  16.731  -5.765  1.00 20.00    -0.027 C 
HETATM    3  C4  UNL     1     -35.791  14.965  -3.869  1.00 20.00     0.122 A 
HETATM    4  C5  UNL     1     -34.252  15.256  -4.002  1.00 20.00     0.029 A 
HETATM    5  C6  UNL     1     -34.424  17.514  -6.499  1.00 20.00     0.036 C 
HETATM    6  C7  UNL     1     -33.539  16.008  -2.934  1.00 20.00     0.016 C 
ENDROOT
BRANCH   3   7
HETATM    7  C3  UNL     1     -36.332  13.728  -4.434  1.00 20.00     0.267 C 
HETATM    8  O9  UNL     1     -35.745  12.654  -4.418  1.00 20.00    -0.265 OA
BRANCH   7   9
HETATM    9  O10 UNL     1     -37.564  13.968  -4.965  1.00 20.00    -0.326 OA
HETATM   10  C8  UNL     1     -38.446  14.743  -4.147  1.00 20.00     0.213 C 
ENDBRANCH   7   9
ENDBRANCH   3   7
TORSDOF 2
ENDMDL
MODEL 7
REMARK VINA RESULT:      -4.2      1.778      2.487
REMARK  2 active torsions:
REMARK  status: ('A' for Active; 'I' for Inactive)
REMARK    1  A    between atoms: C3_3  and  C4_4 
REMARK    2  A    between atoms: C3_3  and  O10_10 
ROOT
HETATM    1  C1  UNL     1     -34.224  16.309  -2.724  1.00 20.00    -0.065 A 
HETATM    2  C2  UNL     1     -35.012  16.215  -1.675  1.00 20.00    -0.027 C 
HETATM    3  C4  UNL     1     -33.325  15.637  -3.582  1.00 20.00     0.122 A 
HETATM    4  C5  UNL     1     -33.716  17.152  -3.732  1.00 20.00     0.029 A 
HETATM    5  C6  UNL     1     -35.833  17.345  -1.116  1.00 20.00     0.036 C 
HETATM    6  C7  UNL     1     -32.721  18.215  -3.424  1.00 20.00     0.016 C 
ENDROOT
BRANCH   3   7
HETATM    7  C3  UNL     1     -33.924  14.655  -4.486  1.00 20.00     0.267 C 
HETATM    8  O9  UNL     1     -33.624  14.540  -5.667  1.00 20.00    -0.265 OA
BRANCH   7   9
HETATM    9  O10 UNL     1     -34.844  13.912  -3.809  1.00 20.00    -0.326 OA
HETATM   10  C8  UNL     1     -36.068  13.661  -4.509  1.00 20.00     0.213 C 
ENDBRANCH   7   9
ENDBRANCH   3   7
TORSDOF 2
ENDMDL
MODEL 8
REMARK VINA RESULT:      -4.1      2.016      2.940
REMARK  2 active torsions:
REMARK  status: ('A' for Active; 'I' for Inactive)
REMARK    1  A    between atoms: C3_3  and  C4_4 
REMARK    2  A    between atoms: C3_3  and  O10_10 
ROOT
HETATM    1  C1  UNL     1     -34.342  16.339  -2.562  1.00 20.00    -0.065 A 
HETATM    2  C2  UNL     1     -35.039  16.302  -1.447  1.00 20.00    -0.027 C 
HETATM    3  C4  UNL     1     -33.546  15.610  -3.474  1.00 20.00     0.122 A 
HETATM    4  C5  UNL     1     -33.894  17.136  -3.634  1.00 20.00     0.029 A 
HETATM    5  C6  UNL     1     -35.767  17.476  -0.853  1.00 20.00     0.036 C 
HETATM    6  C7  UNL     1     -32.839  18.167  -3.443  1.00 20.00     0.016 C 
ENDROOT
BRANCH   3   7
HETATM    7  C3  UNL     1     -34.256  14.629  -4.295  1.00 20.00     0.267 C 
HETATM    8  O9  UNL     1     -35.317  14.109  -3.976  1.00 20.00    -0.265 OA
BRANCH   7   9
HETATM    9  O10 UNL     1     -33.556  14.401  -5.442  1.00 20.00    -0.326 OA
HETATM   10  C8  UNL     1     -34.076  15.033  -6.616  1.00 20.00     0.213 C 
ENDBRANCH   7   9
ENDBRANCH   3   7
TORSDOF 2
ENDMDL
MODEL 9
REMARK VINA RESULT:      -3.9      1.805      2.808
REMARK  2 active torsions:
REMARK  status: ('A' for Active; 'I' for Inactive)
REMARK    1  A    between atoms: C3_3  and  C4_4 
REMARK    2  A    between atoms: C3_3  and  O10_10 
ROOT
HETATM    1  C1  UNL     1     -35.459  16.013  -3.311  1.00 20.00    -0.065 A 
HETATM    2  C2  UNL     1     -34.712  16.132  -2.235  1.00 20.00    -0.027 C 
HETATM    3  C4  UNL     1     -35.519  15.589  -4.658  1.00 20.00     0.122 A 
HETATM    4  C5  UNL     1     -36.729  16.229  -3.883  1.00 20.00     0.029 A 
HETATM    5  C6  UNL     1     -35.181  16.709  -0.927  1.00 20.00     0.036 C 
HETATM    6  C7  UNL     1     -37.198  17.597  -4.229  1.00 20.00     0.016 C 
ENDROOT
BRANCH   3   7
HETATM    7  C3  UNL     1     -35.496  14.142  -4.870  1.00 20.00     0.267 C 
HETATM    8  O9  UNL     1     -35.102  13.334  -4.040  1.00 20.00    -0.265 OA
BRANCH   7   9
HETATM    9  O10 UNL     1     -35.977  13.855  -6.113  1.00 20.00    -0.326 OA
HETATM   10  C8  UNL     1     -35.668  14.815  -7.128  1.00 20.00     0.213 C 
ENDBRANCH   7   9
ENDBRANCH   3   7
TORSDOF 2
ENDMDL
