MODEL 1
REMARK VINA RESULT:      -4.4      0.000      0.000
REMARK  2 active torsions:
REMARK  status: ('A' for Active; 'I' for Inactive)
REMARK    1  A    between atoms: C3_3  and  C7_7 
REMARK    2  A    between atoms: C6_6  and  O11_11 
ROOT
HETATM    1  C1  UNL     1     -34.122  16.256  -2.297  1.00 20.00    -0.028 C 
HETATM    2  C2  UNL     1     -35.457  16.223  -2.394  1.00 20.00     0.002 C 
HETATM    3  C4  UNL     1     -33.205  15.827  -3.400  1.00 20.00     0.028 C 
HETATM    4  C5  UNL     1     -33.917  15.622  -4.744  1.00 20.00     0.023 C 
HETATM    5  C6  UNL     1     -36.189  15.720  -3.608  1.00 20.00     0.158 C 
HETATM    6  C7  UNL     1     -35.287  14.931  -4.592  1.00 20.00     0.039 C 
HETATM    7  C8  UNL     1     -35.947  14.780  -5.972  1.00 20.00     0.026 C 
ENDROOT
BRANCH   6   8
HETATM    8  C3  UNL     1     -35.084  13.524  -4.076  1.00 20.00     0.243 C 
HETATM    9  O10 UNL     1     -35.769  12.569  -4.427  1.00 20.00    -0.306 OA
ENDBRANCH   6   8
BRANCH   5  10
HETATM   10  O11 UNL     1     -36.776  16.844  -4.264  1.00 20.00    -0.386 OA
HETATM   11  C9  UNL     1     -37.720  17.494  -3.429  1.00 20.00     0.202 C 
ENDBRANCH   5  10
TORSDOF 2
ENDMDL
MODEL 2
REMARK VINA RESULT:      -4.2      1.147      1.219
REMARK  2 active torsions:
REMARK  status: ('A' for Active; 'I' for Inactive)
REMARK    1  A    between atoms: C3_3  and  C7_7 
REMARK    2  A    between atoms: C6_6  and  O11_11 
ROOT
HETATM    1  C1  UNL     1     -35.197  16.269  -2.601  1.00 20.00    -0.028 C 
HETATM    2  C2  UNL     1     -36.235  16.678  -3.342  1.00 20.00     0.002 C 
HETATM    3  C4  UNL     1     -34.161  15.308  -3.095  1.00 20.00     0.028 C 
HETATM    4  C5  UNL     1     -34.229  15.058  -4.607  1.00 20.00     0.023 C 
HETATM    5  C6  UNL     1     -36.499  16.192  -4.740  1.00 20.00     0.158 C 
HETATM    6  C7  UNL     1     -35.676  14.937  -5.126  1.00 20.00     0.039 C 
HETATM    7  C8  UNL     1     -35.663  14.708  -6.645  1.00 20.00     0.026 C 
ENDROOT
BRANCH   6   8
HETATM    8  C3  UNL     1     -36.320  13.705  -4.530  1.00 20.00     0.243 C 
HETATM    9  O10 UNL     1     -35.805  12.593  -4.554  1.00 20.00    -0.306 OA
ENDBRANCH   6   8
BRANCH   5  10
HETATM   10  O11 UNL     1     -36.217  17.266  -5.639  1.00 20.00    -0.386 OA
HETATM   11  C9  UNL     1     -36.795  18.481  -5.189  1.00 20.00     0.202 C 
ENDBRANCH   5  10
TORSDOF 2
ENDMDL
MODEL 3
REMARK VINA RESULT:      -4.1      1.179      1.196
REMARK  2 active torsions:
REMARK  status: ('A' for Active; 'I' for Inactive)
REMARK    1  A    between atoms: C3_3  and  C7_7 
REMARK    2  A    between atoms: C6_6  and  O11_11 
ROOT
HETATM    1  C1  UNL     1     -34.067  15.580  -2.896  1.00 20.00    -0.028 C 
HETATM    2  C2  UNL     1     -35.260  16.188  -2.871  1.00 20.00     0.002 C 
HETATM    3  C4  UNL     1     -33.498  14.935  -4.122  1.00 20.00     0.028 C 
HETATM    4  C5  UNL     1     -34.262  15.282  -5.407  1.00 20.00     0.023 C 
HETATM    5  C6  UNL     1     -36.179  16.264  -4.058  1.00 20.00     0.158 C 
HETATM    6  C7  UNL     1     -35.790  15.296  -5.205  1.00 20.00     0.039 C 
HETATM    7  C8  UNL     1     -36.484  15.670  -6.525  1.00 20.00     0.026 C 
ENDROOT
BRANCH   6   8
HETATM    8  C3  UNL     1     -36.265  13.899  -4.871  1.00 20.00     0.243 C 
HETATM    9  O10 UNL     1     -37.399  13.645  -4.481  1.00 20.00    -0.306 OA
ENDBRANCH   6   8
BRANCH   5  10
HETATM   10  O11 UNL     1     -36.181  17.613  -4.527  1.00 20.00    -0.386 OA
HETATM   11  C9  UNL     1     -36.357  18.530  -3.459  1.00 20.00     0.202 C 
ENDBRANCH   5  10
TORSDOF 2
ENDMDL
MODEL 4
REMARK VINA RESULT:      -4.1      1.573      1.737
REMARK  2 active torsions:
REMARK  status: ('A' for Active; 'I' for Inactive)
REMARK    1  A    between atoms: C3_3  and  C7_7 
REMARK    2  A    between atoms: C6_6  and  O11_11 
ROOT
HETATM    1  C1  UNL     1     -34.291  16.520  -2.020  1.00 20.00    -0.028 C 
HETATM    2  C2  UNL     1     -35.195  15.614  -2.416  1.00 20.00     0.002 C 
HETATM    3  C4  UNL     1     -33.323  17.178  -2.954  1.00 20.00     0.028 C 
HETATM    4  C5  UNL     1     -33.646  16.945  -4.436  1.00 20.00     0.023 C 
HETATM    5  C6  UNL     1     -35.320  15.130  -3.834  1.00 20.00     0.158 C 
HETATM    6  C7  UNL     1     -34.107  15.502  -4.724  1.00 20.00     0.039 C 
HETATM    7  C8  UNL     1     -34.431  15.351  -6.219  1.00 20.00     0.026 C 
ENDROOT
BRANCH   6   8
HETATM    8  C3  UNL     1     -32.966  14.547  -4.452  1.00 20.00     0.243 C 
HETATM    9  O10 UNL     1     -33.116  13.340  -4.303  1.00 20.00    -0.306 OA
ENDBRANCH   6   8
BRANCH   5  10
HETATM   10  O11 UNL     1     -36.522  15.673  -4.379  1.00 20.00    -0.386 OA
HETATM   11  C9  UNL     1     -37.596  14.752  -4.282  1.00 20.00     0.202 C 
ENDBRANCH   5  10
TORSDOF 2
ENDMDL
MODEL 5
REMARK VINA RESULT:      -4.1      1.458      1.899
REMARK  2 active torsions:
REMARK  status: ('A' for Active; 'I' for Inactive)
REMARK    1  A    between atoms: C3_3  and  C7_7 
REMARK    2  A    between atoms: C6_6  and  O11_11 
ROOT
HETATM    1  C1  UNL     1     -33.535  15.161  -3.857  1.00 20.00    -0.028 C 
HETATM    2  C2  UNL     1     -34.374  15.651  -2.935  1.00 20.00     0.002 C 
HETATM    3  C4  UNL     1     -33.903  14.994  -5.298  1.00 20.00     0.028 C 
HETATM    4  C5  UNL     1     -35.212  15.695  -5.682  1.00 20.00     0.023 C 
HETATM    5  C6  UNL     1     -35.791  16.056  -3.233  1.00 20.00     0.158 C 
HETATM    6  C7  UNL     1     -36.305  15.546  -4.604  1.00 20.00     0.039 C 
HETATM    7  C8  UNL     1     -37.575  16.289  -5.048  1.00 20.00     0.026 C 
ENDROOT
BRANCH   6   8
HETATM    8  C3  UNL     1     -36.699  14.090  -4.488  1.00 20.00     0.243 C 
HETATM    9  O10 UNL     1     -37.859  13.710  -4.383  1.00 20.00    -0.306 OA
ENDBRANCH   6   8
BRANCH   5  10
HETATM   10  O11 UNL     1     -35.862  17.481  -3.175  1.00 20.00    -0.386 OA
HETATM   11  C9  UNL     1     -35.430  17.968  -1.915  1.00 20.00     0.202 C 
ENDBRANCH   5  10
TORSDOF 2
ENDMDL
MODEL 6
REMARK VINA RESULT:      -4.0      1.865      3.007
REMARK  2 active torsions:
REMARK  status: ('A' for Active; 'I' for Inactive)
REMARK    1  A    between atoms: C3_3  and  C7_7 
REMARK    2  A    between atoms: C6_6  and  O11_11 
ROOT
HETATM    1  C1  UNL     1     -34.947  17.366  -4.160  1.00 20.00    -0.028 C 
HETATM    2  C2  UNL     1     -35.020  16.786  -5.364  1.00 20.00     0.002 C 
HETATM    3  C4  UNL     1     -35.040  16.607  -2.873  1.00 20.00     0.028 C 
HETATM    4  C5  UNL     1     -34.935  15.086  -3.050  1.00 20.00     0.023 C 
HETATM    5  C6  UNL     1     -35.238  15.311  -5.564  1.00 20.00     0.158 C 
HETATM    6  C7  UNL     1     -35.708  14.576  -4.282  1.00 20.00     0.039 C 
HETATM    7  C8  UNL     1     -35.540  13.053  -4.406  1.00 20.00     0.026 C 
ENDROOT
BRANCH   6   8
HETATM    8  C3  UNL     1     -37.188  14.811  -4.078  1.00 20.00     0.243 C 
HETATM    9  O10 UNL     1     -38.046  13.968  -4.316  1.00 20.00    -0.306 OA
ENDBRANCH   6   8
BRANCH   5  10
HETATM   10  O11 UNL     1     -34.015  14.747  -6.039  1.00 20.00    -0.386 OA
HETATM   11  C9  UNL     1     -33.778  15.095  -7.393  1.00 20.00     0.202 C 
ENDBRANCH   5  10
TORSDOF 2
ENDMDL
MODEL 7
REMARK VINA RESULT:      -3.9      1.901      2.982
REMARK  2 active torsions:
REMARK  status: ('A' for Active; 'I' for Inactive)
REMARK    1  A    between atoms: C3_3  and  C7_7 
REMARK    2  A    between atoms: C6_6  and  O11_11 
ROOT
HETATM    1  C1  UNL     1     -37.153  15.379  -3.990  1.00 20.00    -0.028 C 
HETATM    2  C2  UNL     1     -36.265  16.301  -3.594  1.00 20.00     0.002 C 
HETATM    3  C4  UNL     1     -36.762  14.028  -4.503  1.00 20.00     0.028 C 
HETATM    4  C5  UNL     1     -35.285  13.686  -4.265  1.00 20.00     0.023 C 
HETATM    5  C6  UNL     1     -34.777  16.099  -3.651  1.00 20.00     0.158 C 
HETATM    6  C7  UNL     1     -34.349  14.885  -4.515  1.00 20.00     0.039 C 
HETATM    7  C8  UNL     1     -32.895  14.473  -4.239  1.00 20.00     0.026 C 
ENDROOT
BRANCH   6   8
HETATM    8  C3  UNL     1     -34.399  15.263  -5.979  1.00 20.00     0.243 C 
HETATM    9  O10 UNL     1     -33.700  14.736  -6.838  1.00 20.00    -0.306 OA
ENDBRANCH   6   8
BRANCH   5  10
HETATM   10  O11 UNL     1     -34.302  15.948  -2.313  1.00 20.00    -0.386 OA
HETATM   11  C9  UNL     1     -35.007  16.791  -1.417  1.00 20.00     0.202 C 
ENDBRANCH   5  10
TORSDOF 2
ENDMDL
MODEL 8
REMARK VINA RESULT:      -3.9     17.440     18.735
REMARK  2 active torsions:
REMARK  status: ('A' for Active; 'I' for Inactive)
REMARK    1  A    between atoms: C3_3  and  C7_7 
REMARK    2  A    between atoms: C6_6  and  O11_11 
ROOT
HETATM    1  C1  UNL     1     -24.998  19.233   9.237  1.00 20.00    -0.028 C 
HETATM    2  C2  UNL     1     -25.540  19.214  10.462  1.00 20.00     0.002 C 
HETATM    3  C4  UNL     1     -24.066  18.176   8.733  1.00 20.00     0.028 C 
HETATM    4  C5  UNL     1     -24.014  16.929   9.625  1.00 20.00     0.023 C 
HETATM    5  C6  UNL     1     -25.248  18.149  11.482  1.00 20.00     0.158 C 
HETATM    6  C7  UNL     1     -24.019  17.273  11.128  1.00 20.00     0.039 C 
HETATM    7  C8  UNL     1     -23.986  15.978  11.956  1.00 20.00     0.026 C 
ENDROOT
BRANCH   6   8
HETATM    8  C3  UNL     1     -22.749  18.017  11.477  1.00 20.00     0.243 C 
HETATM    9  O10 UNL     1     -21.956  17.638  12.332  1.00 20.00    -0.306 OA
ENDBRANCH   6   8
BRANCH   5  10
HETATM   10  O11 UNL     1     -26.415  17.337  11.616  1.00 20.00    -0.386 OA
HETATM   11  C9  UNL     1     -27.473  18.052  12.232  1.00 20.00     0.202 C 
ENDBRANCH   5  10
TORSDOF 2
ENDMDL
MODEL 9
REMARK VINA RESULT:      -3.9      1.630      2.307
REMARK  2 active torsions:
REMARK  status: ('A' for Active; 'I' for Inactive)
REMARK    1  A    between atoms: C3_3  and  C7_7 
REMARK    2  A    between atoms: C6_6  and  O11_11 
ROOT
HETATM    1  C1  UNL     1     -36.127  17.262  -2.684  1.00 20.00    -0.028 C 
HETATM    2  C2  UNL     1     -36.101  17.296  -4.023  1.00 20.00     0.002 C 
HETATM    3  C4  UNL     1     -35.215  16.403  -1.864  1.00 20.00     0.028 C 
HETATM    4  C5  UNL     1     -34.062  15.791  -2.670  1.00 20.00     0.023 C 
HETATM    5  C6  UNL     1     -35.177  16.452  -4.857  1.00 20.00     0.158 C 
HETATM    6  C7  UNL     1     -34.505  15.301  -4.064  1.00 20.00     0.039 C 
HETATM    7  C8  UNL     1     -33.296  14.722  -4.817  1.00 20.00     0.026 C 
ENDROOT
BRANCH   6   8
HETATM    8  C3  UNL     1     -35.480  14.156  -3.907  1.00 20.00     0.243 C 
HETATM    9  O10 UNL     1     -35.200  12.990  -4.161  1.00 20.00    -0.306 OA
ENDBRANCH   6   8
BRANCH   5  10
HETATM   10  O11 UNL     1     -34.186  17.311  -5.421  1.00 20.00    -0.386 OA
HETATM   11  C9  UNL     1     -34.769  18.481  -5.970  1.00 20.00     0.202 C 
ENDBRANCH   5  10
TORSDOF 2
ENDMDL
