MODEL 1
REMARK VINA RESULT:      -4.4      0.000      0.000
REMARK  1 active torsions:
REMARK  status: ('A' for Active; 'I' for Inactive)
REMARK    1  A    between atoms: C5_5  and  N8_8 
ROOT
HETATM    1  C1  UNL     1     -23.913  18.562   8.123  1.00 20.00     0.069 A 
HETATM    2  C2  UNL     1     -24.234  18.296   9.392  1.00 20.00     0.095 A 
HETATM    3  C3  UNL     1     -22.669  17.785   7.922  1.00 20.00     0.168 A 
HETATM    4  C6  UNL     1     -22.285  17.040   9.186  1.00 20.00     0.211 A 
HETATM    5  N8  UNL     1     -23.376  17.452  10.064  1.00 20.00    -0.354 N 
HETATM    6  O9  UNL     1     -22.050  17.761   6.871  1.00 20.00    -0.291 OA
ENDROOT
BRANCH   5   7
HETATM    7  C5  UNL     1     -23.499  17.043  11.356  1.00 20.00    -0.002 C 
HETATM    8  C4  UNL     1     -22.807  17.644  12.332  1.00 20.00     0.038 C 
HETATM    9  C7  UNL     1     -24.436  15.903  11.602  1.00 20.00     0.067 C 
ENDBRANCH   5   7
TORSDOF 1
ENDMDL
MODEL 2
REMARK VINA RESULT:      -4.2     17.153     18.368
REMARK  1 active torsions:
REMARK  status: ('A' for Active; 'I' for Inactive)
REMARK    1  A    between atoms: C5_5  and  N8_8 
ROOT
HETATM    1  C1  UNL     1     -35.855  13.416  -4.503  1.00 20.00     0.069 A 
HETATM    2  C2  UNL     1     -34.844  14.086  -3.943  1.00 20.00     0.095 A 
HETATM    3  C3  UNL     1     -37.029  14.265  -4.196  1.00 20.00     0.168 A 
HETATM    4  C6  UNL     1     -36.620  15.492  -3.405  1.00 20.00     0.211 A 
HETATM    5  N8  UNL     1     -35.181  15.261  -3.306  1.00 20.00    -0.354 N 
HETATM    6  O9  UNL     1     -38.168  13.994  -4.544  1.00 20.00    -0.291 OA
ENDROOT
BRANCH   5   7
HETATM    7  C5  UNL     1     -34.325  16.104  -2.669  1.00 20.00    -0.002 C 
HETATM    8  C4  UNL     1     -33.089  16.309  -3.142  1.00 20.00     0.038 C 
HETATM    9  C7  UNL     1     -34.848  16.768  -1.434  1.00 20.00     0.067 C 
ENDBRANCH   5   7
TORSDOF 1
ENDMDL
MODEL 3
REMARK VINA RESULT:      -4.1      1.357      2.071
REMARK  1 active torsions:
REMARK  status: ('A' for Active; 'I' for Inactive)
REMARK    1  A    between atoms: C5_5  and  N8_8 
ROOT
HETATM    1  C1  UNL     1     -22.361  17.332   8.993  1.00 20.00     0.069 A 
HETATM    2  C2  UNL     1     -22.954  17.091  10.165  1.00 20.00     0.095 A 
HETATM    3  C3  UNL     1     -23.367  18.141   8.268  1.00 20.00     0.168 A 
HETATM    4  C6  UNL     1     -24.605  18.354   9.116  1.00 20.00     0.211 A 
HETATM    5  N8  UNL     1     -24.215  17.627  10.321  1.00 20.00    -0.354 N 
HETATM    6  O9  UNL     1     -23.201  18.569   7.137  1.00 20.00    -0.291 OA
ENDROOT
BRANCH   5   7
HETATM    7  C5  UNL     1     -25.006  17.513  11.422  1.00 20.00    -0.002 C 
HETATM    8  C4  UNL     1     -25.132  16.340  12.055  1.00 20.00     0.038 C 
HETATM    9  C7  UNL     1     -25.709  18.759  11.862  1.00 20.00     0.067 C 
ENDBRANCH   5   7
TORSDOF 1
ENDMDL
MODEL 4
REMARK VINA RESULT:      -4.0     17.476     18.721
REMARK  1 active torsions:
REMARK  status: ('A' for Active; 'I' for Inactive)
REMARK    1  A    between atoms: C5_5  and  N8_8 
ROOT
HETATM    1  C1  UNL     1     -37.291  15.986  -3.997  1.00 20.00     0.069 A 
HETATM    2  C2  UNL     1     -36.004  16.301  -3.824  1.00 20.00     0.095 A 
HETATM    3  C3  UNL     1     -37.248  14.526  -4.237  1.00 20.00     0.168 A 
HETATM    4  C6  UNL     1     -35.823  14.010  -4.193  1.00 20.00     0.211 A 
HETATM    5  N8  UNL     1     -35.112  15.255  -3.917  1.00 20.00    -0.354 N 
HETATM    6  O9  UNL     1     -38.241  13.846  -4.443  1.00 20.00    -0.291 OA
ENDROOT
BRANCH   5   7
HETATM    7  C5  UNL     1     -33.761  15.335  -3.779  1.00 20.00    -0.002 C 
HETATM    8  C4  UNL     1     -32.955  14.482  -4.424  1.00 20.00     0.038 C 
HETATM    9  C7  UNL     1     -33.252  16.415  -2.876  1.00 20.00     0.067 C 
ENDBRANCH   5   7
TORSDOF 1
ENDMDL
MODEL 5
REMARK VINA RESULT:      -4.0     16.055     17.020
REMARK  1 active torsions:
REMARK  status: ('A' for Active; 'I' for Inactive)
REMARK    1  A    between atoms: C5_5  and  N8_8 
ROOT
HETATM    1  C1  UNL     1     -34.000   6.837   5.982  1.00 20.00     0.069 A 
HETATM    2  C2  UNL     1     -33.389   7.006   4.806  1.00 20.00     0.095 A 
HETATM    3  C3  UNL     1     -34.727   5.560   5.801  1.00 20.00     0.168 A 
HETATM    4  C6  UNL     1     -34.492   4.993   4.415  1.00 20.00     0.211 A 
HETATM    5  N8  UNL     1     -33.609   6.020   3.868  1.00 20.00    -0.354 N 
HETATM    6  O9  UNL     1     -35.420   5.049   6.666  1.00 20.00    -0.291 OA
ENDROOT
BRANCH   5   7
HETATM    7  C5  UNL     1     -33.095   5.979   2.610  1.00 20.00    -0.002 C 
HETATM    8  C4  UNL     1     -33.103   4.840   1.904  1.00 20.00     0.038 C 
HETATM    9  C7  UNL     1     -32.533   7.262   2.083  1.00 20.00     0.067 C 
ENDBRANCH   5   7
TORSDOF 1
ENDMDL
MODEL 6
REMARK VINA RESULT:      -4.0     15.829     17.061
REMARK  1 active torsions:
REMARK  status: ('A' for Active; 'I' for Inactive)
REMARK    1  A    between atoms: C5_5  and  N8_8 
ROOT
HETATM    1  C1  UNL     1     -33.464  14.515  -4.510  1.00 20.00     0.069 A 
HETATM    2  C2  UNL     1     -33.092  15.516  -3.707  1.00 20.00     0.095 A 
HETATM    3  C3  UNL     1     -34.854  14.240  -4.082  1.00 20.00     0.168 A 
HETATM    4  C6  UNL     1     -35.268  15.166  -2.956  1.00 20.00     0.211 A 
HETATM    5  N8  UNL     1     -34.042  15.945  -2.804  1.00 20.00    -0.354 N 
HETATM    6  O9  UNL     1     -35.557  13.377  -4.583  1.00 20.00    -0.291 OA
ENDROOT
BRANCH   5   7
HETATM    7  C5  UNL     1     -33.891  16.943  -1.893  1.00 20.00    -0.002 C 
HETATM    8  C4  UNL     1     -32.797  17.716  -1.900  1.00 20.00     0.038 C 
HETATM    9  C7  UNL     1     -35.004  17.111  -0.907  1.00 20.00     0.067 C 
ENDBRANCH   5   7
TORSDOF 1
ENDMDL
MODEL 7
REMARK VINA RESULT:      -3.9     16.980     18.150
REMARK  1 active torsions:
REMARK  status: ('A' for Active; 'I' for Inactive)
REMARK    1  A    between atoms: C5_5  and  N8_8 
ROOT
HETATM    1  C1  UNL     1     -37.115  14.860  -4.343  1.00 20.00     0.069 A 
HETATM    2  C2  UNL     1     -36.527  15.772  -3.564  1.00 20.00     0.095 A 
HETATM    3  C3  UNL     1     -36.054  13.845  -4.530  1.00 20.00     0.168 A 
HETATM    4  C6  UNL     1     -34.789  14.240  -3.794  1.00 20.00     0.211 A 
HETATM    5  N8  UNL     1     -35.222  15.505  -3.207  1.00 20.00    -0.354 N 
HETATM    6  O9  UNL     1     -36.200  12.830  -5.193  1.00 20.00    -0.291 OA
ENDROOT
BRANCH   5   7
HETATM    7  C5  UNL     1     -34.426  16.284  -2.426  1.00 20.00    -0.002 C 
HETATM    8  C4  UNL     1     -33.166  16.556  -2.790  1.00 20.00     0.038 C 
HETATM    9  C7  UNL     1     -35.041  16.801  -1.164  1.00 20.00     0.067 C 
ENDBRANCH   5   7
TORSDOF 1
ENDMDL
MODEL 8
REMARK VINA RESULT:      -3.9     15.721     16.481
REMARK  1 active torsions:
REMARK  status: ('A' for Active; 'I' for Inactive)
REMARK    1  A    between atoms: C5_5  and  N8_8 
ROOT
HETATM    1  C1  UNL     1     -33.201   5.367   2.000  1.00 20.00     0.069 A 
HETATM    2  C2  UNL     1     -33.793   5.053   3.155  1.00 20.00     0.095 A 
HETATM    3  C3  UNL     1     -32.714   6.745   2.237  1.00 20.00     0.168 A 
HETATM    4  C6  UNL     1     -33.073   7.215   3.632  1.00 20.00     0.211 A 
HETATM    5  N8  UNL     1     -33.769   6.031   4.127  1.00 20.00    -0.354 N 
HETATM    6  O9  UNL     1     -32.106   7.399   1.404  1.00 20.00    -0.291 OA
ENDROOT
BRANCH   5   7
HETATM    7  C5  UNL     1     -34.305   5.937   5.374  1.00 20.00    -0.002 C 
HETATM    8  C4  UNL     1     -35.026   4.867   5.730  1.00 20.00     0.038 C 
HETATM    9  C7  UNL     1     -34.040   7.086   6.295  1.00 20.00     0.067 C 
ENDBRANCH   5   7
TORSDOF 1
ENDMDL
MODEL 9
REMARK VINA RESULT:      -3.8      1.855      2.281
REMARK  1 active torsions:
REMARK  status: ('A' for Active; 'I' for Inactive)
REMARK    1  A    between atoms: C5_5  and  N8_8 
ROOT
HETATM    1  C1  UNL     1     -25.007  19.237   7.425  1.00 20.00     0.069 A 
HETATM    2  C2  UNL     1     -25.710  19.263   8.561  1.00 20.00     0.095 A 
HETATM    3  C3  UNL     1     -23.738  18.593   7.832  1.00 20.00     0.168 A 
HETATM    4  C6  UNL     1     -23.755  18.244   9.307  1.00 20.00     0.211 A 
HETATM    5  N8  UNL     1     -25.085  18.727   9.667  1.00 20.00    -0.354 N 
HETATM    6  O9  UNL     1     -22.812  18.381   7.065  1.00 20.00    -0.291 OA
ENDROOT
BRANCH   5   7
HETATM    7  C5  UNL     1     -25.603  18.645  10.922  1.00 20.00    -0.002 C 
HETATM    8  C4  UNL     1     -24.917  18.050  11.906  1.00 20.00     0.038 C 
HETATM    9  C7  UNL     1     -26.957  19.248  11.119  1.00 20.00     0.067 C 
ENDBRANCH   5   7
TORSDOF 1
ENDMDL
