MODEL 1
REMARK VINA RESULT:      -5.4      0.000      0.000
REMARK  0 active torsions:
REMARK  status: ('A' for Active; 'I' for Inactive)
ROOT
HETATM    1  C1  UNL     1     -32.816   4.539   2.685  1.00 20.00     0.012 A 
HETATM    2  C2  UNL     1     -33.508   6.915   5.698  1.00 20.00     0.006 A 
HETATM    3  C3  UNL     1     -32.226   6.859   2.462  1.00 20.00     0.101 C 
HETATM    4  C4  UNL     1     -32.971   5.663   1.982  1.00 20.00     0.016 A 
HETATM    5  C5  UNL     1     -33.451   6.953   4.357  1.00 20.00     0.035 A 
HETATM    6  C6  UNL     1     -34.527   4.570   5.969  1.00 20.00     0.015 A 
HETATM    7  C7  UNL     1     -34.119   5.133   2.709  1.00 20.00     0.017 A 
HETATM    8  C8  UNL     1     -34.586   6.052   6.211  1.00 20.00     0.015 A 
HETATM    9  C9  UNL     1     -34.580   6.091   3.774  1.00 20.00     0.048 A 
HETATM   10  C10 UNL     1     -35.245   5.449   4.979  1.00 20.00     0.004 A 
HETATM   11  N11 UNL     1     -32.457   7.490   3.577  1.00 20.00    -0.269 NA
ENDROOT
TORSDOF 0
ENDMDL
MODEL 2
REMARK VINA RESULT:      -5.2      1.405      3.795
REMARK  0 active torsions:
REMARK  status: ('A' for Active; 'I' for Inactive)
ROOT
HETATM    1  C1  UNL     1     -33.428   6.411   6.181  1.00 20.00     0.012 A 
HETATM    2  C2  UNL     1     -33.155   4.995   2.559  1.00 20.00     0.006 A 
HETATM    3  C3  UNL     1     -34.842   4.564   5.574  1.00 20.00     0.101 C 
HETATM    4  C4  UNL     1     -34.678   5.952   6.085  1.00 20.00     0.016 A 
HETATM    5  C5  UNL     1     -34.067   5.145   3.534  1.00 20.00     0.035 A 
HETATM    6  C6  UNL     1     -31.850   7.180   2.921  1.00 20.00     0.015 A 
HETATM    7  C7  UNL     1     -34.268   7.047   5.211  1.00 20.00     0.017 A 
HETATM    8  C8  UNL     1     -32.653   6.275   2.030  1.00 20.00     0.015 A 
HETATM    9  C9  UNL     1     -34.327   6.641   3.763  1.00 20.00     0.048 A 
HETATM   10  C10 UNL     1     -33.345   7.354   2.851  1.00 20.00     0.004 A 
HETATM   11  N11 UNL     1     -34.574   4.174   4.361  1.00 20.00    -0.269 NA
ENDROOT
TORSDOF 0
ENDMDL
MODEL 3
REMARK VINA RESULT:      -4.9     11.962     12.829
REMARK  0 active torsions:
REMARK  status: ('A' for Active; 'I' for Inactive)
ROOT
HETATM    1  C1  UNL     1     -35.130  15.814  -6.206  1.00 20.00     0.012 A 
HETATM    2  C2  UNL     1     -35.133  15.939  -2.309  1.00 20.00     0.006 A 
HETATM    3  C3  UNL     1     -36.548  14.277  -5.021  1.00 20.00     0.101 C 
HETATM    4  C4  UNL     1     -35.454  14.537  -5.996  1.00 20.00     0.016 A 
HETATM    5  C5  UNL     1     -35.302  15.054  -3.305  1.00 20.00     0.035 A 
HETATM    6  C6  UNL     1     -33.305  17.386  -3.393  1.00 20.00     0.015 A 
HETATM    7  C7  UNL     1     -34.139  15.000  -5.567  1.00 20.00     0.017 A 
HETATM    8  C8  UNL     1     -33.776  16.513  -2.265  1.00 20.00     0.015 A 
HETATM    9  C9  UNL     1     -33.983  14.894  -4.074  1.00 20.00     0.048 A 
HETATM   10  C10 UNL     1     -33.038  15.904  -3.447  1.00 20.00     0.004 A 
HETATM   11  N11 UNL     1     -36.480  14.500  -3.740  1.00 20.00    -0.269 NA
ENDROOT
TORSDOF 0
ENDMDL
MODEL 4
REMARK VINA RESULT:      -4.6     11.679     13.181
REMARK  0 active torsions:
REMARK  status: ('A' for Active; 'I' for Inactive)
ROOT
HETATM    1  C1  UNL     1     -37.400  16.824  -3.415  1.00 20.00     0.012 A 
HETATM    2  C2  UNL     1     -35.236  13.633  -3.997  1.00 20.00     0.006 A 
HETATM    3  C3  UNL     1     -38.473  14.874  -4.325  1.00 20.00     0.101 C 
HETATM    4  C4  UNL     1     -38.116  16.316  -4.421  1.00 20.00     0.016 A 
HETATM    5  C5  UNL     1     -36.310  14.251  -4.516  1.00 20.00     0.035 A 
HETATM    6  C6  UNL     1     -33.867  15.717  -3.370  1.00 20.00     0.015 A 
HETATM    7  C7  UNL     1     -36.749  16.751  -4.688  1.00 20.00     0.017 A 
HETATM    8  C8  UNL     1     -33.997  14.421  -4.118  1.00 20.00     0.015 A 
HETATM    9  C9  UNL     1     -35.883  15.597  -5.118  1.00 20.00     0.048 A 
HETATM   10  C10 UNL     1     -34.410  15.730  -4.775  1.00 20.00     0.004 A 
HETATM   11  N11 UNL     1     -37.628  13.886  -4.388  1.00 20.00    -0.269 NA
ENDROOT
TORSDOF 0
ENDMDL
MODEL 5
REMARK VINA RESULT:      -4.5     15.649     16.374
REMARK  0 active torsions:
REMARK  status: ('A' for Active; 'I' for Inactive)
ROOT
HETATM    1  C1  UNL     1     -24.933  18.700   8.620  1.00 20.00     0.012 A 
HETATM    2  C2  UNL     1     -24.356  15.974  11.346  1.00 20.00     0.006 A 
HETATM    3  C3  UNL     1     -22.944  17.357   8.479  1.00 20.00     0.101 C 
HETATM    4  C4  UNL     1     -23.599  18.690   8.568  1.00 20.00     0.016 A 
HETATM    5  C5  UNL     1     -23.647  16.792  10.550  1.00 20.00     0.035 A 
HETATM    6  C6  UNL     1     -26.325  17.547  11.851  1.00 20.00     0.015 A 
HETATM    7  C7  UNL     1     -24.246  19.146   9.794  1.00 20.00     0.017 A 
HETATM    8  C8  UNL     1     -25.185  16.693  12.329  1.00 20.00     0.015 A 
HETATM    9  C9  UNL     1     -23.909  18.249  10.955  1.00 20.00     0.048 A 
HETATM   10  C10 UNL     1     -24.967  18.171  12.041  1.00 20.00     0.004 A 
HETATM   11  N11 UNL     1     -22.945  16.457   9.419  1.00 20.00    -0.269 NA
ENDROOT
TORSDOF 0
ENDMDL
MODEL 6
REMARK VINA RESULT:      -4.5     12.195     13.304
REMARK  0 active torsions:
REMARK  status: ('A' for Active; 'I' for Inactive)
ROOT
HETATM    1  C1  UNL     1     -37.101  15.216  -4.719  1.00 20.00     0.012 A 
HETATM    2  C2  UNL     1     -33.278  15.217  -3.958  1.00 20.00     0.006 A 
HETATM    3  C3  UNL     1     -35.588  14.662  -6.503  1.00 20.00     0.101 C 
HETATM    4  C4  UNL     1     -36.684  15.506  -5.953  1.00 20.00     0.016 A 
HETATM    5  C5  UNL     1     -34.118  15.450  -4.979  1.00 20.00     0.035 A 
HETATM    6  C6  UNL     1     -34.716  16.179  -2.056  1.00 20.00     0.015 A 
HETATM    7  C7  UNL     1     -36.444  16.477  -4.891  1.00 20.00     0.017 A 
HETATM    8  C8  UNL     1     -33.437  16.169  -2.845  1.00 20.00     0.015 A 
HETATM    9  C9  UNL     1     -34.971  16.687  -4.666  1.00 20.00     0.048 A 
HETATM   10  C10 UNL     1     -34.582  17.084  -3.253  1.00 20.00     0.004 A 
HETATM   11  N11 UNL     1     -34.363  14.642  -6.062  1.00 20.00    -0.269 NA
ENDROOT
TORSDOF 0
ENDMDL
MODEL 7
REMARK VINA RESULT:      -4.5     11.958     13.117
REMARK  0 active torsions:
REMARK  status: ('A' for Active; 'I' for Inactive)
ROOT
HETATM    1  C1  UNL     1     -35.283  16.694  -2.067  1.00 20.00     0.012 A 
HETATM    2  C2  UNL     1     -35.448  15.749  -5.846  1.00 20.00     0.006 A 
HETATM    3  C3  UNL     1     -33.814  17.837  -3.589  1.00 20.00     0.101 C 
HETATM    4  C4  UNL     1     -34.021  17.004  -2.374  1.00 20.00     0.016 A 
HETATM    5  C5  UNL     1     -34.560  16.186  -4.938  1.00 20.00     0.035 A 
HETATM    6  C6  UNL     1     -36.811  14.188  -4.324  1.00 20.00     0.015 A 
HETATM    7  C7  UNL     1     -34.438  15.608  -2.463  1.00 20.00     0.017 A 
HETATM    8  C8  UNL     1     -35.969  14.403  -5.550  1.00 20.00     0.015 A 
HETATM    9  C9  UNL     1     -34.340  15.099  -3.876  1.00 20.00     0.048 A 
HETATM   10  C10 UNL     1     -35.319  13.995  -4.235  1.00 20.00     0.004 A 
HETATM   11  N11 UNL     1     -34.048  17.453  -4.811  1.00 20.00    -0.269 NA
ENDROOT
TORSDOF 0
ENDMDL
MODEL 8
REMARK VINA RESULT:      -4.4     11.829     12.838
REMARK  0 active torsions:
REMARK  status: ('A' for Active; 'I' for Inactive)
ROOT
HETATM    1  C1  UNL     1     -35.270  17.324  -2.546  1.00 20.00     0.012 A 
HETATM    2  C2  UNL     1     -34.361  14.970  -5.518  1.00 20.00     0.006 A 
HETATM    3  C3  UNL     1     -32.983  16.620  -2.779  1.00 20.00     0.101 C 
HETATM    4  C4  UNL     1     -34.228  16.720  -1.970  1.00 20.00     0.016 A 
HETATM    5  C5  UNL     1     -33.969  15.228  -4.260  1.00 20.00     0.035 A 
HETATM    6  C6  UNL     1     -36.889  15.324  -5.208  1.00 20.00     0.015 A 
HETATM    7  C7  UNL     1     -35.410  15.923  -2.281  1.00 20.00     0.017 A 
HETATM    8  C8  UNL     1     -35.735  14.446  -5.604  1.00 20.00     0.015 A 
HETATM    9  C9  UNL     1     -35.095  14.849  -3.287  1.00 20.00     0.048 A 
HETATM   10  C10 UNL     1     -36.255  14.431  -4.174  1.00 20.00     0.004 A 
HETATM   11  N11 UNL     1     -32.844  15.902  -3.856  1.00 20.00    -0.269 NA
ENDROOT
TORSDOF 0
ENDMDL
MODEL 9
REMARK VINA RESULT:      -4.4     15.954     17.132
REMARK  0 active torsions:
REMARK  status: ('A' for Active; 'I' for Inactive)
ROOT
HETATM    1  C1  UNL     1     -24.797  17.911  12.219  1.00 20.00     0.012 A 
HETATM    2  C2  UNL     1     -22.640  18.973   9.150  1.00 20.00     0.006 A 
HETATM    3  C3  UNL     1     -22.447  17.405  12.253  1.00 20.00     0.101 C 
HETATM    4  C4  UNL     1     -23.866  16.962  12.331  1.00 20.00     0.016 A 
HETATM    5  C5  UNL     1     -22.681  18.015  10.091  1.00 20.00     0.035 A 
HETATM    6  C6  UNL     1     -25.170  19.260   8.791  1.00 20.00     0.015 A 
HETATM    7  C7  UNL     1     -24.732  16.953  11.157  1.00 20.00     0.017 A 
HETATM    8  C8  UNL     1     -23.804  18.951   8.247  1.00 20.00     0.015 A 
HETATM    9  C9  UNL     1     -23.941  17.160   9.893  1.00 20.00     0.048 A 
HETATM   10  C10 UNL     1     -24.696  17.830   8.759  1.00 20.00     0.004 A 
HETATM   11  N11 UNL     1     -21.870  17.888  11.191  1.00 20.00    -0.269 NA
ENDROOT
TORSDOF 0
ENDMDL
