MODEL 1
REMARK VINA RESULT:      -5.2      0.000      0.000
REMARK  2 active torsions:
REMARK  status: ('A' for Active; 'I' for Inactive)
REMARK    1  A    between atoms: C1_1  and  C4_4 
REMARK    2  A    between atoms: C2_2  and  N10_10 
ROOT
HETATM    1  C5  UNL     1     -34.938   5.333   6.005  1.00 20.00     0.003 C 
HETATM    2  C6  UNL     1     -34.589   4.439   4.819  1.00 20.00     0.029 C 
HETATM    3  C7  UNL     1     -33.873   6.404   6.223  1.00 20.00     0.029 C 
HETATM    4  C8  UNL     1     -34.330   5.251   3.558  1.00 20.00     0.251 C 
HETATM    5  C9  UNL     1     -33.616   7.210   4.957  1.00 20.00     0.251 C 
HETATM    6  N10 UNL     1     -33.256   6.269   3.837  1.00 20.00    -0.006 N 
HETATM    7  H24 UNL     1     -32.401   5.764   4.108  1.00 20.00     0.297 HD
ENDROOT
BRANCH   6   8
HETATM    8  C2  UNL     1     -32.906   7.017   2.614  1.00 20.00     0.118 C 
HETATM    9  C1  UNL     1     -32.621   7.626   1.619  1.00 20.00    -0.049 C 
BRANCH   9  10
HETATM   10  C4  UNL     1     -32.291   8.346   0.441  1.00 20.00     0.056 C 
HETATM   11  C3  UNL     1     -33.214   9.003  -0.268  1.00 20.00     0.021 C 
ENDBRANCH   9  10
ENDBRANCH   6   8
TORSDOF 2
ENDMDL
MODEL 2
REMARK VINA RESULT:      -4.1      9.752     10.616
REMARK  2 active torsions:
REMARK  status: ('A' for Active; 'I' for Inactive)
REMARK    1  A    between atoms: C1_1  and  C4_4 
REMARK    2  A    between atoms: C2_2  and  N10_10 
ROOT
HETATM    1  C5  UNL     1     -41.825   8.779   0.079  1.00 20.00     0.003 C 
HETATM    2  C6  UNL     1     -43.204   8.481  -0.501  1.00 20.00     0.029 C 
HETATM    3  C7  UNL     1     -41.225   7.542   0.742  1.00 20.00     0.029 C 
HETATM    4  C8  UNL     1     -43.174   7.286  -1.444  1.00 20.00     0.251 C 
HETATM    5  C9  UNL     1     -41.201   6.350  -0.205  1.00 20.00     0.251 C 
HETATM    6  N10 UNL     1     -42.594   6.100  -0.720  1.00 20.00    -0.006 N 
HETATM    7  H24 UNL     1     -43.200   5.892   0.086  1.00 20.00     0.297 HD
ENDROOT
BRANCH   6   8
HETATM    8  C2  UNL     1     -42.633   4.893  -1.568  1.00 20.00     0.118 C 
HETATM    9  C1  UNL     1     -42.664   3.911  -2.258  1.00 20.00    -0.049 C 
BRANCH   9  10
HETATM   10  C4  UNL     1     -42.700   2.753  -3.079  1.00 20.00     0.056 C 
HETATM   11  C3  UNL     1     -41.801   2.545  -4.046  1.00 20.00     0.021 C 
ENDBRANCH   9  10
ENDBRANCH   6   8
TORSDOF 2
ENDMDL
MODEL 3
REMARK VINA RESULT:      -4.1     11.075     12.040
REMARK  2 active torsions:
REMARK  status: ('A' for Active; 'I' for Inactive)
REMARK    1  A    between atoms: C1_1  and  C4_4 
REMARK    2  A    between atoms: C2_2  and  N10_10 
ROOT
HETATM    1  C5  UNL     1     -34.992  14.175  -4.060  1.00 20.00     0.003 C 
HETATM    2  C6  UNL     1     -35.783  15.222  -3.283  1.00 20.00     0.029 C 
HETATM    3  C7  UNL     1     -33.762  14.789  -4.722  1.00 20.00     0.029 C 
HETATM    4  C8  UNL     1     -34.907  15.964  -2.283  1.00 20.00     0.251 C 
HETATM    5  C9  UNL     1     -32.892  15.532  -3.717  1.00 20.00     0.251 C 
HETATM    6  N10 UNL     1     -33.729  16.562  -3.005  1.00 20.00    -0.006 N 
HETATM    7  H24 UNL     1     -34.089  17.222  -3.709  1.00 20.00     0.297 HD
ENDROOT
BRANCH   6   8
HETATM    8  C2  UNL     1     -32.903  17.371  -2.089  1.00 20.00     0.118 C 
HETATM    9  C1  UNL     1     -32.229  18.029  -1.344  1.00 20.00    -0.049 C 
BRANCH   9  10
HETATM   10  C4  UNL     1     -31.430  18.801  -0.460  1.00 20.00     0.056 C 
HETATM   11  C3  UNL     1     -30.847  18.265   0.616  1.00 20.00     0.021 C 
ENDBRANCH   9  10
ENDBRANCH   6   8
TORSDOF 2
ENDMDL
MODEL 4
REMARK VINA RESULT:      -4.0     15.447     16.788
REMARK  2 active torsions:
REMARK  status: ('A' for Active; 'I' for Inactive)
REMARK    1  A    between atoms: C1_1  and  C4_4 
REMARK    2  A    between atoms: C2_2  and  N10_10 
ROOT
HETATM    1  C5  UNL     1     -22.094  17.782  10.112  1.00 20.00     0.003 C 
HETATM    2  C6  UNL     1     -23.033  18.762   9.415  1.00 20.00     0.029 C 
HETATM    3  C7  UNL     1     -22.323  17.773  11.620  1.00 20.00     0.029 C 
HETATM    4  C8  UNL     1     -24.489  18.496   9.770  1.00 20.00     0.251 C 
HETATM    5  C9  UNL     1     -23.782  17.511  11.968  1.00 20.00     0.251 C 
HETATM    6  N10 UNL     1     -24.647  18.525  11.267  1.00 20.00    -0.006 N 
HETATM    7  H24 UNL     1     -24.373  19.461  11.598  1.00 20.00     0.297 HD
ENDROOT
BRANCH   6   8
HETATM    8  C2  UNL     1     -26.062  18.366  11.653  1.00 20.00     0.118 C 
HETATM    9  C1  UNL     1     -27.214  18.235  11.966  1.00 20.00    -0.049 C 
BRANCH   9  10
HETATM   10  C4  UNL     1     -28.578  18.085  12.332  1.00 20.00     0.056 C 
HETATM   11  C3  UNL     1     -29.260  16.967  12.069  1.00 20.00     0.021 C 
ENDBRANCH   9  10
ENDBRANCH   6   8
TORSDOF 2
ENDMDL
MODEL 5
REMARK VINA RESULT:      -3.7     11.012     12.308
REMARK  2 active torsions:
REMARK  status: ('A' for Active; 'I' for Inactive)
REMARK    1  A    between atoms: C1_1  and  C4_4 
REMARK    2  A    between atoms: C2_2  and  N10_10 
ROOT
HETATM    1  C5  UNL     1     -35.782  14.455  -5.589  1.00 20.00     0.003 C 
HETATM    2  C6  UNL     1     -34.553  15.208  -6.090  1.00 20.00     0.029 C 
HETATM    3  C7  UNL     1     -35.549  13.882  -4.194  1.00 20.00     0.029 C 
HETATM    4  C8  UNL     1     -34.104  16.276  -5.102  1.00 20.00     0.251 C 
HETATM    5  C9  UNL     1     -35.097  14.954  -3.212  1.00 20.00     0.251 C 
HETATM    6  N10 UNL     1     -33.871  15.639  -3.757  1.00 20.00    -0.006 N 
HETATM    7  H24 UNL     1     -33.132  14.931  -3.864  1.00 20.00     0.297 HD
ENDROOT
BRANCH   6   8
HETATM    8  C2  UNL     1     -33.344  16.622  -2.792  1.00 20.00     0.118 C 
HETATM    9  C1  UNL     1     -32.915  17.422  -2.005  1.00 20.00    -0.049 C 
BRANCH   9  10
HETATM   10  C4  UNL     1     -32.410  18.372  -1.079  1.00 20.00     0.056 C 
HETATM   11  C3  UNL     1     -31.206  18.237  -0.515  1.00 20.00     0.021 C 
ENDBRANCH   9  10
ENDBRANCH   6   8
TORSDOF 2
ENDMDL
MODEL 6
REMARK VINA RESULT:      -3.6     11.125     12.010
REMARK  2 active torsions:
REMARK  status: ('A' for Active; 'I' for Inactive)
REMARK    1  A    between atoms: C1_1  and  C4_4 
REMARK    2  A    between atoms: C2_2  and  N10_10 
ROOT
HETATM    1  C5  UNL     1     -34.360  14.770  -5.550  1.00 20.00     0.003 C 
HETATM    2  C6  UNL     1     -33.226  14.757  -4.529  1.00 20.00     0.029 C 
HETATM    3  C7  UNL     1     -35.709  14.519  -4.882  1.00 20.00     0.029 C 
HETATM    4  C8  UNL     1     -33.486  15.728  -3.385  1.00 20.00     0.251 C 
HETATM    5  C9  UNL     1     -35.960  15.491  -3.737  1.00 20.00     0.251 C 
HETATM    6  N10 UNL     1     -34.818  15.409  -2.759  1.00 20.00    -0.006 N 
HETATM    7  H24 UNL     1     -34.777  14.447  -2.396  1.00 20.00     0.297 HD
ENDROOT
BRANCH   6   8
HETATM    8  C2  UNL     1     -35.068  16.267  -1.585  1.00 20.00     0.118 C 
HETATM    9  C1  UNL     1     -35.271  16.965  -0.630  1.00 20.00    -0.049 C 
BRANCH   9  10
HETATM   10  C4  UNL     1     -35.506  17.792   0.501  1.00 20.00     0.056 C 
HETATM   11  C3  UNL     1     -34.543  18.066   1.387  1.00 20.00     0.021 C 
ENDBRANCH   9  10
ENDBRANCH   6   8
TORSDOF 2
ENDMDL
MODEL 7
REMARK VINA RESULT:      -3.6     11.123     12.201
REMARK  2 active torsions:
REMARK  status: ('A' for Active; 'I' for Inactive)
REMARK    1  A    between atoms: C1_1  and  C4_4 
REMARK    2  A    between atoms: C2_2  and  N10_10 
ROOT
HETATM    1  C5  UNL     1     -32.455  19.199   1.337  1.00 20.00     0.003 C 
HETATM    2  C6  UNL     1     -31.448  19.263   0.192  1.00 20.00     0.029 C 
HETATM    3  C7  UNL     1     -33.884  19.089   0.812  1.00 20.00     0.029 C 
HETATM    4  C8  UNL     1     -31.614  18.096  -0.770  1.00 20.00     0.251 C 
HETATM    5  C9  UNL     1     -34.042  17.922  -0.153  1.00 20.00     0.251 C 
HETATM    6  N10 UNL     1     -33.036  18.061  -1.265  1.00 20.00    -0.006 N 
HETATM    7  H24 UNL     1     -33.223  18.946  -1.757  1.00 20.00     0.297 HD
ENDROOT
BRANCH   6   8
HETATM    8  C2  UNL     1     -33.218  17.000  -2.275  1.00 20.00     0.118 C 
HETATM    9  C1  UNL     1     -33.366  16.137  -3.096  1.00 20.00    -0.049 C 
BRANCH   9  10
HETATM   10  C4  UNL     1     -33.536  15.113  -4.066  1.00 20.00     0.056 C 
HETATM   11  C3  UNL     1     -34.557  14.252  -4.012  1.00 20.00     0.021 C 
ENDBRANCH   9  10
ENDBRANCH   6   8
TORSDOF 2
ENDMDL
MODEL 8
REMARK VINA RESULT:      -3.5     11.228     12.334
REMARK  2 active torsions:
REMARK  status: ('A' for Active; 'I' for Inactive)
REMARK    1  A    between atoms: C1_1  and  C4_4 
REMARK    2  A    between atoms: C2_2  and  N10_10 
ROOT
HETATM    1  C5  UNL     1     -33.334  15.862  -3.443  1.00 20.00     0.003 C 
HETATM    2  C6  UNL     1     -34.298  16.157  -2.298  1.00 20.00     0.029 C 
HETATM    3  C7  UNL     1     -33.761  14.620  -4.220  1.00 20.00     0.029 C 
HETATM    4  C8  UNL     1     -35.737  16.255  -2.783  1.00 20.00     0.251 C 
HETATM    5  C9  UNL     1     -35.203  14.723  -4.699  1.00 20.00     0.251 C 
HETATM    6  N10 UNL     1     -36.098  14.992  -3.518  1.00 20.00    -0.006 N 
HETATM    7  H24 UNL     1     -36.005  14.204  -2.862  1.00 20.00     0.297 HD
ENDROOT
BRANCH   6   8
HETATM    8  C2  UNL     1     -37.516  15.004  -3.925  1.00 20.00     0.118 C 
HETATM    9  C1  UNL     1     -38.670  15.015  -4.257  1.00 20.00    -0.049 C 
BRANCH   9  10
HETATM   10  C4  UNL     1     -40.037  15.030  -4.643  1.00 20.00     0.056 C 
HETATM   11  C3  UNL     1     -40.986  15.551  -3.859  1.00 20.00     0.021 C 
ENDBRANCH   9  10
ENDBRANCH   6   8
TORSDOF 2
ENDMDL
MODEL 9
REMARK VINA RESULT:      -3.5     11.211     11.875
REMARK  2 active torsions:
REMARK  status: ('A' for Active; 'I' for Inactive)
REMARK    1  A    between atoms: C1_1  and  C4_4 
REMARK    2  A    between atoms: C2_2  and  N10_10 
ROOT
HETATM    1  C5  UNL     1     -33.424  18.768  -0.502  1.00 20.00     0.003 C 
HETATM    2  C6  UNL     1     -34.490  17.831   0.057  1.00 20.00     0.029 C 
HETATM    3  C7  UNL     1     -32.445  18.018  -1.402  1.00 20.00     0.029 C 
HETATM    4  C8  UNL     1     -35.203  17.064  -1.047  1.00 20.00     0.251 C 
HETATM    5  C9  UNL     1     -33.165  17.250  -2.502  1.00 20.00     0.251 C 
HETATM    6  N10 UNL     1     -34.184  16.332  -1.879  1.00 20.00    -0.006 N 
HETATM    7  H24 UNL     1     -33.685  15.673  -1.264  1.00 20.00     0.297 HD
ENDROOT
BRANCH   6   8
HETATM    8  C2  UNL     1     -34.839  15.499  -2.905  1.00 20.00     0.118 C 
HETATM    9  C1  UNL     1     -35.372  14.820  -3.740  1.00 20.00    -0.049 C 
BRANCH   9  10
HETATM   10  C4  UNL     1     -35.997  14.015  -4.729  1.00 20.00     0.056 C 
HETATM   11  C3  UNL     1     -35.888  14.287  -6.033  1.00 20.00     0.021 C 
ENDBRANCH   9  10
ENDBRANCH   6   8
TORSDOF 2
ENDMDL
