MODEL 1
REMARK VINA RESULT:      -5.3      0.000      0.000
REMARK  0 active torsions:
REMARK  status: ('A' for Active; 'I' for Inactive)
ROOT
HETATM    1  C1  UNL     1     -33.811   4.317   2.747  1.00 20.00     0.012 C 
HETATM    2  C2  UNL     1     -32.786   5.421   2.484  1.00 20.00     0.077 C 
HETATM    3  C3  UNL     1     -34.197   4.259   4.224  1.00 20.00     0.082 C 
HETATM    4  C4  UNL     1     -34.186   6.785   4.221  1.00 20.00     0.264 A 
HETATM    5  C5  UNL     1     -33.173   6.724   3.109  1.00 20.00     0.237 A 
HETATM    6  C6  UNL     1     -34.887   5.546   4.651  1.00 20.00     0.274 C 
HETATM    7  O7  UNL     1     -32.785   6.834   4.492  1.00 20.00    -0.332 OA
HETATM    8  F8  UNL     1     -33.006   7.869   2.342  1.00 20.00    -0.209 F 
HETATM    9  F9  UNL     1     -35.034   5.554   6.001  1.00 20.00    -0.203 F 
HETATM   10  F10 UNL     1     -36.144   5.564   4.130  1.00 20.00    -0.203 F 
ENDROOT
TORSDOF 0
ENDMDL
MODEL 2
REMARK VINA RESULT:      -5.2      1.907      2.686
REMARK  0 active torsions:
REMARK  status: ('A' for Active; 'I' for Inactive)
ROOT
HETATM    1  C1  UNL     1     -33.056   7.104   4.940  1.00 20.00     0.012 C 
HETATM    2  C2  UNL     1     -33.414   6.692   3.512  1.00 20.00     0.077 C 
HETATM    3  C3  UNL     1     -34.216   6.846   5.900  1.00 20.00     0.082 C 
HETATM    4  C4  UNL     1     -34.621   4.679   4.666  1.00 20.00     0.264 A 
HETATM    5  C5  UNL     1     -34.025   5.327   3.445  1.00 20.00     0.237 A 
HETATM    6  C6  UNL     1     -34.523   5.358   5.985  1.00 20.00     0.274 C 
HETATM    7  O7  UNL     1     -35.444   5.323   3.694  1.00 20.00    -0.332 OA
HETATM    8  F8  UNL     1     -33.586   4.485   2.432  1.00 20.00    -0.209 F 
HETATM    9  F9  UNL     1     -35.678   5.174   6.676  1.00 20.00    -0.203 F 
HETATM   10  F10 UNL     1     -33.545   4.749   6.708  1.00 20.00    -0.203 F 
ENDROOT
TORSDOF 0
ENDMDL
MODEL 3
REMARK VINA RESULT:      -4.5      1.997      2.744
REMARK  0 active torsions:
REMARK  status: ('A' for Active; 'I' for Inactive)
ROOT
HETATM    1  C1  UNL     1     -34.676   5.093   5.629  1.00 20.00     0.012 C 
HETATM    2  C2  UNL     1     -34.273   6.549   5.865  1.00 20.00     0.077 C 
HETATM    3  C3  UNL     1     -35.073   4.856   4.173  1.00 20.00     0.082 C 
HETATM    4  C4  UNL     1     -33.148   6.353   3.512  1.00 20.00     0.264 A 
HETATM    5  C5  UNL     1     -33.308   7.051   4.836  1.00 20.00     0.237 A 
HETATM    6  C6  UNL     1     -33.888   5.090   3.248  1.00 20.00     0.274 C 
HETATM    7  O7  UNL     1     -33.948   7.528   3.637  1.00 20.00    -0.332 OA
HETATM    8  F8  UNL     1     -32.233   7.803   5.289  1.00 20.00    -0.209 F 
HETATM    9  F9  UNL     1     -34.312   5.075   1.957  1.00 20.00    -0.203 F 
HETATM   10  F10 UNL     1     -33.019   4.051   3.376  1.00 20.00    -0.203 F 
ENDROOT
TORSDOF 0
ENDMDL
MODEL 4
REMARK VINA RESULT:      -4.5      8.833      9.473
REMARK  0 active torsions:
REMARK  status: ('A' for Active; 'I' for Inactive)
ROOT
HETATM    1  C1  UNL     1     -43.417   7.381  -1.466  1.00 20.00     0.012 C 
HETATM    2  C2  UNL     1     -43.199   5.868  -1.488  1.00 20.00     0.077 C 
HETATM    3  C3  UNL     1     -42.957   7.990  -0.142  1.00 20.00     0.082 C 
HETATM    4  C4  UNL     1     -40.974   6.428  -0.232  1.00 20.00     0.264 A 
HETATM    5  C5  UNL     1     -41.826   5.481  -1.034  1.00 20.00     0.237 A 
HETATM    6  C6  UNL     1     -41.458   7.807   0.041  1.00 20.00     0.274 C 
HETATM    7  O7  UNL     1     -41.705   5.375   0.398  1.00 20.00    -0.332 OA
HETATM    8  F8  UNL     1     -41.167   4.505  -1.770  1.00 20.00    -0.209 F 
HETATM    9  F9  UNL     1     -41.110   8.167   1.304  1.00 20.00    -0.203 F 
HETATM   10  F10 UNL     1     -40.806   8.661  -0.793  1.00 20.00    -0.203 F 
ENDROOT
TORSDOF 0
ENDMDL
MODEL 5
REMARK VINA RESULT:      -4.4     16.772     17.396
REMARK  0 active torsions:
REMARK  status: ('A' for Active; 'I' for Inactive)
ROOT
HETATM    1  C1  UNL     1     -24.704  18.715   9.204  1.00 20.00     0.012 C 
HETATM    2  C2  UNL     1     -25.313  18.678  10.607  1.00 20.00     0.077 C 
HETATM    3  C3  UNL     1     -23.178  18.763   9.263  1.00 20.00     0.082 C 
HETATM    4  C4  UNL     1     -23.301  17.102  11.162  1.00 20.00     0.264 A 
HETATM    5  C5  UNL     1     -24.662  17.659  11.488  1.00 20.00     0.237 A 
HETATM    6  C6  UNL     1     -22.625  17.496   9.898  1.00 20.00     0.274 C 
HETATM    7  O7  UNL     1     -23.464  18.139  12.130  1.00 20.00    -0.332 OA
HETATM    8  F8  UNL     1     -25.495  16.874  12.273  1.00 20.00    -0.209 F 
HETATM    9  F9  UNL     1     -21.294  17.649  10.125  1.00 20.00    -0.203 F 
HETATM   10  F10 UNL     1     -22.745  16.472   9.012  1.00 20.00    -0.203 F 
ENDROOT
TORSDOF 0
ENDMDL
MODEL 6
REMARK VINA RESULT:      -4.4      1.217      3.168
REMARK  0 active torsions:
REMARK  status: ('A' for Active; 'I' for Inactive)
ROOT
HETATM    1  C1  UNL     1     -33.292   4.272   2.993  1.00 20.00     0.012 C 
HETATM    2  C2  UNL     1     -34.353   4.281   4.095  1.00 20.00     0.077 C 
HETATM    3  C3  UNL     1     -33.343   5.554   2.164  1.00 20.00     0.082 C 
HETATM    4  C4  UNL     1     -33.734   6.812   4.319  1.00 20.00     0.264 A 
HETATM    5  C5  UNL     1     -34.363   5.560   4.871  1.00 20.00     0.237 A 
HETATM    6  C6  UNL     1     -33.007   6.764   3.023  1.00 20.00     0.274 C 
HETATM    7  O7  UNL     1     -35.144   6.600   4.251  1.00 20.00    -0.332 OA
HETATM    8  F8  UNL     1     -34.473   5.463   6.252  1.00 20.00    -0.209 F 
HETATM    9  F9  UNL     1     -33.258   7.900   2.321  1.00 20.00    -0.203 F 
HETATM   10  F10 UNL     1     -31.672   6.762   3.282  1.00 20.00    -0.203 F 
ENDROOT
TORSDOF 0
ENDMDL
MODEL 7
REMARK VINA RESULT:      -4.4     16.244     16.770
REMARK  0 active torsions:
REMARK  status: ('A' for Active; 'I' for Inactive)
ROOT
HETATM    1  C1  UNL     1     -24.298  17.936   9.226  1.00 20.00     0.012 C 
HETATM    2  C2  UNL     1     -25.131  19.011   9.925  1.00 20.00     0.077 C 
HETATM    3  C3  UNL     1     -23.305  17.289  10.190  1.00 20.00     0.082 C 
HETATM    4  C4  UNL     1     -25.127  17.342  11.939  1.00 20.00     0.264 A 
HETATM    5  C5  UNL     1     -25.700  18.538  11.226  1.00 20.00     0.237 A 
HETATM    6  C6  UNL     1     -24.038  16.555  11.303  1.00 20.00     0.274 C 
HETATM    7  O7  UNL     1     -24.785  18.672  12.332  1.00 20.00    -0.332 OA
HETATM    8  F8  UNL     1     -27.023  18.860  11.494  1.00 20.00    -0.209 F 
HETATM    9  F9  UNL     1     -23.146  16.167  12.252  1.00 20.00    -0.203 F 
HETATM   10  F10 UNL     1     -24.576  15.413  10.796  1.00 20.00    -0.203 F 
ENDROOT
TORSDOF 0
ENDMDL
MODEL 8
REMARK VINA RESULT:      -4.3     16.735     17.190
REMARK  0 active torsions:
REMARK  status: ('A' for Active; 'I' for Inactive)
ROOT
HETATM    1  C1  UNL     1     -24.696  18.845   9.693  1.00 20.00     0.012 C 
HETATM    2  C2  UNL     1     -24.030  18.372   8.400  1.00 20.00     0.077 C 
HETATM    3  C3  UNL     1     -24.702  17.742  10.750  1.00 20.00     0.082 C 
HETATM    4  C4  UNL     1     -22.362  17.154  10.004  1.00 20.00     0.264 A 
HETATM    5  C5  UNL     1     -22.718  17.695   8.645  1.00 20.00     0.237 A 
HETATM    6  C6  UNL     1     -23.282  17.373  11.151  1.00 20.00     0.274 C 
HETATM    7  O7  UNL     1     -22.848  16.297   8.970  1.00 20.00    -0.332 OA
HETATM    8  F8  UNL     1     -21.668  18.024   7.799  1.00 20.00    -0.209 F 
HETATM    9  F9  UNL     1     -23.308  16.260  11.930  1.00 20.00    -0.203 F 
HETATM   10  F10 UNL     1     -22.771  18.368  11.925  1.00 20.00    -0.203 F 
ENDROOT
TORSDOF 0
ENDMDL
MODEL 9
REMARK VINA RESULT:      -4.3      1.809      2.719
REMARK  0 active torsions:
REMARK  status: ('A' for Active; 'I' for Inactive)
ROOT
HETATM    1  C1  UNL     1     -33.355   7.001   3.552  1.00 20.00     0.012 C 
HETATM    2  C2  UNL     1     -33.092   7.306   5.027  1.00 20.00     0.077 C 
HETATM    3  C3  UNL     1     -33.492   5.498   3.313  1.00 20.00     0.082 C 
HETATM    4  C4  UNL     1     -34.800   5.376   5.470  1.00 20.00     0.264 A 
HETATM    5  C5  UNL     1     -34.032   6.584   5.940  1.00 20.00     0.237 A 
HETATM    6  C6  UNL     1     -34.701   4.943   4.051  1.00 20.00     0.274 C 
HETATM    7  O7  UNL     1     -33.611   5.240   6.248  1.00 20.00    -0.332 OA
HETATM    8  F8  UNL     1     -34.571   7.305   6.996  1.00 20.00    -0.209 F 
HETATM    9  F9  UNL     1     -34.682   3.586   3.992  1.00 20.00    -0.203 F 
HETATM   10  F10 UNL     1     -35.830   5.338   3.404  1.00 20.00    -0.203 F 
ENDROOT
TORSDOF 0
ENDMDL
