MODEL 1
REMARK VINA RESULT:      -4.5      0.000      0.000
REMARK  2 active torsions:
REMARK  status: ('A' for Active; 'I' for Inactive)
REMARK    1  A    between atoms: C2_2  and  C7_7 
REMARK    2  A    between atoms: C3_3  and  C6_6 
ROOT
HETATM    1  C4  UNL     1     -33.364  14.363  -4.290  1.00 20.00     0.014 C 
HETATM    2  C5  UNL     1     -33.068  15.796  -3.811  1.00 20.00     0.015 C 
HETATM    3  C6  UNL     1     -34.787  14.840  -4.679  1.00 20.00     0.067 C 
HETATM    4  C7  UNL     1     -34.604  16.003  -3.635  1.00 20.00    -0.011 C 
HETATM    5  C10 UNL     1     -35.102  15.734  -2.215  1.00 20.00     0.021 C 
ENDROOT
BRANCH   4   6
HETATM    6  C2  UNL     1     -35.087  17.320  -4.130  1.00 20.00    -0.084 C 
HETATM    7  C1  UNL     1     -34.611  17.874  -5.255  1.00 20.00     0.015 C 
HETATM    8  C8  UNL     1     -36.138  17.994  -3.299  1.00 20.00     0.043 C 
ENDBRANCH   4   6
BRANCH   3   9
HETATM    9  C3  UNL     1     -35.952  13.865  -4.485  1.00 20.00     0.128 C 
HETATM   10  C9  UNL     1     -37.336  14.457  -4.477  1.00 20.00     0.091 C 
HETATM   11  O11 UNL     1     -35.766  12.657  -4.345  1.00 20.00    -0.298 OA
ENDBRANCH   3   9
TORSDOF 2
ENDMDL
MODEL 2
REMARK VINA RESULT:      -4.3      1.764      2.481
REMARK  2 active torsions:
REMARK  status: ('A' for Active; 'I' for Inactive)
REMARK    1  A    between atoms: C2_2  and  C7_7 
REMARK    2  A    between atoms: C3_3  and  C6_6 
ROOT
HETATM    1  C4  UNL     1     -34.068  15.015  -6.295  1.00 20.00     0.014 C 
HETATM    2  C5  UNL     1     -33.319  14.644  -5.001  1.00 20.00     0.015 C 
HETATM    3  C6  UNL     1     -34.885  16.041  -5.468  1.00 20.00     0.067 C 
HETATM    4  C7  UNL     1     -34.541  15.180  -4.195  1.00 20.00    -0.011 C 
HETATM    5  C10 UNL     1     -35.547  14.097  -3.810  1.00 20.00     0.021 C 
ENDROOT
BRANCH   4   6
HETATM    6  C2  UNL     1     -34.162  16.002  -3.015  1.00 20.00    -0.084 C 
HETATM    7  C1  UNL     1     -32.975  16.620  -2.932  1.00 20.00     0.015 C 
HETATM    8  C8  UNL     1     -35.184  16.100  -1.922  1.00 20.00     0.043 C 
ENDBRANCH   4   6
BRANCH   3   9
HETATM    9  C3  UNL     1     -36.359  16.248  -5.830  1.00 20.00     0.128 C 
HETATM   10  C9  UNL     1     -37.063  17.403  -5.170  1.00 20.00     0.091 C 
HETATM   11  O11 UNL     1     -36.938  15.507  -6.623  1.00 20.00    -0.298 OA
ENDBRANCH   3   9
TORSDOF 2
ENDMDL
MODEL 3
REMARK VINA RESULT:      -4.3      1.449      2.199
REMARK  2 active torsions:
REMARK  status: ('A' for Active; 'I' for Inactive)
REMARK    1  A    between atoms: C2_2  and  C7_7 
REMARK    2  A    between atoms: C3_3  and  C6_6 
ROOT
HETATM    1  C4  UNL     1     -35.697  14.657  -6.604  1.00 20.00     0.014 C 
HETATM    2  C5  UNL     1     -34.243  15.018  -6.246  1.00 20.00     0.015 C 
HETATM    3  C6  UNL     1     -36.153  15.502  -5.387  1.00 20.00     0.067 C 
HETATM    4  C7  UNL     1     -34.718  15.277  -4.783  1.00 20.00    -0.011 C 
HETATM    5  C10 UNL     1     -34.545  14.073  -3.858  1.00 20.00     0.021 C 
ENDROOT
BRANCH   4   6
HETATM    6  C2  UNL     1     -34.135  16.505  -4.178  1.00 20.00    -0.084 C 
HETATM    7  C1  UNL     1     -34.205  17.698  -4.785  1.00 20.00     0.015 C 
HETATM    8  C8  UNL     1     -33.464  16.330  -2.848  1.00 20.00     0.043 C 
ENDBRANCH   4   6
BRANCH   3   9
HETATM    9  C3  UNL     1     -37.365  15.016  -4.586  1.00 20.00     0.128 C 
HETATM   10  C9  UNL     1     -38.216  16.074  -3.937  1.00 20.00     0.091 C 
HETATM   11  O11 UNL     1     -37.629  13.819  -4.479  1.00 20.00    -0.298 OA
ENDBRANCH   3   9
TORSDOF 2
ENDMDL
MODEL 4
REMARK VINA RESULT:      -4.2      2.028      3.285
REMARK  2 active torsions:
REMARK  status: ('A' for Active; 'I' for Inactive)
REMARK    1  A    between atoms: C2_2  and  C7_7 
REMARK    2  A    between atoms: C3_3  and  C6_6 
ROOT
HETATM    1  C4  UNL     1     -32.950  14.934  -4.212  1.00 20.00     0.014 C 
HETATM    2  C5  UNL     1     -33.891  14.765  -5.420  1.00 20.00     0.015 C 
HETATM    3  C6  UNL     1     -34.189  15.328  -3.367  1.00 20.00     0.067 C 
HETATM    4  C7  UNL     1     -34.891  15.732  -4.716  1.00 20.00    -0.011 C 
HETATM    5  C10 UNL     1     -34.749  17.190  -5.153  1.00 20.00     0.021 C 
ENDROOT
BRANCH   4   6
HETATM    6  C2  UNL     1     -36.308  15.286  -4.799  1.00 20.00    -0.084 C 
HETATM    7  C1  UNL     1     -36.674  14.029  -4.507  1.00 20.00     0.015 C 
HETATM    8  C8  UNL     1     -37.303  16.322  -5.228  1.00 20.00     0.043 C 
ENDBRANCH   4   6
BRANCH   3   9
HETATM    9  C3  UNL     1     -34.013  16.401  -2.288  1.00 20.00     0.128 C 
HETATM   10  C9  UNL     1     -35.177  16.626  -1.362  1.00 20.00     0.091 C 
HETATM   11  O11 UNL     1     -32.970  17.045  -2.183  1.00 20.00    -0.298 OA
ENDBRANCH   3   9
TORSDOF 2
ENDMDL
MODEL 5
REMARK VINA RESULT:      -4.2      1.887      3.148
REMARK  2 active torsions:
REMARK  status: ('A' for Active; 'I' for Inactive)
REMARK    1  A    between atoms: C2_2  and  C7_7 
REMARK    2  A    between atoms: C3_3  and  C6_6 
ROOT
HETATM    1  C4  UNL     1     -36.631  14.224  -4.789  1.00 20.00     0.014 C 
HETATM    2  C5  UNL     1     -35.975  14.733  -3.492  1.00 20.00     0.015 C 
HETATM    3  C6  UNL     1     -35.301  14.529  -5.524  1.00 20.00     0.067 C 
HETATM    4  C7  UNL     1     -34.985  15.555  -4.373  1.00 20.00    -0.011 C 
HETATM    5  C10 UNL     1     -35.423  17.001  -4.606  1.00 20.00     0.021 C 
ENDROOT
BRANCH   4   6
HETATM    6  C2  UNL     1     -33.576  15.494  -3.901  1.00 20.00    -0.084 C 
HETATM    7  C1  UNL     1     -32.731  14.535  -4.309  1.00 20.00     0.015 C 
HETATM    8  C8  UNL     1     -33.154  16.565  -2.940  1.00 20.00     0.043 C 
ENDBRANCH   4   6
BRANCH   3   9
HETATM    9  C3  UNL     1     -35.375  15.048  -6.963  1.00 20.00     0.128 C 
HETATM   10  C9  UNL     1     -34.065  15.310  -7.656  1.00 20.00     0.091 C 
HETATM   11  O11 UNL     1     -36.453  15.240  -7.524  1.00 20.00    -0.298 OA
ENDBRANCH   3   9
TORSDOF 2
ENDMDL
MODEL 6
REMARK VINA RESULT:      -4.2      1.762      3.009
REMARK  2 active torsions:
REMARK  status: ('A' for Active; 'I' for Inactive)
REMARK    1  A    between atoms: C2_2  and  C7_7 
REMARK    2  A    between atoms: C3_3  and  C6_6 
ROOT
HETATM    1  C4  UNL     1     -34.973  16.272  -1.966  1.00 20.00     0.014 C 
HETATM    2  C5  UNL     1     -33.592  16.303  -2.647  1.00 20.00     0.015 C 
HETATM    3  C6  UNL     1     -35.492  15.443  -3.169  1.00 20.00     0.067 C 
HETATM    4  C7  UNL     1     -34.311  16.057  -4.009  1.00 20.00    -0.011 C 
HETATM    5  C10 UNL     1     -34.616  17.337  -4.784  1.00 20.00     0.021 C 
ENDROOT
BRANCH   4   6
HETATM    6  C2  UNL     1     -33.624  15.060  -4.873  1.00 20.00    -0.084 C 
HETATM    7  C1  UNL     1     -32.657  14.259  -4.401  1.00 20.00     0.015 C 
HETATM    8  C8  UNL     1     -34.074  15.002  -6.302  1.00 20.00     0.043 C 
ENDBRANCH   4   6
BRANCH   3   9
HETATM    9  C3  UNL     1     -36.928  15.685  -3.645  1.00 20.00     0.128 C 
HETATM   10  C9  UNL     1     -37.574  14.581  -4.438  1.00 20.00     0.091 C 
HETATM   11  O11 UNL     1     -37.523  16.731  -3.391  1.00 20.00    -0.298 OA
ENDBRANCH   3   9
TORSDOF 2
ENDMDL
MODEL 7
REMARK VINA RESULT:      -4.1      1.608      2.385
REMARK  2 active torsions:
REMARK  status: ('A' for Active; 'I' for Inactive)
REMARK    1  A    between atoms: C2_2  and  C7_7 
REMARK    2  A    between atoms: C3_3  and  C6_6 
ROOT
HETATM    1  C4  UNL     1     -34.782  14.214  -3.762  1.00 20.00     0.014 C 
HETATM    2  C5  UNL     1     -34.708  15.471  -2.874  1.00 20.00     0.015 C 
HETATM    3  C6  UNL     1     -34.303  15.086  -4.951  1.00 20.00     0.067 C 
HETATM    4  C7  UNL     1     -34.856  16.333  -4.165  1.00 20.00    -0.011 C 
HETATM    5  C10 UNL     1     -36.296  16.747  -4.466  1.00 20.00     0.021 C 
ENDROOT
BRANCH   4   6
HETATM    6  C2  UNL     1     -33.943  17.506  -4.205  1.00 20.00    -0.084 C 
HETATM    7  C1  UNL     1     -32.961  17.673  -3.307  1.00 20.00     0.015 C 
HETATM    8  C8  UNL     1     -34.183  18.494  -5.308  1.00 20.00     0.043 C 
ENDBRANCH   4   6
BRANCH   3   9
HETATM    9  C3  UNL     1     -34.875  14.788  -6.340  1.00 20.00     0.128 C 
HETATM   10  C9  UNL     1     -34.167  15.414  -7.512  1.00 20.00     0.091 C 
HETATM   11  O11 UNL     1     -35.863  14.071  -6.490  1.00 20.00    -0.298 OA
ENDBRANCH   3   9
TORSDOF 2
ENDMDL
MODEL 8
REMARK VINA RESULT:      -4.1      2.390      3.897
REMARK  2 active torsions:
REMARK  status: ('A' for Active; 'I' for Inactive)
REMARK    1  A    between atoms: C2_2  and  C7_7 
REMARK    2  A    between atoms: C3_3  and  C6_6 
ROOT
HETATM    1  C4  UNL     1     -34.979  15.869  -2.259  1.00 20.00     0.014 C 
HETATM    2  C5  UNL     1     -35.338  14.872  -3.377  1.00 20.00     0.015 C 
HETATM    3  C6  UNL     1     -34.443  16.827  -3.353  1.00 20.00     0.067 C 
HETATM    4  C7  UNL     1     -34.261  15.561  -4.271  1.00 20.00    -0.011 C 
HETATM    5  C10 UNL     1     -32.896  14.876  -4.229  1.00 20.00     0.021 C 
ENDROOT
BRANCH   4   6
HETATM    6  C2  UNL     1     -34.706  15.782  -5.673  1.00 20.00    -0.084 C 
HETATM    7  C1  UNL     1     -35.737  16.586  -5.973  1.00 20.00     0.015 C 
HETATM    8  C8  UNL     1     -33.934  15.054  -6.733  1.00 20.00     0.043 C 
ENDBRANCH   4   6
BRANCH   3   9
HETATM    9  C3  UNL     1     -33.209  17.674  -3.028  1.00 20.00     0.128 C 
HETATM   10  C9  UNL     1     -32.860  18.765  -4.004  1.00 20.00     0.091 C 
HETATM   11  O11 UNL     1     -32.538  17.473  -2.017  1.00 20.00    -0.298 OA
ENDBRANCH   3   9
TORSDOF 2
ENDMDL
MODEL 9
REMARK VINA RESULT:      -4.1      1.766      2.812
REMARK  2 active torsions:
REMARK  status: ('A' for Active; 'I' for Inactive)
REMARK    1  A    between atoms: C2_2  and  C7_7 
REMARK    2  A    between atoms: C3_3  and  C6_6 
ROOT
HETATM    1  C4  UNL     1     -33.590  15.677  -3.810  1.00 20.00     0.014 C 
HETATM    2  C5  UNL     1     -34.729  15.475  -2.792  1.00 20.00     0.015 C 
HETATM    3  C6  UNL     1     -34.670  15.939  -4.891  1.00 20.00     0.067 C 
HETATM    4  C7  UNL     1     -35.670  15.127  -3.986  1.00 20.00    -0.011 C 
HETATM    5  C10 UNL     1     -35.783  13.629  -4.264  1.00 20.00     0.021 C 
ENDROOT
BRANCH   4   6
HETATM    6  C2  UNL     1     -37.015  15.755  -3.885  1.00 20.00    -0.084 C 
HETATM    7  C1  UNL     1     -37.180  17.013  -3.453  1.00 20.00     0.015 C 
HETATM    8  C8  UNL     1     -38.176  14.898  -4.295  1.00 20.00     0.043 C 
ENDBRANCH   4   6
BRANCH   3   9
HETATM    9  C3  UNL     1     -34.404  15.437  -6.313  1.00 20.00     0.128 C 
HETATM   10  C9  UNL     1     -35.281  15.992  -7.403  1.00 20.00     0.091 C 
HETATM   11  O11 UNL     1     -33.514  14.622  -6.553  1.00 20.00    -0.298 OA
ENDBRANCH   3   9
TORSDOF 2
ENDMDL
