MODEL 1
REMARK VINA RESULT:      -4.8      0.000      0.000
REMARK  1 active torsions:
REMARK  status: ('A' for Active; 'I' for Inactive)
REMARK    1  A    between atoms: C3_3  and  C4_4 
ROOT
HETATM    1  C1  UNL     1     -34.064   4.836   3.207  1.00 20.00     0.012 A 
HETATM    2  C2  UNL     1     -32.949   5.190   2.569  1.00 20.00     0.003 A 
HETATM    3  C4  UNL     1     -34.592   5.993   3.966  1.00 20.00     0.231 A 
HETATM    4  C5  UNL     1     -32.634   6.614   2.857  1.00 20.00     0.141 A 
HETATM    5  C6  UNL     1     -32.577   7.475   1.606  1.00 20.00     0.044 C 
HETATM    6  O8  UNL     1     -33.709   7.088   3.699  1.00 20.00    -0.364 OA
ENDROOT
BRANCH   3   7
HETATM    7  C3  UNL     1     -34.527   5.697   5.429  1.00 20.00     0.251 C 
HETATM    8  O7  UNL     1     -34.907   4.623   5.887  1.00 20.00    -0.277 OA
HETATM    9 CL9  UNL     1     -33.870   7.025   6.336  1.00 20.00    -0.041 Cl
ENDBRANCH   3   7
TORSDOF 1
ENDMDL
MODEL 2
REMARK VINA RESULT:      -4.2     11.871     12.248
REMARK  1 active torsions:
REMARK  status: ('A' for Active; 'I' for Inactive)
REMARK    1  A    between atoms: C3_3  and  C4_4 
ROOT
HETATM    1  C1  UNL     1     -34.192  14.727  -5.045  1.00 20.00     0.012 A 
HETATM    2  C2  UNL     1     -33.323  14.989  -4.070  1.00 20.00     0.003 A 
HETATM    3  C4  UNL     1     -35.548  15.155  -4.632  1.00 20.00     0.231 A 
HETATM    4  C5  UNL     1     -34.030  15.606  -2.917  1.00 20.00     0.141 A 
HETATM    5  C6  UNL     1     -33.499  16.986  -2.564  1.00 20.00     0.044 C 
HETATM    6  O8  UNL     1     -35.410  15.731  -3.328  1.00 20.00    -0.364 OA
ENDROOT
BRANCH   3   7
HETATM    7  C3  UNL     1     -36.432  13.957  -4.513  1.00 20.00     0.251 C 
HETATM    8  O7  UNL     1     -35.983  12.815  -4.579  1.00 20.00    -0.277 OA
HETATM    9 CL9  UNL     1     -38.098  14.392  -4.280  1.00 20.00    -0.041 Cl
ENDBRANCH   3   7
TORSDOF 1
ENDMDL
MODEL 3
REMARK VINA RESULT:      -4.0     11.381     12.752
REMARK  1 active torsions:
REMARK  status: ('A' for Active; 'I' for Inactive)
REMARK    1  A    between atoms: C3_3  and  C4_4 
ROOT
HETATM    1  C1  UNL     1     -36.768  15.854  -4.718  1.00 20.00     0.012 A 
HETATM    2  C2  UNL     1     -37.891  16.200  -4.091  1.00 20.00     0.003 A 
HETATM    3  C4  UNL     1     -36.803  14.410  -5.043  1.00 20.00     0.231 A 
HETATM    4  C5  UNL     1     -38.768  15.009  -3.935  1.00 20.00     0.141 A 
HETATM    5  C6  UNL     1     -40.125  15.179  -4.598  1.00 20.00     0.044 C 
HETATM    6  O8  UNL     1     -38.068  13.922  -4.582  1.00 20.00    -0.364 OA
ENDROOT
BRANCH   3   7
HETATM    7  C3  UNL     1     -35.732  13.703  -4.277  1.00 20.00     0.251 C 
HETATM    8  O7  UNL     1     -35.624  12.480  -4.298  1.00 20.00    -0.277 OA
HETATM    9 CL9  UNL     1     -34.717  14.807  -3.400  1.00 20.00    -0.041 Cl
ENDBRANCH   3   7
TORSDOF 1
ENDMDL
MODEL 4
REMARK VINA RESULT:      -3.9     11.935     12.479
REMARK  1 active torsions:
REMARK  status: ('A' for Active; 'I' for Inactive)
REMARK    1  A    between atoms: C3_3  and  C4_4 
ROOT
HETATM    1  C1  UNL     1     -35.317  14.415  -4.739  1.00 20.00     0.012 A 
HETATM    2  C2  UNL     1     -34.439  14.408  -3.736  1.00 20.00     0.003 A 
HETATM    3  C4  UNL     1     -36.294  15.508  -4.537  1.00 20.00     0.231 A 
HETATM    4  C5  UNL     1     -34.765  15.493  -2.774  1.00 20.00     0.141 A 
HETATM    5  C6  UNL     1     -33.631  16.489  -2.595  1.00 20.00     0.044 C 
HETATM    6  O8  UNL     1     -35.905  16.182  -3.334  1.00 20.00    -0.364 OA
ENDROOT
BRANCH   3   7
HETATM    7  C3  UNL     1     -37.652  14.925  -4.316  1.00 20.00     0.251 C 
HETATM    8  O7  UNL     1     -37.858  13.718  -4.409  1.00 20.00    -0.277 OA
HETATM    9 CL9  UNL     1     -38.832  16.141  -3.929  1.00 20.00    -0.041 Cl
ENDBRANCH   3   7
TORSDOF 1
ENDMDL
MODEL 5
REMARK VINA RESULT:      -3.9     15.800     16.477
REMARK  1 active torsions:
REMARK  status: ('A' for Active; 'I' for Inactive)
REMARK    1  A    between atoms: C3_3  and  C4_4 
ROOT
HETATM    1  C1  UNL     1     -24.703  18.417  10.133  1.00 20.00     0.012 A 
HETATM    2  C2  UNL     1     -23.915  18.208   9.079  1.00 20.00     0.003 A 
HETATM    3  C4  UNL     1     -24.117  17.768  11.329  1.00 20.00     0.231 A 
HETATM    4  C5  UNL     1     -22.739  17.392   9.483  1.00 20.00     0.141 A 
HETATM    5  C6  UNL     1     -21.414  18.090   9.227  1.00 20.00     0.044 C 
HETATM    6  O8  UNL     1     -22.885  17.175  10.904  1.00 20.00    -0.364 OA
ENDROOT
BRANCH   3   7
HETATM    7  C3  UNL     1     -25.020  16.670  11.789  1.00 20.00     0.251 C 
HETATM    8  O7  UNL     1     -24.667  15.493  11.766  1.00 20.00    -0.277 OA
HETATM    9 CL9  UNL     1     -26.557  17.269  12.331  1.00 20.00    -0.041 Cl
ENDBRANCH   3   7
TORSDOF 1
ENDMDL
MODEL 6
REMARK VINA RESULT:      -3.8     12.124     12.678
REMARK  1 active torsions:
REMARK  status: ('A' for Active; 'I' for Inactive)
REMARK    1  A    between atoms: C3_3  and  C4_4 
ROOT
HETATM    1  C1  UNL     1     -35.767  16.284  -4.723  1.00 20.00     0.012 A 
HETATM    2  C2  UNL     1     -34.614  16.888  -4.440  1.00 20.00     0.003 A 
HETATM    3  C4  UNL     1     -35.875  15.028  -3.945  1.00 20.00     0.231 A 
HETATM    4  C5  UNL     1     -33.850  16.079  -3.454  1.00 20.00     0.141 A 
HETATM    5  C6  UNL     1     -33.548  16.835  -2.171  1.00 20.00     0.044 C 
HETATM    6  O8  UNL     1     -34.693  14.948  -3.140  1.00 20.00    -0.364 OA
ENDROOT
BRANCH   3   7
HETATM    7  C3  UNL     1     -35.873  13.864  -4.880  1.00 20.00     0.251 C 
HETATM    8  O7  UNL     1     -35.902  12.707  -4.470  1.00 20.00    -0.277 OA
HETATM    9 CL9  UNL     1     -35.828  14.361  -6.545  1.00 20.00    -0.041 Cl
ENDBRANCH   3   7
TORSDOF 1
ENDMDL
MODEL 7
REMARK VINA RESULT:      -3.8     12.488     13.181
REMARK  1 active torsions:
REMARK  status: ('A' for Active; 'I' for Inactive)
REMARK    1  A    between atoms: C3_3  and  C4_4 
ROOT
HETATM    1  C1  UNL     1     -34.764  14.323  -3.815  1.00 20.00     0.012 A 
HETATM    2  C2  UNL     1     -34.830  15.286  -2.897  1.00 20.00     0.003 A 
HETATM    3  C4  UNL     1     -34.117  14.846  -5.041  1.00 20.00     0.231 A 
HETATM    4  C5  UNL     1     -34.240  16.540  -3.439  1.00 20.00     0.141 A 
HETATM    5  C6  UNL     1     -33.068  17.049  -2.617  1.00 20.00     0.044 C 
HETATM    6  O8  UNL     1     -33.769  16.208  -4.764  1.00 20.00    -0.364 OA
ENDROOT
BRANCH   3   7
HETATM    7  C3  UNL     1     -35.105  14.843  -6.162  1.00 20.00     0.251 C 
HETATM    8  O7  UNL     1     -35.940  13.952  -6.283  1.00 20.00    -0.277 OA
HETATM    9 CL9  UNL     1     -34.908  16.214  -7.211  1.00 20.00    -0.041 Cl
ENDBRANCH   3   7
TORSDOF 1
ENDMDL
MODEL 8
REMARK VINA RESULT:      -3.8     12.017     12.714
REMARK  1 active torsions:
REMARK  status: ('A' for Active; 'I' for Inactive)
REMARK    1  A    between atoms: C3_3  and  C4_4 
ROOT
HETATM    1  C1  UNL     1     -33.634  16.361  -3.957  1.00 20.00     0.012 A 
HETATM    2  C2  UNL     1     -33.552  16.357  -2.627  1.00 20.00     0.003 A 
HETATM    3  C4  UNL     1     -35.009  15.998  -4.371  1.00 20.00     0.231 A 
HETATM    4  C5  UNL     1     -34.866  15.981  -2.041  1.00 20.00     0.141 A 
HETATM    5  C6  UNL     1     -35.437  17.050  -1.125  1.00 20.00     0.044 C 
HETATM    6  O8  UNL     1     -35.758  15.807  -3.165  1.00 20.00    -0.364 OA
ENDROOT
BRANCH   3   7
HETATM    7  C3  UNL     1     -34.978  14.696  -5.103  1.00 20.00     0.251 C 
HETATM    8  O7  UNL     1     -34.186  14.489  -6.018  1.00 20.00    -0.277 OA
HETATM    9 CL9  UNL     1     -36.165  13.578  -4.502  1.00 20.00    -0.041 Cl
ENDBRANCH   3   7
TORSDOF 1
ENDMDL
MODEL 9
REMARK VINA RESULT:      -3.8      9.147      9.890
REMARK  1 active torsions:
REMARK  status: ('A' for Active; 'I' for Inactive)
REMARK    1  A    between atoms: C3_3  and  C4_4 
ROOT
HETATM    1  C1  UNL     1     -40.997   6.972  -0.387  1.00 20.00     0.012 A 
HETATM    2  C2  UNL     1     -41.788   5.927  -0.623  1.00 20.00     0.003 A 
HETATM    3  C4  UNL     1     -41.574   7.799   0.698  1.00 20.00     0.231 A 
HETATM    4  C5  UNL     1     -42.969   5.974   0.280  1.00 20.00     0.141 A 
HETATM    5  C6  UNL     1     -43.088   4.747   1.168  1.00 20.00     0.044 C 
HETATM    6  O8  UNL     1     -42.773   7.136   1.117  1.00 20.00    -0.364 OA
ENDROOT
BRANCH   3   7
HETATM    7  C3  UNL     1     -41.956   9.136   0.152  1.00 20.00     0.251 C 
HETATM    8  O7  UNL     1     -41.280  10.138   0.369  1.00 20.00    -0.277 OA
HETATM    9 CL9  UNL     1     -43.417   9.068  -0.785  1.00 20.00    -0.041 Cl
ENDBRANCH   3   7
TORSDOF 1
ENDMDL
