MODEL 1
REMARK VINA RESULT:      -4.7      0.000      0.000
REMARK  2 active torsions:
REMARK  status: ('A' for Active; 'I' for Inactive)
REMARK    1  A    between atoms: C1_1  and  C7_7 
REMARK    2  A    between atoms: C1_1  and  C9_9 
ROOT
HETATM    1  C2  UNL     1     -26.063  16.868  12.192  1.00 20.00     0.000 C 
HETATM    2  C3  UNL     1     -24.920  15.882  11.979  1.00 20.00     0.001 C 
HETATM    3  C4  UNL     1     -25.553  18.299  12.312  1.00 20.00     0.001 C 
HETATM    4  C5  UNL     1     -24.065  16.260  10.769  1.00 20.00     0.017 C 
HETATM    5  C6  UNL     1     -24.705  18.701  11.104  1.00 20.00     0.017 C 
HETATM    6  C7  UNL     1     -23.575  17.709  10.816  1.00 20.00     0.018 C 
HETATM    7  C8  UNL     1     -22.489  17.848  11.882  1.00 20.00     0.023 C 
ENDROOT
BRANCH   6   8
HETATM    8  C1  UNL     1     -22.831  18.080   9.532  1.00 20.00     0.148 C 
HETATM    9  O10 UNL     1     -22.938  19.206   9.049  1.00 20.00    -0.296 OA
BRANCH   8  10
HETATM   10  C9  UNL     1     -21.985  16.984   8.924  1.00 20.00     0.193 C 
HETATM   11 CL11 UNL     1     -21.587  17.361   7.242  1.00 20.00    -0.123 Cl
ENDBRANCH   8  10
ENDBRANCH   6   8
TORSDOF 2
ENDMDL
MODEL 2
REMARK VINA RESULT:      -4.5     18.280     18.734
REMARK  2 active torsions:
REMARK  status: ('A' for Active; 'I' for Inactive)
REMARK    1  A    between atoms: C1_1  and  C7_7 
REMARK    2  A    between atoms: C1_1  and  C9_9 
ROOT
HETATM    1  C2  UNL     1     -34.355  18.064  -3.232  1.00 20.00     0.000 C 
HETATM    2  C3  UNL     1     -33.939  16.972  -2.252  1.00 20.00     0.001 C 
HETATM    3  C4  UNL     1     -34.066  17.661  -4.673  1.00 20.00     0.001 C 
HETATM    4  C5  UNL     1     -34.593  15.631  -2.586  1.00 20.00     0.017 C 
HETATM    5  C6  UNL     1     -34.722  16.327  -5.031  1.00 20.00     0.017 C 
HETATM    6  C7  UNL     1     -34.378  15.211  -4.042  1.00 20.00     0.018 C 
HETATM    7  C8  UNL     1     -32.924  14.783  -4.241  1.00 20.00     0.023 C 
ENDROOT
BRANCH   6   8
HETATM    8  C1  UNL     1     -35.150  13.931  -4.364  1.00 20.00     0.148 C 
HETATM    9  O10 UNL     1     -34.757  12.841  -3.952  1.00 20.00    -0.296 OA
BRANCH   8  10
HETATM   10  C9  UNL     1     -36.394  14.110  -5.206  1.00 20.00     0.193 C 
HETATM   11 CL11 UNL     1     -37.787  14.499  -4.188  1.00 20.00    -0.123 Cl
ENDBRANCH   8  10
ENDBRANCH   6   8
TORSDOF 2
ENDMDL
MODEL 3
REMARK VINA RESULT:      -4.4     17.649     18.060
REMARK  2 active torsions:
REMARK  status: ('A' for Active; 'I' for Inactive)
REMARK    1  A    between atoms: C1_1  and  C7_7 
REMARK    2  A    between atoms: C1_1  and  C9_9 
ROOT
HETATM    1  C2  UNL     1     -33.915  17.188  -1.166  1.00 20.00     0.000 C 
HETATM    2  C3  UNL     1     -33.097  17.665  -2.362  1.00 20.00     0.001 C 
HETATM    3  C4  UNL     1     -35.276  16.654  -1.597  1.00 20.00     0.001 C 
HETATM    4  C5  UNL     1     -32.944  16.569  -3.416  1.00 20.00     0.017 C 
HETATM    5  C6  UNL     1     -35.144  15.547  -2.644  1.00 20.00     0.017 C 
HETATM    6  C7  UNL     1     -34.283  15.960  -3.841  1.00 20.00     0.018 C 
HETATM    7  C8  UNL     1     -35.052  16.963  -4.700  1.00 20.00     0.023 C 
ENDROOT
BRANCH   6   8
HETATM    8  C1  UNL     1     -34.075  14.788  -4.800  1.00 20.00     0.148 C 
HETATM    9  O10 UNL     1     -33.328  13.858  -4.500  1.00 20.00    -0.296 OA
BRANCH   8  10
HETATM   10  C9  UNL     1     -34.835  14.865  -6.105  1.00 20.00     0.193 C 
HETATM   11 CL11 UNL     1     -33.725  15.090  -7.464  1.00 20.00    -0.123 Cl
ENDBRANCH   8  10
ENDBRANCH   6   8
TORSDOF 2
ENDMDL
MODEL 4
REMARK VINA RESULT:      -4.4     16.183     16.654
REMARK  2 active torsions:
REMARK  status: ('A' for Active; 'I' for Inactive)
REMARK    1  A    between atoms: C1_1  and  C7_7 
REMARK    2  A    between atoms: C1_1  and  C9_9 
ROOT
HETATM    1  C2  UNL     1     -34.565  14.395  -3.761  1.00 20.00     0.000 C 
HETATM    2  C3  UNL     1     -35.682  15.229  -3.144  1.00 20.00     0.001 C 
HETATM    3  C4  UNL     1     -33.426  15.273  -4.268  1.00 20.00     0.001 C 
HETATM    4  C5  UNL     1     -35.162  16.141  -2.034  1.00 20.00     0.017 C 
HETATM    5  C6  UNL     1     -32.883  16.186  -3.167  1.00 20.00     0.017 C 
HETATM    6  C7  UNL     1     -33.978  17.004  -2.479  1.00 20.00     0.018 C 
HETATM    7  C8  UNL     1     -34.470  18.097  -3.426  1.00 20.00     0.023 C 
ENDROOT
BRANCH   6   8
HETATM    8  C1  UNL     1     -33.412  17.807  -1.307  1.00 20.00     0.148 C 
HETATM    9  O10 UNL     1     -34.006  17.850  -0.231  1.00 20.00    -0.296 OA
BRANCH   8  10
HETATM   10  C9  UNL     1     -32.106  18.522  -1.572  1.00 20.00     0.193 C 
HETATM   11 CL11 UNL     1     -30.961  18.244  -0.251  1.00 20.00    -0.123 Cl
ENDBRANCH   8  10
ENDBRANCH   6   8
TORSDOF 2
ENDMDL
MODEL 5
REMARK VINA RESULT:      -4.4     17.603     18.010
REMARK  2 active torsions:
REMARK  status: ('A' for Active; 'I' for Inactive)
REMARK    1  A    between atoms: C1_1  and  C7_7 
REMARK    2  A    between atoms: C1_1  and  C9_9 
ROOT
HETATM    1  C2  UNL     1     -33.572  17.468  -1.164  1.00 20.00     0.000 C 
HETATM    2  C3  UNL     1     -32.829  17.644  -2.484  1.00 20.00     0.001 C 
HETATM    3  C4  UNL     1     -35.036  17.109  -1.391  1.00 20.00     0.001 C 
HETATM    4  C5  UNL     1     -32.956  16.408  -3.375  1.00 20.00     0.017 C 
HETATM    5  C6  UNL     1     -35.185  15.867  -2.271  1.00 20.00     0.017 C 
HETATM    6  C7  UNL     1     -34.409  15.974  -3.586  1.00 20.00     0.018 C 
HETATM    7  C8  UNL     1     -35.109  16.966  -4.513  1.00 20.00     0.023 C 
ENDROOT
BRANCH   6   8
HETATM    8  C1  UNL     1     -34.482  14.667  -4.377  1.00 20.00     0.148 C 
HETATM    9  O10 UNL     1     -33.635  13.791  -4.219  1.00 20.00    -0.296 OA
BRANCH   8  10
HETATM   10  C9  UNL     1     -35.643  14.547  -5.338  1.00 20.00     0.193 C 
HETATM   11 CL11 UNL     1     -37.093  13.975  -4.500  1.00 20.00    -0.123 Cl
ENDBRANCH   8  10
ENDBRANCH   6   8
TORSDOF 2
ENDMDL
MODEL 6
REMARK VINA RESULT:      -4.3     18.802     19.227
REMARK  2 active torsions:
REMARK  status: ('A' for Active; 'I' for Inactive)
REMARK    1  A    between atoms: C1_1  and  C7_7 
REMARK    2  A    between atoms: C1_1  and  C9_9 
ROOT
HETATM    1  C2  UNL     1     -33.720  16.690  -2.416  1.00 20.00     0.000 C 
HETATM    2  C3  UNL     1     -35.037  16.032  -2.017  1.00 20.00     0.001 C 
HETATM    3  C4  UNL     1     -32.985  15.875  -3.473  1.00 20.00     0.001 C 
HETATM    4  C5  UNL     1     -35.932  15.776  -3.229  1.00 20.00     0.017 C 
HETATM    5  C6  UNL     1     -33.861  15.618  -4.700  1.00 20.00     0.017 C 
HETATM    6  C7  UNL     1     -35.219  15.008  -4.345  1.00 20.00     0.018 C 
HETATM    7  C8  UNL     1     -35.029  13.552  -3.922  1.00 20.00     0.023 C 
ENDROOT
BRANCH   6   8
HETATM    8  C1  UNL     1     -36.108  14.884  -5.582  1.00 20.00     0.148 C 
HETATM    9  O10 UNL     1     -35.973  13.940  -6.358  1.00 20.00    -0.296 OA
BRANCH   8  10
HETATM   10  C9  UNL     1     -37.131  15.982  -5.768  1.00 20.00     0.193 C 
HETATM   11 CL11 UNL     1     -36.413  17.373  -6.592  1.00 20.00    -0.123 Cl
ENDBRANCH   8  10
ENDBRANCH   6   8
TORSDOF 2
ENDMDL
MODEL 7
REMARK VINA RESULT:      -4.3      2.078      2.360
REMARK  2 active torsions:
REMARK  status: ('A' for Active; 'I' for Inactive)
REMARK    1  A    between atoms: C1_1  and  C7_7 
REMARK    2  A    between atoms: C1_1  and  C9_9 
ROOT
HETATM    1  C2  UNL     1     -25.037  16.719  11.963  1.00 20.00     0.000 C 
HETATM    2  C3  UNL     1     -24.022  16.015  11.070  1.00 20.00     0.001 C 
HETATM    3  C4  UNL     1     -24.858  18.232  11.929  1.00 20.00     0.001 C 
HETATM    4  C5  UNL     1     -24.072  16.538   9.634  1.00 20.00     0.017 C 
HETATM    5  C6  UNL     1     -24.917  18.777  10.501  1.00 20.00     0.017 C 
HETATM    6  C7  UNL     1     -23.952  18.062   9.551  1.00 20.00     0.018 C 
HETATM    7  C8  UNL     1     -22.518  18.480   9.870  1.00 20.00     0.023 C 
ENDROOT
BRANCH   6   8
HETATM    8  C1  UNL     1     -24.131  18.550   8.113  1.00 20.00     0.148 C 
HETATM    9  O10 UNL     1     -23.252  18.364   7.275  1.00 20.00    -0.296 OA
BRANCH   8  10
HETATM   10  C9  UNL     1     -25.435  19.258   7.818  1.00 20.00     0.193 C 
HETATM   11 CL11 UNL     1     -26.218  18.558   6.394  1.00 20.00    -0.123 Cl
ENDBRANCH   8  10
ENDBRANCH   6   8
TORSDOF 2
ENDMDL
MODEL 8
REMARK VINA RESULT:      -4.3     18.382     18.777
REMARK  2 active torsions:
REMARK  status: ('A' for Active; 'I' for Inactive)
REMARK    1  A    between atoms: C1_1  and  C7_7 
REMARK    2  A    between atoms: C1_1  and  C9_9 
ROOT
HETATM    1  C2  UNL     1     -33.959  17.105  -1.916  1.00 20.00     0.000 C 
HETATM    2  C3  UNL     1     -35.190  16.216  -1.783  1.00 20.00     0.001 C 
HETATM    3  C4  UNL     1     -32.968  16.541  -2.927  1.00 20.00     0.001 C 
HETATM    4  C5  UNL     1     -35.865  15.976  -3.134  1.00 20.00     0.017 C 
HETATM    5  C6  UNL     1     -33.621  16.306  -4.290  1.00 20.00     0.017 C 
HETATM    6  C7  UNL     1     -34.895  15.462  -4.201  1.00 20.00     0.018 C 
HETATM    7  C8  UNL     1     -34.526  14.010  -3.898  1.00 20.00     0.023 C 
ENDROOT
BRANCH   6   8
HETATM    8  C1  UNL     1     -35.582  15.355  -5.563  1.00 20.00     0.148 C 
HETATM    9  O10 UNL     1     -36.580  14.652  -5.708  1.00 20.00    -0.296 OA
BRANCH   8  10
HETATM   10  C9  UNL     1     -34.952  16.157  -6.679  1.00 20.00     0.193 C 
HETATM   11 CL11 UNL     1     -33.818  15.160  -7.603  1.00 20.00    -0.123 Cl
ENDBRANCH   8  10
ENDBRANCH   6   8
TORSDOF 2
ENDMDL
MODEL 9
REMARK VINA RESULT:      -4.3     19.069     19.533
REMARK  2 active torsions:
REMARK  status: ('A' for Active; 'I' for Inactive)
REMARK    1  A    between atoms: C1_1  and  C7_7 
REMARK    2  A    between atoms: C1_1  and  C9_9 
ROOT
HETATM    1  C2  UNL     1     -33.347  16.284  -2.845  1.00 20.00     0.000 C 
HETATM    2  C3  UNL     1     -34.695  15.926  -2.229  1.00 20.00     0.001 C 
HETATM    3  C4  UNL     1     -32.998  15.357  -4.004  1.00 20.00     0.001 C 
HETATM    4  C5  UNL     1     -35.811  15.917  -3.275  1.00 20.00     0.017 C 
HETATM    5  C6  UNL     1     -34.097  15.342  -5.067  1.00 20.00     0.017 C 
HETATM    6  C7  UNL     1     -35.482  15.042  -4.487  1.00 20.00     0.018 C 
HETATM    7  C8  UNL     1     -35.561  13.568  -4.091  1.00 20.00     0.023 C 
ENDROOT
BRANCH   6   8
HETATM    8  C1  UNL     1     -36.565  15.160  -5.560  1.00 20.00     0.148 C 
HETATM    9  O10 UNL     1     -36.391  14.687  -6.681  1.00 20.00    -0.296 OA
BRANCH   8  10
HETATM   10  C9  UNL     1     -37.826  15.883  -5.142  1.00 20.00     0.193 C 
HETATM   11 CL11 UNL     1     -38.946  14.774  -4.338  1.00 20.00    -0.123 Cl
ENDBRANCH   8  10
ENDBRANCH   6   8
TORSDOF 2
ENDMDL
