MODEL 1
REMARK VINA RESULT:      -5.6      0.000      0.000
REMARK  2 active torsions:
REMARK  status: ('A' for Active; 'I' for Inactive)
REMARK    1  A    between atoms: C5_5  and  C7_7 
REMARK    2  A    between atoms: C7_7  and  O8_8 
ROOT
HETATM    1  C1  UNL     1     -33.049   7.086   4.873  1.00 20.00     0.013 C 
HETATM    2  C2  UNL     1     -33.984   5.228   3.431  1.00 20.00     0.013 C 
HETATM    3  C3  UNL     1     -34.150   6.841   5.902  1.00 20.00     0.079 C 
HETATM    4  C4  UNL     1     -35.086   4.984   4.461  1.00 20.00     0.079 C 
HETATM    5  C5  UNL     1     -33.497   6.684   3.459  1.00 20.00     0.009 C 
HETATM    6  C6  UNL     1     -34.649   5.407   5.852  1.00 20.00     0.243 C 
HETATM    7  F9  UNL     1     -33.666   4.576   6.286  1.00 20.00    -0.206 F 
HETATM    8  F10 UNL     1     -35.686   5.259   6.715  1.00 20.00    -0.206 F 
ENDROOT
BRANCH   5   9
HETATM    9  C7  UNL     1     -32.364   6.891   2.457  1.00 20.00     0.168 C 
BRANCH   9  10
HETATM   10  O8  UNL     1     -32.707   7.971   1.609  1.00 20.00    -0.400 OA
HETATM   11  H22 UNL     1     -33.380   8.497   2.072  1.00 20.00     0.209 HD
ENDBRANCH   9  10
ENDBRANCH   5   9
TORSDOF 2
ENDMDL
MODEL 2
REMARK VINA RESULT:      -5.5      1.121      2.077
REMARK  2 active torsions:
REMARK  status: ('A' for Active; 'I' for Inactive)
REMARK    1  A    between atoms: C5_5  and  C7_7 
REMARK    2  A    between atoms: C7_7  and  O8_8 
ROOT
HETATM    1  C1  UNL     1     -33.605   5.070   2.631  1.00 20.00     0.013 C 
HETATM    2  C2  UNL     1     -33.563   7.250   3.916  1.00 20.00     0.013 C 
HETATM    3  C3  UNL     1     -34.098   4.344   3.880  1.00 20.00     0.079 C 
HETATM    4  C4  UNL     1     -34.056   6.522   5.165  1.00 20.00     0.079 C 
HETATM    5  C5  UNL     1     -32.775   6.312   2.990  1.00 20.00     0.009 C 
HETATM    6  C6  UNL     1     -34.853   5.280   4.807  1.00 20.00     0.243 C 
HETATM    7  F9  UNL     1     -36.018   5.651   4.216  1.00 20.00    -0.206 F 
HETATM    8  F10 UNL     1     -35.191   4.618   5.941  1.00 20.00    -0.206 F 
ENDROOT
BRANCH   5   9
HETATM    9  C7  UNL     1     -32.336   7.049   1.726  1.00 20.00     0.168 C 
BRANCH   9  10
HETATM   10  O8  UNL     1     -32.921   8.337   1.731  1.00 20.00    -0.400 OA
HETATM   11  H22 UNL     1     -33.506   8.390   0.956  1.00 20.00     0.209 HD
ENDBRANCH   9  10
ENDBRANCH   5   9
TORSDOF 2
ENDMDL
MODEL 3
REMARK VINA RESULT:      -4.8     12.240     12.819
REMARK  2 active torsions:
REMARK  status: ('A' for Active; 'I' for Inactive)
REMARK    1  A    between atoms: C5_5  and  C7_7 
REMARK    2  A    between atoms: C7_7  and  O8_8 
ROOT
HETATM    1  C1  UNL     1     -35.623  15.731  -2.776  1.00 20.00     0.013 C 
HETATM    2  C2  UNL     1     -33.880  14.980  -4.450  1.00 20.00     0.013 C 
HETATM    3  C3  UNL     1     -34.536  16.416  -1.952  1.00 20.00     0.079 C 
HETATM    4  C4  UNL     1     -32.793  15.666  -3.625  1.00 20.00     0.079 C 
HETATM    5  C5  UNL     1     -35.063  14.544  -3.574  1.00 20.00     0.009 C 
HETATM    6  C6  UNL     1     -33.354  16.822  -2.816  1.00 20.00     0.243 C 
HETATM    7  F9  UNL     1     -33.738  17.814  -3.660  1.00 20.00    -0.206 F 
HETATM    8  F10 UNL     1     -32.377  17.341  -2.032  1.00 20.00    -0.206 F 
ENDROOT
BRANCH   5   9
HETATM    9  C7  UNL     1     -36.158  13.906  -4.428  1.00 20.00     0.168 C 
BRANCH   9  10
HETATM   10  O8  UNL     1     -35.896  12.519  -4.529  1.00 20.00    -0.400 OA
HETATM   11  H22 UNL     1     -36.721  12.054  -4.303  1.00 20.00     0.209 HD
ENDBRANCH   9  10
ENDBRANCH   5   9
TORSDOF 2
ENDMDL
MODEL 4
REMARK VINA RESULT:      -4.5     16.141     17.086
REMARK  2 active torsions:
REMARK  status: ('A' for Active; 'I' for Inactive)
REMARK    1  A    between atoms: C5_5  and  C7_7 
REMARK    2  A    between atoms: C7_7  and  O8_8 
ROOT
HETATM    1  C1  UNL     1     -24.886  18.232  10.134  1.00 20.00     0.013 C 
HETATM    2  C2  UNL     1     -23.498  17.272  12.020  1.00 20.00     0.013 C 
HETATM    3  C3  UNL     1     -23.613  18.722   9.448  1.00 20.00     0.079 C 
HETATM    4  C4  UNL     1     -22.225  17.763  11.333  1.00 20.00     0.079 C 
HETATM    5  C5  UNL     1     -24.709  18.144  11.658  1.00 20.00     0.009 C 
HETATM    6  C6  UNL     1     -22.412  17.874   9.830  1.00 20.00     0.243 C 
HETATM    7  F9  UNL     1     -22.557  16.631   9.304  1.00 20.00    -0.206 F 
HETATM    8  F10 UNL     1     -21.293  18.399   9.274  1.00 20.00    -0.206 F 
ENDROOT
BRANCH   5   9
HETATM    9  C7  UNL     1     -25.977  17.605  12.316  1.00 20.00     0.168 C 
BRANCH   9  10
HETATM   10  O8  UNL     1     -26.165  16.267  11.898  1.00 20.00    -0.400 OA
HETATM   11  H22 UNL     1     -25.982  16.236  10.943  1.00 20.00     0.209 HD
ENDBRANCH   9  10
ENDBRANCH   5   9
TORSDOF 2
ENDMDL
MODEL 5
REMARK VINA RESULT:      -4.5     12.030     12.996
REMARK  2 active torsions:
REMARK  status: ('A' for Active; 'I' for Inactive)
REMARK    1  A    between atoms: C5_5  and  C7_7 
REMARK    2  A    between atoms: C7_7  and  O8_8 
ROOT
HETATM    1  C1  UNL     1     -34.136  14.371  -3.943  1.00 20.00     0.013 C 
HETATM    2  C2  UNL     1     -35.914  16.170  -3.842  1.00 20.00     0.013 C 
HETATM    3  C3  UNL     1     -33.051  15.439  -3.826  1.00 20.00     0.079 C 
HETATM    4  C4  UNL     1     -34.827  17.237  -3.726  1.00 20.00     0.079 C 
HETATM    5  C5  UNL     1     -35.410  14.930  -4.595  1.00 20.00     0.009 C 
HETATM    6  C6  UNL     1     -33.560  16.675  -3.106  1.00 20.00     0.243 C 
HETATM    7  F9  UNL     1     -33.797  16.369  -1.804  1.00 20.00    -0.206 F 
HETATM    8  F10 UNL     1     -32.596  17.629  -3.107  1.00 20.00    -0.206 F 
ENDROOT
BRANCH   5   9
HETATM    9  C7  UNL     1     -36.497  13.858  -4.655  1.00 20.00     0.168 C 
BRANCH   9  10
HETATM   10  O8  UNL     1     -35.884  12.590  -4.516  1.00 20.00    -0.400 OA
HETATM   11  H22 UNL     1     -35.945  12.146  -5.380  1.00 20.00     0.209 HD
ENDBRANCH   9  10
ENDBRANCH   5   9
TORSDOF 2
ENDMDL
MODEL 6
REMARK VINA RESULT:      -4.5      9.341     10.163
REMARK  2 active torsions:
REMARK  status: ('A' for Active; 'I' for Inactive)
REMARK    1  A    between atoms: C5_5  and  C7_7 
REMARK    2  A    between atoms: C7_7  and  O8_8 
ROOT
HETATM    1  C1  UNL     1     -43.221   7.151  -1.401  1.00 20.00     0.013 C 
HETATM    2  C2  UNL     1     -41.393   5.929  -0.146  1.00 20.00     0.013 C 
HETATM    3  C3  UNL     1     -43.013   8.374  -0.512  1.00 20.00     0.079 C 
HETATM    4  C4  UNL     1     -41.187   7.153   0.744  1.00 20.00     0.079 C 
HETATM    5  C5  UNL     1     -42.833   5.852  -0.677  1.00 20.00     0.009 C 
HETATM    6  C6  UNL     1     -41.597   8.432   0.034  1.00 20.00     0.243 C 
HETATM    7  F9  UNL     1     -40.734   8.674  -0.986  1.00 20.00    -0.206 F 
HETATM    8  F10 UNL     1     -41.484   9.479   0.889  1.00 20.00    -0.206 F 
ENDROOT
BRANCH   5   9
HETATM    9  C7  UNL     1     -43.001   4.649  -1.602  1.00 20.00     0.168 C 
BRANCH   9  10
HETATM   10  O8  UNL     1     -41.720   4.124  -1.892  1.00 20.00    -0.400 OA
HETATM   11  H22 UNL     1     -41.607   4.159  -2.858  1.00 20.00     0.209 HD
ENDBRANCH   9  10
ENDBRANCH   5   9
TORSDOF 2
ENDMDL
MODEL 7
REMARK VINA RESULT:      -4.4      9.287     10.109
REMARK  2 active torsions:
REMARK  status: ('A' for Active; 'I' for Inactive)
REMARK    1  A    between atoms: C5_5  and  C7_7 
REMARK    2  A    between atoms: C7_7  and  O8_8 
ROOT
HETATM    1  C1  UNL     1     -41.275   6.493  -1.170  1.00 20.00     0.013 C 
HETATM    2  C2  UNL     1     -43.417   6.749   0.152  1.00 20.00     0.013 C 
HETATM    3  C3  UNL     1     -40.986   7.981  -0.989  1.00 20.00     0.079 C 
HETATM    4  C4  UNL     1     -43.127   8.238   0.333  1.00 20.00     0.079 C 
HETATM    5  C5  UNL     1     -42.783   6.202  -1.135  1.00 20.00     0.009 C 
HETATM    6  C6  UNL     1     -41.638   8.525   0.270  1.00 20.00     0.243 C 
HETATM    7  F9  UNL     1     -41.031   7.984   1.358  1.00 20.00    -0.206 F 
HETATM    8  F10 UNL     1     -41.433   9.864   0.343  1.00 20.00    -0.206 F 
ENDROOT
BRANCH   5   9
HETATM    9  C7  UNL     1     -43.045   4.703  -1.268  1.00 20.00     0.168 C 
BRANCH   9  10
HETATM   10  O8  UNL     1     -41.936   4.110  -1.917  1.00 20.00    -0.400 OA
HETATM   11  H22 UNL     1     -42.150   3.171  -2.050  1.00 20.00     0.209 HD
ENDBRANCH   9  10
ENDBRANCH   5   9
TORSDOF 2
ENDMDL
MODEL 8
REMARK VINA RESULT:      -4.4     12.353     12.973
REMARK  2 active torsions:
REMARK  status: ('A' for Active; 'I' for Inactive)
REMARK    1  A    between atoms: C5_5  and  C7_7 
REMARK    2  A    between atoms: C7_7  and  O8_8 
ROOT
HETATM    1  C1  UNL     1     -35.336  15.720  -2.830  1.00 20.00     0.013 C 
HETATM    2  C2  UNL     1     -33.064  16.569  -3.553  1.00 20.00     0.013 C 
HETATM    3  C3  UNL     1     -35.141  16.367  -1.461  1.00 20.00     0.079 C 
HETATM    4  C4  UNL     1     -32.870  17.215  -2.183  1.00 20.00     0.079 C 
HETATM    5  C5  UNL     1     -33.993  15.348  -3.476  1.00 20.00     0.009 C 
HETATM    6  C6  UNL     1     -34.200  17.557  -1.535  1.00 20.00     0.243 C 
HETATM    7  F9  UNL     1     -34.797  18.555  -2.237  1.00 20.00    -0.206 F 
HETATM    8  F10 UNL     1     -33.984  18.041  -0.287  1.00 20.00    -0.206 F 
ENDROOT
BRANCH   5   9
HETATM    9  C7  UNL     1     -34.211  14.750  -4.864  1.00 20.00     0.168 C 
BRANCH   9  10
HETATM   10  O8  UNL     1     -32.948  14.460  -5.431  1.00 20.00    -0.400 OA
HETATM   11  H22 UNL     1     -32.475  15.305  -5.527  1.00 20.00     0.209 HD
ENDBRANCH   9  10
ENDBRANCH   5   9
TORSDOF 2
ENDMDL
MODEL 9
REMARK VINA RESULT:      -4.4     12.153     12.974
REMARK  2 active torsions:
REMARK  status: ('A' for Active; 'I' for Inactive)
REMARK    1  A    between atoms: C5_5  and  C7_7 
REMARK    2  A    between atoms: C7_7  and  O8_8 
ROOT
HETATM    1  C1  UNL     1     -35.614  14.646  -5.635  1.00 20.00     0.013 C 
HETATM    2  C2  UNL     1     -35.706  15.289  -3.188  1.00 20.00     0.013 C 
HETATM    3  C3  UNL     1     -34.101  14.847  -5.630  1.00 20.00     0.079 C 
HETATM    4  C4  UNL     1     -34.191  15.490  -3.185  1.00 20.00     0.079 C 
HETATM    5  C5  UNL     1     -36.304  15.528  -4.582  1.00 20.00     0.009 C 
HETATM    6  C6  UNL     1     -33.515  14.638  -4.244  1.00 20.00     0.243 C 
HETATM    7  F9  UNL     1     -33.628  13.328  -3.904  1.00 20.00    -0.206 F 
HETATM    8  F10 UNL     1     -32.188  14.916  -4.268  1.00 20.00    -0.206 F 
ENDROOT
BRANCH   5   9
HETATM    9  C7  UNL     1     -37.810  15.273  -4.571  1.00 20.00     0.168 C 
BRANCH   9  10
HETATM   10  O8  UNL     1     -38.029  13.885  -4.403  1.00 20.00    -0.400 OA
HETATM   11  H22 UNL     1     -38.261  13.523  -5.276  1.00 20.00     0.209 HD
ENDBRANCH   9  10
ENDBRANCH   5   9
TORSDOF 2
ENDMDL
