MODEL 1
REMARK VINA RESULT:      -4.5      0.000      0.000
REMARK  1 active torsions:
REMARK  status: ('A' for Active; 'I' for Inactive)
REMARK    1  A    between atoms: C1_1  and  C2_2 
ROOT
HETATM    1  C2  UNL     1     -34.045   6.757   3.459  1.00 20.00     0.154 A 
HETATM    2  C3  UNL     1     -33.514   5.785   2.420  1.00 20.00     0.073 A 
HETATM    3  C4  UNL     1     -32.797   7.055   2.702  1.00 20.00     0.259 A 
HETATM    4  C5  UNL     1     -32.899   4.479   2.796  1.00 20.00     0.017 C 
HETATM    5  F7  UNL     1     -32.777   8.065   1.765  1.00 20.00    -0.205 F 
HETATM    6  F8  UNL     1     -31.570   7.056   3.328  1.00 20.00    -0.205 F 
ENDROOT
BRANCH   1   7
HETATM    7  C1  UNL     1     -33.972   6.440   4.890  1.00 20.00     0.229 C 
HETATM    8  O6  UNL     1     -33.223   7.050   5.647  1.00 20.00    -0.279 OA
HETATM    9 CL9  UNL     1     -35.041   5.143   5.328  1.00 20.00    -0.043 Cl
ENDBRANCH   1   7
TORSDOF 1
ENDMDL
MODEL 2
REMARK VINA RESULT:      -4.5      3.078      3.618
REMARK  1 active torsions:
REMARK  status: ('A' for Active; 'I' for Inactive)
REMARK    1  A    between atoms: C1_1  and  C2_2 
ROOT
HETATM    1  C2  UNL     1     -34.313   6.414   3.476  1.00 20.00     0.154 A 
HETATM    2  C3  UNL     1     -34.567   6.605   4.961  1.00 20.00     0.073 A 
HETATM    3  C4  UNL     1     -35.103   5.416   4.250  1.00 20.00     0.259 A 
HETATM    4  C5  UNL     1     -33.487   6.446   5.977  1.00 20.00     0.017 C 
HETATM    5  F7  UNL     1     -36.458   5.285   4.038  1.00 20.00    -0.205 F 
HETATM    6  F8  UNL     1     -34.606   4.155   4.496  1.00 20.00    -0.205 F 
ENDROOT
BRANCH   1   7
HETATM    7  C1  UNL     1     -32.978   6.062   2.981  1.00 20.00     0.229 C 
HETATM    8  O6  UNL     1     -32.722   4.939   2.559  1.00 20.00    -0.279 OA
HETATM    9 CL9  UNL     1     -31.871   7.398   3.080  1.00 20.00    -0.043 Cl
ENDBRANCH   1   7
TORSDOF 1
ENDMDL
MODEL 3
REMARK VINA RESULT:      -4.3     11.036     11.805
REMARK  1 active torsions:
REMARK  status: ('A' for Active; 'I' for Inactive)
REMARK    1  A    between atoms: C1_1  and  C2_2 
ROOT
HETATM    1  C2  UNL     1     -34.809  15.239  -3.454  1.00 20.00     0.154 A 
HETATM    2  C3  UNL     1     -34.412  16.345  -4.417  1.00 20.00     0.073 A 
HETATM    3  C4  UNL     1     -33.385  15.653  -3.595  1.00 20.00     0.259 A 
HETATM    4  C5  UNL     1     -34.439  16.156  -5.896  1.00 20.00     0.017 C 
HETATM    5  F7  UNL     1     -32.750  16.320  -2.571  1.00 20.00    -0.205 F 
HETATM    6  F8  UNL     1     -32.457  14.815  -4.173  1.00 20.00    -0.205 F 
ENDROOT
BRANCH   1   7
HETATM    7  C1  UNL     1     -35.240  13.929  -3.953  1.00 20.00     0.229 C 
HETATM    8  O6  UNL     1     -34.488  12.959  -3.952  1.00 20.00    -0.279 OA
HETATM    9 CL9  UNL     1     -36.883  13.952  -4.517  1.00 20.00    -0.043 Cl
ENDBRANCH   1   7
TORSDOF 1
ENDMDL
MODEL 4
REMARK VINA RESULT:      -4.2     11.446     12.048
REMARK  1 active torsions:
REMARK  status: ('A' for Active; 'I' for Inactive)
REMARK    1  A    between atoms: C1_1  and  C2_2 
ROOT
HETATM    1  C2  UNL     1     -34.982  14.032  -3.985  1.00 20.00     0.154 A 
HETATM    2  C3  UNL     1     -34.791  15.197  -3.028  1.00 20.00     0.073 A 
HETATM    3  C4  UNL     1     -33.919  15.050  -4.222  1.00 20.00     0.259 A 
HETATM    4  C5  UNL     1     -35.764  16.324  -2.948  1.00 20.00     0.017 C 
HETATM    5  F7  UNL     1     -32.591  14.714  -4.076  1.00 20.00    -0.205 F 
HETATM    6  F8  UNL     1     -34.003  15.930  -5.279  1.00 20.00    -0.205 F 
ENDROOT
BRANCH   1   7
HETATM    7  C1  UNL     1     -36.147  13.974  -4.874  1.00 20.00     0.229 C 
HETATM    8  O6  UNL     1     -37.252  13.628  -4.467  1.00 20.00    -0.279 OA
HETATM    9 CL9  UNL     1     -35.751  14.440  -6.501  1.00 20.00    -0.043 Cl
ENDBRANCH   1   7
TORSDOF 1
ENDMDL
MODEL 5
REMARK VINA RESULT:      -4.2      3.300      3.900
REMARK  1 active torsions:
REMARK  status: ('A' for Active; 'I' for Inactive)
REMARK    1  A    between atoms: C1_1  and  C2_2 
ROOT
HETATM    1  C2  UNL     1     -34.991   5.496   4.523  1.00 20.00     0.154 A 
HETATM    2  C3  UNL     1     -34.399   6.726   5.189  1.00 20.00     0.073 A 
HETATM    3  C4  UNL     1     -34.729   5.519   5.990  1.00 20.00     0.259 A 
HETATM    4  C5  UNL     1     -32.977   7.127   4.992  1.00 20.00     0.017 C 
HETATM    5  F7  UNL     1     -35.777   5.542   6.883  1.00 20.00    -0.205 F 
HETATM    6  F8  UNL     1     -33.738   4.740   6.545  1.00 20.00    -0.205 F 
ENDROOT
BRANCH   1   7
HETATM    7  C1  UNL     1     -34.173   4.649   3.649  1.00 20.00     0.229 C 
HETATM    8  O6  UNL     1     -34.043   3.446   3.855  1.00 20.00    -0.279 OA
HETATM    9 CL9  UNL     1     -33.452   5.551   2.351  1.00 20.00    -0.043 Cl
ENDBRANCH   1   7
TORSDOF 1
ENDMDL
MODEL 6
REMARK VINA RESULT:      -4.1      9.056      9.609
REMARK  1 active torsions:
REMARK  status: ('A' for Active; 'I' for Inactive)
REMARK    1  A    between atoms: C1_1  and  C2_2 
ROOT
HETATM    1  C2  UNL     1     -42.153   7.585   0.773  1.00 20.00     0.154 A 
HETATM    2  C3  UNL     1     -42.983   8.370  -0.229  1.00 20.00     0.073 A 
HETATM    3  C4  UNL     1     -41.554   8.708  -0.002  1.00 20.00     0.259 A 
HETATM    4  C5  UNL     1     -43.417   7.785  -1.530  1.00 20.00     0.017 C 
HETATM    5  F7  UNL     1     -41.209   9.882   0.630  1.00 20.00    -0.205 F 
HETATM    6  F8  UNL     1     -40.605   8.473  -0.972  1.00 20.00    -0.205 F 
ENDROOT
BRANCH   1   7
HETATM    7  C1  UNL     1     -41.744   6.205   0.491  1.00 20.00     0.229 C 
HETATM    8  O6  UNL     1     -40.746   5.952  -0.178  1.00 20.00    -0.279 OA
HETATM    9 CL9  UNL     1     -42.825   5.044   1.201  1.00 20.00    -0.043 Cl
ENDBRANCH   1   7
TORSDOF 1
ENDMDL
MODEL 7
REMARK VINA RESULT:      -4.1     16.010     16.618
REMARK  1 active torsions:
REMARK  status: ('A' for Active; 'I' for Inactive)
REMARK    1  A    between atoms: C1_1  and  C2_2 
ROOT
HETATM    1  C2  UNL     1     -24.296  17.039  10.437  1.00 20.00     0.154 A 
HETATM    2  C3  UNL     1     -25.130  17.322  11.675  1.00 20.00     0.073 A 
HETATM    3  C4  UNL     1     -23.767  16.743  11.798  1.00 20.00     0.259 A 
HETATM    4  C5  UNL     1     -25.398  18.710  12.149  1.00 20.00     0.017 C 
HETATM    5  F7  UNL     1     -23.601  15.439  12.211  1.00 20.00    -0.205 F 
HETATM    6  F8  UNL     1     -22.728  17.474  12.331  1.00 20.00    -0.205 F 
ENDROOT
BRANCH   1   7
HETATM    7  C1  UNL     1     -23.718  18.137   9.654  1.00 20.00     0.229 C 
HETATM    8  O6  UNL     1     -22.574  18.536   9.850  1.00 20.00    -0.279 OA
HETATM    9 CL9  UNL     1     -24.833  18.757   8.475  1.00 20.00    -0.043 Cl
ENDBRANCH   1   7
TORSDOF 1
ENDMDL
MODEL 8
REMARK VINA RESULT:      -4.0     15.854     16.417
REMARK  1 active torsions:
REMARK  status: ('A' for Active; 'I' for Inactive)
REMARK    1  A    between atoms: C1_1  and  C2_2 
ROOT
HETATM    1  C2  UNL     1     -23.632  19.203   8.817  1.00 20.00     0.154 A 
HETATM    2  C3  UNL     1     -22.417  18.358   9.159  1.00 20.00     0.073 A 
HETATM    3  C4  UNL     1     -23.710  18.139   9.857  1.00 20.00     0.259 A 
HETATM    4  C5  UNL     1     -21.885  17.321   8.229  1.00 20.00     0.017 C 
HETATM    5  F7  UNL     1     -23.848  18.476  11.186  1.00 20.00    -0.205 F 
HETATM    6  F8  UNL     1     -24.448  16.996   9.648  1.00 20.00    -0.205 F 
ENDROOT
BRANCH   1   7
HETATM    7  C1  UNL     1     -24.333  19.027   7.540  1.00 20.00     0.229 C 
HETATM    8  O6  UNL     1     -23.725  18.946   6.477  1.00 20.00    -0.279 OA
HETATM    9 CL9  UNL     1     -26.057  18.958   7.746  1.00 20.00    -0.043 Cl
ENDBRANCH   1   7
TORSDOF 1
ENDMDL
MODEL 9
REMARK VINA RESULT:      -3.9     15.773     16.344
REMARK  1 active torsions:
REMARK  status: ('A' for Active; 'I' for Inactive)
REMARK    1  A    between atoms: C1_1  and  C2_2 
ROOT
HETATM    1  C2  UNL     1     -23.423  18.131  10.809  1.00 20.00     0.154 A 
HETATM    2  C3  UNL     1     -23.447  18.717   9.408  1.00 20.00     0.073 A 
HETATM    3  C4  UNL     1     -22.670  17.484   9.698  1.00 20.00     0.259 A 
HETATM    4  C5  UNL     1     -24.659  18.651   8.541  1.00 20.00     0.017 C 
HETATM    5  F7  UNL     1     -21.293  17.511   9.684  1.00 20.00    -0.205 F 
HETATM    6  F8  UNL     1     -23.059  16.262   9.195  1.00 20.00    -0.205 F 
ENDROOT
BRANCH   1   7
HETATM    7  C1  UNL     1     -24.609  17.471  11.367  1.00 20.00     0.229 C 
HETATM    8  O6  UNL     1     -24.734  16.251  11.353  1.00 20.00    -0.279 OA
HETATM    9 CL9  UNL     1     -25.749  18.613  12.012  1.00 20.00    -0.043 Cl
ENDBRANCH   1   7
TORSDOF 1
ENDMDL
