MODEL 1
REMARK VINA RESULT:      -5.0      0.000      0.000
REMARK  0 active torsions:
REMARK  status: ('A' for Active; 'I' for Inactive)
ROOT
HETATM    1  C1  UNL     1     -34.193   4.746   3.261  1.00 20.00     0.185 C 
HETATM    2  C2  UNL     1     -33.177   5.800   3.689  1.00 20.00     0.087 C 
HETATM    3  C3  UNL     1     -33.931   6.465   4.814  1.00 20.00     0.340 C 
HETATM    4  C4  UNL     1     -34.552   5.277   5.489  1.00 20.00     0.420 C 
HETATM    5  C5  UNL     1     -32.754   6.737   2.573  1.00 20.00     0.019 C 
HETATM    6  O6  UNL     1     -34.919   4.365   4.451  1.00 20.00    -0.321 OA
HETATM    7  F7  UNL     1     -33.155   7.190   5.630  1.00 20.00    -0.196 F 
HETATM    8  F8  UNL     1     -34.902   7.271   4.326  1.00 20.00    -0.196 F 
HETATM    9  F9  UNL     1     -33.655   4.648   6.284  1.00 20.00    -0.169 F 
HETATM   10  F10 UNL     1     -35.622   5.601   6.238  1.00 20.00    -0.169 F 
ENDROOT
TORSDOF 0
ENDMDL
MODEL 2
REMARK VINA RESULT:      -4.9      2.281      3.327
REMARK  0 active torsions:
REMARK  status: ('A' for Active; 'I' for Inactive)
ROOT
HETATM    1  C1  UNL     1     -33.530   7.017   4.459  1.00 20.00     0.185 C 
HETATM    2  C2  UNL     1     -33.864   5.660   5.071  1.00 20.00     0.087 C 
HETATM    3  C3  UNL     1     -34.460   4.961   3.874  1.00 20.00     0.340 C 
HETATM    4  C4  UNL     1     -33.535   5.415   2.783  1.00 20.00     0.420 C 
HETATM    5  C5  UNL     1     -34.781   5.737   6.277  1.00 20.00     0.019 C 
HETATM    6  O6  UNL     1     -33.202   6.776   3.073  1.00 20.00    -0.321 OA
HETATM    7  F7  UNL     1     -34.513   3.628   4.000  1.00 20.00    -0.196 F 
HETATM    8  F8  UNL     1     -35.711   5.414   3.631  1.00 20.00    -0.196 F 
HETATM    9  F9  UNL     1     -32.385   4.703   2.794  1.00 20.00    -0.169 F 
HETATM   10  F10 UNL     1     -34.082   5.311   1.557  1.00 20.00    -0.169 F 
ENDROOT
TORSDOF 0
ENDMDL
MODEL 3
REMARK VINA RESULT:      -4.9      8.816      9.480
REMARK  0 active torsions:
REMARK  status: ('A' for Active; 'I' for Inactive)
ROOT
HETATM    1  C1  UNL     1     -42.685   7.993  -1.376  1.00 20.00     0.185 C 
HETATM    2  C2  UNL     1     -41.443   8.186  -0.511  1.00 20.00     0.087 C 
HETATM    3  C3  UNL     1     -41.523   6.956   0.359  1.00 20.00     0.340 C 
HETATM    4  C4  UNL     1     -41.950   5.921  -0.640  1.00 20.00     0.420 C 
HETATM    5  C5  UNL     1     -41.421   9.497   0.251  1.00 20.00     0.019 C 
HETATM    6  O6  UNL     1     -42.863   6.567  -1.531  1.00 20.00    -0.321 OA
HETATM    7  F7  UNL     1     -40.372   6.653   0.974  1.00 20.00    -0.196 F 
HETATM    8  F8  UNL     1     -42.482   7.102   1.303  1.00 20.00    -0.196 F 
HETATM    9  F9  UNL     1     -40.898   5.494  -1.376  1.00 20.00    -0.169 F 
HETATM   10  F10 UNL     1     -42.525   4.847  -0.068  1.00 20.00    -0.169 F 
ENDROOT
TORSDOF 0
ENDMDL
MODEL 4
REMARK VINA RESULT:      -4.8      2.058      2.753
REMARK  0 active torsions:
REMARK  status: ('A' for Active; 'I' for Inactive)
ROOT
HETATM    1  C1  UNL     1     -33.241   6.967   4.467  1.00 20.00     0.185 C 
HETATM    2  C2  UNL     1     -33.470   6.826   2.965  1.00 20.00     0.087 C 
HETATM    3  C3  UNL     1     -33.632   5.330   2.853  1.00 20.00     0.340 C 
HETATM    4  C4  UNL     1     -34.463   5.037   4.069  1.00 20.00     0.420 C 
HETATM    5  C5  UNL     1     -32.354   7.405   2.114  1.00 20.00     0.019 C 
HETATM    6  O6  UNL     1     -33.996   5.911   5.101  1.00 20.00    -0.321 OA
HETATM    7  F7  UNL     1     -34.209   4.934   1.711  1.00 20.00    -0.196 F 
HETATM    8  F8  UNL     1     -32.433   4.712   2.959  1.00 20.00    -0.196 F 
HETATM    9  F9  UNL     1     -35.765   5.329   3.848  1.00 20.00    -0.169 F 
HETATM   10  F10 UNL     1     -34.381   3.753   4.461  1.00 20.00    -0.169 F 
ENDROOT
TORSDOF 0
ENDMDL
MODEL 5
REMARK VINA RESULT:      -4.7      8.698      9.701
REMARK  0 active torsions:
REMARK  status: ('A' for Active; 'I' for Inactive)
ROOT
HETATM    1  C1  UNL     1     -41.241   5.542  -0.771  1.00 20.00     0.185 C 
HETATM    2  C2  UNL     1     -42.460   5.973   0.039  1.00 20.00     0.087 C 
HETATM    3  C3  UNL     1     -42.081   7.397   0.364  1.00 20.00     0.340 C 
HETATM    4  C4  UNL     1     -41.481   7.842  -0.938  1.00 20.00     0.420 C 
HETATM    5  C5  UNL     1     -42.735   5.101   1.249  1.00 20.00     0.019 C 
HETATM    6  O6  UNL     1     -40.765   6.719  -1.461  1.00 20.00    -0.321 OA
HETATM    7  F7  UNL     1     -43.115   8.154   0.755  1.00 20.00    -0.196 F 
HETATM    8  F8  UNL     1     -41.140   7.430   1.335  1.00 20.00    -0.196 F 
HETATM    9  F9  UNL     1     -42.445   8.162  -1.832  1.00 20.00    -0.169 F 
HETATM   10  F10 UNL     1     -40.666   8.904  -0.802  1.00 20.00    -0.169 F 
ENDROOT
TORSDOF 0
ENDMDL
MODEL 6
REMARK VINA RESULT:      -4.6      8.752      9.580
REMARK  0 active torsions:
REMARK  status: ('A' for Active; 'I' for Inactive)
ROOT
HETATM    1  C1  UNL     1     -42.334   5.590   0.730  1.00 20.00     0.185 C 
HETATM    2  C2  UNL     1     -41.263   5.947  -0.297  1.00 20.00     0.087 C 
HETATM    3  C3  UNL     1     -41.798   7.263  -0.802  1.00 20.00     0.340 C 
HETATM    4  C4  UNL     1     -42.273   7.893   0.474  1.00 20.00     0.420 C 
HETATM    5  C5  UNL     1     -41.064   4.893  -1.370  1.00 20.00     0.019 C 
HETATM    6  O6  UNL     1     -42.822   6.839   1.269  1.00 20.00    -0.321 OA
HETATM    7  F7  UNL     1     -40.888   8.003  -1.450  1.00 20.00    -0.196 F 
HETATM    8  F8  UNL     1     -42.849   7.064  -1.631  1.00 20.00    -0.196 F 
HETATM    9  F9  UNL     1     -41.238   8.427   1.165  1.00 20.00    -0.169 F 
HETATM   10  F10 UNL     1     -43.186   8.861   0.273  1.00 20.00    -0.169 F 
ENDROOT
TORSDOF 0
ENDMDL
MODEL 7
REMARK VINA RESULT:      -4.6     12.078     13.012
REMARK  0 active torsions:
REMARK  status: ('A' for Active; 'I' for Inactive)
ROOT
HETATM    1  C1  UNL     1     -35.371  14.557  -6.058  1.00 20.00     0.185 C 
HETATM    2  C2  UNL     1     -35.898  14.961  -4.684  1.00 20.00     0.087 C 
HETATM    3  C3  UNL     1     -34.779  14.460  -3.806  1.00 20.00     0.340 C 
HETATM    4  C4  UNL     1     -33.577  14.845  -4.618  1.00 20.00     0.420 C 
HETATM    5  C5  UNL     1     -37.264  14.387  -4.355  1.00 20.00     0.019 C 
HETATM    6  O6  UNL     1     -33.931  14.639  -5.989  1.00 20.00    -0.321 OA
HETATM    7  F7  UNL     1     -34.778  14.994  -2.577  1.00 20.00    -0.196 F 
HETATM    8  F8  UNL     1     -34.835  13.114  -3.683  1.00 20.00    -0.196 F 
HETATM    9  F9  UNL     1     -33.289  16.158  -4.466  1.00 20.00    -0.169 F 
HETATM   10  F10 UNL     1     -32.480  14.134  -4.299  1.00 20.00    -0.169 F 
ENDROOT
TORSDOF 0
ENDMDL
MODEL 8
REMARK VINA RESULT:      -4.5     16.107     16.877
REMARK  0 active torsions:
REMARK  status: ('A' for Active; 'I' for Inactive)
ROOT
HETATM    1  C1  UNL     1     -22.314  17.716  11.655  1.00 20.00     0.185 C 
HETATM    2  C2  UNL     1     -22.699  18.224  10.268  1.00 20.00     0.087 C 
HETATM    3  C3  UNL     1     -23.944  17.410  10.016  1.00 20.00     0.340 C 
HETATM    4  C4  UNL     1     -24.599  17.457  11.366  1.00 20.00     0.420 C 
HETATM    5  C5  UNL     1     -21.610  18.051   9.225  1.00 20.00     0.019 C 
HETATM    6  O6  UNL     1     -23.547  17.388  12.332  1.00 20.00    -0.321 OA
HETATM    7  F7  UNL     1     -24.717  17.897   9.036  1.00 20.00    -0.196 F 
HETATM    8  F8  UNL     1     -23.624  16.132   9.709  1.00 20.00    -0.196 F 
HETATM    9  F9  UNL     1     -25.244  18.633  11.551  1.00 20.00    -0.169 F 
HETATM   10  F10 UNL     1     -25.483  16.460  11.553  1.00 20.00    -0.169 F 
ENDROOT
TORSDOF 0
ENDMDL
MODEL 9
REMARK VINA RESULT:      -4.3      9.296     10.091
REMARK  0 active torsions:
REMARK  status: ('A' for Active; 'I' for Inactive)
ROOT
HETATM    1  C1  UNL     1     -43.417   7.532   0.780  1.00 20.00     0.185 C 
HETATM    2  C2  UNL     1     -42.335   6.457   0.830  1.00 20.00     0.087 C 
HETATM    3  C3  UNL     1     -41.864   6.479  -0.603  1.00 20.00     0.340 C 
HETATM    4  C4  UNL     1     -41.861   7.952  -0.886  1.00 20.00     0.420 C 
HETATM    5  C5  UNL     1     -42.829   5.106   1.312  1.00 20.00     0.019 C 
HETATM    6  O6  UNL     1     -42.994   8.499  -0.206  1.00 20.00    -0.321 OA
HETATM    7  F7  UNL     1     -40.668   5.903  -0.786  1.00 20.00    -0.196 F 
HETATM    8  F8  UNL     1     -42.759   5.861  -1.408  1.00 20.00    -0.196 F 
HETATM    9  F9  UNL     1     -40.756   8.542  -0.374  1.00 20.00    -0.169 F 
HETATM   10  F10 UNL     1     -41.916   8.233  -2.201  1.00 20.00    -0.169 F 
ENDROOT
TORSDOF 0
ENDMDL
