MODEL 1
REMARK VINA RESULT:      -4.3      0.000      0.000
REMARK  1 active torsions:
REMARK  status: ('A' for Active; 'I' for Inactive)
REMARK    1  A    between atoms: C1_1  and  C2_2 
ROOT
HETATM    1  C2  UNL     1     -34.929  14.705  -4.741  1.00 20.00     0.100 A 
HETATM    2  C3  UNL     1     -35.251  16.173  -4.844  1.00 20.00     0.104 A 
HETATM    3  C4  UNL     1     -34.473  15.664  -3.651  1.00 20.00    -0.017 A 
HETATM    4  C5  UNL     1     -32.990  15.923  -3.540  1.00 20.00     0.017 C 
HETATM    5  C6  UNL     1     -35.183  15.679  -2.320  1.00 20.00     0.017 C 
HETATM    6 CL9  UNL     1     -34.505  17.128  -6.099  1.00 20.00    -0.123 Cl
ENDROOT
BRANCH   1   7
HETATM    7  C1  UNL     1     -36.014  13.747  -4.492  1.00 20.00     0.225 C 
HETATM    8  O7  UNL     1     -35.796  12.547  -4.352  1.00 20.00    -0.279 OA
HETATM    9 CL8  UNL     1     -37.568  14.522  -4.427  1.00 20.00    -0.043 Cl
ENDBRANCH   1   7
TORSDOF 1
ENDMDL
MODEL 2
REMARK VINA RESULT:      -4.3      1.803      2.067
REMARK  1 active torsions:
REMARK  status: ('A' for Active; 'I' for Inactive)
REMARK    1  A    between atoms: C1_1  and  C2_2 
ROOT
HETATM    1  C2  UNL     1     -35.261  14.377  -4.030  1.00 20.00     0.100 A 
HETATM    2  C3  UNL     1     -34.105  15.170  -4.580  1.00 20.00     0.104 A 
HETATM    3  C4  UNL     1     -35.040  15.814  -3.581  1.00 20.00    -0.017 A 
HETATM    4  C5  UNL     1     -34.601  16.027  -2.152  1.00 20.00     0.017 C 
HETATM    5  C6  UNL     1     -35.939  16.908  -4.099  1.00 20.00     0.017 C 
HETATM    6 CL9  UNL     1     -32.474  14.711  -4.162  1.00 20.00    -0.123 Cl
ENDROOT
BRANCH   1   7
HETATM    7  C1  UNL     1     -36.381  14.031  -4.915  1.00 20.00     0.225 C 
HETATM    8  O7  UNL     1     -37.448  13.615  -4.473  1.00 20.00    -0.279 OA
HETATM    9 CL8  UNL     1     -35.993  14.284  -6.589  1.00 20.00    -0.043 Cl
ENDBRANCH   1   7
TORSDOF 1
ENDMDL
MODEL 3
REMARK VINA RESULT:      -4.1     18.105     18.805
REMARK  1 active torsions:
REMARK  status: ('A' for Active; 'I' for Inactive)
REMARK    1  A    between atoms: C1_1  and  C2_2 
ROOT
HETATM    1  C2  UNL     1     -24.262  16.937  10.211  1.00 20.00     0.100 A 
HETATM    2  C3  UNL     1     -24.115  18.395   9.860  1.00 20.00     0.104 A 
HETATM    3  C4  UNL     1     -22.880  17.567  10.133  1.00 20.00    -0.017 A 
HETATM    4  C5  UNL     1     -21.988  17.129   8.997  1.00 20.00     0.017 C 
HETATM    5  C6  UNL     1     -22.123  17.875  11.402  1.00 20.00     0.017 C 
HETATM    6 CL9  UNL     1     -24.533  18.936   8.255  1.00 20.00    -0.123 Cl
ENDROOT
BRANCH   1   7
HETATM    7  C1  UNL     1     -24.846  16.566  11.506  1.00 20.00     0.225 C 
HETATM    8  O7  UNL     1     -24.670  15.455  11.999  1.00 20.00    -0.279 OA
HETATM    9 CL8  UNL     1     -25.773  17.861  12.201  1.00 20.00    -0.043 Cl
ENDBRANCH   1   7
TORSDOF 1
ENDMDL
MODEL 4
REMARK VINA RESULT:      -4.0      2.149      2.551
REMARK  1 active torsions:
REMARK  status: ('A' for Active; 'I' for Inactive)
REMARK    1  A    between atoms: C1_1  and  C2_2 
ROOT
HETATM    1  C2  UNL     1     -33.450  15.560  -3.695  1.00 20.00     0.100 A 
HETATM    2  C3  UNL     1     -34.069  16.860  -4.136  1.00 20.00     0.104 A 
HETATM    3  C4  UNL     1     -34.782  16.007  -3.112  1.00 20.00    -0.017 A 
HETATM    4  C5  UNL     1     -34.794  16.410  -1.658  1.00 20.00     0.017 C 
HETATM    5  C6  UNL     1     -36.058  15.335  -3.557  1.00 20.00     0.017 C 
HETATM    6 CL9  UNL     1     -33.296  18.366  -3.713  1.00 20.00    -0.123 Cl
ENDROOT
BRANCH   1   7
HETATM    7  C1  UNL     1     -33.382  14.439  -4.642  1.00 20.00     0.225 C 
HETATM    8  O7  UNL     1     -33.110  13.299  -4.274  1.00 20.00    -0.279 OA
HETATM    9 CL8  UNL     1     -33.727  14.936  -6.270  1.00 20.00    -0.043 Cl
ENDBRANCH   1   7
TORSDOF 1
ENDMDL
MODEL 5
REMARK VINA RESULT:      -4.0      1.924      2.381
REMARK  1 active torsions:
REMARK  status: ('A' for Active; 'I' for Inactive)
REMARK    1  A    between atoms: C1_1  and  C2_2 
ROOT
HETATM    1  C2  UNL     1     -35.490  15.530  -4.118  1.00 20.00     0.100 A 
HETATM    2  C3  UNL     1     -34.934  15.288  -2.740  1.00 20.00     0.104 A 
HETATM    3  C4  UNL     1     -33.993  15.633  -3.871  1.00 20.00    -0.017 A 
HETATM    4  C5  UNL     1     -33.376  17.008  -3.959  1.00 20.00     0.017 C 
HETATM    5  C6  UNL     1     -33.076  14.536  -4.352  1.00 20.00     0.017 C 
HETATM    6 CL9  UNL     1     -35.297  16.415  -1.458  1.00 20.00    -0.123 Cl
ENDROOT
BRANCH   1   7
HETATM    7  C1  UNL     1     -36.051  14.403  -4.875  1.00 20.00     0.225 C 
HETATM    8  O7  UNL     1     -36.634  13.477  -4.317  1.00 20.00    -0.279 OA
HETATM    9 CL8  UNL     1     -35.783  14.565  -6.584  1.00 20.00    -0.043 Cl
ENDBRANCH   1   7
TORSDOF 1
ENDMDL
MODEL 6
REMARK VINA RESULT:      -4.0      1.601      2.362
REMARK  1 active torsions:
REMARK  status: ('A' for Active; 'I' for Inactive)
REMARK    1  A    between atoms: C1_1  and  C2_2 
ROOT
HETATM    1  C2  UNL     1     -35.515  15.055  -4.317  1.00 20.00     0.100 A 
HETATM    2  C3  UNL     1     -34.050  14.872  -4.616  1.00 20.00     0.104 A 
HETATM    3  C4  UNL     1     -34.908  15.679  -5.564  1.00 20.00    -0.017 A 
HETATM    4  C5  UNL     1     -34.802  17.185  -5.597  1.00 20.00     0.017 C 
HETATM    5  C6  UNL     1     -35.182  15.071  -6.917  1.00 20.00     0.017 C 
HETATM    6 CL9  UNL     1     -32.863  15.617  -3.576  1.00 20.00    -0.123 Cl
ENDROOT
BRANCH   1   7
HETATM    7  C1  UNL     1     -36.418  13.901  -4.418  1.00 20.00     0.225 C 
HETATM    8  O7  UNL     1     -35.991  12.754  -4.520  1.00 20.00    -0.279 OA
HETATM    9 CL8  UNL     1     -38.089  14.373  -4.373  1.00 20.00    -0.043 Cl
ENDBRANCH   1   7
TORSDOF 1
ENDMDL
MODEL 7
REMARK VINA RESULT:      -3.8     17.410     18.484
REMARK  1 active torsions:
REMARK  status: ('A' for Active; 'I' for Inactive)
REMARK    1  A    between atoms: C1_1  and  C2_2 
ROOT
HETATM    1  C2  UNL     1     -23.890  18.694   9.939  1.00 20.00     0.100 A 
HETATM    2  C3  UNL     1     -25.112  18.256  10.704  1.00 20.00     0.104 A 
HETATM    3  C4  UNL     1     -23.828  17.470  10.839  1.00 20.00    -0.017 A 
HETATM    4  C5  UNL     1     -22.993  17.580  12.092  1.00 20.00     0.017 C 
HETATM    5  C6  UNL     1     -23.808  16.090  10.229  1.00 20.00     0.017 C 
HETATM    6 CL9  UNL     1     -25.724  19.262  11.991  1.00 20.00    -0.123 Cl
ENDROOT
BRANCH   1   7
HETATM    7  C1  UNL     1     -23.869  18.553   8.477  1.00 20.00     0.225 C 
HETATM    8  O7  UNL     1     -22.829  18.324   7.866  1.00 20.00    -0.279 OA
HETATM    9 CL8  UNL     1     -25.448  18.748   7.779  1.00 20.00    -0.043 Cl
ENDBRANCH   1   7
TORSDOF 1
ENDMDL
MODEL 8
REMARK VINA RESULT:      -3.8      2.592      3.460
REMARK  1 active torsions:
REMARK  status: ('A' for Active; 'I' for Inactive)
REMARK    1  A    between atoms: C1_1  and  C2_2 
ROOT
HETATM    1  C2  UNL     1     -34.109  15.227  -3.728  1.00 20.00     0.100 A 
HETATM    2  C3  UNL     1     -35.536  15.000  -4.154  1.00 20.00     0.104 A 
HETATM    3  C4  UNL     1     -34.589  15.721  -5.085  1.00 20.00    -0.017 A 
HETATM    4  C5  UNL     1     -34.037  15.023  -6.304  1.00 20.00     0.017 C 
HETATM    5  C6  UNL     1     -34.838  17.194  -5.301  1.00 20.00     0.017 C 
HETATM    6 CL9  UNL     1     -36.089  13.375  -4.469  1.00 20.00    -0.123 Cl
ENDROOT
BRANCH   1   7
HETATM    7  C1  UNL     1     -33.825  16.173  -2.641  1.00 20.00     0.225 C 
HETATM    8  O7  UNL     1     -32.748  16.757  -2.559  1.00 20.00    -0.279 OA
HETATM    9 CL8  UNL     1     -35.167  16.336  -1.549  1.00 20.00    -0.043 Cl
ENDBRANCH   1   7
TORSDOF 1
ENDMDL
MODEL 9
REMARK VINA RESULT:      -3.7      2.116      2.624
REMARK  1 active torsions:
REMARK  status: ('A' for Active; 'I' for Inactive)
REMARK    1  A    between atoms: C1_1  and  C2_2 
ROOT
HETATM    1  C2  UNL     1     -35.271  16.203  -3.979  1.00 20.00     0.100 A 
HETATM    2  C3  UNL     1     -34.956  15.581  -2.643  1.00 20.00     0.104 A 
HETATM    3  C4  UNL     1     -33.827  15.930  -3.585  1.00 20.00    -0.017 A 
HETATM    4  C5  UNL     1     -32.950  17.129  -3.315  1.00 20.00     0.017 C 
HETATM    5  C6  UNL     1     -33.083  14.777  -4.213  1.00 20.00     0.017 C 
HETATM    6 CL9  UNL     1     -35.260  16.486  -1.183  1.00 20.00    -0.123 Cl
ENDROOT
BRANCH   1   7
HETATM    7  C1  UNL     1     -35.934  15.395  -5.010  1.00 20.00     0.225 C 
HETATM    8  O7  UNL     1     -35.959  15.744  -6.187  1.00 20.00    -0.279 OA
HETATM    9 CL8  UNL     1     -36.638  13.948  -4.354  1.00 20.00    -0.043 Cl
ENDBRANCH   1   7
TORSDOF 1
ENDMDL
