MODEL 1
REMARK VINA RESULT:      -5.0      0.000      0.000
REMARK  1 active torsions:
REMARK  status: ('A' for Active; 'I' for Inactive)
REMARK    1  A    between atoms: C5_5  and  C6_6 
ROOT
HETATM    1  C1  UNL     1     -34.627  16.620  -1.743  1.00 20.00    -0.003 A 
HETATM    2  C2  UNL     1     -33.312  16.748  -2.332  1.00 20.00    -0.003 A 
HETATM    3  C3  UNL     1     -35.453  16.103  -2.671  1.00 20.00    -0.012 A 
HETATM    4  C4  UNL     1     -33.379  16.305  -3.601  1.00 20.00    -0.012 A 
HETATM    5  C6  UNL     1     -34.976  14.650  -4.802  1.00 20.00     0.073 A 
HETATM    6  C7  UNL     1     -34.745  15.860  -3.943  1.00 20.00     0.013 A 
HETATM    7  C8  UNL     1     -35.371  16.038  -5.307  1.00 20.00    -0.021 A 
HETATM    8  C9  UNL     1     -34.546  16.619  -6.434  1.00 20.00     0.017 C 
HETATM    9  C10 UNL     1     -36.832  16.413  -5.408  1.00 20.00     0.017 C 
ENDROOT
BRANCH   5  10
HETATM   10  C5  UNL     1     -36.002  13.655  -4.459  1.00 20.00     0.237 C 
HETATM   11  O11 UNL     1     -35.794  12.446  -4.446  1.00 20.00    -0.306 OA
ENDBRANCH   5  10
TORSDOF 1
ENDMDL
MODEL 2
REMARK VINA RESULT:      -5.0      1.368      1.977
REMARK  1 active torsions:
REMARK  status: ('A' for Active; 'I' for Inactive)
REMARK    1  A    between atoms: C5_5  and  C6_6 
ROOT
HETATM    1  C1  UNL     1     -36.052  17.538  -2.813  1.00 20.00    -0.003 A 
HETATM    2  C2  UNL     1     -35.175  17.023  -1.784  1.00 20.00    -0.003 A 
HETATM    3  C3  UNL     1     -35.990  16.706  -3.870  1.00 20.00    -0.012 A 
HETATM    4  C4  UNL     1     -34.607  15.894  -2.246  1.00 20.00    -0.012 A 
HETATM    5  C6  UNL     1     -35.331  14.175  -4.050  1.00 20.00     0.073 A 
HETATM    6  C7  UNL     1     -35.062  15.588  -3.617  1.00 20.00     0.013 A 
HETATM    7  C8  UNL     1     -34.181  14.964  -4.676  1.00 20.00    -0.021 A 
HETATM    8  C9  UNL     1     -32.777  14.534  -4.316  1.00 20.00     0.017 C 
HETATM    9  C10 UNL     1     -34.291  15.441  -6.107  1.00 20.00     0.017 C 
ENDROOT
BRANCH   5  10
HETATM   10  C5  UNL     1     -36.524  13.831  -4.837  1.00 20.00     0.237 C 
HETATM   11  O11 UNL     1     -37.645  13.722  -4.352  1.00 20.00    -0.306 OA
ENDBRANCH   5  10
TORSDOF 1
ENDMDL
MODEL 3
REMARK VINA RESULT:      -4.6      1.108      2.086
REMARK  1 active torsions:
REMARK  status: ('A' for Active; 'I' for Inactive)
REMARK    1  A    between atoms: C5_5  and  C6_6 
ROOT
HETATM    1  C1  UNL     1     -36.897  17.584  -2.307  1.00 20.00    -0.003 A 
HETATM    2  C2  UNL     1     -35.959  17.357  -1.228  1.00 20.00    -0.003 A 
HETATM    3  C3  UNL     1     -36.531  16.812  -3.348  1.00 20.00    -0.012 A 
HETATM    4  C4  UNL     1     -35.053  16.455  -1.647  1.00 20.00    -0.012 A 
HETATM    5  C6  UNL     1     -35.126  14.600  -3.459  1.00 20.00     0.073 A 
HETATM    6  C7  UNL     1     -35.321  16.027  -3.034  1.00 20.00     0.013 A 
HETATM    7  C8  UNL     1     -34.240  15.702  -4.039  1.00 20.00    -0.021 A 
HETATM    8  C9  UNL     1     -32.791  15.719  -3.604  1.00 20.00     0.017 C 
HETATM    9  C10 UNL     1     -34.415  16.127  -5.480  1.00 20.00     0.017 C 
ENDROOT
BRANCH   5  10
HETATM   10  C5  UNL     1     -36.117  13.912  -4.300  1.00 20.00     0.237 C 
HETATM   11  O11 UNL     1     -36.022  12.734  -4.630  1.00 20.00    -0.306 OA
ENDBRANCH   5  10
TORSDOF 1
ENDMDL
MODEL 4
REMARK VINA RESULT:      -4.5      1.035      3.280
REMARK  1 active torsions:
REMARK  status: ('A' for Active; 'I' for Inactive)
REMARK    1  A    between atoms: C5_5  and  C6_6 
ROOT
HETATM    1  C1  UNL     1     -36.331  17.307  -5.957  1.00 20.00    -0.003 A 
HETATM    2  C2  UNL     1     -37.314  17.647  -4.952  1.00 20.00    -0.003 A 
HETATM    3  C3  UNL     1     -35.455  16.443  -5.410  1.00 20.00    -0.012 A 
HETATM    4  C4  UNL     1     -37.006  16.979  -3.825  1.00 20.00    -0.012 A 
HETATM    5  C6  UNL     1     -35.680  14.793  -3.384  1.00 20.00     0.073 A 
HETATM    6  C7  UNL     1     -35.793  16.157  -4.002  1.00 20.00     0.013 A 
HETATM    7  C8  UNL     1     -34.766  15.926  -2.917  1.00 20.00    -0.021 A 
HETATM    8  C9  UNL     1     -35.012  16.479  -1.531  1.00 20.00     0.017 C 
HETATM    9  C10 UNL     1     -33.298  15.903  -3.278  1.00 20.00     0.017 C 
ENDROOT
BRANCH   5  10
HETATM   10  C5  UNL     1     -35.140  13.654  -4.141  1.00 20.00     0.237 C 
HETATM   11  O11 UNL     1     -35.813  12.685  -4.475  1.00 20.00    -0.306 OA
ENDBRANCH   5  10
TORSDOF 1
ENDMDL
MODEL 5
REMARK VINA RESULT:      -4.5      2.376      3.743
REMARK  1 active torsions:
REMARK  status: ('A' for Active; 'I' for Inactive)
REMARK    1  A    between atoms: C5_5  and  C6_6 
ROOT
HETATM    1  C1  UNL     1     -34.608  14.103  -3.850  1.00 20.00    -0.003 A 
HETATM    2  C2  UNL     1     -33.295  14.569  -4.241  1.00 20.00    -0.003 A 
HETATM    3  C3  UNL     1     -35.216  15.091  -3.168  1.00 20.00    -0.012 A 
HETATM    4  C4  UNL     1     -33.145  15.826  -3.784  1.00 20.00    -0.012 A 
HETATM    5  C6  UNL     1     -34.846  17.687  -3.173  1.00 20.00     0.073 A 
HETATM    6  C7  UNL     1     -34.345  16.277  -3.051  1.00 20.00     0.013 A 
HETATM    7  C8  UNL     1     -34.301  17.178  -1.838  1.00 20.00    -0.021 A 
HETATM    8  C9  UNL     1     -32.975  17.741  -1.378  1.00 20.00     0.017 C 
HETATM    9  C10 UNL     1     -35.250  16.921  -0.690  1.00 20.00     0.017 C 
ENDROOT
BRANCH   5  10
HETATM   10  C5  UNL     1     -36.277  17.978  -3.340  1.00 20.00     0.237 C 
HETATM   11  O11 UNL     1     -36.849  17.959  -4.425  1.00 20.00    -0.306 OA
ENDBRANCH   5  10
TORSDOF 1
ENDMDL
MODEL 6
REMARK VINA RESULT:      -4.5      1.407      1.708
REMARK  1 active torsions:
REMARK  status: ('A' for Active; 'I' for Inactive)
REMARK    1  A    between atoms: C5_5  and  C6_6 
ROOT
HETATM    1  C1  UNL     1     -33.668  16.112  -3.046  1.00 20.00    -0.003 A 
HETATM    2  C2  UNL     1     -32.866  15.212  -3.845  1.00 20.00    -0.003 A 
HETATM    3  C3  UNL     1     -34.910  16.139  -3.565  1.00 20.00    -0.012 A 
HETATM    4  C4  UNL     1     -33.645  14.720  -4.826  1.00 20.00    -0.012 A 
HETATM    5  C6  UNL     1     -36.211  14.407  -5.042  1.00 20.00     0.073 A 
HETATM    6  C7  UNL     1     -35.014  15.266  -4.750  1.00 20.00     0.013 A 
HETATM    7  C8  UNL     1     -35.864  15.580  -5.959  1.00 20.00    -0.021 A 
HETATM    8  C9  UNL     1     -35.346  15.243  -7.340  1.00 20.00     0.017 C 
HETATM    9  C10 UNL     1     -36.731  16.819  -5.954  1.00 20.00     0.017 C 
ENDROOT
BRANCH   5  10
HETATM   10  C5  UNL     1     -37.408  14.448  -4.189  1.00 20.00     0.237 C 
HETATM   11  O11 UNL     1     -38.454  13.870  -4.464  1.00 20.00    -0.306 OA
ENDBRANCH   5  10
TORSDOF 1
ENDMDL
MODEL 7
REMARK VINA RESULT:      -4.4      1.880      3.075
REMARK  1 active torsions:
REMARK  status: ('A' for Active; 'I' for Inactive)
REMARK    1  A    between atoms: C5_5  and  C6_6 
ROOT
HETATM    1  C1  UNL     1     -33.501  17.463  -1.486  1.00 20.00    -0.003 A 
HETATM    2  C2  UNL     1     -34.794  16.972  -1.059  1.00 20.00    -0.003 A 
HETATM    3  C3  UNL     1     -33.258  16.982  -2.720  1.00 20.00    -0.012 A 
HETATM    4  C4  UNL     1     -35.296  16.207  -2.046  1.00 20.00    -0.012 A 
HETATM    5  C6  UNL     1     -34.876  16.141  -4.605  1.00 20.00     0.073 A 
HETATM    6  C7  UNL     1     -34.368  16.131  -3.191  1.00 20.00     0.013 A 
HETATM    7  C8  UNL     1     -34.184  14.898  -4.046  1.00 20.00    -0.021 A 
HETATM    8  C9  UNL     1     -35.050  13.684  -3.796  1.00 20.00     0.017 C 
HETATM    9  C10 UNL     1     -32.798  14.530  -4.527  1.00 20.00     0.017 C 
ENDROOT
BRANCH   5  10
HETATM   10  C5  UNL     1     -34.231  16.959  -5.643  1.00 20.00     0.237 C 
HETATM   11  O11 UNL     1     -34.533  16.906  -6.830  1.00 20.00    -0.306 OA
ENDBRANCH   5  10
TORSDOF 1
ENDMDL
MODEL 8
REMARK VINA RESULT:      -4.4      1.337      3.436
REMARK  1 active torsions:
REMARK  status: ('A' for Active; 'I' for Inactive)
REMARK    1  A    between atoms: C5_5  and  C6_6 
ROOT
HETATM    1  C1  UNL     1     -34.545  16.144  -7.690  1.00 20.00    -0.003 A 
HETATM    2  C2  UNL     1     -34.772  17.416  -7.040  1.00 20.00    -0.003 A 
HETATM    3  C3  UNL     1     -34.472  15.194  -6.738  1.00 20.00    -0.012 A 
HETATM    4  C4  UNL     1     -34.830  17.201  -5.712  1.00 20.00    -0.012 A 
HETATM    5  C6  UNL     1     -35.421  15.110  -4.295  1.00 20.00     0.073 A 
HETATM    6  C7  UNL     1     -34.636  15.773  -5.391  1.00 20.00     0.013 A 
HETATM    7  C8  UNL     1     -33.907  15.279  -4.163  1.00 20.00    -0.021 A 
HETATM    8  C9  UNL     1     -33.414  16.276  -3.139  1.00 20.00     0.017 C 
HETATM    9  C10 UNL     1     -33.005  14.070  -4.274  1.00 20.00     0.017 C 
ENDROOT
BRANCH   5  10
HETATM   10  C5  UNL     1     -36.016  13.779  -4.480  1.00 20.00     0.237 C 
HETATM   11  O11 UNL     1     -37.225  13.582  -4.544  1.00 20.00    -0.306 OA
ENDBRANCH   5  10
TORSDOF 1
ENDMDL
MODEL 9
REMARK VINA RESULT:      -4.3      1.655      2.289
REMARK  1 active torsions:
REMARK  status: ('A' for Active; 'I' for Inactive)
REMARK    1  A    between atoms: C5_5  and  C6_6 
ROOT
HETATM    1  C1  UNL     1     -35.158  17.017  -0.441  1.00 20.00    -0.003 A 
HETATM    2  C2  UNL     1     -33.929  17.768  -0.303  1.00 20.00    -0.003 A 
HETATM    3  C3  UNL     1     -35.227  16.558  -1.705  1.00 20.00    -0.012 A 
HETATM    4  C4  UNL     1     -33.289  17.743  -1.486  1.00 20.00    -0.012 A 
HETATM    5  C6  UNL     1     -33.360  16.093  -3.488  1.00 20.00     0.073 A 
HETATM    6  C7  UNL     1     -34.054  16.981  -2.494  1.00 20.00     0.013 A 
HETATM    7  C8  UNL     1     -34.106  17.341  -3.961  1.00 20.00    -0.021 A 
HETATM    8  C9  UNL     1     -33.266  18.489  -4.475  1.00 20.00     0.017 C 
HETATM    9  C10 UNL     1     -35.410  17.196  -4.713  1.00 20.00     0.017 C 
ENDROOT
BRANCH   5  10
HETATM   10  C5  UNL     1     -33.870  14.750  -3.797  1.00 20.00     0.237 C 
HETATM   11  O11 UNL     1     -33.289  13.960  -4.534  1.00 20.00    -0.306 OA
ENDBRANCH   5  10
TORSDOF 1
ENDMDL
