MODEL 1
REMARK VINA RESULT:      -4.6      0.000      0.000
REMARK  2 active torsions:
REMARK  status: ('A' for Active; 'I' for Inactive)
REMARK    1  A    between atoms: C4_4  and  O10_10 
REMARK    2  A    between atoms: C5_5  and  C6_6 
ROOT
HETATM    1  C1  UNL     1     -34.158   4.688   3.259  1.00 20.00     0.040 A 
HETATM    2  C2  UNL     1     -33.242   5.353   2.452  1.00 20.00     0.034 A 
HETATM    3  C3  UNL     1     -34.124   6.547   4.741  1.00 20.00     0.153 A 
HETATM    4  C4  UNL     1     -34.612   5.290   4.426  1.00 20.00     0.083 A 
HETATM    5  C5  UNL     1     -32.815   6.608   2.855  1.00 20.00     0.056 A 
HETATM    6  N9  UNL     1     -33.233   7.225   3.982  1.00 20.00    -0.258 NA
ENDROOT
BRANCH   5   7
HETATM    7  C6  UNL     1     -31.856   7.343   2.044  1.00 20.00     0.027 C 
HETATM    8  C7  UNL     1     -32.158   8.258   1.094  1.00 20.00    -0.029 C 
HETATM    9  C8  UNL     1     -33.551   8.655   0.728  1.00 20.00     0.036 C 
ENDBRANCH   5   7
BRANCH   4  10
HETATM   10  O10 UNL     1     -35.506   4.665   5.233  1.00 20.00    -0.359 OA
HETATM   11  H19 UNL     1     -35.547   3.716   5.026  1.00 20.00     0.217 HD
ENDBRANCH   4  10
TORSDOF 2
ENDMDL
MODEL 2
REMARK VINA RESULT:      -4.6      0.856      1.517
REMARK  2 active torsions:
REMARK  status: ('A' for Active; 'I' for Inactive)
REMARK    1  A    between atoms: C4_4  and  O10_10 
REMARK    2  A    between atoms: C5_5  and  C6_6 
ROOT
HETATM    1  C1  UNL     1     -34.110   6.561   4.877  1.00 20.00     0.040 A 
HETATM    2  C2  UNL     1     -33.193   7.237   4.080  1.00 20.00     0.034 A 
HETATM    3  C3  UNL     1     -34.165   4.826   3.251  1.00 20.00     0.153 A 
HETATM    4  C4  UNL     1     -34.610   5.332   4.462  1.00 20.00     0.083 A 
HETATM    5  C5  UNL     1     -32.812   6.646   2.886  1.00 20.00     0.056 A 
HETATM    6  N9  UNL     1     -33.276   5.454   2.449  1.00 20.00    -0.258 NA
ENDROOT
BRANCH   5   7
HETATM    7  C6  UNL     1     -31.857   7.315   2.018  1.00 20.00     0.027 C 
HETATM    8  C7  UNL     1     -32.154   8.241   1.077  1.00 20.00    -0.029 C 
HETATM    9  C8  UNL     1     -33.538   8.722   0.783  1.00 20.00     0.036 C 
ENDBRANCH   5   7
BRANCH   4  10
HETATM   10  O10 UNL     1     -35.505   4.649   5.218  1.00 20.00    -0.359 OA
HETATM   11  H19 UNL     1     -36.274   4.389   4.684  1.00 20.00     0.217 HD
ENDBRANCH   4  10
TORSDOF 2
ENDMDL
MODEL 3
REMARK VINA RESULT:      -4.3     10.868     11.605
REMARK  2 active torsions:
REMARK  status: ('A' for Active; 'I' for Inactive)
REMARK    1  A    between atoms: C4_4  and  O10_10 
REMARK    2  A    between atoms: C5_5  and  C6_6 
ROOT
HETATM    1  C1  UNL     1     -35.476  13.705  -4.110  1.00 20.00     0.040 A 
HETATM    2  C2  UNL     1     -34.310  14.416  -3.851  1.00 20.00     0.034 A 
HETATM    3  C3  UNL     1     -36.674  15.758  -4.078  1.00 20.00     0.153 A 
HETATM    4  C4  UNL     1     -36.685  14.381  -4.228  1.00 20.00     0.083 A 
HETATM    5  C5  UNL     1     -34.406  15.792  -3.718  1.00 20.00     0.056 A 
HETATM    6  N9  UNL     1     -35.562  16.484  -3.825  1.00 20.00    -0.258 NA
ENDROOT
BRANCH   5   7
HETATM    7  C6  UNL     1     -33.214  16.579  -3.446  1.00 20.00     0.027 C 
HETATM    8  C7  UNL     1     -32.980  17.301  -2.326  1.00 20.00    -0.029 C 
HETATM    9  C8  UNL     1     -33.934  17.400  -1.179  1.00 20.00     0.036 C 
ENDBRANCH   5   7
BRANCH   4  10
HETATM   10  O10 UNL     1     -37.838  13.714  -4.481  1.00 20.00    -0.359 OA
HETATM   11  H19 UNL     1     -38.343  13.583  -3.661  1.00 20.00     0.217 HD
ENDBRANCH   4  10
TORSDOF 2
ENDMDL
MODEL 4
REMARK VINA RESULT:      -4.2     15.921     16.783
REMARK  2 active torsions:
REMARK  status: ('A' for Active; 'I' for Inactive)
REMARK    1  A    between atoms: C4_4  and  O10_10 
REMARK    2  A    between atoms: C5_5  and  C6_6 
ROOT
HETATM    1  C1  UNL     1     -23.873  17.840   8.996  1.00 20.00     0.040 A 
HETATM    2  C2  UNL     1     -24.899  18.525   9.638  1.00 20.00     0.034 A 
HETATM    3  C3  UNL     1     -23.102  17.106  11.122  1.00 20.00     0.153 A 
HETATM    4  C4  UNL     1     -22.954  17.115   9.745  1.00 20.00     0.083 A 
HETATM    5  C5  UNL     1     -24.960  18.453  11.020  1.00 20.00     0.056 A 
HETATM    6  N9  UNL     1     -24.085  17.759  11.782  1.00 20.00    -0.258 NA
ENDROOT
BRANCH   5   7
HETATM    7  C6  UNL     1     -26.014  19.153  11.737  1.00 20.00     0.027 C 
HETATM    8  C7  UNL     1     -27.087  18.579  12.327  1.00 20.00    -0.029 C 
HETATM    9  C8  UNL     1     -27.355  17.109  12.329  1.00 20.00     0.036 C 
ENDBRANCH   5   7
BRANCH   4  10
HETATM   10  O10 UNL     1     -21.943  16.437   9.146  1.00 20.00    -0.359 OA
HETATM   11  H19 UNL     1     -21.159  16.417   9.721  1.00 20.00     0.217 HD
ENDBRANCH   4  10
TORSDOF 2
ENDMDL
MODEL 5
REMARK VINA RESULT:      -4.2     15.872     16.918
REMARK  2 active torsions:
REMARK  status: ('A' for Active; 'I' for Inactive)
REMARK    1  A    between atoms: C4_4  and  O10_10 
REMARK    2  A    between atoms: C5_5  and  C6_6 
ROOT
HETATM    1  C1  UNL     1     -22.697  17.984   8.023  1.00 20.00     0.040 A 
HETATM    2  C2  UNL     1     -22.521  17.699   9.373  1.00 20.00     0.034 A 
HETATM    3  C3  UNL     1     -24.732  19.085   8.574  1.00 20.00     0.153 A 
HETATM    4  C4  UNL     1     -23.820  18.690   7.608  1.00 20.00     0.083 A 
HETATM    5  C5  UNL     1     -23.491  18.138  10.260  1.00 20.00     0.056 A 
HETATM    6  N9  UNL     1     -24.596  18.826   9.894  1.00 20.00    -0.258 NA
ENDROOT
BRANCH   5   7
HETATM    7  C6  UNL     1     -23.353  17.863  11.681  1.00 20.00     0.027 C 
HETATM    8  C7  UNL     1     -23.848  16.786  12.332  1.00 20.00    -0.029 C 
HETATM    9  C8  UNL     1     -24.629  15.695  11.672  1.00 20.00     0.036 C 
ENDBRANCH   5   7
BRANCH   4  10
HETATM   10  O10 UNL     1     -24.018  18.983   6.299  1.00 20.00    -0.359 OA
HETATM   11  H19 UNL     1     -24.304  18.192   5.812  1.00 20.00     0.217 HD
ENDBRANCH   4  10
TORSDOF 2
ENDMDL
MODEL 6
REMARK VINA RESULT:      -4.2     10.888     11.760
REMARK  2 active torsions:
REMARK  status: ('A' for Active; 'I' for Inactive)
REMARK    1  A    between atoms: C4_4  and  O10_10 
REMARK    2  A    between atoms: C5_5  and  C6_6 
ROOT
HETATM    1  C1  UNL     1     -35.575  15.020  -3.111  1.00 20.00     0.040 A 
HETATM    2  C2  UNL     1     -34.898  16.055  -2.475  1.00 20.00     0.034 A 
HETATM    3  C3  UNL     1     -33.584  14.522  -4.310  1.00 20.00     0.153 A 
HETATM    4  C4  UNL     1     -34.913  14.234  -4.046  1.00 20.00     0.083 A 
HETATM    5  C5  UNL     1     -33.569  16.260  -2.809  1.00 20.00     0.056 A 
HETATM    6  N9  UNL     1     -32.892  15.519  -3.714  1.00 20.00    -0.258 NA
ENDROOT
BRANCH   5   7
HETATM    7  C6  UNL     1     -32.819  17.331  -2.172  1.00 20.00     0.027 C 
HETATM    8  C7  UNL     1     -32.595  18.560  -2.692  1.00 20.00    -0.029 C 
HETATM    9  C8  UNL     1     -33.095  19.008  -4.027  1.00 20.00     0.036 C 
ENDBRANCH   5   7
BRANCH   4  10
HETATM   10  O10 UNL     1     -35.548  13.218  -4.682  1.00 20.00    -0.359 OA
HETATM   11  H19 UNL     1     -36.070  12.695  -4.051  1.00 20.00     0.217 HD
ENDBRANCH   4  10
TORSDOF 2
ENDMDL
MODEL 7
REMARK VINA RESULT:      -4.1     11.234     11.902
REMARK  2 active torsions:
REMARK  status: ('A' for Active; 'I' for Inactive)
REMARK    1  A    between atoms: C4_4  and  O10_10 
REMARK    2  A    between atoms: C5_5  and  C6_6 
ROOT
HETATM    1  C1  UNL     1     -34.850  14.584  -4.099  1.00 20.00     0.040 A 
HETATM    2  C2  UNL     1     -35.429  15.172  -2.980  1.00 20.00     0.034 A 
HETATM    3  C3  UNL     1     -32.878  15.842  -3.675  1.00 20.00     0.153 A 
HETATM    4  C4  UNL     1     -33.551  14.920  -4.460  1.00 20.00     0.083 A 
HETATM    5  C5  UNL     1     -34.672  16.083  -2.262  1.00 20.00     0.056 A 
HETATM    6  N9  UNL     1     -33.407  16.435  -2.582  1.00 20.00    -0.258 NA
ENDROOT
BRANCH   5   7
HETATM    7  C6  UNL     1     -35.235  16.725  -1.085  1.00 20.00     0.027 C 
HETATM    8  C7  UNL     1     -35.942  17.879  -1.073  1.00 20.00    -0.029 C 
HETATM    9  C8  UNL     1     -36.255  18.681  -2.294  1.00 20.00     0.036 C 
ENDBRANCH   5   7
BRANCH   4  10
HETATM   10  O10 UNL     1     -32.959  14.362  -5.546  1.00 20.00    -0.359 OA
HETATM   11  H19 UNL     1     -32.574  15.050  -6.115  1.00 20.00     0.217 HD
ENDBRANCH   4  10
TORSDOF 2
ENDMDL
MODEL 8
REMARK VINA RESULT:      -4.1     11.278     12.129
REMARK  2 active torsions:
REMARK  status: ('A' for Active; 'I' for Inactive)
REMARK    1  A    between atoms: C4_4  and  O10_10 
REMARK    2  A    between atoms: C5_5  and  C6_6 
ROOT
HETATM    1  C1  UNL     1     -35.095  14.015  -4.448  1.00 20.00     0.040 A 
HETATM    2  C2  UNL     1     -34.443  14.715  -3.439  1.00 20.00     0.034 A 
HETATM    3  C3  UNL     1     -34.821  15.904  -5.866  1.00 20.00     0.153 A 
HETATM    4  C4  UNL     1     -35.291  14.613  -5.687  1.00 20.00     0.083 A 
HETATM    5  C5  UNL     1     -34.011  16.002  -3.719  1.00 20.00     0.056 A 
HETATM    6  N9  UNL     1     -34.184  16.617  -4.910  1.00 20.00    -0.258 NA
ENDROOT
BRANCH   5   7
HETATM    7  C6  UNL     1     -33.325  16.775  -2.695  1.00 20.00     0.027 C 
HETATM    8  C7  UNL     1     -33.873  17.230  -1.545  1.00 20.00    -0.029 C 
HETATM    9  C8  UNL     1     -35.296  17.002  -1.148  1.00 20.00     0.036 C 
ENDBRANCH   5   7
BRANCH   4  10
HETATM   10  O10 UNL     1     -35.923  13.955  -6.690  1.00 20.00    -0.359 OA
HETATM   11  H19 UNL     1     -35.283  13.463  -7.231  1.00 20.00     0.217 HD
ENDBRANCH   4  10
TORSDOF 2
ENDMDL
MODEL 9
REMARK VINA RESULT:      -4.1     11.182     11.943
REMARK  2 active torsions:
REMARK  status: ('A' for Active; 'I' for Inactive)
REMARK    1  A    between atoms: C4_4  and  O10_10 
REMARK    2  A    between atoms: C5_5  and  C6_6 
ROOT
HETATM    1  C1  UNL     1     -32.828  15.906  -3.696  1.00 20.00     0.040 A 
HETATM    2  C2  UNL     1     -33.395  16.517  -2.583  1.00 20.00     0.034 A 
HETATM    3  C3  UNL     1     -34.817  14.626  -3.942  1.00 20.00     0.153 A 
HETATM    4  C4  UNL     1     -33.546  14.942  -4.394  1.00 20.00     0.083 A 
HETATM    5  C5  UNL     1     -34.673  16.131  -2.212  1.00 20.00     0.056 A 
HETATM    6  N9  UNL     1     -35.401  15.198  -2.865  1.00 20.00    -0.258 NA
ENDROOT
BRANCH   5   7
HETATM    7  C6  UNL     1     -35.308  16.740  -1.055  1.00 20.00     0.027 C 
HETATM    8  C7  UNL     1     -36.122  17.821  -1.075  1.00 20.00    -0.029 C 
HETATM    9  C8  UNL     1     -36.497  18.564  -2.316  1.00 20.00     0.036 C 
ENDBRANCH   5   7
BRANCH   4  10
HETATM   10  O10 UNL     1     -33.019  14.329  -5.483  1.00 20.00    -0.359 OA
HETATM   11  H19 UNL     1     -32.440  13.596  -5.215  1.00 20.00     0.217 HD
ENDBRANCH   4  10
TORSDOF 2
ENDMDL
