MODEL 1
REMARK VINA RESULT:      -5.0      0.000      0.000
REMARK  1 active torsions:
REMARK  status: ('A' for Active; 'I' for Inactive)
REMARK    1  A    between atoms: C2_2  and  C3_3 
ROOT
HETATM    1  C1  UNL     1     -35.272  15.462  -2.609  1.00 20.00    -0.015 C 
HETATM    2  C2  UNL     1     -35.124  14.784  -3.751  1.00 20.00    -0.012 C 
HETATM    3  C4  UNL     1     -34.047  16.260  -2.298  1.00 20.00     0.032 C 
HETATM    4  C5  UNL     1     -33.787  15.010  -4.387  1.00 20.00     0.022 C 
HETATM    5  C6  UNL     1     -33.298  16.285  -3.646  1.00 20.00    -0.007 C 
HETATM    6  C8  UNL     1     -33.802  15.110  -5.908  1.00 20.00     0.015 C 
HETATM    7  C9  UNL     1     -33.574  17.602  -4.382  1.00 20.00     0.011 C 
ENDROOT
BRANCH   2   8
HETATM    8  C3  UNL     1     -36.157  13.888  -4.246  1.00 20.00     0.151 C 
HETATM    9  C7  UNL     1     -37.558  14.430  -4.419  1.00 20.00     0.096 C 
HETATM   10  O10 UNL     1     -35.903  12.705  -4.512  1.00 20.00    -0.293 OA
ENDBRANCH   2   8
TORSDOF 1
ENDMDL
MODEL 2
REMARK VINA RESULT:      -4.7      1.115      1.287
REMARK  1 active torsions:
REMARK  status: ('A' for Active; 'I' for Inactive)
REMARK    1  A    between atoms: C2_2  and  C3_3 
ROOT
HETATM    1  C1  UNL     1     -36.062  15.767  -3.246  1.00 20.00    -0.015 C 
HETATM    2  C2  UNL     1     -35.281  14.887  -3.878  1.00 20.00    -0.012 C 
HETATM    3  C4  UNL     1     -35.297  16.506  -2.196  1.00 20.00     0.032 C 
HETATM    4  C5  UNL     1     -33.875  14.887  -3.359  1.00 20.00     0.022 C 
HETATM    5  C6  UNL     1     -33.829  16.230  -2.579  1.00 20.00    -0.007 C 
HETATM    6  C8  UNL     1     -32.794  14.715  -4.419  1.00 20.00     0.015 C 
HETATM    7  C9  UNL     1     -33.254  17.412  -3.368  1.00 20.00     0.011 C 
ENDROOT
BRANCH   2   8
HETATM    8  C3  UNL     1     -35.803  14.004  -4.909  1.00 20.00     0.151 C 
HETATM    9  C7  UNL     1     -35.985  14.556  -6.306  1.00 20.00     0.096 C 
HETATM   10  O10 UNL     1     -36.101  12.830  -4.653  1.00 20.00    -0.293 OA
ENDBRANCH   2   8
TORSDOF 1
ENDMDL
MODEL 3
REMARK VINA RESULT:      -4.5      3.202      5.132
REMARK  1 active torsions:
REMARK  status: ('A' for Active; 'I' for Inactive)
REMARK    1  A    between atoms: C2_2  and  C3_3 
ROOT
HETATM    1  C1  UNL     1     -33.115  16.477  -3.035  1.00 20.00    -0.015 C 
HETATM    2  C2  UNL     1     -33.213  17.353  -2.031  1.00 20.00    -0.012 C 
HETATM    3  C4  UNL     1     -34.259  15.515  -3.020  1.00 20.00     0.032 C 
HETATM    4  C5  UNL     1     -34.426  17.124  -1.181  1.00 20.00     0.022 C 
HETATM    5  C6  UNL     1     -35.283  16.209  -2.099  1.00 20.00    -0.007 C 
HETATM    6  C8  UNL     1     -35.122  18.388  -0.692  1.00 20.00     0.015 C 
HETATM    7  C9  UNL     1     -36.337  16.945  -2.936  1.00 20.00     0.011 C 
ENDROOT
BRANCH   2   8
HETATM    8  C3  UNL     1     -32.192  18.361  -1.794  1.00 20.00     0.151 C 
HETATM    9  C7  UNL     1     -31.409  18.303  -0.502  1.00 20.00     0.096 C 
HETATM   10  O10 UNL     1     -31.971  19.254  -2.624  1.00 20.00    -0.293 OA
ENDBRANCH   2   8
TORSDOF 1
ENDMDL
MODEL 4
REMARK VINA RESULT:      -4.4     11.533     12.472
REMARK  1 active torsions:
REMARK  status: ('A' for Active; 'I' for Inactive)
REMARK    1  A    between atoms: C2_2  and  C3_3 
ROOT
HETATM    1  C1  UNL     1     -33.763   6.825   4.869  1.00 20.00    -0.015 C 
HETATM    2  C2  UNL     1     -33.330   6.560   3.633  1.00 20.00    -0.012 C 
HETATM    3  C4  UNL     1     -34.829   5.862   5.281  1.00 20.00     0.032 C 
HETATM    4  C5  UNL     1     -34.030   5.388   3.015  1.00 20.00     0.022 C 
HETATM    5  C6  UNL     1     -34.676   4.717   4.260  1.00 20.00    -0.007 C 
HETATM    6  C8  UNL     1     -33.146   4.476   2.173  1.00 20.00     0.015 C 
HETATM    7  C9  UNL     1     -33.859   3.569   4.867  1.00 20.00     0.011 C 
ENDROOT
BRANCH   2   8
HETATM    8  C3  UNL     1     -32.329   7.389   2.980  1.00 20.00     0.151 C 
HETATM    9  C7  UNL     1     -32.601   7.870   1.572  1.00 20.00     0.096 C 
HETATM   10  O10 UNL     1     -31.275   7.689   3.554  1.00 20.00    -0.293 OA
ENDBRANCH   2   8
TORSDOF 1
ENDMDL
MODEL 5
REMARK VINA RESULT:      -4.3      1.365      2.283
REMARK  1 active torsions:
REMARK  status: ('A' for Active; 'I' for Inactive)
REMARK    1  A    between atoms: C2_2  and  C3_3 
ROOT
HETATM    1  C1  UNL     1     -33.774  14.888  -3.798  1.00 20.00    -0.015 C 
HETATM    2  C2  UNL     1     -35.005  15.079  -4.283  1.00 20.00    -0.012 C 
HETATM    3  C4  UNL     1     -33.305  16.088  -3.040  1.00 20.00     0.032 C 
HETATM    4  C5  UNL     1     -35.558  16.428  -3.937  1.00 20.00     0.022 C 
HETATM    5  C6  UNL     1     -34.609  16.871  -2.788  1.00 20.00    -0.007 C 
HETATM    6  C8  UNL     1     -37.043  16.451  -3.596  1.00 20.00     0.015 C 
HETATM    7  C9  UNL     1     -35.134  16.588  -1.376  1.00 20.00     0.011 C 
ENDROOT
BRANCH   2   8
HETATM    8  C3  UNL     1     -35.666  14.079  -5.105  1.00 20.00     0.151 C 
HETATM    9  C7  UNL     1     -35.937  14.405  -6.557  1.00 20.00     0.096 C 
HETATM   10  O10 UNL     1     -36.009  12.987  -4.631  1.00 20.00    -0.293 OA
ENDBRANCH   2   8
TORSDOF 1
ENDMDL
MODEL 6
REMARK VINA RESULT:      -4.2     11.290     11.924
REMARK  1 active torsions:
REMARK  status: ('A' for Active; 'I' for Inactive)
REMARK    1  A    between atoms: C2_2  and  C3_3 
ROOT
HETATM    1  C1  UNL     1     -33.245   7.374   4.659  1.00 20.00    -0.015 C 
HETATM    2  C2  UNL     1     -33.704   6.226   4.152  1.00 20.00    -0.012 C 
HETATM    3  C4  UNL     1     -32.021   7.829   3.931  1.00 20.00     0.032 C 
HETATM    4  C5  UNL     1     -32.870   5.723   3.014  1.00 20.00     0.022 C 
HETATM    5  C6  UNL     1     -32.057   6.992   2.636  1.00 20.00    -0.007 C 
HETATM    6  C8  UNL     1     -33.651   5.088   1.870  1.00 20.00     0.015 C 
HETATM    7  C9  UNL     1     -32.650   7.817   1.487  1.00 20.00     0.011 C 
ENDROOT
BRANCH   2   8
HETATM    8  C3  UNL     1     -34.857   5.546   4.722  1.00 20.00     0.151 C 
HETATM    9  C7  UNL     1     -34.762   5.037   6.144  1.00 20.00     0.096 C 
HETATM   10  O10 UNL     1     -35.890   5.378   4.062  1.00 20.00    -0.293 OA
ENDBRANCH   2   8
TORSDOF 1
ENDMDL
MODEL 7
REMARK VINA RESULT:      -4.2     16.430     18.075
REMARK  1 active torsions:
REMARK  status: ('A' for Active; 'I' for Inactive)
REMARK    1  A    between atoms: C2_2  and  C3_3 
ROOT
HETATM    1  C1  UNL     1     -25.250  18.812  10.892  1.00 20.00    -0.015 C 
HETATM    2  C2  UNL     1     -24.612  18.343   9.815  1.00 20.00    -0.012 C 
HETATM    3  C4  UNL     1     -24.981  17.958  12.088  1.00 20.00     0.032 C 
HETATM    4  C5  UNL     1     -23.820  17.106  10.107  1.00 20.00     0.022 C 
HETATM    5  C6  UNL     1     -23.745  17.140  11.659  1.00 20.00    -0.007 C 
HETATM    6  C8  UNL     1     -22.476  17.015   9.395  1.00 20.00     0.015 C 
HETATM    7  C9  UNL     1     -22.468  17.771  12.228  1.00 20.00     0.011 C 
ENDROOT
BRANCH   2   8
HETATM    8  C3  UNL     1     -24.756  18.968   8.510  1.00 20.00     0.151 C 
HETATM    9  C7  UNL     1     -26.151  19.263   8.003  1.00 20.00     0.096 C 
HETATM   10  O10 UNL     1     -23.765  19.246   7.822  1.00 20.00    -0.293 OA
ENDBRANCH   2   8
TORSDOF 1
ENDMDL
MODEL 8
REMARK VINA RESULT:      -4.2      1.382      2.714
REMARK  1 active torsions:
REMARK  status: ('A' for Active; 'I' for Inactive)
REMARK    1  A    between atoms: C2_2  and  C3_3 
ROOT
HETATM    1  C1  UNL     1     -35.776  14.739  -6.124  1.00 20.00    -0.015 C 
HETATM    2  C2  UNL     1     -36.196  15.141  -4.921  1.00 20.00    -0.012 C 
HETATM    3  C4  UNL     1     -34.373  15.188  -6.379  1.00 20.00     0.032 C 
HETATM    4  C5  UNL     1     -35.156  15.923  -4.178  1.00 20.00     0.022 C 
HETATM    5  C6  UNL     1     -33.868  15.564  -4.971  1.00 20.00    -0.007 C 
HETATM    6  C8  UNL     1     -35.091  15.653  -2.680  1.00 20.00     0.015 C 
HETATM    7  C9  UNL     1     -33.047  14.414  -4.376  1.00 20.00     0.011 C 
ENDROOT
BRANCH   2   8
HETATM    8  C3  UNL     1     -37.549  14.877  -4.457  1.00 20.00     0.151 C 
HETATM    9  C7  UNL     1     -38.436  16.054  -4.117  1.00 20.00     0.096 C 
HETATM   10  O10 UNL     1     -37.967  13.718  -4.333  1.00 20.00    -0.293 OA
ENDBRANCH   2   8
TORSDOF 1
ENDMDL
MODEL 9
REMARK VINA RESULT:      -4.1      2.093      3.338
REMARK  1 active torsions:
REMARK  status: ('A' for Active; 'I' for Inactive)
REMARK    1  A    between atoms: C2_2  and  C3_3 
ROOT
HETATM    1  C1  UNL     1     -33.215  16.210  -3.081  1.00 20.00    -0.015 C 
HETATM    2  C2  UNL     1     -34.498  16.036  -2.752  1.00 20.00    -0.012 C 
HETATM    3  C4  UNL     1     -32.741  15.120  -3.987  1.00 20.00     0.032 C 
HETATM    4  C5  UNL     1     -35.092  14.810  -3.374  1.00 20.00     0.022 C 
HETATM    5  C6  UNL     1     -34.057  14.491  -4.489  1.00 20.00    -0.007 C 
HETATM    6  C8  UNL     1     -36.532  14.958  -3.850  1.00 20.00     0.015 C 
HETATM    7  C9  UNL     1     -34.414  15.042  -5.875  1.00 20.00     0.011 C 
ENDROOT
BRANCH   2   8
HETATM    8  C3  UNL     1     -35.180  16.936  -1.835  1.00 20.00     0.151 C 
HETATM    9  C7  UNL     1     -35.695  18.254  -2.369  1.00 20.00     0.096 C 
HETATM   10  O10 UNL     1     -35.331  16.638  -0.643  1.00 20.00    -0.293 OA
ENDBRANCH   2   8
TORSDOF 1
ENDMDL
