MODEL 1
REMARK VINA RESULT:      -5.3      0.000      0.000
REMARK  5 active torsions:
REMARK  status: ('A' for Active; 'I' for Inactive)
REMARK    1  A    between atoms: C1_1  and  C7_7 
REMARK    2  A    between atoms: C2_2  and  C9_9 
REMARK    3  A    between atoms: C4_4  and  C8_8 
REMARK    4  A    between atoms: C8_8  and  C9_9 
REMARK    5  A    between atoms: C9_9  and  O10_10 
ROOT
HETATM    1  C9  UNL     1     -33.415   5.189   3.447  1.00 20.00     0.200 C 
ENDROOT
BRANCH   1   2
HETATM    2  C2  UNL     1     -33.025   6.309   2.578  1.00 20.00    -0.074 C 
HETATM    3  C1  UNL     1     -32.708   7.224   1.866  1.00 20.00    -0.099 C 
BRANCH   3   4
HETATM    4  C7  UNL     1     -32.327   8.320   1.014  1.00 20.00     0.065 A 
HETATM    5  C5  UNL     1     -33.144   9.579   1.054  1.00 20.00     0.018 A 
HETATM    6  C6  UNL     1     -33.219   8.675  -0.141  1.00 20.00     0.018 A 
ENDBRANCH   3   4
ENDBRANCH   1   2
BRANCH   1   7
HETATM    7  C8  UNL     1     -34.823   5.405   4.010  1.00 20.00     0.071 C 
BRANCH   7   8
HETATM    8  C4  UNL     1     -34.800   5.642   5.494  1.00 20.00    -0.033 C 
HETATM    9  C3  UNL     1     -34.080   6.599   6.090  1.00 20.00     0.007 C 
ENDBRANCH   7   8
ENDBRANCH   1   7
BRANCH   1  10
HETATM   10  O10 UNL     1     -33.406   3.978   2.691  1.00 20.00    -0.383 OA
HETATM   11  H22 UNL     1     -32.482   3.814   2.449  1.00 20.00     0.211 HD
ENDBRANCH   1  10
TORSDOF 5
ENDMDL
MODEL 2
REMARK VINA RESULT:      -4.3     10.787     11.840
REMARK  5 active torsions:
REMARK  status: ('A' for Active; 'I' for Inactive)
REMARK    1  A    between atoms: C1_1  and  C7_7 
REMARK    2  A    between atoms: C2_2  and  C9_9 
REMARK    3  A    between atoms: C4_4  and  C8_8 
REMARK    4  A    between atoms: C8_8  and  C9_9 
REMARK    5  A    between atoms: C9_9  and  O10_10 
ROOT
HETATM    1  C9  UNL     1     -36.230  13.984  -4.710  1.00 20.00     0.200 C 
ENDROOT
BRANCH   1   2
HETATM    2  C2  UNL     1     -35.550  14.842  -3.728  1.00 20.00    -0.074 C 
HETATM    3  C1  UNL     1     -34.998  15.544  -2.925  1.00 20.00    -0.099 C 
BRANCH   3   4
HETATM    4  C7  UNL     1     -34.334  16.385  -1.963  1.00 20.00     0.065 A 
HETATM    5  C5  UNL     1     -34.317  17.869  -2.196  1.00 20.00     0.018 A 
HETATM    6  C6  UNL     1     -33.059  17.070  -2.366  1.00 20.00     0.018 A 
ENDBRANCH   3   4
ENDBRANCH   1   2
BRANCH   1   7
HETATM    7  C8  UNL     1     -35.899  14.428  -6.138  1.00 20.00     0.071 C 
BRANCH   7   8
HETATM    8  C4  UNL     1     -34.468  14.868  -6.269  1.00 20.00    -0.033 C 
HETATM    9  C3  UNL     1     -33.905  15.257  -7.418  1.00 20.00     0.007 C 
ENDBRANCH   7   8
ENDBRANCH   1   7
BRANCH   1  10
HETATM   10  O10 UNL     1     -35.796  12.635  -4.539  1.00 20.00    -0.383 OA
HETATM   11  H22 UNL     1     -36.234  12.306  -3.739  1.00 20.00     0.211 HD
ENDBRANCH   1  10
TORSDOF 5
ENDMDL
MODEL 3
REMARK VINA RESULT:      -4.2     10.806     11.824
REMARK  5 active torsions:
REMARK  status: ('A' for Active; 'I' for Inactive)
REMARK    1  A    between atoms: C1_1  and  C7_7 
REMARK    2  A    between atoms: C2_2  and  C9_9 
REMARK    3  A    between atoms: C4_4  and  C8_8 
REMARK    4  A    between atoms: C8_8  and  C9_9 
REMARK    5  A    between atoms: C9_9  and  O10_10 
ROOT
HETATM    1  C9  UNL     1     -33.356  14.693  -4.286  1.00 20.00     0.200 C 
ENDROOT
BRANCH   1   2
HETATM    2  C2  UNL     1     -33.286  15.836  -3.362  1.00 20.00    -0.074 C 
HETATM    3  C1  UNL     1     -33.228  16.770  -2.610  1.00 20.00    -0.099 C 
BRANCH   3   4
HETATM    4  C7  UNL     1     -33.159  17.890  -1.707  1.00 20.00     0.065 A 
HETATM    5  C5  UNL     1     -32.405  19.115  -2.138  1.00 20.00     0.018 A 
HETATM    6  C6  UNL     1     -31.837  18.222  -1.075  1.00 20.00     0.018 A 
ENDBRANCH   3   4
ENDBRANCH   1   2
BRANCH   1   7
HETATM    7  C8  UNL     1     -34.167  15.056  -5.534  1.00 20.00     0.071 C 
BRANCH   7   8
HETATM    8  C4  UNL     1     -35.590  14.585  -5.431  1.00 20.00    -0.033 C 
HETATM    9  C3  UNL     1     -36.022  13.690  -4.535  1.00 20.00     0.007 C 
ENDBRANCH   7   8
ENDBRANCH   1   7
BRANCH   1  10
HETATM   10  O10 UNL     1     -32.036  14.328  -4.688  1.00 20.00    -0.383 OA
HETATM   11  H22 UNL     1     -31.828  13.503  -4.225  1.00 20.00     0.211 HD
ENDBRANCH   1  10
TORSDOF 5
ENDMDL
MODEL 4
REMARK VINA RESULT:      -4.1     10.708     11.882
REMARK  5 active torsions:
REMARK  status: ('A' for Active; 'I' for Inactive)
REMARK    1  A    between atoms: C1_1  and  C7_7 
REMARK    2  A    between atoms: C2_2  and  C9_9 
REMARK    3  A    between atoms: C4_4  and  C8_8 
REMARK    4  A    between atoms: C8_8  and  C9_9 
REMARK    5  A    between atoms: C9_9  and  O10_10 
ROOT
HETATM    1  C9  UNL     1     -33.373  15.937  -3.586  1.00 20.00     0.200 C 
ENDROOT
BRANCH   1   2
HETATM    2  C2  UNL     1     -32.935  16.942  -2.605  1.00 20.00    -0.074 C 
HETATM    3  C1  UNL     1     -32.577  17.765  -1.807  1.00 20.00    -0.099 C 
BRANCH   3   4
HETATM    4  C7  UNL     1     -32.147  18.749  -0.848  1.00 20.00     0.065 A 
HETATM    5  C5  UNL     1     -30.981  18.427   0.041  1.00 20.00     0.018 A 
HETATM    6  C6  UNL     1     -32.367  18.475   0.612  1.00 20.00     0.018 A 
ENDBRANCH   3   4
ENDBRANCH   1   2
BRANCH   1   7
HETATM    7  C8  UNL     1     -34.662  15.254  -3.121  1.00 20.00     0.071 C 
BRANCH   7   8
HETATM    8  C4  UNL     1     -34.949  14.007  -3.910  1.00 20.00    -0.033 C 
HETATM    9  C3  UNL     1     -36.129  13.736  -4.481  1.00 20.00     0.007 C 
ENDBRANCH   7   8
ENDBRANCH   1   7
BRANCH   1  10
HETATM   10  O10 UNL     1     -33.620  16.575  -4.839  1.00 20.00    -0.383 OA
HETATM   11  H22 UNL     1     -33.667  17.526  -4.658  1.00 20.00     0.211 HD
ENDBRANCH   1  10
TORSDOF 5
ENDMDL
MODEL 5
REMARK VINA RESULT:      -4.1     10.965     11.973
REMARK  5 active torsions:
REMARK  status: ('A' for Active; 'I' for Inactive)
REMARK    1  A    between atoms: C1_1  and  C7_7 
REMARK    2  A    between atoms: C2_2  and  C9_9 
REMARK    3  A    between atoms: C4_4  and  C8_8 
REMARK    4  A    between atoms: C8_8  and  C9_9 
REMARK    5  A    between atoms: C9_9  and  O10_10 
ROOT
HETATM    1  C9  UNL     1     -31.510  18.886  -0.570  1.00 20.00     0.200 C 
ENDROOT
BRANCH   1   2
HETATM    2  C2  UNL     1     -32.342  18.136  -1.523  1.00 20.00    -0.074 C 
HETATM    3  C1  UNL     1     -33.023  17.525  -2.301  1.00 20.00    -0.099 C 
BRANCH   3   4
HETATM    4  C7  UNL     1     -33.840  16.792  -3.233  1.00 20.00     0.065 A 
HETATM    5  C5  UNL     1     -34.524  15.541  -2.761  1.00 20.00     0.018 A 
HETATM    6  C6  UNL     1     -33.362  15.448  -3.705  1.00 20.00     0.018 A 
ENDBRANCH   3   4
ENDBRANCH   1   2
BRANCH   1   7
HETATM    7  C8  UNL     1     -32.265  19.122   0.741  1.00 20.00     0.071 C 
BRANCH   7   8
HETATM    8  C4  UNL     1     -31.807  18.187   1.825  1.00 20.00    -0.033 C 
HETATM    9  C3  UNL     1     -32.562  17.821   2.868  1.00 20.00     0.007 C 
ENDBRANCH   7   8
ENDBRANCH   1   7
BRANCH   1  10
HETATM   10  O10 UNL     1     -30.325  18.141  -0.288  1.00 20.00    -0.383 OA
HETATM   11  H22 UNL     1     -30.611  17.338   0.174  1.00 20.00     0.211 HD
ENDBRANCH   1  10
TORSDOF 5
ENDMDL
MODEL 6
REMARK VINA RESULT:      -4.0     10.855     11.737
REMARK  5 active torsions:
REMARK  status: ('A' for Active; 'I' for Inactive)
REMARK    1  A    between atoms: C1_1  and  C7_7 
REMARK    2  A    between atoms: C2_2  and  C9_9 
REMARK    3  A    between atoms: C4_4  and  C8_8 
REMARK    4  A    between atoms: C8_8  and  C9_9 
REMARK    5  A    between atoms: C9_9  and  O10_10 
ROOT
HETATM    1  C9  UNL     1     -33.476  14.676  -4.324  1.00 20.00     0.200 C 
ENDROOT
BRANCH   1   2
HETATM    2  C2  UNL     1     -33.385  15.768  -3.342  1.00 20.00    -0.074 C 
HETATM    3  C1  UNL     1     -33.309  16.660  -2.542  1.00 20.00    -0.099 C 
BRANCH   3   4
HETATM    4  C7  UNL     1     -33.219  17.729  -1.582  1.00 20.00     0.065 A 
HETATM    5  C5  UNL     1     -34.275  17.833  -0.519  1.00 20.00     0.018 A 
HETATM    6  C6  UNL     1     -34.237  18.833  -1.637  1.00 20.00     0.018 A 
ENDBRANCH   3   4
ENDBRANCH   1   2
BRANCH   1   7
HETATM    7  C8  UNL     1     -34.294  15.113  -5.544  1.00 20.00     0.071 C 
BRANCH   7   8
HETATM    8  C4  UNL     1     -35.649  14.463  -5.568  1.00 20.00    -0.033 C 
HETATM    9  C3  UNL     1     -36.136  13.706  -4.579  1.00 20.00     0.007 C 
ENDBRANCH   7   8
ENDBRANCH   1   7
BRANCH   1  10
HETATM   10  O10 UNL     1     -32.164  14.319  -4.758  1.00 20.00    -0.383 OA
HETATM   11  H22 UNL     1     -31.585  15.057  -4.514  1.00 20.00     0.211 HD
ENDBRANCH   1  10
TORSDOF 5
ENDMDL
MODEL 7
REMARK VINA RESULT:      -3.9      9.467     10.268
REMARK  5 active torsions:
REMARK  status: ('A' for Active; 'I' for Inactive)
REMARK    1  A    between atoms: C1_1  and  C7_7 
REMARK    2  A    between atoms: C2_2  and  C9_9 
REMARK    3  A    between atoms: C4_4  and  C8_8 
REMARK    4  A    between atoms: C8_8  and  C9_9 
REMARK    5  A    between atoms: C9_9  and  O10_10 
ROOT
HETATM    1  C9  UNL     1     -41.084   6.014  -0.650  1.00 20.00     0.200 C 
ENDROOT
BRANCH   1   2
HETATM    2  C2  UNL     1     -41.585   4.911  -1.484  1.00 20.00    -0.074 C 
HETATM    3  C1  UNL     1     -41.993   4.009  -2.165  1.00 20.00    -0.099 C 
BRANCH   3   4
HETATM    4  C7  UNL     1     -42.482   2.929  -2.981  1.00 20.00     0.065 A 
HETATM    5  C5  UNL     1     -41.705   2.547  -4.209  1.00 20.00     0.018 A 
HETATM    6  C6  UNL     1     -43.025   3.248  -4.345  1.00 20.00     0.018 A 
ENDBRANCH   3   4
ENDBRANCH   1   2
BRANCH   1   7
HETATM    7  C8  UNL     1     -41.691   7.348  -1.094  1.00 20.00     0.071 C 
BRANCH   7   8
HETATM    8  C4  UNL     1     -41.994   8.241   0.076  1.00 20.00    -0.033 C 
HETATM    9  C3  UNL     1     -41.400   9.420   0.293  1.00 20.00     0.007 C 
ENDBRANCH   7   8
ENDBRANCH   1   7
BRANCH   1  10
HETATM   10  O10 UNL     1     -41.444   5.778   0.711  1.00 20.00    -0.383 OA
HETATM   11  H22 UNL     1     -42.413   5.759   0.739  1.00 20.00     0.211 HD
ENDBRANCH   1  10
TORSDOF 5
ENDMDL
MODEL 8
REMARK VINA RESULT:      -3.9     15.925     16.878
REMARK  5 active torsions:
REMARK  status: ('A' for Active; 'I' for Inactive)
REMARK    1  A    between atoms: C1_1  and  C7_7 
REMARK    2  A    between atoms: C2_2  and  C9_9 
REMARK    3  A    between atoms: C4_4  and  C8_8 
REMARK    4  A    between atoms: C8_8  and  C9_9 
REMARK    5  A    between atoms: C9_9  and  O10_10 
ROOT
HETATM    1  C9  UNL     1     -23.617  16.869  11.011  1.00 20.00     0.200 C 
ENDROOT
BRANCH   1   2
HETATM    2  C2  UNL     1     -24.821  17.654  11.324  1.00 20.00    -0.074 C 
HETATM    3  C1  UNL     1     -25.803  18.297  11.578  1.00 20.00    -0.099 C 
BRANCH   3   4
HETATM    4  C7  UNL     1     -26.980  19.067  11.884  1.00 20.00     0.065 A 
HETATM    5  C5  UNL     1     -28.301  18.359  11.969  1.00 20.00     0.018 A 
HETATM    6  C6  UNL     1     -28.011  19.263  10.808  1.00 20.00     0.018 A 
ENDBRANCH   3   4
ENDBRANCH   1   2
BRANCH   1   7
HETATM    7  C8  UNL     1     -22.379  17.769  10.967  1.00 20.00     0.071 C 
BRANCH   7   8
HETATM    8  C4  UNL     1     -22.001  18.132   9.559  1.00 20.00    -0.033 C 
HETATM    9  C3  UNL     1     -22.352  17.420   8.481  1.00 20.00     0.007 C 
ENDBRANCH   7   8
ENDBRANCH   1   7
BRANCH   1  10
HETATM   10  O10 UNL     1     -23.425  15.875  12.018  1.00 20.00    -0.383 OA
HETATM   11  H22 UNL     1     -24.151  15.984  12.651  1.00 20.00     0.211 HD
ENDBRANCH   1  10
TORSDOF 5
ENDMDL
MODEL 9
REMARK VINA RESULT:      -3.9     10.895     11.610
REMARK  5 active torsions:
REMARK  status: ('A' for Active; 'I' for Inactive)
REMARK    1  A    between atoms: C1_1  and  C7_7 
REMARK    2  A    between atoms: C2_2  and  C9_9 
REMARK    3  A    between atoms: C4_4  and  C8_8 
REMARK    4  A    between atoms: C8_8  and  C9_9 
REMARK    5  A    between atoms: C9_9  and  O10_10 
ROOT
HETATM    1  C9  UNL     1     -35.183  17.030  -0.777  1.00 20.00     0.200 C 
ENDROOT
BRANCH   1   2
HETATM    2  C2  UNL     1     -34.920  16.138  -1.917  1.00 20.00    -0.074 C 
HETATM    3  C1  UNL     1     -34.704  15.409  -2.847  1.00 20.00    -0.099 C 
BRANCH   3   4
HETATM    4  C7  UNL     1     -34.446  14.536  -3.962  1.00 20.00     0.065 A 
HETATM    5  C5  UNL     1     -33.041  14.429  -4.481  1.00 20.00     0.018 A 
HETATM    6  C6  UNL     1     -34.083  15.148  -5.285  1.00 20.00     0.018 A 
ENDBRANCH   3   4
ENDBRANCH   1   2
BRANCH   1   7
HETATM    7  C8  UNL     1     -34.303  18.281  -0.856  1.00 20.00     0.071 C 
BRANCH   7   8
HETATM    8  C4  UNL     1     -32.903  17.953  -1.292  1.00 20.00    -0.033 C 
HETATM    9  C3  UNL     1     -31.804  18.328  -0.628  1.00 20.00     0.007 C 
ENDBRANCH   7   8
ENDBRANCH   1   7
BRANCH   1  10
HETATM   10  O10 UNL     1     -36.552  17.431  -0.796  1.00 20.00    -0.383 OA
HETATM   11  H22 UNL     1     -36.795  17.619   0.123  1.00 20.00     0.211 HD
ENDBRANCH   1  10
TORSDOF 5
ENDMDL
