MODEL 1
REMARK VINA RESULT:      -3.8      0.000      0.000
REMARK  1 active torsions:
REMARK  status: ('A' for Active; 'I' for Inactive)
REMARK    1  A    between atoms: C3_3  and  C7_7 
ROOT
HETATM    1  C1  UNL     1     -25.624  19.129   9.688  1.00 20.00     0.346 C 
HETATM    2  C2  UNL     1     -23.564  17.970   9.576  1.00 20.00     0.233 C 
HETATM    3  C3  UNL     1     -23.706  18.019  11.113  1.00 20.00     0.081 C 
HETATM    4  C4  UNL     1     -22.087  17.992   9.172  1.00 20.00     0.044 C 
HETATM    5  C6  UNL     1     -24.411  19.184   7.610  1.00 20.00     0.311 C 
HETATM    6  N8  UNL     1     -24.297  19.148   9.066  1.00 20.00     0.098 N 
HETATM    7  S9  UNL     1     -25.423  18.546  11.390  1.00 20.00    -0.132 SA
ENDROOT
BRANCH   3   8
HETATM    8  C7  UNL     1     -23.443  16.683  11.793  1.00 20.00     0.013 C 
HETATM    9  C5  UNL     1     -24.608  15.755  11.668  1.00 20.00     0.006 C 
ENDBRANCH   3   8
TORSDOF 1
ENDMDL
MODEL 2
REMARK VINA RESULT:      -3.7      1.625      2.858
REMARK  1 active torsions:
REMARK  status: ('A' for Active; 'I' for Inactive)
REMARK    1  A    between atoms: C3_3  and  C7_7 
ROOT
HETATM    1  C1  UNL     1     -22.314  17.755  11.470  1.00 20.00     0.346 C 
HETATM    2  C2  UNL     1     -23.675  18.602   9.730  1.00 20.00     0.233 C 
HETATM    3  C3  UNL     1     -24.799  18.129  10.678  1.00 20.00     0.081 C 
HETATM    4  C4  UNL     1     -24.124  18.495   8.270  1.00 20.00     0.044 C 
HETATM    5  C6  UNL     1     -21.293  18.139   9.326  1.00 20.00     0.311 C 
HETATM    6  N8  UNL     1     -22.513  17.735  10.018  1.00 20.00     0.098 N 
HETATM    7  S9  UNL     1     -23.948  17.785  12.248  1.00 20.00    -0.132 SA
ENDROOT
BRANCH   3   8
HETATM    8  C7  UNL     1     -25.899  19.161  10.883  1.00 20.00     0.013 C 
HETATM    9  C5  UNL     1     -26.862  18.744  11.948  1.00 20.00     0.006 C 
ENDBRANCH   3   8
TORSDOF 1
ENDMDL
MODEL 3
REMARK VINA RESULT:      -3.7      1.655      2.413
REMARK  1 active torsions:
REMARK  status: ('A' for Active; 'I' for Inactive)
REMARK    1  A    between atoms: C3_3  and  C7_7 
ROOT
HETATM    1  C1  UNL     1     -23.807  18.684   8.916  1.00 20.00     0.346 C 
HETATM    2  C2  UNL     1     -23.306  17.713  11.016  1.00 20.00     0.233 C 
HETATM    3  C3  UNL     1     -24.616  18.430  11.411  1.00 20.00     0.081 C 
HETATM    4  C4  UNL     1     -22.353  17.639  12.212  1.00 20.00     0.044 C 
HETATM    5  C6  UNL     1     -21.568  17.882   9.282  1.00 20.00     0.311 C 
HETATM    6  N8  UNL     1     -22.737  18.501   9.901  1.00 20.00     0.098 N 
HETATM    7  S9  UNL     1     -25.353  18.927   9.825  1.00 20.00    -0.132 SA
ENDROOT
BRANCH   3   8
HETATM    8  C7  UNL     1     -25.580  17.550  12.194  1.00 20.00     0.013 C 
HETATM    9  C5  UNL     1     -26.968  18.106  12.194  1.00 20.00     0.006 C 
ENDBRANCH   3   8
TORSDOF 1
ENDMDL
MODEL 4
REMARK VINA RESULT:      -3.6      1.902      4.029
REMARK  1 active torsions:
REMARK  status: ('A' for Active; 'I' for Inactive)
REMARK    1  A    between atoms: C3_3  and  C7_7 
ROOT
HETATM    1  C1  UNL     1     -22.729  17.058   9.736  1.00 20.00     0.346 C 
HETATM    2  C2  UNL     1     -24.796  18.049  10.322  1.00 20.00     0.233 C 
HETATM    3  C3  UNL     1     -24.411  19.006   9.172  1.00 20.00     0.081 C 
HETATM    4  C4  UNL     1     -25.624  18.785  11.378  1.00 20.00     0.044 C 
HETATM    5  C6  UNL     1     -23.685  16.492  11.870  1.00 20.00     0.311 C 
HETATM    6  N8  UNL     1     -23.519  17.544  10.870  1.00 20.00     0.098 N 
HETATM    7  S9  UNL     1     -23.021  18.178   8.344  1.00 20.00    -0.132 SA
ENDROOT
BRANCH   3   8
HETATM    8  C7  UNL     1     -25.542  19.262   8.187  1.00 20.00     0.013 C 
HETATM    9  C5  UNL     1     -25.059  19.260   6.772  1.00 20.00     0.006 C 
ENDBRANCH   3   8
TORSDOF 1
ENDMDL
MODEL 5
REMARK VINA RESULT:      -3.5     17.188     18.727
REMARK  1 active torsions:
REMARK  status: ('A' for Active; 'I' for Inactive)
REMARK    1  A    between atoms: C3_3  and  C7_7 
ROOT
HETATM    1  C1  UNL     1     -33.879  14.913  -6.062  1.00 20.00     0.346 C 
HETATM    2  C2  UNL     1     -35.827  15.322  -4.782  1.00 20.00     0.233 C 
HETATM    3  C3  UNL     1     -34.913  14.825  -3.640  1.00 20.00     0.081 C 
HETATM    4  C4  UNL     1     -37.287  14.960  -4.497  1.00 20.00     0.044 C 
HETATM    5  C6  UNL     1     -35.968  15.149  -7.232  1.00 20.00     0.311 C 
HETATM    6  N8  UNL     1     -35.324  14.672  -6.011  1.00 20.00     0.098 N 
HETATM    7  S9  UNL     1     -33.248  14.816  -4.368  1.00 20.00    -0.132 SA
ENDROOT
BRANCH   3   8
HETATM    8  C7  UNL     1     -34.949  15.710  -2.402  1.00 20.00     0.013 C 
HETATM    9  C5  UNL     1     -33.773  16.632  -2.342  1.00 20.00     0.006 C 
ENDBRANCH   3   8
TORSDOF 1
ENDMDL
MODEL 6
REMARK VINA RESULT:      -3.3     16.461     17.900
REMARK  1 active torsions:
REMARK  status: ('A' for Active; 'I' for Inactive)
REMARK    1  A    between atoms: C3_3  and  C7_7 
ROOT
HETATM    1  C1  UNL     1     -35.170  17.238  -5.820  1.00 20.00     0.346 C 
HETATM    2  C2  UNL     1     -34.105  15.596  -4.490  1.00 20.00     0.233 C 
HETATM    3  C3  UNL     1     -33.563  16.849  -3.768  1.00 20.00     0.081 C 
HETATM    4  C4  UNL     1     -33.090  14.452  -4.413  1.00 20.00     0.044 C 
HETATM    5  C6  UNL     1     -35.038  14.998  -6.687  1.00 20.00     0.311 C 
HETATM    6  N8  UNL     1     -34.365  16.015  -5.884  1.00 20.00     0.098 N 
HETATM    7  S9  UNL     1     -34.573  18.214  -4.417  1.00 20.00    -0.132 SA
ENDROOT
BRANCH   3   8
HETATM    8  C7  UNL     1     -33.676  16.776  -2.252  1.00 20.00     0.013 C 
HETATM    9  C5  UNL     1     -35.023  16.294  -1.816  1.00 20.00     0.006 C 
ENDBRANCH   3   8
TORSDOF 1
ENDMDL
MODEL 7
REMARK VINA RESULT:      -3.2     16.034     17.548
REMARK  1 active torsions:
REMARK  status: ('A' for Active; 'I' for Inactive)
REMARK    1  A    between atoms: C3_3  and  C7_7 
ROOT
HETATM    1  C1  UNL     1     -36.563  15.881  -3.815  1.00 20.00     0.346 C 
HETATM    2  C2  UNL     1     -34.316  15.145  -3.704  1.00 20.00     0.233 C 
HETATM    3  C3  UNL     1     -34.058  16.662  -3.572  1.00 20.00     0.081 C 
HETATM    4  C4  UNL     1     -33.143  14.461  -4.411  1.00 20.00     0.044 C 
HETATM    5  C6  UNL     1     -36.071  13.646  -4.557  1.00 20.00     0.311 C 
HETATM    6  N8  UNL     1     -35.576  15.016  -4.468  1.00 20.00     0.098 N 
HETATM    7  S9  UNL     1     -35.702  17.373  -3.258  1.00 20.00    -0.132 SA
ENDROOT
BRANCH   3   8
HETATM    8  C7  UNL     1     -33.099  17.021  -2.446  1.00 20.00     0.013 C 
HETATM    9  C5  UNL     1     -33.815  17.595  -1.265  1.00 20.00     0.006 C 
ENDBRANCH   3   8
TORSDOF 1
ENDMDL
MODEL 8
REMARK VINA RESULT:      -3.1     17.205     18.687
REMARK  1 active torsions:
REMARK  status: ('A' for Active; 'I' for Inactive)
REMARK    1  A    between atoms: C3_3  and  C7_7 
ROOT
HETATM    1  C1  UNL     1     -37.660  16.963  -3.752  1.00 20.00     0.346 C 
HETATM    2  C2  UNL     1     -36.442  14.935  -3.832  1.00 20.00     0.233 C 
HETATM    3  C3  UNL     1     -35.252  15.912  -3.946  1.00 20.00     0.081 C 
HETATM    4  C4  UNL     1     -36.144  13.634  -4.583  1.00 20.00     0.044 C 
HETATM    5  C6  UNL     1     -38.870  14.939  -4.233  1.00 20.00     0.311 C 
HETATM    6  N8  UNL     1     -37.605  15.650  -4.401  1.00 20.00     0.098 N 
HETATM    7  S9  UNL     1     -35.957  17.533  -3.524  1.00 20.00    -0.132 SA
ENDROOT
BRANCH   3   8
HETATM    8  C7  UNL     1     -34.095  15.575  -3.016  1.00 20.00     0.013 C 
HETATM    9  C5  UNL     1     -33.329  16.796  -2.616  1.00 20.00     0.006 C 
ENDBRANCH   3   8
TORSDOF 1
ENDMDL
MODEL 9
REMARK VINA RESULT:      -3.1     17.269     18.813
REMARK  1 active torsions:
REMARK  status: ('A' for Active; 'I' for Inactive)
REMARK    1  A    between atoms: C3_3  and  C7_7 
ROOT
HETATM    1  C1  UNL     1     -35.721  14.485  -5.823  1.00 20.00     0.346 C 
HETATM    2  C2  UNL     1     -35.780  16.513  -4.605  1.00 20.00     0.233 C 
HETATM    3  C3  UNL     1     -35.658  15.542  -3.410  1.00 20.00     0.081 C 
HETATM    4  C4  UNL     1     -36.575  17.759  -4.205  1.00 20.00     0.044 C 
HETATM    5  C6  UNL     1     -36.510  16.456  -6.954  1.00 20.00     0.311 C 
HETATM    6  N8  UNL     1     -36.450  15.748  -5.678  1.00 20.00     0.098 N 
HETATM    7  S9  UNL     1     -35.220  13.949  -4.168  1.00 20.00    -0.132 SA
ENDROOT
BRANCH   3   8
HETATM    8  C7  UNL     1     -34.604  15.956  -2.393  1.00 20.00     0.013 C 
HETATM    9  C5  UNL     1     -33.293  16.262  -3.043  1.00 20.00     0.006 C 
ENDBRANCH   3   8
TORSDOF 1
ENDMDL
