MODEL 1
REMARK VINA RESULT:      -5.1      0.000      0.000
REMARK  1 active torsions:
REMARK  status: ('A' for Active; 'I' for Inactive)
REMARK    1  A    between atoms: C5_5  and  C7_7 
ROOT
HETATM    1  C1  UNL     1     -33.137  16.631  -2.872  1.00 20.00    -0.003 A 
HETATM    2  C2  UNL     1     -34.275  16.626  -1.976  1.00 20.00    -0.003 A 
HETATM    3  C3  UNL     1     -33.347  15.700  -3.822  1.00 20.00    -0.012 A 
HETATM    4  C4  UNL     1     -35.143  15.691  -2.409  1.00 20.00    -0.012 A 
HETATM    5  C6  UNL     1     -34.819  13.563  -3.856  1.00 20.00     0.032 A 
HETATM    6  C7  UNL     1     -35.495  14.575  -4.758  1.00 20.00     0.072 A 
HETATM    7  C8  UNL     1     -34.636  15.025  -3.617  1.00 20.00     0.006 A 
ENDROOT
BRANCH   6   8
HETATM    8  C5  UNL     1     -36.955  14.715  -4.707  1.00 20.00     0.128 C 
HETATM    9  C9  UNL     1     -37.519  16.068  -5.051  1.00 20.00     0.091 C 
HETATM   10  O10 UNL     1     -37.683  13.772  -4.401  1.00 20.00    -0.298 OA
ENDBRANCH   6   8
TORSDOF 1
ENDMDL
MODEL 2
REMARK VINA RESULT:      -4.9     16.416     18.176
REMARK  1 active torsions:
REMARK  status: ('A' for Active; 'I' for Inactive)
REMARK    1  A    between atoms: C5_5  and  C7_7 
ROOT
HETATM    1  C1  UNL     1     -23.555  17.137  12.278  1.00 20.00    -0.003 A 
HETATM    2  C2  UNL     1     -24.282  16.267  11.375  1.00 20.00    -0.003 A 
HETATM    3  C3  UNL     1     -22.844  18.008  11.538  1.00 20.00    -0.012 A 
HETATM    4  C4  UNL     1     -23.992  16.638  10.113  1.00 20.00    -0.012 A 
HETATM    5  C6  UNL     1     -21.959  17.892   9.100  1.00 20.00     0.032 A 
HETATM    6  C7  UNL     1     -23.098  18.891   9.106  1.00 20.00     0.072 A 
HETATM    7  C8  UNL     1     -23.059  17.773  10.102  1.00 20.00     0.006 A 
ENDROOT
BRANCH   6   8
HETATM    8  C5  UNL     1     -24.061  18.883   7.998  1.00 20.00     0.128 C 
HETATM    9  C9  UNL     1     -25.480  19.262   8.330  1.00 20.00     0.091 C 
HETATM   10  O10 UNL     1     -23.725  18.583   6.853  1.00 20.00    -0.298 OA
ENDBRANCH   6   8
TORSDOF 1
ENDMDL
MODEL 3
REMARK VINA RESULT:      -4.9      1.281      1.381
REMARK  1 active torsions:
REMARK  status: ('A' for Active; 'I' for Inactive)
REMARK    1  A    between atoms: C5_5  and  C7_7 
ROOT
HETATM    1  C1  UNL     1     -33.632  17.030  -2.062  1.00 20.00    -0.003 A 
HETATM    2  C2  UNL     1     -34.891  16.372  -1.776  1.00 20.00    -0.003 A 
HETATM    3  C3  UNL     1     -33.131  16.502  -3.194  1.00 20.00    -0.012 A 
HETATM    4  C4  UNL     1     -35.118  15.465  -2.744  1.00 20.00    -0.012 A 
HETATM    5  C6  UNL     1     -33.515  14.212  -4.355  1.00 20.00     0.032 A 
HETATM    6  C7  UNL     1     -34.216  15.255  -5.200  1.00 20.00     0.072 A 
HETATM    7  C8  UNL     1     -34.028  15.467  -3.730  1.00 20.00     0.006 A 
ENDROOT
BRANCH   6   8
HETATM    8  C5  UNL     1     -35.540  14.951  -5.757  1.00 20.00     0.128 C 
HETATM    9  C9  UNL     1     -36.454  16.121  -6.008  1.00 20.00     0.091 C 
HETATM   10  O10 UNL     1     -35.885  13.798  -6.008  1.00 20.00    -0.298 OA
ENDBRANCH   6   8
TORSDOF 1
ENDMDL
MODEL 4
REMARK VINA RESULT:      -4.6     11.099     12.342
REMARK  1 active torsions:
REMARK  status: ('A' for Active; 'I' for Inactive)
REMARK    1  A    between atoms: C5_5  and  C7_7 
ROOT
HETATM    1  C1  UNL     1     -34.545   4.594   5.823  1.00 20.00    -0.003 A 
HETATM    2  C2  UNL     1     -34.673   6.027   5.997  1.00 20.00    -0.003 A 
HETATM    3  C3  UNL     1     -34.181   4.358   4.549  1.00 20.00    -0.012 A 
HETATM    4  C4  UNL     1     -34.382   6.618   4.823  1.00 20.00    -0.012 A 
HETATM    5  C6  UNL     1     -34.468   5.754   2.378  1.00 20.00     0.032 A 
HETATM    6  C7  UNL     1     -32.999   5.809   2.744  1.00 20.00     0.072 A 
HETATM    7  C8  UNL     1     -34.041   5.617   3.802  1.00 20.00     0.006 A 
ENDROOT
BRANCH   6   8
HETATM    8  C5  UNL     1     -32.278   7.081   2.614  1.00 20.00     0.128 C 
HETATM    9  C9  UNL     1     -32.485   7.848   1.335  1.00 20.00     0.091 C 
HETATM   10  O10 UNL     1     -31.543   7.500   3.506  1.00 20.00    -0.298 OA
ENDBRANCH   6   8
TORSDOF 1
ENDMDL
MODEL 5
REMARK VINA RESULT:      -4.6      9.729     11.101
REMARK  1 active torsions:
REMARK  status: ('A' for Active; 'I' for Inactive)
REMARK    1  A    between atoms: C5_5  and  C7_7 
ROOT
HETATM    1  C1  UNL     1     -34.516   5.262   4.010  1.00 20.00    -0.003 A 
HETATM    2  C2  UNL     1     -33.889   4.578   2.897  1.00 20.00    -0.003 A 
HETATM    3  C3  UNL     1     -33.984   6.495   4.098  1.00 20.00    -0.012 A 
HETATM    4  C4  UNL     1     -32.994   5.418   2.342  1.00 20.00    -0.012 A 
HETATM    5  C6  UNL     1     -31.713   7.463   3.295  1.00 20.00     0.032 A 
HETATM    6  C7  UNL     1     -32.780   8.034   2.383  1.00 20.00     0.072 A 
HETATM    7  C8  UNL     1     -32.976   6.707   3.048  1.00 20.00     0.006 A 
ENDROOT
BRANCH   6   8
HETATM    8  C5  UNL     1     -32.513   8.126   0.943  1.00 20.00     0.128 C 
HETATM    9  C9  UNL     1     -33.518   8.882   0.115  1.00 20.00     0.091 C 
HETATM   10  O10 UNL     1     -31.517   7.612   0.436  1.00 20.00    -0.298 OA
ENDBRANCH   6   8
TORSDOF 1
ENDMDL
MODEL 6
REMARK VINA RESULT:      -4.5     17.697     18.634
REMARK  1 active torsions:
REMARK  status: ('A' for Active; 'I' for Inactive)
REMARK    1  A    between atoms: C5_5  and  C7_7 
ROOT
HETATM    1  C1  UNL     1     -25.833  18.740  12.046  1.00 20.00    -0.003 A 
HETATM    2  C2  UNL     1     -25.988  19.263  10.703  1.00 20.00    -0.003 A 
HETATM    3  C3  UNL     1     -24.855  17.817  12.026  1.00 20.00    -0.012 A 
HETATM    4  C4  UNL     1     -25.097  18.641   9.908  1.00 20.00    -0.012 A 
HETATM    5  C6  UNL     1     -23.895  16.350  10.111  1.00 20.00     0.032 A 
HETATM    6  C7  UNL     1     -22.846  17.395  10.430  1.00 20.00     0.072 A 
HETATM    7  C8  UNL     1     -24.297  17.673  10.672  1.00 20.00     0.006 A 
ENDROOT
BRANCH   6   8
HETATM    8  C5  UNL     1     -22.126  18.043   9.328  1.00 20.00     0.128 C 
HETATM    9  C9  UNL     1     -21.293  17.151   8.446  1.00 20.00     0.091 C 
HETATM   10  O10 UNL     1     -22.200  19.255   9.133  1.00 20.00    -0.298 OA
ENDBRANCH   6   8
TORSDOF 1
ENDMDL
MODEL 7
REMARK VINA RESULT:      -4.3      1.172      2.049
REMARK  1 active torsions:
REMARK  status: ('A' for Active; 'I' for Inactive)
REMARK    1  A    between atoms: C5_5  and  C7_7 
ROOT
HETATM    1  C1  UNL     1     -33.850  16.696  -1.856  1.00 20.00    -0.003 A 
HETATM    2  C2  UNL     1     -33.140  16.488  -3.103  1.00 20.00    -0.003 A 
HETATM    3  C3  UNL     1     -35.137  16.349  -2.044  1.00 20.00    -0.012 A 
HETATM    4  C4  UNL     1     -34.019  16.021  -4.010  1.00 20.00    -0.012 A 
HETATM    5  C6  UNL     1     -36.600  16.215  -4.184  1.00 20.00     0.032 A 
HETATM    6  C7  UNL     1     -36.322  14.790  -3.753  1.00 20.00     0.072 A 
HETATM    7  C8  UNL     1     -35.359  15.887  -3.422  1.00 20.00     0.006 A 
ENDROOT
BRANCH   6   8
HETATM    8  C5  UNL     1     -36.002  13.784  -4.773  1.00 20.00     0.128 C 
HETATM    9  C9  UNL     1     -35.928  14.265  -6.198  1.00 20.00     0.091 C 
HETATM   10  O10 UNL     1     -35.803  12.607  -4.480  1.00 20.00    -0.298 OA
ENDBRANCH   6   8
TORSDOF 1
ENDMDL
MODEL 8
REMARK VINA RESULT:      -4.1      2.912      4.356
REMARK  1 active torsions:
REMARK  status: ('A' for Active; 'I' for Inactive)
REMARK    1  A    between atoms: C5_5  and  C7_7 
ROOT
HETATM    1  C1  UNL     1     -34.817  14.471  -3.802  1.00 20.00    -0.003 A 
HETATM    2  C2  UNL     1     -33.416  14.564  -4.163  1.00 20.00    -0.003 A 
HETATM    3  C3  UNL     1     -35.132  15.550  -3.063  1.00 20.00    -0.012 A 
HETATM    4  C4  UNL     1     -32.924  15.700  -3.633  1.00 20.00    -0.012 A 
HETATM    5  C6  UNL     1     -33.681  17.140  -1.612  1.00 20.00     0.032 A 
HETATM    6  C7  UNL     1     -34.084  17.919  -2.847  1.00 20.00     0.072 A 
HETATM    7  C8  UNL     1     -33.964  16.427  -2.892  1.00 20.00     0.006 A 
ENDROOT
BRANCH   6   8
HETATM    8  C5  UNL     1     -33.091  18.778  -3.504  1.00 20.00     0.128 C 
HETATM    9  C9  UNL     1     -33.343  19.120  -4.949  1.00 20.00     0.091 C 
HETATM   10  O10 UNL     1     -32.104  19.199  -2.905  1.00 20.00    -0.298 OA
ENDBRANCH   6   8
TORSDOF 1
ENDMDL
MODEL 9
REMARK VINA RESULT:      -4.0      1.635      2.226
REMARK  1 active torsions:
REMARK  status: ('A' for Active; 'I' for Inactive)
REMARK    1  A    between atoms: C5_5  and  C7_7 
ROOT
HETATM    1  C1  UNL     1     -32.915  17.620  -3.004  1.00 20.00    -0.003 A 
HETATM    2  C2  UNL     1     -33.775  18.200  -4.015  1.00 20.00    -0.003 A 
HETATM    3  C3  UNL     1     -33.252  16.324  -2.861  1.00 20.00    -0.012 A 
HETATM    4  C4  UNL     1     -34.607  17.239  -4.458  1.00 20.00    -0.012 A 
HETATM    5  C6  UNL     1     -35.450  15.039  -3.370  1.00 20.00     0.032 A 
HETATM    6  C7  UNL     1     -34.443  14.620  -4.421  1.00 20.00     0.072 A 
HETATM    7  C8  UNL     1     -34.350  15.965  -3.772  1.00 20.00     0.006 A 
ENDROOT
BRANCH   6   8
HETATM    8  C5  UNL     1     -34.882  14.482  -5.815  1.00 20.00     0.128 C 
HETATM    9  C9  UNL     1     -33.982  15.069  -6.870  1.00 20.00     0.091 C 
HETATM   10  O10 UNL     1     -35.932  13.913  -6.108  1.00 20.00    -0.298 OA
ENDBRANCH   6   8
TORSDOF 1
ENDMDL
