MODEL 1
REMARK VINA RESULT:      -4.5      0.000      0.000
REMARK  1 active torsions:
REMARK  status: ('A' for Active; 'I' for Inactive)
REMARK    1  A    between atoms: C8_8  and  O11_11 
ROOT
HETATM    1  C1  UNL     1     -37.244  14.386  -4.416  1.00 20.00    -0.023 C 
HETATM    2  C2  UNL     1     -37.016  15.708  -4.361  1.00 20.00    -0.022 C 
HETATM    3  C3  UNL     1     -33.291  15.883  -3.475  1.00 20.00     0.011 A 
HETATM    4  C4  UNL     1     -34.367  16.028  -2.435  1.00 20.00     0.011 A 
HETATM    5  C5  UNL     1     -34.901  13.807  -3.795  1.00 20.00     0.021 C 
HETATM    6  C6  UNL     1     -35.975  13.721  -4.921  1.00 20.00     0.038 C 
HETATM    7  C7  UNL     1     -35.580  15.929  -4.794  1.00 20.00     0.046 C 
HETATM    8  C8  UNL     1     -35.473  14.826  -5.868  1.00 20.00     0.136 C 
HETATM    9  C9  UNL     1     -34.665  15.324  -3.732  1.00 20.00    -0.030 A 
ENDROOT
BRANCH   8  10
HETATM   10  O11 UNL     1     -36.295  15.026  -7.001  1.00 20.00    -0.389 OA
HETATM   11  C10 UNL     1     -35.717  15.949  -7.918  1.00 20.00     0.202 C 
ENDBRANCH   8  10
TORSDOF 1
ENDMDL
MODEL 2
REMARK VINA RESULT:      -4.4      1.374      2.695
REMARK  1 active torsions:
REMARK  status: ('A' for Active; 'I' for Inactive)
REMARK    1  A    between atoms: C8_8  and  O11_11 
ROOT
HETATM    1  C1  UNL     1     -36.040  14.925  -6.068  1.00 20.00    -0.023 C 
HETATM    2  C2  UNL     1     -35.461  14.020  -5.264  1.00 20.00    -0.022 C 
HETATM    3  C3  UNL     1     -34.459  16.121  -2.219  1.00 20.00     0.011 A 
HETATM    4  C4  UNL     1     -33.481  15.775  -3.307  1.00 20.00     0.011 A 
HETATM    5  C5  UNL     1     -35.623  16.811  -4.493  1.00 20.00     0.021 C 
HETATM    6  C6  UNL     1     -36.725  15.954  -5.185  1.00 20.00     0.038 C 
HETATM    7  C7  UNL     1     -35.725  14.461  -3.837  1.00 20.00     0.046 C 
HETATM    8  C8  UNL     1     -37.143  15.043  -4.017  1.00 20.00     0.136 C 
HETATM    9  C9  UNL     1     -34.959  15.758  -3.592  1.00 20.00    -0.030 A 
ENDROOT
BRANCH   8  10
HETATM   10  O11 UNL     1     -38.131  14.090  -4.359  1.00 20.00    -0.389 OA
HETATM   11  C10 UNL     1     -39.437  14.657  -4.351  1.00 20.00     0.202 C 
ENDBRANCH   8  10
TORSDOF 1
ENDMDL
MODEL 3
REMARK VINA RESULT:      -4.3      1.643      2.810
REMARK  1 active torsions:
REMARK  status: ('A' for Active; 'I' for Inactive)
REMARK    1  A    between atoms: C8_8  and  O11_11 
ROOT
HETATM    1  C1  UNL     1     -34.780  14.848  -5.285  1.00 20.00    -0.023 C 
HETATM    2  C2  UNL     1     -34.385  14.308  -4.121  1.00 20.00    -0.022 C 
HETATM    3  C3  UNL     1     -34.302  17.339  -1.776  1.00 20.00     0.011 A 
HETATM    4  C4  UNL     1     -33.061  16.808  -2.440  1.00 20.00     0.011 A 
HETATM    5  C5  UNL     1     -34.874  17.157  -4.353  1.00 20.00     0.021 C 
HETATM    6  C6  UNL     1     -35.719  15.998  -4.964  1.00 20.00     0.038 C 
HETATM    7  C7  UNL     1     -35.028  15.121  -3.014  1.00 20.00     0.046 C 
HETATM    8  C8  UNL     1     -36.378  15.436  -3.692  1.00 20.00     0.136 C 
HETATM    9  C9  UNL     1     -34.415  16.519  -3.033  1.00 20.00    -0.030 A 
ENDROOT
BRANCH   8  10
HETATM   10  O11 UNL     1     -37.198  14.307  -3.923  1.00 20.00    -0.389 OA
HETATM   11  C10 UNL     1     -38.529  14.681  -4.262  1.00 20.00     0.202 C 
ENDBRANCH   8  10
TORSDOF 1
ENDMDL
MODEL 4
REMARK VINA RESULT:      -4.2      1.301      2.097
REMARK  1 active torsions:
REMARK  status: ('A' for Active; 'I' for Inactive)
REMARK    1  A    between atoms: C8_8  and  O11_11 
ROOT
HETATM    1  C1  UNL     1     -34.545  13.978  -3.983  1.00 20.00    -0.023 C 
HETATM    2  C2  UNL     1     -35.741  14.517  -3.700  1.00 20.00    -0.022 C 
HETATM    3  C3  UNL     1     -34.794  17.915  -2.197  1.00 20.00     0.011 A 
HETATM    4  C4  UNL     1     -35.131  16.727  -1.338  1.00 20.00     0.011 A 
HETATM    5  C5  UNL     1     -33.285  15.927  -3.076  1.00 20.00     0.021 C 
HETATM    6  C6  UNL     1     -33.607  15.110  -4.364  1.00 20.00     0.038 C 
HETATM    7  C7  UNL     1     -35.598  16.019  -3.853  1.00 20.00     0.046 C 
HETATM    8  C8  UNL     1     -34.617  16.053  -5.044  1.00 20.00     0.136 C 
HETATM    9  C9  UNL     1     -34.664  16.522  -2.755  1.00 20.00    -0.030 A 
ENDROOT
BRANCH   8  10
HETATM   10  O11 UNL     1     -35.144  15.549  -6.255  1.00 20.00    -0.389 OA
HETATM   11  C10 UNL     1     -34.145  15.444  -7.264  1.00 20.00     0.202 C 
ENDBRANCH   8  10
TORSDOF 1
ENDMDL
MODEL 5
REMARK VINA RESULT:      -4.2      2.294      4.147
REMARK  1 active torsions:
REMARK  status: ('A' for Active; 'I' for Inactive)
REMARK    1  A    between atoms: C8_8  and  O11_11 
ROOT
HETATM    1  C1  UNL     1     -33.537  17.358  -4.085  1.00 20.00    -0.023 C 
HETATM    2  C2  UNL     1     -34.878  17.398  -4.143  1.00 20.00    -0.022 C 
HETATM    3  C3  UNL     1     -35.823  13.685  -4.258  1.00 20.00     0.011 A 
HETATM    4  C4  UNL     1     -35.748  14.529  -5.500  1.00 20.00     0.011 A 
HETATM    5  C5  UNL     1     -33.458  14.870  -4.193  1.00 20.00     0.021 C 
HETATM    6  C6  UNL     1     -33.147  16.114  -3.306  1.00 20.00     0.038 C 
HETATM    7  C7  UNL     1     -35.390  16.158  -3.436  1.00 20.00     0.046 C 
HETATM    8  C8  UNL     1     -34.328  16.055  -2.321  1.00 20.00     0.136 C 
HETATM    9  C9  UNL     1     -34.991  14.940  -4.265  1.00 20.00    -0.030 A 
ENDROOT
BRANCH   8  10
HETATM   10  O11 UNL     1     -34.349  17.117  -1.388  1.00 20.00    -0.389 OA
HETATM   11  C10 UNL     1     -35.447  17.009  -0.488  1.00 20.00     0.202 C 
ENDBRANCH   8  10
TORSDOF 1
ENDMDL
MODEL 6
REMARK VINA RESULT:      -4.1      1.881      3.400
REMARK  1 active torsions:
REMARK  status: ('A' for Active; 'I' for Inactive)
REMARK    1  A    between atoms: C8_8  and  O11_11 
ROOT
HETATM    1  C1  UNL     1     -34.067  16.906  -4.460  1.00 20.00    -0.023 C 
HETATM    2  C2  UNL     1     -33.312  16.349  -3.499  1.00 20.00    -0.022 C 
HETATM    3  C3  UNL     1     -35.356  17.026  -0.328  1.00 20.00     0.011 A 
HETATM    4  C4  UNL     1     -34.197  17.894  -0.731  1.00 20.00     0.011 A 
HETATM    5  C5  UNL     1     -35.793  17.703  -2.849  1.00 20.00     0.021 C 
HETATM    6  C6  UNL     1     -35.521  16.749  -4.051  1.00 20.00     0.038 C 
HETATM    7  C7  UNL     1     -34.258  15.851  -2.424  1.00 20.00     0.046 C 
HETATM    8  C8  UNL     1     -35.431  15.398  -3.319  1.00 20.00     0.136 C 
HETATM    9  C9  UNL     1     -34.910  17.064  -1.766  1.00 20.00    -0.030 A 
ENDROOT
BRANCH   8  10
HETATM   10  O11 UNL     1     -35.136  14.306  -4.167  1.00 20.00    -0.389 OA
HETATM   11  C10 UNL     1     -36.319  13.698  -4.677  1.00 20.00     0.202 C 
ENDBRANCH   8  10
TORSDOF 1
ENDMDL
MODEL 7
REMARK VINA RESULT:      -4.1      2.843      4.434
REMARK  1 active torsions:
REMARK  status: ('A' for Active; 'I' for Inactive)
REMARK    1  A    between atoms: C8_8  and  O11_11 
ROOT
HETATM    1  C1  UNL     1     -35.731  17.609  -2.295  1.00 20.00    -0.023 C 
HETATM    2  C2  UNL     1     -35.159  16.608  -1.607  1.00 20.00    -0.022 C 
HETATM    3  C3  UNL     1     -33.283  14.679  -4.337  1.00 20.00     0.011 A 
HETATM    4  C4  UNL     1     -34.633  14.246  -3.837  1.00 20.00     0.011 A 
HETATM    5  C5  UNL     1     -34.835  16.818  -4.481  1.00 20.00     0.021 C 
HETATM    6  C6  UNL     1     -34.799  17.974  -3.437  1.00 20.00     0.038 C 
HETATM    7  C7  UNL     1     -33.858  16.273  -2.311  1.00 20.00     0.046 C 
HETATM    8  C8  UNL     1     -33.447  17.692  -2.758  1.00 20.00     0.136 C 
HETATM    9  C9  UNL     1     -34.195  15.677  -3.675  1.00 20.00    -0.030 A 
ENDROOT
BRANCH   8  10
HETATM   10  O11 UNL     1     -33.144  18.578  -1.698  1.00 20.00    -0.389 OA
HETATM   11  C10 UNL     1     -31.859  18.318  -1.143  1.00 20.00     0.202 C 
ENDBRANCH   8  10
TORSDOF 1
ENDMDL
MODEL 8
REMARK VINA RESULT:      -4.1      2.012      3.609
REMARK  1 active torsions:
REMARK  status: ('A' for Active; 'I' for Inactive)
REMARK    1  A    between atoms: C8_8  and  O11_11 
ROOT
HETATM    1  C1  UNL     1     -33.531  16.295  -2.915  1.00 20.00    -0.023 C 
HETATM    2  C2  UNL     1     -33.708  17.082  -3.989  1.00 20.00    -0.022 C 
HETATM    3  C3  UNL     1     -35.473  14.743  -6.461  1.00 20.00     0.011 A 
HETATM    4  C4  UNL     1     -33.992  14.999  -6.521  1.00 20.00     0.011 A 
HETATM    5  C5  UNL     1     -34.556  14.309  -4.016  1.00 20.00     0.021 C 
HETATM    6  C6  UNL     1     -34.705  15.334  -2.851  1.00 20.00     0.038 C 
HETATM    7  C7  UNL     1     -34.982  16.622  -4.670  1.00 20.00     0.046 C 
HETATM    8  C8  UNL     1     -35.807  16.244  -3.422  1.00 20.00     0.136 C 
HETATM    9  C9  UNL     1     -34.743  15.225  -5.235  1.00 20.00    -0.030 A 
ENDROOT
BRANCH   8  10
HETATM   10  O11 UNL     1     -36.139  17.334  -2.584  1.00 20.00    -0.389 OA
HETATM   11  C10 UNL     1     -37.481  17.767  -2.786  1.00 20.00     0.202 C 
ENDBRANCH   8  10
TORSDOF 1
ENDMDL
MODEL 9
REMARK VINA RESULT:      -3.9      2.288      3.472
REMARK  1 active torsions:
REMARK  status: ('A' for Active; 'I' for Inactive)
REMARK    1  A    between atoms: C8_8  and  O11_11 
ROOT
HETATM    1  C1  UNL     1     -33.518  15.480  -3.333  1.00 20.00    -0.023 C 
HETATM    2  C2  UNL     1     -34.841  15.411  -3.110  1.00 20.00    -0.022 C 
HETATM    3  C3  UNL     1     -35.457  18.391  -0.780  1.00 20.00     0.011 A 
HETATM    4  C4  UNL     1     -35.299  16.989  -0.259  1.00 20.00     0.011 A 
HETATM    5  C5  UNL     1     -33.223  17.462  -1.851  1.00 20.00     0.021 C 
HETATM    6  C6  UNL     1     -33.126  16.947  -3.319  1.00 20.00     0.038 C 
HETATM    7  C7  UNL     1     -35.332  16.831  -2.908  1.00 20.00     0.046 C 
HETATM    8  C8  UNL     1     -34.410  17.556  -3.911  1.00 20.00     0.136 C 
HETATM    9  C9  UNL     1     -34.736  17.359  -1.606  1.00 20.00    -0.030 A 
ENDROOT
BRANCH   8  10
HETATM   10  O11 UNL     1     -34.632  17.216  -5.266  1.00 20.00    -0.389 OA
HETATM   11  C10 UNL     1     -35.824  17.809  -5.771  1.00 20.00     0.202 C 
ENDBRANCH   8  10
TORSDOF 1
ENDMDL
