MODEL 1
REMARK VINA RESULT:      -5.1      0.000      0.000
REMARK  2 active torsions:
REMARK  status: ('A' for Active; 'I' for Inactive)
REMARK    1  A    between atoms: C1_1  and  C5_5 
REMARK    2  A    between atoms: C1_1  and  O10_10 
ROOT
HETATM    1  C2  UNL     1     -35.251   5.481   4.165  1.00 20.00     0.015 C 
HETATM    2  C3  UNL     1     -34.777   4.759   5.436  1.00 20.00     0.006 C 
HETATM    3  C4  UNL     1     -34.264   7.169   6.354  1.00 20.00     0.011 A 
HETATM    4  C5  UNL     1     -34.122   6.470   3.820  1.00 20.00     0.090 C 
HETATM    5  C6  UNL     1     -33.870   5.734   6.126  1.00 20.00    -0.009 A 
HETATM    6  C7  UNL     1     -33.463   6.777   5.140  1.00 20.00     0.004 A 
ENDROOT
BRANCH   4   7
HETATM    7  C1  UNL     1     -33.165   5.857   2.844  1.00 20.00     0.263 C 
HETATM    8  O9  UNL     1     -33.262   4.716   2.414  1.00 20.00    -0.265 OA
BRANCH   7   9
HETATM    9  O10 UNL     1     -32.196   6.762   2.526  1.00 20.00    -0.326 OA
HETATM   10  C8  UNL     1     -32.574   7.758   1.569  1.00 20.00     0.213 C 
ENDBRANCH   7   9
ENDBRANCH   4   7
TORSDOF 2
ENDMDL
MODEL 2
REMARK VINA RESULT:      -4.6     11.646     12.843
REMARK  2 active torsions:
REMARK  status: ('A' for Active; 'I' for Inactive)
REMARK    1  A    between atoms: C1_1  and  C5_5 
REMARK    2  A    between atoms: C1_1  and  O10_10 
ROOT
HETATM    1  C2  UNL     1     -34.697  15.081  -3.563  1.00 20.00     0.015 C 
HETATM    2  C3  UNL     1     -33.429  14.725  -4.355  1.00 20.00     0.006 C 
HETATM    3  C4  UNL     1     -34.336  16.417  -6.152  1.00 20.00     0.011 A 
HETATM    4  C5  UNL     1     -35.851  14.952  -4.574  1.00 20.00     0.090 C 
HETATM    5  C6  UNL     1     -33.740  15.086  -5.778  1.00 20.00    -0.009 A 
HETATM    6  C7  UNL     1     -35.220  15.219  -5.916  1.00 20.00     0.004 A 
ENDROOT
BRANCH   4   7
HETATM    7  C1  UNL     1     -36.462  13.586  -4.504  1.00 20.00     0.263 C 
HETATM    8  O9  UNL     1     -35.817  12.547  -4.488  1.00 20.00    -0.265 OA
BRANCH   7   9
HETATM    9  O10 UNL     1     -37.820  13.696  -4.463  1.00 20.00    -0.326 OA
HETATM   10  C8  UNL     1     -38.323  15.003  -4.163  1.00 20.00     0.213 C 
ENDBRANCH   7   9
ENDBRANCH   4   7
TORSDOF 2
ENDMDL
MODEL 3
REMARK VINA RESULT:      -4.5     11.458     12.506
REMARK  2 active torsions:
REMARK  status: ('A' for Active; 'I' for Inactive)
REMARK    1  A    between atoms: C1_1  and  C5_5 
REMARK    2  A    between atoms: C1_1  and  O10_10 
ROOT
HETATM    1  C2  UNL     1     -33.967  14.992  -5.395  1.00 20.00     0.015 C 
HETATM    2  C3  UNL     1     -34.415  16.458  -5.280  1.00 20.00     0.006 C 
HETATM    3  C4  UNL     1     -33.191  16.424  -2.953  1.00 20.00     0.011 A 
HETATM    4  C5  UNL     1     -34.368  14.344  -4.056  1.00 20.00     0.090 C 
HETATM    5  C6  UNL     1     -34.379  16.765  -3.812  1.00 20.00    -0.009 A 
HETATM    6  C7  UNL     1     -34.357  15.476  -3.062  1.00 20.00     0.004 A 
ENDROOT
BRANCH   4   7
HETATM    7  C1  UNL     1     -35.718  13.705  -4.164  1.00 20.00     0.263 C 
HETATM    8  O9  UNL     1     -35.924  12.622  -4.697  1.00 20.00    -0.265 OA
BRANCH   7   9
HETATM    9  O10 UNL     1     -36.652  14.512  -3.585  1.00 20.00    -0.326 OA
HETATM   10  C8  UNL     1     -37.819  14.768  -4.374  1.00 20.00     0.213 C 
ENDBRANCH   7   9
ENDBRANCH   4   7
TORSDOF 2
ENDMDL
MODEL 4
REMARK VINA RESULT:      -4.5     11.456     12.419
REMARK  2 active torsions:
REMARK  status: ('A' for Active; 'I' for Inactive)
REMARK    1  A    between atoms: C1_1  and  C5_5 
REMARK    2  A    between atoms: C1_1  and  O10_10 
ROOT
HETATM    1  C2  UNL     1     -34.424  13.629  -3.948  1.00 20.00     0.015 C 
HETATM    2  C3  UNL     1     -33.487  14.726  -4.477  1.00 20.00     0.006 C 
HETATM    3  C4  UNL     1     -34.258  16.099  -2.371  1.00 20.00     0.011 A 
HETATM    4  C5  UNL     1     -35.753  14.348  -3.646  1.00 20.00     0.090 C 
HETATM    5  C6  UNL     1     -33.975  15.997  -3.846  1.00 20.00    -0.009 A 
HETATM    6  C7  UNL     1     -35.361  15.771  -3.344  1.00 20.00     0.004 A 
ENDROOT
BRANCH   4   7
HETATM    7  C1  UNL     1     -36.678  14.259  -4.821  1.00 20.00     0.263 C 
HETATM    8  O9  UNL     1     -36.355  14.529  -5.970  1.00 20.00    -0.265 OA
BRANCH   7   9
HETATM    9  O10 UNL     1     -37.906  13.837  -4.403  1.00 20.00    -0.326 OA
HETATM   10  C8  UNL     1     -38.882  14.869  -4.223  1.00 20.00     0.213 C 
ENDBRANCH   7   9
ENDBRANCH   4   7
TORSDOF 2
ENDMDL
MODEL 5
REMARK VINA RESULT:      -4.5     11.709     12.560
REMARK  2 active torsions:
REMARK  status: ('A' for Active; 'I' for Inactive)
REMARK    1  A    between atoms: C1_1  and  C5_5 
REMARK    2  A    between atoms: C1_1  and  O10_10 
ROOT
HETATM    1  C2  UNL     1     -35.703  16.448  -4.592  1.00 20.00     0.015 C 
HETATM    2  C3  UNL     1     -35.565  16.650  -3.075  1.00 20.00     0.006 C 
HETATM    3  C4  UNL     1     -33.093  15.819  -3.405  1.00 20.00     0.011 A 
HETATM    4  C5  UNL     1     -35.142  15.039  -4.862  1.00 20.00     0.090 C 
HETATM    5  C6  UNL     1     -34.405  15.791  -2.668  1.00 20.00    -0.009 A 
HETATM    6  C7  UNL     1     -34.148  14.802  -3.754  1.00 20.00     0.004 A 
ENDROOT
BRANCH   4   7
HETATM    7  C1  UNL     1     -36.243  14.024  -4.854  1.00 20.00     0.263 C 
HETATM    8  O9  UNL     1     -36.088  12.847  -4.556  1.00 20.00    -0.265 OA
BRANCH   7   9
HETATM    9  O10 UNL     1     -37.413  14.618  -5.224  1.00 20.00    -0.326 OA
HETATM   10  C8  UNL     1     -38.480  14.523  -4.273  1.00 20.00     0.213 C 
ENDBRANCH   7   9
ENDBRANCH   4   7
TORSDOF 2
ENDMDL
MODEL 6
REMARK VINA RESULT:      -4.4     11.608     12.456
REMARK  2 active torsions:
REMARK  status: ('A' for Active; 'I' for Inactive)
REMARK    1  A    between atoms: C1_1  and  C5_5 
REMARK    2  A    between atoms: C1_1  and  O10_10 
ROOT
HETATM    1  C2  UNL     1     -33.700  14.706  -4.144  1.00 20.00     0.015 C 
HETATM    2  C3  UNL     1     -33.738  16.231  -4.330  1.00 20.00     0.006 C 
HETATM    3  C4  UNL     1     -34.699  16.291  -1.883  1.00 20.00     0.011 A 
HETATM    4  C5  UNL     1     -35.093  14.334  -3.600  1.00 20.00     0.090 C 
HETATM    5  C6  UNL     1     -34.735  16.725  -3.324  1.00 20.00    -0.009 A 
HETATM    6  C7  UNL     1     -35.568  15.570  -2.882  1.00 20.00     0.004 A 
ENDROOT
BRANCH   4   7
HETATM    7  C1  UNL     1     -36.010  13.949  -4.721  1.00 20.00     0.263 C 
HETATM    8  O9  UNL     1     -37.187  13.649  -4.570  1.00 20.00    -0.265 OA
BRANCH   7   9
HETATM    9  O10 UNL     1     -35.329  13.990  -5.901  1.00 20.00    -0.326 OA
HETATM   10  C8  UNL     1     -35.922  14.796  -6.926  1.00 20.00     0.213 C 
ENDBRANCH   7   9
ENDBRANCH   4   7
TORSDOF 2
ENDMDL
MODEL 7
REMARK VINA RESULT:      -4.3     11.799     12.648
REMARK  2 active torsions:
REMARK  status: ('A' for Active; 'I' for Inactive)
REMARK    1  A    between atoms: C1_1  and  C5_5 
REMARK    2  A    between atoms: C1_1  and  O10_10 
ROOT
HETATM    1  C2  UNL     1     -36.096  16.673  -4.209  1.00 20.00     0.015 C 
HETATM    2  C3  UNL     1     -36.138  16.615  -2.673  1.00 20.00     0.006 C 
HETATM    3  C4  UNL     1     -33.550  16.180  -2.833  1.00 20.00     0.011 A 
HETATM    4  C5  UNL     1     -35.311  15.418  -4.636  1.00 20.00     0.090 C 
HETATM    5  C6  UNL     1     -34.910  15.852  -2.275  1.00 20.00    -0.009 A 
HETATM    6  C7  UNL     1     -34.406  15.115  -3.470  1.00 20.00     0.004 A 
ENDROOT
BRANCH   4   7
HETATM    7  C1  UNL     1     -36.247  14.286  -4.928  1.00 20.00     0.263 C 
HETATM    8  O9  UNL     1     -37.096  13.879  -4.146  1.00 20.00    -0.265 OA
BRANCH   7   9
HETATM    9  O10 UNL     1     -35.999  13.801  -6.178  1.00 20.00    -0.326 OA
HETATM   10  C8  UNL     1     -35.669  14.784  -7.165  1.00 20.00     0.213 C 
ENDBRANCH   7   9
ENDBRANCH   4   7
TORSDOF 2
ENDMDL
MODEL 8
REMARK VINA RESULT:      -4.3      1.124      1.543
REMARK  2 active torsions:
REMARK  status: ('A' for Active; 'I' for Inactive)
REMARK    1  A    between atoms: C1_1  and  C5_5 
REMARK    2  A    between atoms: C1_1  and  O10_10 
ROOT
HETATM    1  C2  UNL     1     -34.567   5.391   3.254  1.00 20.00     0.015 C 
HETATM    2  C3  UNL     1     -34.108   4.230   4.150  1.00 20.00     0.006 C 
HETATM    3  C4  UNL     1     -35.103   5.648   6.129  1.00 20.00     0.011 A 
HETATM    4  C5  UNL     1     -34.041   6.663   3.945  1.00 20.00     0.090 C 
HETATM    5  C6  UNL     1     -34.002   4.816   5.528  1.00 20.00    -0.009 A 
HETATM    6  C7  UNL     1     -33.954   6.301   5.405  1.00 20.00     0.004 A 
ENDROOT
BRANCH   4   7
HETATM    7  C1  UNL     1     -32.708   7.054   3.384  1.00 20.00     0.263 C 
HETATM    8  O9  UNL     1     -31.789   7.507   4.053  1.00 20.00    -0.265 OA
BRANCH   7   9
HETATM    9  O10 UNL     1     -32.695   6.825   2.040  1.00 20.00    -0.326 OA
HETATM   10  C8  UNL     1     -32.639   7.996   1.217  1.00 20.00     0.213 C 
ENDBRANCH   7   9
ENDBRANCH   4   7
TORSDOF 2
ENDMDL
MODEL 9
REMARK VINA RESULT:      -4.2      8.887      9.766
REMARK  2 active torsions:
REMARK  status: ('A' for Active; 'I' for Inactive)
REMARK    1  A    between atoms: C1_1  and  C5_5 
REMARK    2  A    between atoms: C1_1  and  O10_10 
ROOT
HETATM    1  C2  UNL     1     -42.278   7.741  -1.768  1.00 20.00     0.015 C 
HETATM    2  C3  UNL     1     -43.359   8.289  -0.822  1.00 20.00     0.006 C 
HETATM    3  C4  UNL     1     -41.370   9.499   0.401  1.00 20.00     0.011 A 
HETATM    4  C5  UNL     1     -41.179   7.187  -0.842  1.00 20.00     0.090 C 
HETATM    5  C6  UNL     1     -42.627   8.670   0.431  1.00 20.00    -0.009 A 
HETATM    6  C7  UNL     1     -41.298   7.994   0.424  1.00 20.00     0.004 A 
ENDROOT
BRANCH   4   7
HETATM    7  C1  UNL     1     -41.386   5.724  -0.597  1.00 20.00     0.263 C 
HETATM    8  O9  UNL     1     -41.234   4.857  -1.448  1.00 20.00    -0.265 OA
BRANCH   7   9
HETATM    9  O10 UNL     1     -41.762   5.528   0.699  1.00 20.00    -0.326 OA
HETATM   10  C8  UNL     1     -43.051   4.932   0.882  1.00 20.00     0.213 C 
ENDBRANCH   7   9
ENDBRANCH   4   7
TORSDOF 2
ENDMDL
