MODEL 1
REMARK VINA RESULT:      -4.6      0.000      0.000
REMARK  2 active torsions:
REMARK  status: ('A' for Active; 'I' for Inactive)
REMARK    1  A    between atoms: C3_3  and  C6_6 
REMARK    2  A    between atoms: C3_3  and  O10_10 
ROOT
HETATM    1  C1  UNL     1     -35.113  14.965  -3.152  1.00 20.00    -0.010 C 
HETATM    2  C2  UNL     1     -34.562  15.988  -2.488  1.00 20.00    -0.087 C 
HETATM    3  C4  UNL     1     -33.204  16.324  -3.017  1.00 20.00     0.034 C 
HETATM    4  C5  UNL     1     -32.881  15.132  -3.926  1.00 20.00     0.023 C 
HETATM    5  C6  UNL     1     -34.216  14.449  -4.226  1.00 20.00     0.108 C 
HETATM    6  C7  UNL     1     -35.169  16.763  -1.377  1.00 20.00     0.043 C 
ENDROOT
BRANCH   5   7
HETATM    7  C3  UNL     1     -34.782  14.870  -5.546  1.00 20.00     0.266 C 
HETATM    8  O9  UNL     1     -35.911  15.315  -5.697  1.00 20.00    -0.265 OA
BRANCH   7   9
HETATM    9  O10 UNL     1     -33.851  14.676  -6.523  1.00 20.00    -0.326 OA
HETATM   10  C8  UNL     1     -34.035  15.453  -7.711  1.00 20.00     0.213 C 
ENDBRANCH   7   9
ENDBRANCH   5   7
TORSDOF 2
ENDMDL
MODEL 2
REMARK VINA RESULT:      -4.5      1.587      2.397
REMARK  2 active torsions:
REMARK  status: ('A' for Active; 'I' for Inactive)
REMARK    1  A    between atoms: C3_3  and  C6_6 
REMARK    2  A    between atoms: C3_3  and  O10_10 
ROOT
HETATM    1  C1  UNL     1     -35.157  15.181  -2.709  1.00 20.00    -0.010 C 
HETATM    2  C2  UNL     1     -34.120  16.026  -2.767  1.00 20.00    -0.087 C 
HETATM    3  C4  UNL     1     -33.192  15.685  -3.890  1.00 20.00     0.034 C 
HETATM    4  C5  UNL     1     -33.673  14.297  -4.329  1.00 20.00     0.023 C 
HETATM    5  C6  UNL     1     -35.090  14.140  -3.774  1.00 20.00     0.108 C 
HETATM    6  C7  UNL     1     -33.868  17.195  -1.887  1.00 20.00     0.043 C 
ENDROOT
BRANCH   5   7
HETATM    7  C3  UNL     1     -36.136  14.454  -4.797  1.00 20.00     0.266 C 
HETATM    8  O9  UNL     1     -35.955  15.186  -5.760  1.00 20.00    -0.265 OA
BRANCH   7   9
HETATM    9  O10 UNL     1     -37.293  13.804  -4.480  1.00 20.00    -0.326 OA
HETATM   10  C8  UNL     1     -38.439  14.640  -4.299  1.00 20.00     0.213 C 
ENDBRANCH   7   9
ENDBRANCH   5   7
TORSDOF 2
ENDMDL
MODEL 3
REMARK VINA RESULT:      -4.5     11.410     12.078
REMARK  2 active torsions:
REMARK  status: ('A' for Active; 'I' for Inactive)
REMARK    1  A    between atoms: C3_3  and  C6_6 
REMARK    2  A    between atoms: C3_3  and  O10_10 
ROOT
HETATM    1  C1  UNL     1     -34.349   6.611   4.010  1.00 20.00    -0.010 C 
HETATM    2  C2  UNL     1     -34.326   5.456   4.686  1.00 20.00    -0.087 C 
HETATM    3  C4  UNL     1     -33.701   4.359   3.884  1.00 20.00     0.034 C 
HETATM    4  C5  UNL     1     -33.617   4.961   2.477  1.00 20.00     0.023 C 
HETATM    5  C6  UNL     1     -33.750   6.475   2.652  1.00 20.00     0.108 C 
HETATM    6  C7  UNL     1     -34.811   5.219   6.069  1.00 20.00     0.043 C 
ENDROOT
BRANCH   5   7
HETATM    7  C3  UNL     1     -32.422   7.163   2.659  1.00 20.00     0.266 C 
HETATM    8  O9  UNL     1     -31.762   7.369   3.668  1.00 20.00    -0.265 OA
BRANCH   7   9
HETATM    9  O10 UNL     1     -32.082   7.512   1.385  1.00 20.00    -0.326 OA
HETATM   10  C8  UNL     1     -32.812   8.611   0.832  1.00 20.00     0.213 C 
ENDBRANCH   7   9
ENDBRANCH   5   7
TORSDOF 2
ENDMDL
MODEL 4
REMARK VINA RESULT:      -4.2      1.395      2.031
REMARK  2 active torsions:
REMARK  status: ('A' for Active; 'I' for Inactive)
REMARK    1  A    between atoms: C3_3  and  C6_6 
REMARK    2  A    between atoms: C3_3  and  O10_10 
ROOT
HETATM    1  C1  UNL     1     -33.611  16.670  -3.801  1.00 20.00    -0.010 C 
HETATM    2  C2  UNL     1     -33.640  16.884  -2.480  1.00 20.00    -0.087 C 
HETATM    3  C4  UNL     1     -34.826  16.234  -1.840  1.00 20.00     0.034 C 
HETATM    4  C5  UNL     1     -35.693  15.836  -3.040  1.00 20.00     0.023 C 
HETATM    5  C6  UNL     1     -34.769  15.850  -4.259  1.00 20.00     0.108 C 
HETATM    6  C7  UNL     1     -32.644  17.634  -1.673  1.00 20.00     0.043 C 
ENDROOT
BRANCH   5   7
HETATM    7  C3  UNL     1     -34.264  14.484  -4.601  1.00 20.00     0.266 C 
HETATM    8  O9  UNL     1     -34.509  13.479  -3.949  1.00 20.00    -0.265 OA
BRANCH   7   9
HETATM    9  O10 UNL     1     -33.504  14.549  -5.732  1.00 20.00    -0.326 OA
HETATM   10  C8  UNL     1     -34.169  15.062  -6.891  1.00 20.00     0.213 C 
ENDBRANCH   7   9
ENDBRANCH   5   7
TORSDOF 2
ENDMDL
MODEL 5
REMARK VINA RESULT:      -4.1     17.836     18.731
REMARK  2 active torsions:
REMARK  status: ('A' for Active; 'I' for Inactive)
REMARK    1  A    between atoms: C3_3  and  C6_6 
REMARK    2  A    between atoms: C3_3  and  O10_10 
ROOT
HETATM    1  C1  UNL     1     -23.337  16.911   9.820  1.00 20.00    -0.010 C 
HETATM    2  C2  UNL     1     -22.661  17.668   8.946  1.00 20.00    -0.087 C 
HETATM    3  C4  UNL     1     -23.300  19.008   8.764  1.00 20.00     0.034 C 
HETATM    4  C5  UNL     1     -24.662  18.839   9.446  1.00 20.00     0.023 C 
HETATM    5  C6  UNL     1     -24.535  17.617  10.358  1.00 20.00     0.108 C 
HETATM    6  C7  UNL     1     -21.410  17.307   8.231  1.00 20.00     0.043 C 
ENDROOT
BRANCH   5   7
HETATM    7  C3  UNL     1     -24.252  17.997  11.777  1.00 20.00     0.266 C 
HETATM    8  O9  UNL     1     -23.175  17.824  12.331  1.00 20.00    -0.265 OA
BRANCH   7   9
HETATM    9  O10 UNL     1     -25.367  18.555  12.331  1.00 20.00    -0.326 OA
HETATM   10  C8  UNL     1     -26.534  17.727  12.329  1.00 20.00     0.213 C 
ENDBRANCH   7   9
ENDBRANCH   5   7
TORSDOF 2
ENDMDL
MODEL 6
REMARK VINA RESULT:      -4.1     18.222     19.046
REMARK  2 active torsions:
REMARK  status: ('A' for Active; 'I' for Inactive)
REMARK    1  A    between atoms: C3_3  and  C6_6 
REMARK    2  A    between atoms: C3_3  and  O10_10 
ROOT
HETATM    1  C1  UNL     1     -24.084  18.022  10.136  1.00 20.00    -0.010 C 
HETATM    2  C2  UNL     1     -22.756  17.915  10.006  1.00 20.00    -0.087 C 
HETATM    3  C4  UNL     1     -22.083  17.742  11.330  1.00 20.00     0.034 C 
HETATM    4  C5  UNL     1     -23.196  18.068  12.332  1.00 20.00     0.023 C 
HETATM    5  C6  UNL     1     -24.513  17.943  11.562  1.00 20.00     0.108 C 
HETATM    6  C7  UNL     1     -21.978  17.925   8.741  1.00 20.00     0.043 C 
ENDROOT
BRANCH   5   7
HETATM    7  C3  UNL     1     -25.170  16.616  11.777  1.00 20.00     0.266 C 
HETATM    8  O9  UNL     1     -24.658  15.543  11.493  1.00 20.00    -0.265 OA
BRANCH   7   9
HETATM    9  O10 UNL     1     -26.404  16.803  12.328  1.00 20.00    -0.326 OA
HETATM   10  C8  UNL     1     -26.919  18.136  12.245  1.00 20.00     0.213 C 
ENDBRANCH   7   9
ENDBRANCH   5   7
TORSDOF 2
ENDMDL
MODEL 7
REMARK VINA RESULT:      -4.0      1.970      3.980
REMARK  2 active torsions:
REMARK  status: ('A' for Active; 'I' for Inactive)
REMARK    1  A    between atoms: C3_3  and  C6_6 
REMARK    2  A    between atoms: C3_3  and  O10_10 
ROOT
HETATM    1  C1  UNL     1     -33.595  14.712  -5.019  1.00 20.00    -0.010 C 
HETATM    2  C2  UNL     1     -34.386  14.915  -6.080  1.00 20.00    -0.087 C 
HETATM    3  C4  UNL     1     -35.831  14.745  -5.732  1.00 20.00     0.034 C 
HETATM    4  C5  UNL     1     -35.781  14.100  -4.343  1.00 20.00     0.023 C 
HETATM    5  C6  UNL     1     -34.378  14.370  -3.797  1.00 20.00     0.108 C 
HETATM    6  C7  UNL     1     -33.963  15.295  -7.451  1.00 20.00     0.043 C 
ENDROOT
BRANCH   5   7
HETATM    7  C3  UNL     1     -34.345  15.551  -2.879  1.00 20.00     0.266 C 
HETATM    8  O9  UNL     1     -35.280  15.893  -2.168  1.00 20.00    -0.265 OA
BRANCH   7   9
HETATM    9  O10 UNL     1     -33.129  16.163  -2.968  1.00 20.00    -0.326 OA
HETATM   10  C8  UNL     1     -32.993  17.373  -2.216  1.00 20.00     0.213 C 
ENDBRANCH   7   9
ENDBRANCH   5   7
TORSDOF 2
ENDMDL
MODEL 8
REMARK VINA RESULT:      -3.9      2.120      3.621
REMARK  2 active torsions:
REMARK  status: ('A' for Active; 'I' for Inactive)
REMARK    1  A    between atoms: C3_3  and  C6_6 
REMARK    2  A    between atoms: C3_3  and  O10_10 
ROOT
HETATM    1  C1  UNL     1     -35.991  15.865  -5.372  1.00 20.00    -0.010 C 
HETATM    2  C2  UNL     1     -34.689  16.030  -5.637  1.00 20.00    -0.087 C 
HETATM    3  C4  UNL     1     -33.828  15.422  -4.576  1.00 20.00     0.034 C 
HETATM    4  C5  UNL     1     -34.824  15.118  -3.451  1.00 20.00     0.023 C 
HETATM    5  C6  UNL     1     -36.212  15.128  -4.095  1.00 20.00     0.108 C 
HETATM    6  C7  UNL     1     -34.095  16.693  -6.825  1.00 20.00     0.043 C 
ENDROOT
BRANCH   5   7
HETATM    7  C3  UNL     1     -36.689  13.750  -4.432  1.00 20.00     0.266 C 
HETATM    8  O9  UNL     1     -35.948  12.795  -4.622  1.00 20.00    -0.265 OA
BRANCH   7   9
HETATM    9  O10 UNL     1     -38.052  13.741  -4.488  1.00 20.00    -0.326 OA
HETATM   10  C8  UNL     1     -38.694  14.938  -4.038  1.00 20.00     0.213 C 
ENDBRANCH   7   9
ENDBRANCH   5   7
TORSDOF 2
ENDMDL
MODEL 9
REMARK VINA RESULT:      -3.9      2.241      3.526
REMARK  2 active torsions:
REMARK  status: ('A' for Active; 'I' for Inactive)
REMARK    1  A    between atoms: C3_3  and  C6_6 
REMARK    2  A    between atoms: C3_3  and  O10_10 
ROOT
HETATM    1  C1  UNL     1     -35.082  15.167  -4.981  1.00 20.00    -0.010 C 
HETATM    2  C2  UNL     1     -34.108  15.154  -4.063  1.00 20.00    -0.087 C 
HETATM    3  C4  UNL     1     -34.612  15.559  -2.714  1.00 20.00     0.034 C 
HETATM    4  C5  UNL     1     -36.005  16.121  -3.019  1.00 20.00     0.023 C 
HETATM    5  C6  UNL     1     -36.390  15.585  -4.400  1.00 20.00     0.108 C 
HETATM    6  C7  UNL     1     -32.689  14.768  -4.271  1.00 20.00     0.043 C 
ENDROOT
BRANCH   5   7
HETATM    7  C3  UNL     1     -37.267  14.376  -4.313  1.00 20.00     0.266 C 
HETATM    8  O9  UNL     1     -36.902  13.242  -4.590  1.00 20.00    -0.265 OA
BRANCH   7   9
HETATM    9  O10 UNL     1     -38.509  14.744  -3.884  1.00 20.00    -0.326 OA
HETATM   10  C8  UNL     1     -39.206  15.663  -4.732  1.00 20.00     0.213 C 
ENDBRANCH   7   9
ENDBRANCH   5   7
TORSDOF 2
ENDMDL
