MODEL 1
REMARK VINA RESULT:      -3.6      0.000      0.000
REMARK  3 active torsions:
REMARK  status: ('A' for Active; 'I' for Inactive)
REMARK    1  A    between atoms: C1_1  and  C2_2 
REMARK    2  A    between atoms: C4_4  and  C8_8 
REMARK    3  A    between atoms: C8_8  and  N9_9 
ROOT
HETATM    1  C1  UNL     1     -33.401  16.647  -2.494  1.00 20.00    -0.015 C 
HETATM    2  C3  UNL     1     -32.824  17.575  -1.996  1.00 20.00    -0.097 C 
HETATM    3  C5  UNL     1     -32.122  18.705  -1.391  1.00 20.00     0.113 C 
ENDROOT
BRANCH   1   4
HETATM    4  C2  UNL     1     -34.062  15.588  -3.063  1.00 20.00    -0.013 C 
HETATM    5  C4  UNL     1     -34.638  14.660  -3.562  1.00 20.00    -0.062 C 
BRANCH   5   6
HETATM    6  C8  UNL     1     -35.342  13.525  -4.167  1.00 20.00     0.365 C 
BRANCH   6   7
HETATM    7  N9  UNL     1     -36.402  13.983  -5.055  1.00 20.00     0.090 N 
HETATM    8  C6  UNL     1     -35.852  14.800  -6.139  1.00 20.00     0.310 C 
HETATM    9  C7  UNL     1     -37.408  14.741  -4.310  1.00 20.00     0.310 C 
ENDBRANCH   6   7
ENDBRANCH   5   6
ENDBRANCH   1   4
TORSDOF 3
ENDMDL
MODEL 2
REMARK VINA RESULT:      -3.6     13.797     16.883
REMARK  3 active torsions:
REMARK  status: ('A' for Active; 'I' for Inactive)
REMARK    1  A    between atoms: C1_1  and  C2_2 
REMARK    2  A    between atoms: C4_4  and  C8_8 
REMARK    3  A    between atoms: C8_8  and  N9_9 
ROOT
HETATM    1  C1  UNL     1     -25.422  18.936   6.735  1.00 20.00    -0.015 C 
HETATM    2  C3  UNL     1     -26.216  19.083   5.847  1.00 20.00    -0.097 C 
HETATM    3  C5  UNL     1     -27.183  19.263   4.766  1.00 20.00     0.113 C 
ENDROOT
BRANCH   1   4
HETATM    4  C2  UNL     1     -24.514  18.769   7.750  1.00 20.00    -0.013 C 
HETATM    5  C4  UNL     1     -23.718  18.625   8.638  1.00 20.00    -0.062 C 
BRANCH   5   6
HETATM    6  C8  UNL     1     -22.749  18.452   9.725  1.00 20.00     0.365 C 
BRANCH   6   7
HETATM    7  N9  UNL     1     -23.395  17.923  10.918  1.00 20.00     0.090 N 
HETATM    8  C6  UNL     1     -22.423  17.758  12.001  1.00 20.00     0.310 C 
HETATM    9  C7  UNL     1     -24.051  16.647  10.628  1.00 20.00     0.310 C 
ENDBRANCH   6   7
ENDBRANCH   5   6
ENDBRANCH   1   4
TORSDOF 3
ENDMDL
MODEL 3
REMARK VINA RESULT:      -3.6      2.267      2.732
REMARK  3 active torsions:
REMARK  status: ('A' for Active; 'I' for Inactive)
REMARK    1  A    between atoms: C1_1  and  C2_2 
REMARK    2  A    between atoms: C4_4  and  C8_8 
REMARK    3  A    between atoms: C8_8  and  N9_9 
ROOT
HETATM    1  C1  UNL     1     -35.084  16.582  -1.165  1.00 20.00    -0.015 C 
HETATM    2  C3  UNL     1     -35.463  17.114  -0.158  1.00 20.00    -0.097 C 
HETATM    3  C5  UNL     1     -35.924  17.763   1.069  1.00 20.00     0.113 C 
ENDROOT
BRANCH   1   4
HETATM    4  C2  UNL     1     -34.650  15.976  -2.317  1.00 20.00    -0.013 C 
HETATM    5  C4  UNL     1     -34.272  15.446  -3.326  1.00 20.00    -0.062 C 
BRANCH   5   6
HETATM    6  C8  UNL     1     -33.809  14.802  -4.559  1.00 20.00     0.365 C 
BRANCH   6   7
HETATM    7  N9  UNL     1     -34.643  15.185  -5.690  1.00 20.00     0.090 N 
HETATM    8  C6  UNL     1     -35.858  14.369  -5.736  1.00 20.00     0.310 C 
HETATM    9  C7  UNL     1     -33.901  15.059  -6.946  1.00 20.00     0.310 C 
ENDBRANCH   6   7
ENDBRANCH   5   6
ENDBRANCH   1   4
TORSDOF 3
ENDMDL
MODEL 4
REMARK VINA RESULT:      -3.6      2.830      6.078
REMARK  3 active torsions:
REMARK  status: ('A' for Active; 'I' for Inactive)
REMARK    1  A    between atoms: C1_1  and  C2_2 
REMARK    2  A    between atoms: C4_4  and  C8_8 
REMARK    3  A    between atoms: C8_8  and  N9_9 
ROOT
HETATM    1  C1  UNL     1     -34.410  15.456  -3.223  1.00 20.00    -0.015 C 
HETATM    2  C3  UNL     1     -35.091  14.609  -3.735  1.00 20.00    -0.097 C 
HETATM    3  C5  UNL     1     -35.922  13.580  -4.357  1.00 20.00     0.113 C 
ENDROOT
BRANCH   1   4
HETATM    4  C2  UNL     1     -33.632  16.423  -2.639  1.00 20.00    -0.013 C 
HETATM    5  C4  UNL     1     -32.952  17.272  -2.129  1.00 20.00    -0.062 C 
BRANCH   5   6
HETATM    6  C8  UNL     1     -32.126  18.309  -1.505  1.00 20.00     0.365 C 
BRANCH   6   7
HETATM    7  N9  UNL     1     -32.194  18.225  -0.052  1.00 20.00     0.090 N 
HETATM    8  C6  UNL     1     -33.268  19.076   0.465  1.00 20.00     0.310 C 
HETATM    9  C7  UNL     1     -30.914  18.603   0.549  1.00 20.00     0.310 C 
ENDBRANCH   6   7
ENDBRANCH   5   6
ENDBRANCH   1   4
TORSDOF 3
ENDMDL
MODEL 5
REMARK VINA RESULT:      -3.6      2.153      2.424
REMARK  3 active torsions:
REMARK  status: ('A' for Active; 'I' for Inactive)
REMARK    1  A    between atoms: C1_1  and  C2_2 
REMARK    2  A    between atoms: C4_4  and  C8_8 
REMARK    3  A    between atoms: C8_8  and  N9_9 
ROOT
HETATM    1  C1  UNL     1     -34.954  16.435  -1.511  1.00 20.00    -0.015 C 
HETATM    2  C3  UNL     1     -35.365  16.955  -0.510  1.00 20.00    -0.097 C 
HETATM    3  C5  UNL     1     -35.865  17.587   0.709  1.00 20.00     0.113 C 
ENDROOT
BRANCH   1   4
HETATM    4  C2  UNL     1     -34.485  15.839  -2.655  1.00 20.00    -0.013 C 
HETATM    5  C4  UNL     1     -34.074  15.319  -3.656  1.00 20.00    -0.062 C 
BRANCH   5   6
HETATM    6  C8  UNL     1     -33.569  14.680  -4.875  1.00 20.00     0.365 C 
BRANCH   6   7
HETATM    7  N9  UNL     1     -34.455  14.935  -6.002  1.00 20.00     0.090 N 
HETATM    8  C6  UNL     1     -34.530  16.371  -6.286  1.00 20.00     0.310 C 
HETATM    9  C7  UNL     1     -35.792  14.400  -5.740  1.00 20.00     0.310 C 
ENDBRANCH   6   7
ENDBRANCH   5   6
ENDBRANCH   1   4
TORSDOF 3
ENDMDL
MODEL 6
REMARK VINA RESULT:      -3.5     12.923     15.881
REMARK  3 active torsions:
REMARK  status: ('A' for Active; 'I' for Inactive)
REMARK    1  A    between atoms: C1_1  and  C2_2 
REMARK    2  A    between atoms: C4_4  and  C8_8 
REMARK    3  A    between atoms: C8_8  and  N9_9 
ROOT
HETATM    1  C1  UNL     1     -25.389  19.219   5.557  1.00 20.00    -0.015 C 
HETATM    2  C3  UNL     1     -25.483  19.236   4.360  1.00 20.00    -0.097 C 
HETATM    3  C5  UNL     1     -25.598  19.258   2.903  1.00 20.00     0.113 C 
ENDROOT
BRANCH   1   4
HETATM    4  C2  UNL     1     -25.282  19.201   6.925  1.00 20.00    -0.013 C 
HETATM    5  C4  UNL     1     -25.190  19.185   8.122  1.00 20.00    -0.062 C 
BRANCH   5   6
HETATM    6  C8  UNL     1     -25.080  19.162   9.584  1.00 20.00     0.365 C 
BRANCH   6   7
HETATM    7  N9  UNL     1     -23.867  18.472  10.003  1.00 20.00     0.090 N 
HETATM    8  C6  UNL     1     -22.736  18.853   9.154  1.00 20.00     0.310 C 
HETATM    9  C7  UNL     1     -24.060  17.021   9.968  1.00 20.00     0.310 C 
ENDBRANCH   6   7
ENDBRANCH   5   6
ENDBRANCH   1   4
TORSDOF 3
ENDMDL
MODEL 7
REMARK VINA RESULT:      -3.4      4.049      5.840
REMARK  3 active torsions:
REMARK  status: ('A' for Active; 'I' for Inactive)
REMARK    1  A    between atoms: C1_1  and  C2_2 
REMARK    2  A    between atoms: C4_4  and  C8_8 
REMARK    3  A    between atoms: C8_8  and  N9_9 
ROOT
HETATM    1  C1  UNL     1     -34.451  15.910  -2.540  1.00 20.00    -0.015 C 
HETATM    2  C3  UNL     1     -33.882  15.298  -3.402  1.00 20.00    -0.097 C 
HETATM    3  C5  UNL     1     -33.189  14.553  -4.452  1.00 20.00     0.113 C 
ENDROOT
BRANCH   1   4
HETATM    4  C2  UNL     1     -35.104  16.609  -1.556  1.00 20.00    -0.013 C 
HETATM    5  C4  UNL     1     -35.673  17.221  -0.695  1.00 20.00    -0.062 C 
BRANCH   5   6
HETATM    6  C8  UNL     1     -36.371  17.972   0.354  1.00 20.00     0.365 C 
BRANCH   6   7
HETATM    7  N9  UNL     1     -35.837  17.646   1.670  1.00 20.00     0.090 N 
HETATM    8  C6  UNL     1     -36.729  18.135   2.724  1.00 20.00     0.310 C 
HETATM    9  C7  UNL     1     -34.497  18.210   1.838  1.00 20.00     0.310 C 
ENDBRANCH   6   7
ENDBRANCH   5   6
ENDBRANCH   1   4
TORSDOF 3
ENDMDL
MODEL 8
REMARK VINA RESULT:      -3.3     10.828     13.393
REMARK  3 active torsions:
REMARK  status: ('A' for Active; 'I' for Inactive)
REMARK    1  A    between atoms: C1_1  and  C2_2 
REMARK    2  A    between atoms: C4_4  and  C8_8 
REMARK    3  A    between atoms: C8_8  and  N9_9 
ROOT
HETATM    1  C1  UNL     1     -41.946   3.996  -2.254  1.00 20.00    -0.015 C 
HETATM    2  C3  UNL     1     -42.133   3.086  -3.014  1.00 20.00    -0.097 C 
HETATM    3  C5  UNL     1     -42.363   1.978  -3.940  1.00 20.00     0.113 C 
ENDROOT
BRANCH   1   4
HETATM    4  C2  UNL     1     -41.733   5.035  -1.384  1.00 20.00    -0.013 C 
HETATM    5  C4  UNL     1     -41.548   5.944  -0.621  1.00 20.00    -0.062 C 
BRANCH   5   6
HETATM    6  C8  UNL     1     -41.318   7.052   0.312  1.00 20.00     0.365 C 
BRANCH   6   7
HETATM    7  N9  UNL     1     -42.013   8.254  -0.126  1.00 20.00     0.090 N 
HETATM    8  C6  UNL     1     -41.334   9.454   0.370  1.00 20.00     0.310 C 
HETATM    9  C7  UNL     1     -43.406   8.239   0.324  1.00 20.00     0.310 C 
ENDBRANCH   6   7
ENDBRANCH   5   6
ENDBRANCH   1   4
TORSDOF 3
ENDMDL
MODEL 9
REMARK VINA RESULT:      -3.2      2.558      2.872
REMARK  3 active torsions:
REMARK  status: ('A' for Active; 'I' for Inactive)
REMARK    1  A    between atoms: C1_1  and  C2_2 
REMARK    2  A    between atoms: C4_4  and  C8_8 
REMARK    3  A    between atoms: C8_8  and  N9_9 
ROOT
HETATM    1  C1  UNL     1     -35.303  16.960  -0.574  1.00 20.00    -0.015 C 
HETATM    2  C3  UNL     1     -35.827  17.432   0.398  1.00 20.00    -0.097 C 
HETATM    3  C5  UNL     1     -36.466  18.005   1.581  1.00 20.00     0.113 C 
ENDROOT
BRANCH   1   4
HETATM    4  C2  UNL     1     -34.705  16.422  -1.686  1.00 20.00    -0.013 C 
HETATM    5  C4  UNL     1     -34.183  15.950  -2.658  1.00 20.00    -0.062 C 
BRANCH   5   6
HETATM    6  C8  UNL     1     -33.550  15.374  -3.849  1.00 20.00     0.365 C 
BRANCH   6   7
HETATM    7  N9  UNL     1     -34.551  14.887  -4.788  1.00 20.00     0.090 N 
HETATM    8  C6  UNL     1     -35.364  15.994  -5.296  1.00 20.00     0.310 C 
HETATM    9  C7  UNL     1     -35.406  13.880  -4.156  1.00 20.00     0.310 C 
ENDBRANCH   6   7
ENDBRANCH   5   6
ENDBRANCH   1   4
TORSDOF 3
ENDMDL
