MODEL 1
REMARK VINA RESULT:      -4.3      0.000      0.000
REMARK  0 active torsions:
REMARK  status: ('A' for Active; 'I' for Inactive)
ROOT
HETATM    1  C1  UNL     1     -35.222  16.148  -2.582  1.00 20.00    -0.014 C 
HETATM    2  C2  UNL     1     -34.438  15.194  -3.115  1.00 20.00    -0.004 C 
HETATM    3  C3  UNL     1     -37.035  14.229  -4.436  1.00 20.00     0.203 A 
HETATM    4  C4  UNL     1     -36.448  16.424  -3.409  1.00 20.00     0.126 C 
HETATM    5  C5  UNL     1     -35.746  13.384  -4.479  1.00 20.00     0.126 A 
HETATM    6  C6  UNL     1     -34.988  14.728  -4.418  1.00 20.00     0.042 A 
HETATM    7  C7  UNL     1     -34.162  15.112  -5.629  1.00 20.00     0.038 C 
HETATM    8  N8  UNL     1     -36.316  15.394  -4.428  1.00 20.00    -0.237 NA
HETATM    9  O9  UNL     1     -38.219  13.998  -4.321  1.00 20.00    -0.280 OA
ENDROOT
TORSDOF 0
ENDMDL
MODEL 2
REMARK VINA RESULT:      -4.3      1.388      2.358
REMARK  0 active torsions:
REMARK  status: ('A' for Active; 'I' for Inactive)
ROOT
HETATM    1  C1  UNL     1     -35.054  16.116  -6.649  1.00 20.00    -0.014 C 
HETATM    2  C2  UNL     1     -34.470  16.340  -5.460  1.00 20.00    -0.004 C 
HETATM    3  C3  UNL     1     -36.318  14.096  -4.474  1.00 20.00     0.203 A 
HETATM    4  C4  UNL     1     -35.596  14.718  -6.779  1.00 20.00     0.126 C 
HETATM    5  C5  UNL     1     -35.506  14.963  -3.490  1.00 20.00     0.126 A 
HETATM    6  C6  UNL     1     -34.474  15.103  -4.630  1.00 20.00     0.042 A 
HETATM    7  C7  UNL     1     -33.108  14.484  -4.406  1.00 20.00     0.038 C 
HETATM    8  N8  UNL     1     -35.351  14.215  -5.436  1.00 20.00    -0.237 NA
HETATM    9  O9  UNL     1     -37.424  13.601  -4.484  1.00 20.00    -0.280 OA
ENDROOT
TORSDOF 0
ENDMDL
MODEL 3
REMARK VINA RESULT:      -4.3      1.609      2.676
REMARK  0 active torsions:
REMARK  status: ('A' for Active; 'I' for Inactive)
ROOT
HETATM    1  C1  UNL     1     -34.635  16.283  -6.299  1.00 20.00    -0.014 C 
HETATM    2  C2  UNL     1     -34.768  16.773  -5.054  1.00 20.00    -0.004 C 
HETATM    3  C3  UNL     1     -35.321  13.852  -4.293  1.00 20.00     0.203 A 
HETATM    4  C4  UNL     1     -34.239  14.832  -6.315  1.00 20.00     0.126 C 
HETATM    5  C5  UNL     1     -35.552  15.003  -3.293  1.00 20.00     0.126 A 
HETATM    6  C6  UNL     1     -34.419  15.739  -4.041  1.00 20.00     0.042 A 
HETATM    7  C7  UNL     1     -33.144  16.013  -3.268  1.00 20.00     0.038 C 
HETATM    8  N8  UNL     1     -34.293  14.528  -4.893  1.00 20.00    -0.237 NA
HETATM    9  O9  UNL     1     -35.882  12.812  -4.561  1.00 20.00    -0.280 OA
ENDROOT
TORSDOF 0
ENDMDL
MODEL 4
REMARK VINA RESULT:      -4.3     18.317     19.282
REMARK  0 active torsions:
REMARK  status: ('A' for Active; 'I' for Inactive)
ROOT
HETATM    1  C1  UNL     1     -25.493  16.544  12.173  1.00 20.00    -0.014 C 
HETATM    2  C2  UNL     1     -24.262  16.061  11.930  1.00 20.00    -0.004 C 
HETATM    3  C3  UNL     1     -24.252  18.092   9.630  1.00 20.00     0.203 A 
HETATM    4  C4  UNL     1     -25.677  17.950  11.671  1.00 20.00     0.126 C 
HETATM    5  C5  UNL     1     -23.153  17.019   9.762  1.00 20.00     0.126 A 
HETATM    6  C6  UNL     1     -23.409  17.096  11.283  1.00 20.00     0.042 A 
HETATM    7  C7  UNL     1     -22.280  17.620  12.149  1.00 20.00     0.038 C 
HETATM    8  N8  UNL     1     -24.409  18.155  10.988  1.00 20.00    -0.237 NA
HETATM    9  O9  UNL     1     -24.856  18.605   8.713  1.00 20.00    -0.280 OA
ENDROOT
TORSDOF 0
ENDMDL
MODEL 5
REMARK VINA RESULT:      -4.2     17.534     18.650
REMARK  0 active torsions:
REMARK  status: ('A' for Active; 'I' for Inactive)
ROOT
HETATM    1  C1  UNL     1     -21.293  17.886   9.736  1.00 20.00    -0.014 C 
HETATM    2  C2  UNL     1     -22.351  18.116  10.533  1.00 20.00    -0.004 C 
HETATM    3  C3  UNL     1     -23.877  18.453   7.891  1.00 20.00     0.203 A 
HETATM    4  C4  UNL     1     -21.685  17.368   8.379  1.00 20.00     0.126 C 
HETATM    5  C5  UNL     1     -24.516  18.825   9.245  1.00 20.00     0.126 A 
HETATM    6  C6  UNL     1     -23.617  17.726   9.852  1.00 20.00     0.042 A 
HETATM    7  C7  UNL     1     -24.310  16.515  10.444  1.00 20.00     0.038 C 
HETATM    8  N8  UNL     1     -23.135  17.460   8.471  1.00 20.00    -0.237 NA
HETATM    9  O9  UNL     1     -23.896  18.910   6.770  1.00 20.00    -0.280 OA
ENDROOT
TORSDOF 0
ENDMDL
MODEL 6
REMARK VINA RESULT:      -4.1     18.305     19.431
REMARK  0 active torsions:
REMARK  status: ('A' for Active; 'I' for Inactive)
ROOT
HETATM    1  C1  UNL     1     -22.148  17.765  11.389  1.00 20.00    -0.014 C 
HETATM    2  C2  UNL     1     -23.097  17.628  12.331  1.00 20.00    -0.004 C 
HETATM    3  C3  UNL     1     -25.008  18.512  10.098  1.00 20.00     0.203 A 
HETATM    4  C4  UNL     1     -22.686  17.609   9.992  1.00 20.00     0.126 C 
HETATM    5  C5  UNL     1     -25.475  18.405  11.563  1.00 20.00     0.126 A 
HETATM    6  C6  UNL     1     -24.410  17.296  11.712  1.00 20.00     0.042 A 
HETATM    7  C7  UNL     1     -24.907  15.892  11.991  1.00 20.00     0.038 C 
HETATM    8  N8  UNL     1     -24.110  17.493  10.270  1.00 20.00    -0.237 NA
HETATM    9  O9  UNL     1     -25.225  19.263   9.172  1.00 20.00    -0.280 OA
ENDROOT
TORSDOF 0
ENDMDL
MODEL 7
REMARK VINA RESULT:      -4.1     18.166     19.084
REMARK  0 active torsions:
REMARK  status: ('A' for Active; 'I' for Inactive)
ROOT
HETATM    1  C1  UNL     1     -24.209  16.887  12.099  1.00 20.00    -0.014 C 
HETATM    2  C2  UNL     1     -24.078  18.189  11.793  1.00 20.00    -0.004 C 
HETATM    3  C3  UNL     1     -22.903  17.138   9.160  1.00 20.00     0.203 A 
HETATM    4  C4  UNL     1     -24.312  16.009  10.881  1.00 20.00     0.126 C 
HETATM    5  C5  UNL     1     -22.826  18.631   9.539  1.00 20.00     0.126 A 
HETATM    6  C6  UNL     1     -24.137  18.393  10.320  1.00 20.00     0.042 A 
HETATM    7  C7  UNL     1     -25.376  19.113   9.827  1.00 20.00     0.038 C 
HETATM    8  N8  UNL     1     -24.088  16.990   9.830  1.00 20.00    -0.237 NA
HETATM    9  O9  UNL     1     -22.172  16.345   8.609  1.00 20.00    -0.280 OA
ENDROOT
TORSDOF 0
ENDMDL
MODEL 8
REMARK VINA RESULT:      -4.0      1.851      2.261
REMARK  0 active torsions:
REMARK  status: ('A' for Active; 'I' for Inactive)
ROOT
HETATM    1  C1  UNL     1     -33.901  16.545  -2.182  1.00 20.00    -0.014 C 
HETATM    2  C2  UNL     1     -33.222  16.744  -3.325  1.00 20.00    -0.004 C 
HETATM    3  C3  UNL     1     -34.490  14.084  -4.184  1.00 20.00     0.203 A 
HETATM    4  C4  UNL     1     -35.116  15.676  -2.369  1.00 20.00     0.126 C 
HETATM    5  C5  UNL     1     -33.374  14.750  -5.013  1.00 20.00     0.126 A 
HETATM    6  C6  UNL     1     -33.915  16.091  -4.470  1.00 20.00     0.042 A 
HETATM    7  C7  UNL     1     -34.524  17.049  -5.475  1.00 20.00     0.038 C 
HETATM    8  N8  UNL     1     -34.959  15.301  -3.766  1.00 20.00    -0.237 NA
HETATM    9  O9  UNL     1     -34.788  12.948  -3.887  1.00 20.00    -0.280 OA
ENDROOT
TORSDOF 0
ENDMDL
MODEL 9
REMARK VINA RESULT:      -3.9      9.828     10.967
REMARK  0 active torsions:
REMARK  status: ('A' for Active; 'I' for Inactive)
ROOT
HETATM    1  C1  UNL     1     -41.129   6.719  -1.453  1.00 20.00    -0.014 C 
HETATM    2  C2  UNL     1     -41.737   7.918  -1.418  1.00 20.00    -0.004 C 
HETATM    3  C3  UNL     1     -42.907   6.907   1.233  1.00 20.00     0.203 A 
HETATM    4  C4  UNL     1     -40.940   6.122  -0.085  1.00 20.00     0.126 C 
HETATM    5  C5  UNL     1     -43.416   8.202   0.568  1.00 20.00     0.126 A 
HETATM    6  C6  UNL     1     -41.992   8.339  -0.013  1.00 20.00     0.042 A 
HETATM    7  C7  UNL     1     -41.164   9.519   0.457  1.00 20.00     0.038 C 
HETATM    8  N8  UNL     1     -41.648   7.099   0.729  1.00 20.00    -0.237 NA
HETATM    9  O9  UNL     1     -43.410   5.993   1.848  1.00 20.00    -0.280 OA
ENDROOT
TORSDOF 0
ENDMDL
