MODEL 1
REMARK VINA RESULT:      -4.8      0.000      0.000
REMARK  0 active torsions:
REMARK  status: ('A' for Active; 'I' for Inactive)
ROOT
HETATM    1  C1  UNL     1     -34.808   5.839   5.964  1.00 20.00     0.020 A 
HETATM    2  C2  UNL     1     -34.927   4.911   4.887  1.00 20.00     0.038 A 
HETATM    3  C3  UNL     1     -33.884   6.807   5.601  1.00 20.00     0.093 A 
HETATM    4  C4  UNL     1     -34.073   5.364   3.924  1.00 20.00     0.073 A 
HETATM    5  C5  UNL     1     -32.572   7.109   3.462  1.00 20.00     0.085 A 
HETATM    6  C6  UNL     1     -32.429   6.309   2.370  1.00 20.00     0.065 A 
HETATM    7  C7  UNL     1     -32.825   7.657   2.144  1.00 20.00     0.061 A 
HETATM    8  N8  UNL     1     -33.480   6.524   4.326  1.00 20.00    -0.337 N 
HETATM    9  S9  UNL     1     -33.467   4.894   2.373  1.00 20.00    -0.097 SA
ENDROOT
TORSDOF 0
ENDMDL
MODEL 2
REMARK VINA RESULT:      -4.4      1.360      2.101
REMARK  0 active torsions:
REMARK  status: ('A' for Active; 'I' for Inactive)
ROOT
HETATM    1  C1  UNL     1     -34.759   5.948   6.220  1.00 20.00     0.020 A 
HETATM    2  C2  UNL     1     -33.797   6.890   5.752  1.00 20.00     0.038 A 
HETATM    3  C3  UNL     1     -35.028   5.055   5.193  1.00 20.00     0.093 A 
HETATM    4  C4  UNL     1     -33.528   6.523   4.465  1.00 20.00     0.073 A 
HETATM    5  C5  UNL     1     -34.071   4.900   2.859  1.00 20.00     0.085 A 
HETATM    6  C6  UNL     1     -33.253   5.734   2.160  1.00 20.00     0.065 A 
HETATM    7  C7  UNL     1     -32.867   4.367   2.251  1.00 20.00     0.061 A 
HETATM    8  N8  UNL     1     -34.226   5.397   4.139  1.00 20.00    -0.337 N 
HETATM    9  S9  UNL     1     -32.616   7.072   3.101  1.00 20.00    -0.097 SA
ENDROOT
TORSDOF 0
ENDMDL
MODEL 3
REMARK VINA RESULT:      -4.3     16.594     16.926
REMARK  0 active torsions:
REMARK  status: ('A' for Active; 'I' for Inactive)
ROOT
HETATM    1  C1  UNL     1     -26.359  19.097  11.344  1.00 20.00     0.020 A 
HETATM    2  C2  UNL     1     -25.544  18.469  12.332  1.00 20.00     0.038 A 
HETATM    3  C3  UNL     1     -25.643  19.148  10.158  1.00 20.00     0.093 A 
HETATM    4  C4  UNL     1     -24.374  18.169  11.696  1.00 20.00     0.073 A 
HETATM    5  C5  UNL     1     -23.328  18.300   9.600  1.00 20.00     0.085 A 
HETATM    6  C6  UNL     1     -22.338  17.791  10.383  1.00 20.00     0.065 A 
HETATM    7  C7  UNL     1     -22.732  17.025   9.250  1.00 20.00     0.061 A 
HETATM    8  N8  UNL     1     -24.444  18.530  10.383  1.00 20.00    -0.337 N 
HETATM    9  S9  UNL     1     -22.810  17.520  12.052  1.00 20.00    -0.097 SA
ENDROOT
TORSDOF 0
ENDMDL
MODEL 4
REMARK VINA RESULT:      -4.1     15.700     16.562
REMARK  0 active torsions:
REMARK  status: ('A' for Active; 'I' for Inactive)
ROOT
HETATM    1  C1  UNL     1     -22.766  17.874   8.202  1.00 20.00     0.020 A 
HETATM    2  C2  UNL     1     -23.915  18.629   8.582  1.00 20.00     0.038 A 
HETATM    3  C3  UNL     1     -22.467  16.992   9.229  1.00 20.00     0.093 A 
HETATM    4  C4  UNL     1     -24.257  18.166   9.819  1.00 20.00     0.073 A 
HETATM    5  C5  UNL     1     -23.632  16.582  11.434  1.00 20.00     0.085 A 
HETATM    6  C6  UNL     1     -24.646  17.242  12.057  1.00 20.00     0.065 A 
HETATM    7  C7  UNL     1     -24.790  15.837  11.887  1.00 20.00     0.061 A 
HETATM    8  N8  UNL     1     -23.423  17.154  10.193  1.00 20.00    -0.337 N 
HETATM    9  S9  UNL     1     -25.389  18.501  11.085  1.00 20.00    -0.097 SA
ENDROOT
TORSDOF 0
ENDMDL
MODEL 5
REMARK VINA RESULT:      -4.1     16.041     16.599
REMARK  0 active torsions:
REMARK  status: ('A' for Active; 'I' for Inactive)
ROOT
HETATM    1  C1  UNL     1     -22.931  18.131   8.433  1.00 20.00     0.020 A 
HETATM    2  C2  UNL     1     -22.760  17.009   9.297  1.00 20.00     0.038 A 
HETATM    3  C3  UNL     1     -24.005  18.876   8.897  1.00 20.00     0.093 A 
HETATM    4  C4  UNL     1     -23.736  17.130  10.243  1.00 20.00     0.073 A 
HETATM    5  C5  UNL     1     -25.495  18.534  10.909  1.00 20.00     0.085 A 
HETATM    6  C6  UNL     1     -25.603  17.501  11.789  1.00 20.00     0.065 A 
HETATM    7  C7  UNL     1     -25.417  18.803  12.332  1.00 20.00     0.061 A 
HETATM    8  N8  UNL     1     -24.456  18.270  10.037  1.00 20.00    -0.337 N 
HETATM    9  S9  UNL     1     -24.379  16.258  11.593  1.00 20.00    -0.097 SA
ENDROOT
TORSDOF 0
ENDMDL
MODEL 6
REMARK VINA RESULT:      -4.1     15.723     16.039
REMARK  0 active torsions:
REMARK  status: ('A' for Active; 'I' for Inactive)
ROOT
HETATM    1  C1  UNL     1     -25.445  16.609  12.288  1.00 20.00     0.020 A 
HETATM    2  C2  UNL     1     -24.396  15.953  11.580  1.00 20.00     0.038 A 
HETATM    3  C3  UNL     1     -25.672  17.838  11.688  1.00 20.00     0.093 A 
HETATM    4  C4  UNL     1     -24.038  16.815  10.584  1.00 20.00     0.073 A 
HETATM    5  C5  UNL     1     -24.587  18.906   9.670  1.00 20.00     0.085 A 
HETATM    6  C6  UNL     1     -23.510  18.540   8.923  1.00 20.00     0.065 A 
HETATM    7  C7  UNL     1     -24.723  18.809   8.230  1.00 20.00     0.061 A 
HETATM    8  N8  UNL     1     -24.830  17.926  10.614  1.00 20.00    -0.337 N 
HETATM    9  S9  UNL     1     -22.857  16.961   9.328  1.00 20.00    -0.097 SA
ENDROOT
TORSDOF 0
ENDMDL
MODEL 7
REMARK VINA RESULT:      -3.8     11.847     12.358
REMARK  0 active torsions:
REMARK  status: ('A' for Active; 'I' for Inactive)
ROOT
HETATM    1  C1  UNL     1     -33.943  16.663  -2.018  1.00 20.00     0.020 A 
HETATM    2  C2  UNL     1     -33.208  16.396  -3.211  1.00 20.00     0.038 A 
HETATM    3  C3  UNL     1     -35.217  16.138  -2.168  1.00 20.00     0.093 A 
HETATM    4  C4  UNL     1     -34.071  15.721  -4.024  1.00 20.00     0.073 A 
HETATM    5  C5  UNL     1     -36.253  14.858  -4.085  1.00 20.00     0.085 A 
HETATM    6  C6  UNL     1     -35.804  14.594  -5.343  1.00 20.00     0.065 A 
HETATM    7  C7  UNL     1     -36.242  13.489  -4.562  1.00 20.00     0.061 A 
HETATM    8  N8  UNL     1     -35.261  15.522  -3.388  1.00 20.00    -0.337 N 
HETATM    9  S9  UNL     1     -34.143  15.086  -5.632  1.00 20.00    -0.097 SA
ENDROOT
TORSDOF 0
ENDMDL
MODEL 8
REMARK VINA RESULT:      -3.8     11.883     12.556
REMARK  0 active torsions:
REMARK  status: ('A' for Active; 'I' for Inactive)
ROOT
HETATM    1  C1  UNL     1     -33.714  16.270  -2.503  1.00 20.00     0.020 A 
HETATM    2  C2  UNL     1     -35.071  15.866  -2.331  1.00 20.00     0.038 A 
HETATM    3  C3  UNL     1     -33.324  15.944  -3.793  1.00 20.00     0.093 A 
HETATM    4  C4  UNL     1     -35.437  15.317  -3.525  1.00 20.00     0.073 A 
HETATM    5  C5  UNL     1     -34.621  14.877  -5.682  1.00 20.00     0.085 A 
HETATM    6  C6  UNL     1     -35.857  14.310  -5.721  1.00 20.00     0.065 A 
HETATM    7  C7  UNL     1     -35.573  15.319  -6.683  1.00 20.00     0.061 A 
HETATM    8  N8  UNL     1     -34.412  15.402  -4.420  1.00 20.00    -0.337 N 
HETATM    9  S9  UNL     1     -36.783  14.497  -4.241  1.00 20.00    -0.097 SA
ENDROOT
TORSDOF 0
ENDMDL
MODEL 9
REMARK VINA RESULT:      -3.8     12.053     12.776
REMARK  0 active torsions:
REMARK  status: ('A' for Active; 'I' for Inactive)
ROOT
HETATM    1  C1  UNL     1     -34.295  15.687  -3.027  1.00 20.00     0.020 A 
HETATM    2  C2  UNL     1     -34.985  16.153  -1.869  1.00 20.00     0.038 A 
HETATM    3  C3  UNL     1     -33.119  16.411  -3.153  1.00 20.00     0.093 A 
HETATM    4  C4  UNL     1     -34.193  17.134  -1.348  1.00 20.00     0.073 A 
HETATM    5  C5  UNL     1     -32.145  18.228  -1.691  1.00 20.00     0.085 A 
HETATM    6  C6  UNL     1     -32.659  18.908  -0.630  1.00 20.00     0.065 A 
HETATM    7  C7  UNL     1     -31.390  18.289  -0.454  1.00 20.00     0.061 A 
HETATM    8  N8  UNL     1     -33.052  17.262  -2.085  1.00 20.00    -0.337 N 
HETATM    9  S9  UNL     1     -34.211  18.304  -0.073  1.00 20.00    -0.097 SA
ENDROOT
TORSDOF 0
ENDMDL
