MODEL 1
REMARK VINA RESULT:      -4.9      0.000      0.000
REMARK  1 active torsions:
REMARK  status: ('A' for Active; 'I' for Inactive)
REMARK    1  A    between atoms: C1_1  and  C5_5 
ROOT
HETATM    1  C2  UNL     1     -33.618   7.171   4.336  1.00 20.00     0.015 C 
HETATM    2  C3  UNL     1     -32.176   7.313   3.854  1.00 20.00     0.021 C 
HETATM    3  C4  UNL     1     -33.158   5.636   2.475  1.00 20.00     0.033 C 
HETATM    4  C5  UNL     1     -34.194   5.987   3.550  1.00 20.00     0.073 C 
HETATM    5  C6  UNL     1     -32.212   6.831   2.411  1.00 20.00     0.083 C 
HETATM    6 CL9  UNL     1     -32.868   8.098   1.334  1.00 20.00    -0.125 Cl
ENDROOT
BRANCH   4   7
HETATM    7  C1  UNL     1     -34.431   4.813   4.448  1.00 20.00     0.223 C 
HETATM    8  O7  UNL     1     -34.340   3.659   4.040  1.00 20.00    -0.279 OA
HETATM    9 CL8  UNL     1     -34.834   5.298   6.067  1.00 20.00    -0.043 Cl
ENDBRANCH   4   7
TORSDOF 1
ENDMDL
MODEL 2
REMARK VINA RESULT:      -4.4     11.502     12.131
REMARK  1 active torsions:
REMARK  status: ('A' for Active; 'I' for Inactive)
REMARK    1  A    between atoms: C1_1  and  C5_5 
ROOT
HETATM    1  C2  UNL     1     -34.121  15.196  -4.992  1.00 20.00     0.015 C 
HETATM    2  C3  UNL     1     -34.417  16.684  -4.819  1.00 20.00     0.021 C 
HETATM    3  C4  UNL     1     -35.259  15.623  -2.859  1.00 20.00     0.033 C 
HETATM    4  C5  UNL     1     -34.800  14.506  -3.804  1.00 20.00     0.073 C 
HETATM    5  C6  UNL     1     -34.516  16.875  -3.312  1.00 20.00     0.083 C 
HETATM    6 CL9  UNL     1     -32.890  16.947  -2.573  1.00 20.00    -0.125 Cl
ENDROOT
BRANCH   4   7
HETATM    7  C1  UNL     1     -35.972  13.692  -4.257  1.00 20.00     0.223 C 
HETATM    8  O7  UNL     1     -35.857  12.510  -4.563  1.00 20.00    -0.279 OA
HETATM    9 CL8  UNL     1     -37.441  14.620  -4.284  1.00 20.00    -0.043 Cl
ENDBRANCH   4   7
TORSDOF 1
ENDMDL
MODEL 3
REMARK VINA RESULT:      -4.4     11.693     11.961
REMARK  1 active torsions:
REMARK  status: ('A' for Active; 'I' for Inactive)
REMARK    1  A    between atoms: C1_1  and  C5_5 
ROOT
HETATM    1  C2  UNL     1     -36.106  16.190  -3.322  1.00 20.00     0.015 C 
HETATM    2  C3  UNL     1     -35.129  16.169  -2.149  1.00 20.00     0.021 C 
HETATM    3  C4  UNL     1     -34.163  14.772  -3.820  1.00 20.00     0.033 C 
HETATM    4  C5  UNL     1     -35.555  15.171  -4.327  1.00 20.00     0.073 C 
HETATM    5  C6  UNL     1     -33.789  15.824  -2.781  1.00 20.00     0.083 C 
HETATM    6 CL9  UNL     1     -33.067  17.258  -3.566  1.00 20.00    -0.125 Cl
ENDROOT
BRANCH   4   7
HETATM    7  C1  UNL     1     -36.443  13.969  -4.411  1.00 20.00     0.223 C 
HETATM    8  O7  UNL     1     -35.989  12.840  -4.567  1.00 20.00    -0.279 OA
HETATM    9 CL8  UNL     1     -38.123  14.386  -4.265  1.00 20.00    -0.043 Cl
ENDBRANCH   4   7
TORSDOF 1
ENDMDL
MODEL 4
REMARK VINA RESULT:      -4.2     11.411     11.980
REMARK  1 active torsions:
REMARK  status: ('A' for Active; 'I' for Inactive)
REMARK    1  A    between atoms: C1_1  and  C5_5 
ROOT
HETATM    1  C2  UNL     1     -35.485  16.195  -3.043  1.00 20.00     0.015 C 
HETATM    2  C3  UNL     1     -34.419  16.458  -1.982  1.00 20.00     0.021 C 
HETATM    3  C4  UNL     1     -33.283  15.412  -3.797  1.00 20.00     0.033 C 
HETATM    4  C5  UNL     1     -34.779  15.386  -4.137  1.00 20.00     0.073 C 
HETATM    5  C6  UNL     1     -33.116  16.524  -2.766  1.00 20.00     0.083 C 
HETATM    6 CL9  UNL     1     -32.938  18.109  -3.572  1.00 20.00    -0.125 Cl
ENDROOT
BRANCH   4   7
HETATM    7  C1  UNL     1     -35.281  13.977  -4.169  1.00 20.00     0.223 C 
HETATM    8  O7  UNL     1     -34.533  13.020  -3.993  1.00 20.00    -0.279 OA
HETATM    9 CL8  UNL     1     -36.989  13.898  -4.478  1.00 20.00    -0.043 Cl
ENDBRANCH   4   7
TORSDOF 1
ENDMDL
MODEL 5
REMARK VINA RESULT:      -4.2     11.463     12.183
REMARK  1 active torsions:
REMARK  status: ('A' for Active; 'I' for Inactive)
REMARK    1  A    between atoms: C1_1  and  C5_5 
ROOT
HETATM    1  C2  UNL     1     -33.625  15.080  -3.848  1.00 20.00     0.015 C 
HETATM    2  C3  UNL     1     -33.687  16.594  -4.032  1.00 20.00     0.021 C 
HETATM    3  C4  UNL     1     -35.808  15.963  -3.150  1.00 20.00     0.033 C 
HETATM    4  C5  UNL     1     -35.040  14.664  -3.428  1.00 20.00     0.073 C 
HETATM    5  C6  UNL     1     -34.746  17.052  -3.040  1.00 20.00     0.083 C 
HETATM    6 CL9  UNL     1     -34.079  17.117  -1.382  1.00 20.00    -0.125 Cl
ENDROOT
BRANCH   4   7
HETATM    7  C1  UNL     1     -35.713  13.884  -4.513  1.00 20.00     0.223 C 
HETATM    8  O7  UNL     1     -35.820  12.662  -4.459  1.00 20.00    -0.279 OA
HETATM    9 CL8  UNL     1     -36.289  14.907  -5.794  1.00 20.00    -0.043 Cl
ENDBRANCH   4   7
TORSDOF 1
ENDMDL
MODEL 6
REMARK VINA RESULT:      -4.1     11.407     12.287
REMARK  1 active torsions:
REMARK  status: ('A' for Active; 'I' for Inactive)
REMARK    1  A    between atoms: C1_1  and  C5_5 
ROOT
HETATM    1  C2  UNL     1     -34.302  14.061  -3.738  1.00 20.00     0.015 C 
HETATM    2  C3  UNL     1     -33.281  15.044  -4.304  1.00 20.00     0.021 C 
HETATM    3  C4  UNL     1     -35.320  16.263  -4.122  1.00 20.00     0.033 C 
HETATM    4  C5  UNL     1     -35.642  14.805  -3.769  1.00 20.00     0.073 C 
HETATM    5  C6  UNL     1     -33.817  16.413  -3.911  1.00 20.00     0.083 C 
HETATM    6 CL9  UNL     1     -33.453  16.771  -2.198  1.00 20.00    -0.125 Cl
ENDROOT
BRANCH   4   7
HETATM    7  C1  UNL     1     -36.560  14.212  -4.792  1.00 20.00     0.223 C 
HETATM    8  O7  UNL     1     -37.630  13.699  -4.479  1.00 20.00    -0.279 OA
HETATM    9 CL8  UNL     1     -35.922  14.350  -6.402  1.00 20.00    -0.043 Cl
ENDBRANCH   4   7
TORSDOF 1
ENDMDL
MODEL 7
REMARK VINA RESULT:      -4.1     16.385     17.079
REMARK  1 active torsions:
REMARK  status: ('A' for Active; 'I' for Inactive)
REMARK    1  A    between atoms: C1_1  and  C5_5 
ROOT
HETATM    1  C2  UNL     1     -23.235  17.130  10.714  1.00 20.00     0.015 C 
HETATM    2  C3  UNL     1     -23.507  17.777  12.069  1.00 20.00     0.021 C 
HETATM    3  C4  UNL     1     -25.177  18.629  10.598  1.00 20.00     0.033 C 
HETATM    4  C5  UNL     1     -24.213  17.798   9.741  1.00 20.00     0.073 C 
HETATM    5  C6  UNL     1     -24.987  18.131  12.027  1.00 20.00     0.083 C 
HETATM    6 CL9  UNL     1     -25.995  16.687  12.332  1.00 20.00    -0.125 Cl
ENDROOT
BRANCH   4   7
HETATM    7  C1  UNL     1     -23.487  18.678   8.772  1.00 20.00     0.223 C 
HETATM    8  O7  UNL     1     -22.326  19.026   8.960  1.00 20.00    -0.279 OA
HETATM    9 CL8  UNL     1     -24.479  19.112   7.413  1.00 20.00    -0.043 Cl
ENDBRANCH   4   7
TORSDOF 1
ENDMDL
MODEL 8
REMARK VINA RESULT:      -4.0      9.121      9.703
REMARK  1 active torsions:
REMARK  status: ('A' for Active; 'I' for Inactive)
REMARK    1  A    between atoms: C1_1  and  C5_5 
ROOT
HETATM    1  C2  UNL     1     -42.462   7.687  -1.570  1.00 20.00     0.015 C 
HETATM    2  C3  UNL     1     -43.220   8.263  -0.376  1.00 20.00     0.021 C 
HETATM    3  C4  UNL     1     -41.291   7.201   0.533  1.00 20.00     0.033 C 
HETATM    4  C5  UNL     1     -41.310   6.876  -0.966  1.00 20.00     0.073 C 
HETATM    5  C6  UNL     1     -42.153   8.449   0.693  1.00 20.00     0.083 C 
HETATM    6 CL9  UNL     1     -41.192   9.924   0.384  1.00 20.00    -0.125 Cl
ENDROOT
BRANCH   4   7
HETATM    7  C1  UNL     1     -41.518   5.409  -1.178  1.00 20.00     0.223 C 
HETATM    8  O7  UNL     1     -40.602   4.671  -1.526  1.00 20.00    -0.279 OA
HETATM    9 CL8  UNL     1     -43.161   4.932  -0.877  1.00 20.00    -0.043 Cl
ENDBRANCH   4   7
TORSDOF 1
ENDMDL
MODEL 9
REMARK VINA RESULT:      -4.0      9.279     10.010
REMARK  1 active torsions:
REMARK  status: ('A' for Active; 'I' for Inactive)
REMARK    1  A    between atoms: C1_1  and  C5_5 
ROOT
HETATM    1  C2  UNL     1     -41.166   6.771   0.551  1.00 20.00     0.015 C 
HETATM    2  C3  UNL     1     -42.150   5.605   0.616  1.00 20.00     0.021 C 
HETATM    3  C4  UNL     1     -42.751   6.851  -1.323  1.00 20.00     0.033 C 
HETATM    4  C5  UNL     1     -41.655   7.649  -0.606  1.00 20.00     0.073 C 
HETATM    5  C6  UNL     1     -42.608   5.418  -0.823  1.00 20.00     0.083 C 
HETATM    6 CL9  UNL     1     -41.377   4.537  -1.774  1.00 20.00    -0.125 Cl
ENDROOT
BRANCH   4   7
HETATM    7  C1  UNL     1     -42.202   8.947  -0.099  1.00 20.00     0.223 C 
HETATM    8  O7  UNL     1     -43.401   9.203  -0.143  1.00 20.00    -0.279 OA
HETATM    9 CL8  UNL     1     -40.955   9.982   0.527  1.00 20.00    -0.043 Cl
ENDBRANCH   4   7
TORSDOF 1
ENDMDL
