MODEL 1
REMARK VINA RESULT:      -4.1      0.000      0.000
REMARK  2 active torsions:
REMARK  status: ('A' for Active; 'I' for Inactive)
REMARK    1  A    between atoms: C2_2  and  C5_5 
REMARK    2  A    between atoms: C3_3  and  C6_6 
REMARK       I    between atoms: C3_3  and  N9_9 
ROOT
HETATM    1  C4  UNL     1     -33.404  14.244  -4.490  1.00 20.00     0.024 A 
HETATM    2  C5  UNL     1     -33.886  15.568  -3.963  1.00 20.00     0.021 A 
HETATM    3  C6  UNL     1     -34.652  14.848  -5.018  1.00 20.00     0.086 A 
ENDROOT
BRANCH   3   4
HETATM    4  C3  UNL     1     -35.961  14.180  -4.678  1.00 20.00     0.224 C 
HETATM    5  N9  UNL     1     -37.093  14.997  -4.653  1.00 20.00    -0.360 N 
HETATM    6  C7  UNL     1     -38.419  14.481  -4.340  1.00 20.00     0.152 C 
HETATM    7  C8  UNL     1     -37.030  16.427  -4.941  1.00 20.00     0.152 C 
HETATM    8  O10 UNL     1     -35.975  12.969  -4.440  1.00 20.00    -0.273 OA
ENDBRANCH   3   4
BRANCH   2   9
HETATM    9  C2  UNL     1     -34.354  15.649  -2.588  1.00 20.00    -0.031 C 
HETATM   10  C1  UNL     1     -34.403  16.781  -1.879  1.00 20.00     0.007 C 
ENDBRANCH   2   9
TORSDOF 2
ENDMDL
MODEL 2
REMARK VINA RESULT:      -4.1     16.246     18.039
REMARK  2 active torsions:
REMARK  status: ('A' for Active; 'I' for Inactive)
REMARK    1  A    between atoms: C2_2  and  C5_5 
REMARK    2  A    between atoms: C3_3  and  C6_6 
REMARK       I    between atoms: C3_3  and  N9_9 
ROOT
HETATM    1  C4  UNL     1     -21.536  17.697   9.470  1.00 20.00     0.024 A 
HETATM    2  C5  UNL     1     -22.732  17.510  10.363  1.00 20.00     0.021 A 
HETATM    3  C6  UNL     1     -22.697  18.616   9.366  1.00 20.00     0.086 A 
ENDROOT
BRANCH   3   4
HETATM    4  C3  UNL     1     -23.550  18.541   8.124  1.00 20.00     0.224 C 
HETATM    5  N9  UNL     1     -24.899  18.867   8.271  1.00 20.00    -0.360 N 
HETATM    6  C7  UNL     1     -25.835  18.836   7.154  1.00 20.00     0.152 C 
HETATM    7  C8  UNL     1     -25.471  19.263   9.555  1.00 20.00     0.152 C 
HETATM    8  O10 UNL     1     -23.031  18.202   7.057  1.00 20.00    -0.273 OA
ENDBRANCH   3   4
BRANCH   2   9
HETATM    9  C2  UNL     1     -23.568  16.332  10.181  1.00 20.00    -0.031 C 
HETATM   10  C1  UNL     1     -24.291  15.770  11.155  1.00 20.00     0.007 C 
ENDBRANCH   2   9
TORSDOF 2
ENDMDL
MODEL 3
REMARK VINA RESULT:      -4.0      1.162      1.162
REMARK  2 active torsions:
REMARK  status: ('A' for Active; 'I' for Inactive)
REMARK    1  A    between atoms: C2_2  and  C5_5 
REMARK    2  A    between atoms: C3_3  and  C6_6 
REMARK       I    between atoms: C3_3  and  N9_9 
ROOT
HETATM    1  C4  UNL     1     -34.595  13.795  -3.945  1.00 20.00     0.024 A 
HETATM    2  C5  UNL     1     -34.515  15.263  -3.627  1.00 20.00     0.021 A 
HETATM    3  C6  UNL     1     -35.342  14.779  -4.768  1.00 20.00     0.086 A 
ENDROOT
BRANCH   3   4
HETATM    4  C3  UNL     1     -36.847  14.789  -4.666  1.00 20.00     0.224 C 
HETATM    5  N9  UNL     1     -37.498  15.931  -5.136  1.00 20.00    -0.360 N 
HETATM    6  C7  UNL     1     -38.947  16.073  -5.098  1.00 20.00     0.152 C 
HETATM    7  C8  UNL     1     -36.773  17.066  -5.700  1.00 20.00     0.152 C 
HETATM    8  O10 UNL     1     -37.425  13.811  -4.184  1.00 20.00    -0.273 OA
ENDBRANCH   3   4
BRANCH   2   9
HETATM    9  C2  UNL     1     -35.111  15.749  -2.392  1.00 20.00    -0.031 C 
HETATM   10  C1  UNL     1     -34.615  16.758  -1.668  1.00 20.00     0.007 C 
ENDBRANCH   2   9
TORSDOF 2
ENDMDL
MODEL 4
REMARK VINA RESULT:      -3.9      1.619      1.694
REMARK  2 active torsions:
REMARK  status: ('A' for Active; 'I' for Inactive)
REMARK    1  A    between atoms: C2_2  and  C5_5 
REMARK    2  A    between atoms: C3_3  and  C6_6 
REMARK       I    between atoms: C3_3  and  N9_9 
ROOT
HETATM    1  C4  UNL     1     -33.199  14.320  -4.352  1.00 20.00     0.024 A 
HETATM    2  C5  UNL     1     -33.652  15.567  -3.643  1.00 20.00     0.021 A 
HETATM    3  C6  UNL     1     -33.817  15.433  -5.117  1.00 20.00     0.086 A 
ENDROOT
BRANCH   3   4
HETATM    4  C3  UNL     1     -35.188  15.211  -5.706  1.00 20.00     0.224 C 
HETATM    5  N9  UNL     1     -35.901  16.351  -6.079  1.00 20.00    -0.360 N 
HETATM    6  C7  UNL     1     -37.235  16.281  -6.660  1.00 20.00     0.152 C 
HETATM    7  C8  UNL     1     -35.361  17.698  -5.914  1.00 20.00     0.152 C 
HETATM    8  O10 UNL     1     -35.611  14.058  -5.830  1.00 20.00    -0.273 OA
ENDBRANCH   3   4
BRANCH   2   9
HETATM    9  C2  UNL     1     -34.781  15.485  -2.728  1.00 20.00    -0.031 C 
HETATM   10  C1  UNL     1     -35.028  16.375  -1.762  1.00 20.00     0.007 C 
ENDBRANCH   2   9
TORSDOF 2
ENDMDL
MODEL 5
REMARK VINA RESULT:      -3.7      2.179      3.330
REMARK  2 active torsions:
REMARK  status: ('A' for Active; 'I' for Inactive)
REMARK    1  A    between atoms: C2_2  and  C5_5 
REMARK    2  A    between atoms: C3_3  and  C6_6 
REMARK       I    between atoms: C3_3  and  N9_9 
ROOT
HETATM    1  C4  UNL     1     -35.389  16.624  -1.844  1.00 20.00     0.024 A 
HETATM    2  C5  UNL     1     -33.896  16.676  -2.025  1.00 20.00     0.021 A 
HETATM    3  C6  UNL     1     -34.708  15.642  -2.724  1.00 20.00     0.086 A 
ENDROOT
BRANCH   3   4
HETATM    4  C3  UNL     1     -34.942  15.743  -4.211  1.00 20.00     0.224 C 
HETATM    5  N9  UNL     1     -34.023  15.092  -5.034  1.00 20.00    -0.360 N 
HETATM    6  C7  UNL     1     -34.129  15.108  -6.487  1.00 20.00     0.152 C 
HETATM    7  C8  UNL     1     -32.887  14.345  -4.499  1.00 20.00     0.152 C 
HETATM    8  O10 UNL     1     -35.913  16.383  -4.626  1.00 20.00    -0.273 OA
ENDBRANCH   3   4
BRANCH   2   9
HETATM    9  C2  UNL     1     -33.313  17.807  -2.730  1.00 20.00    -0.031 C 
HETATM   10  C1  UNL     1     -32.352  18.589  -2.226  1.00 20.00     0.007 C 
ENDBRANCH   2   9
TORSDOF 2
ENDMDL
MODEL 6
REMARK VINA RESULT:      -3.7      1.845      2.935
REMARK  2 active torsions:
REMARK  status: ('A' for Active; 'I' for Inactive)
REMARK    1  A    between atoms: C2_2  and  C5_5 
REMARK    2  A    between atoms: C3_3  and  C6_6 
REMARK       I    between atoms: C3_3  and  N9_9 
ROOT
HETATM    1  C4  UNL     1     -34.562  17.070  -1.946  1.00 20.00     0.024 A 
HETATM    2  C5  UNL     1     -34.227  15.730  -2.541  1.00 20.00     0.021 A 
HETATM    3  C6  UNL     1     -35.607  16.281  -2.643  1.00 20.00     0.086 A 
ENDROOT
BRANCH   3   4
HETATM    4  C3  UNL     1     -36.119  16.796  -3.965  1.00 20.00     0.224 C 
HETATM    5  N9  UNL     1     -36.841  15.895  -4.751  1.00 20.00    -0.360 N 
HETATM    6  C7  UNL     1     -37.391  16.261  -6.049  1.00 20.00     0.152 C 
HETATM    7  C8  UNL     1     -37.097  14.522  -4.327  1.00 20.00     0.152 C 
HETATM    8  O10 UNL     1     -35.882  17.963  -4.290  1.00 20.00    -0.273 OA
ENDBRANCH   3   4
BRANCH   2   9
HETATM    9  C2  UNL     1     -33.331  15.673  -3.686  1.00 20.00    -0.031 C 
HETATM   10  C1  UNL     1     -33.120  14.574  -4.417  1.00 20.00     0.007 C 
ENDBRANCH   2   9
TORSDOF 2
ENDMDL
MODEL 7
REMARK VINA RESULT:      -3.6      2.308      3.218
REMARK  2 active torsions:
REMARK  status: ('A' for Active; 'I' for Inactive)
REMARK    1  A    between atoms: C2_2  and  C5_5 
REMARK    2  A    between atoms: C3_3  and  C6_6 
REMARK       I    between atoms: C3_3  and  N9_9 
ROOT
HETATM    1  C4  UNL     1     -36.688  14.293  -4.166  1.00 20.00     0.024 A 
HETATM    2  C5  UNL     1     -35.189  14.306  -4.037  1.00 20.00     0.021 A 
HETATM    3  C6  UNL     1     -35.838  14.527  -5.360  1.00 20.00     0.086 A 
ENDROOT
BRANCH   3   4
HETATM    4  C3  UNL     1     -35.846  15.904  -5.976  1.00 20.00     0.224 C 
HETATM    5  N9  UNL     1     -34.851  16.173  -6.918  1.00 20.00    -0.360 N 
HETATM    6  C7  UNL     1     -34.743  17.462  -7.589  1.00 20.00     0.152 C 
HETATM    7  C8  UNL     1     -33.848  15.184  -7.298  1.00 20.00     0.152 C 
HETATM    8  O10 UNL     1     -36.710  16.714  -5.629  1.00 20.00    -0.273 OA
ENDBRANCH   3   4
BRANCH   2   9
HETATM    9  C2  UNL     1     -34.556  15.387  -3.297  1.00 20.00    -0.031 C 
HETATM   10  C1  UNL     1     -33.272  15.734  -3.431  1.00 20.00     0.007 C 
ENDBRANCH   2   9
TORSDOF 2
ENDMDL
MODEL 8
REMARK VINA RESULT:      -3.6      2.230      3.215
REMARK  2 active torsions:
REMARK  status: ('A' for Active; 'I' for Inactive)
REMARK    1  A    between atoms: C2_2  and  C5_5 
REMARK    2  A    between atoms: C3_3  and  C6_6 
REMARK       I    between atoms: C3_3  and  N9_9 
ROOT
HETATM    1  C4  UNL     1     -32.917  17.466  -2.003  1.00 20.00     0.024 A 
HETATM    2  C5  UNL     1     -33.043  17.786  -3.467  1.00 20.00     0.021 A 
HETATM    3  C6  UNL     1     -33.099  16.375  -2.993  1.00 20.00     0.086 A 
ENDROOT
BRANCH   3   4
HETATM    4  C3  UNL     1     -34.410  15.630  -2.992  1.00 20.00     0.224 C 
HETATM    5  N9  UNL     1     -34.693  14.860  -4.122  1.00 20.00    -0.360 N 
HETATM    6  C7  UNL     1     -35.923  14.090  -4.253  1.00 20.00     0.152 C 
HETATM    7  C8  UNL     1     -33.775  14.769  -5.254  1.00 20.00     0.152 C 
HETATM    8  O10 UNL     1     -35.161  15.731  -2.018  1.00 20.00    -0.273 OA
ENDBRANCH   3   4
BRANCH   2   9
HETATM    9  C2  UNL     1     -34.226  18.492  -3.934  1.00 20.00    -0.031 C 
HETATM   10  C1  UNL     1     -34.572  18.605  -5.220  1.00 20.00     0.007 C 
ENDBRANCH   2   9
TORSDOF 2
ENDMDL
MODEL 9
REMARK VINA RESULT:      -3.6      2.213      3.504
REMARK  2 active torsions:
REMARK  status: ('A' for Active; 'I' for Inactive)
REMARK    1  A    between atoms: C2_2  and  C5_5 
REMARK    2  A    between atoms: C3_3  and  C6_6 
REMARK       I    between atoms: C3_3  and  N9_9 
ROOT
HETATM    1  C4  UNL     1     -33.206  14.595  -4.445  1.00 20.00     0.024 A 
HETATM    2  C5  UNL     1     -34.549  14.205  -3.889  1.00 20.00     0.021 A 
HETATM    3  C6  UNL     1     -33.837  15.409  -3.376  1.00 20.00     0.086 A 
ENDROOT
BRANCH   3   4
HETATM    4  C3  UNL     1     -34.331  16.788  -3.735  1.00 20.00     0.224 C 
HETATM    5  N9  UNL     1     -35.080  17.456  -2.765  1.00 20.00    -0.360 N 
HETATM    6  C7  UNL     1     -35.618  18.793  -2.980  1.00 20.00     0.152 C 
HETATM    7  C8  UNL     1     -35.379  16.864  -1.464  1.00 20.00     0.152 C 
HETATM    8  O10 UNL     1     -34.058  17.256  -4.844  1.00 20.00    -0.273 OA
ENDBRANCH   3   4
BRANCH   2   9
HETATM    9  C2  UNL     1     -35.721  14.307  -4.745  1.00 20.00    -0.031 C 
HETATM   10  C1  UNL     1     -36.980  14.265  -4.298  1.00 20.00     0.007 C 
ENDBRANCH   2   9
TORSDOF 2
ENDMDL
