MODEL 1
REMARK VINA RESULT:      -4.2      0.000      0.000
REMARK  1 active torsions:
REMARK  status: ('A' for Active; 'I' for Inactive)
REMARK    1  A    between atoms: C1_1  and  C3_3 
ROOT
HETATM    1  C1  UNL     1     -35.908  14.864  -3.963  1.00 20.00    -0.007 C 
HETATM    2  C2  UNL     1     -36.765  15.865  -3.717  1.00 20.00    -0.016 C 
HETATM    3  C4  UNL     1     -34.520  15.039  -3.422  1.00 20.00     0.058 C 
HETATM    4  C5  UNL     1     -34.589  16.118  -2.337  1.00 20.00     0.052 C 
HETATM    5  C6  UNL     1     -38.194  16.009  -4.127  1.00 20.00     0.056 C 
HETATM    6  C7  UNL     1     -33.317  16.941  -2.233  1.00 20.00     0.022 C 
HETATM    7  S9  UNL     1     -36.027  17.153  -2.789  1.00 20.00    -0.129 SA
ENDROOT
BRANCH   1   8
HETATM    8  C3  UNL     1     -36.230  13.654  -4.716  1.00 20.00     0.266 C 
HETATM    9  O8  UNL     1     -35.791  12.549  -4.415  1.00 20.00    -0.302 OA
ENDBRANCH   1   8
TORSDOF 1
ENDMDL
MODEL 2
REMARK VINA RESULT:      -4.1     16.283     17.849
REMARK  1 active torsions:
REMARK  status: ('A' for Active; 'I' for Inactive)
REMARK    1  A    between atoms: C1_1  and  C3_3 
ROOT
HETATM    1  C1  UNL     1     -23.236  18.178   8.951  1.00 20.00    -0.007 C 
HETATM    2  C2  UNL     1     -24.308  18.824   8.469  1.00 20.00    -0.016 C 
HETATM    3  C4  UNL     1     -23.243  17.903  10.425  1.00 20.00     0.058 C 
HETATM    4  C5  UNL     1     -24.693  18.036  10.904  1.00 20.00     0.052 C 
HETATM    5  C6  UNL     1     -24.597  19.261   7.070  1.00 20.00     0.056 C 
HETATM    6  C7  UNL     1     -24.803  18.543  12.331  1.00 20.00     0.022 C 
HETATM    7  S9  UNL     1     -25.481  19.182   9.717  1.00 20.00    -0.129 SA
ENDROOT
BRANCH   1   8
HETATM    8  C3  UNL     1     -22.090  17.750   8.153  1.00 20.00     0.266 C 
HETATM    9  O8  UNL     1     -22.037  16.654   7.603  1.00 20.00    -0.302 OA
ENDBRANCH   1   8
TORSDOF 1
ENDMDL
MODEL 3
REMARK VINA RESULT:      -4.0      1.515      1.658
REMARK  1 active torsions:
REMARK  status: ('A' for Active; 'I' for Inactive)
REMARK    1  A    between atoms: C1_1  and  C3_3 
ROOT
HETATM    1  C1  UNL     1     -35.510  14.920  -4.405  1.00 20.00    -0.007 C 
HETATM    2  C2  UNL     1     -35.420  15.847  -5.370  1.00 20.00    -0.016 C 
HETATM    3  C4  UNL     1     -34.730  15.197  -3.154  1.00 20.00     0.058 C 
HETATM    4  C5  UNL     1     -34.403  16.694  -3.146  1.00 20.00     0.052 C 
HETATM    5  C6  UNL     1     -36.049  15.864  -6.724  1.00 20.00     0.056 C 
HETATM    6  C7  UNL     1     -33.080  17.010  -2.469  1.00 20.00     0.022 C 
HETATM    7  S9  UNL     1     -34.395  17.188  -4.906  1.00 20.00    -0.129 SA
ENDROOT
BRANCH   1   8
HETATM    8  C3  UNL     1     -36.289  13.688  -4.499  1.00 20.00     0.266 C 
HETATM    9  O8  UNL     1     -35.772  12.575  -4.499  1.00 20.00    -0.302 OA
ENDBRANCH   1   8
TORSDOF 1
ENDMDL
MODEL 4
REMARK VINA RESULT:      -4.0     17.467     18.565
REMARK  1 active torsions:
REMARK  status: ('A' for Active; 'I' for Inactive)
REMARK    1  A    between atoms: C1_1  and  C3_3 
ROOT
HETATM    1  C1  UNL     1     -23.825  18.603   9.456  1.00 20.00    -0.007 C 
HETATM    2  C2  UNL     1     -22.732  18.129  10.071  1.00 20.00    -0.016 C 
HETATM    3  C4  UNL     1     -25.123  18.415  10.184  1.00 20.00     0.058 C 
HETATM    4  C5  UNL     1     -24.782  18.133  11.652  1.00 20.00     0.052 C 
HETATM    5  C6  UNL     1     -21.311  18.138   9.612  1.00 20.00     0.056 C 
HETATM    6  C7  UNL     1     -25.783  17.214  12.330  1.00 20.00     0.022 C 
HETATM    7  S9  UNL     1     -23.107  17.400  11.617  1.00 20.00    -0.129 SA
ENDROOT
BRANCH   1   8
HETATM    8  C3  UNL     1     -23.831  19.262   8.152  1.00 20.00     0.266 C 
HETATM    9  O8  UNL     1     -23.683  18.650   7.099  1.00 20.00    -0.302 OA
ENDBRANCH   1   8
TORSDOF 1
ENDMDL
MODEL 5
REMARK VINA RESULT:      -3.9      1.450      2.544
REMARK  1 active torsions:
REMARK  status: ('A' for Active; 'I' for Inactive)
REMARK    1  A    between atoms: C1_1  and  C3_3 
ROOT
HETATM    1  C1  UNL     1     -35.325  14.867  -3.885  1.00 20.00    -0.007 C 
HETATM    2  C2  UNL     1     -34.011  15.108  -3.774  1.00 20.00    -0.016 C 
HETATM    3  C4  UNL     1     -36.224  15.726  -3.045  1.00 20.00     0.058 C 
HETATM    4  C5  UNL     1     -35.414  16.957  -2.627  1.00 20.00     0.052 C 
HETATM    5  C6  UNL     1     -32.865  14.428  -4.448  1.00 20.00     0.056 C 
HETATM    6  C7  UNL     1     -35.812  17.498  -1.265  1.00 20.00     0.022 C 
HETATM    7  S9  UNL     1     -33.670  16.409  -2.653  1.00 20.00    -0.129 SA
ENDROOT
BRANCH   1   8
HETATM    8  C3  UNL     1     -35.917  13.842  -4.740  1.00 20.00     0.266 C 
HETATM    9  O8  UNL     1     -35.882  12.647  -4.464  1.00 20.00    -0.302 OA
ENDBRANCH   1   8
TORSDOF 1
ENDMDL
MODEL 6
REMARK VINA RESULT:      -3.8      3.549      5.389
REMARK  1 active torsions:
REMARK  status: ('A' for Active; 'I' for Inactive)
REMARK    1  A    between atoms: C1_1  and  C3_3 
ROOT
HETATM    1  C1  UNL     1     -32.858  18.062  -1.048  1.00 20.00    -0.007 C 
HETATM    2  C2  UNL     1     -33.920  18.119  -0.232  1.00 20.00    -0.016 C 
HETATM    3  C4  UNL     1     -32.976  17.127  -2.215  1.00 20.00     0.058 C 
HETATM    4  C5  UNL     1     -34.467  16.830  -2.409  1.00 20.00     0.052 C 
HETATM    5  C6  UNL     1     -34.113  18.922   1.012  1.00 20.00     0.056 C 
HETATM    6  C7  UNL     1     -34.730  15.436  -2.950  1.00 20.00     0.022 C 
HETATM    7  S9  UNL     1     -35.216  17.066  -0.758  1.00 20.00    -0.129 SA
ENDROOT
BRANCH   1   8
HETATM    8  C3  UNL     1     -31.624  18.823  -0.869  1.00 20.00     0.266 C 
HETATM    9  O8  UNL     1     -30.565  18.302  -0.536  1.00 20.00    -0.302 OA
ENDBRANCH   1   8
TORSDOF 1
ENDMDL
MODEL 7
REMARK VINA RESULT:      -3.8      1.480      2.067
REMARK  1 active torsions:
REMARK  status: ('A' for Active; 'I' for Inactive)
REMARK    1  A    between atoms: C1_1  and  C3_3 
ROOT
HETATM    1  C1  UNL     1     -33.945  15.468  -3.660  1.00 20.00    -0.007 C 
HETATM    2  C2  UNL     1     -35.258  15.517  -3.393  1.00 20.00    -0.016 C 
HETATM    3  C4  UNL     1     -33.091  16.471  -2.942  1.00 20.00     0.058 C 
HETATM    4  C5  UNL     1     -33.902  16.985  -1.748  1.00 20.00     0.052 C 
HETATM    5  C6  UNL     1     -36.366  14.683  -3.948  1.00 20.00     0.056 C 
HETATM    6  C7  UNL     1     -33.593  18.429  -1.396  1.00 20.00     0.022 C 
HETATM    7  S9  UNL     1     -35.651  16.768  -2.234  1.00 20.00    -0.129 SA
ENDROOT
BRANCH   1   8
HETATM    8  C3  UNL     1     -33.315  14.533  -4.588  1.00 20.00     0.266 C 
HETATM    9  O8  UNL     1     -33.130  13.351  -4.316  1.00 20.00    -0.302 OA
ENDBRANCH   1   8
TORSDOF 1
ENDMDL
MODEL 8
REMARK VINA RESULT:      -3.7      2.290      3.054
REMARK  1 active torsions:
REMARK  status: ('A' for Active; 'I' for Inactive)
REMARK    1  A    between atoms: C1_1  and  C3_3 
ROOT
HETATM    1  C1  UNL     1     -35.644  14.872  -4.929  1.00 20.00    -0.007 C 
HETATM    2  C2  UNL     1     -35.042  15.719  -4.082  1.00 20.00    -0.016 C 
HETATM    3  C4  UNL     1     -35.604  15.254  -6.379  1.00 20.00     0.058 C 
HETATM    4  C5  UNL     1     -34.483  16.286  -6.545  1.00 20.00     0.052 C 
HETATM    5  C6  UNL     1     -34.922  15.642  -2.595  1.00 20.00     0.056 C 
HETATM    6  C7  UNL     1     -34.764  17.297  -7.642  1.00 20.00     0.022 C 
HETATM    7  S9  UNL     1     -34.332  17.088  -4.909  1.00 20.00    -0.129 SA
ENDROOT
BRANCH   1   8
HETATM    8  C3  UNL     1     -36.327  13.642  -4.536  1.00 20.00     0.266 C 
HETATM    9  O8  UNL     1     -35.756  12.559  -4.469  1.00 20.00    -0.302 OA
ENDBRANCH   1   8
TORSDOF 1
ENDMDL
MODEL 9
REMARK VINA RESULT:      -3.7     16.254     18.146
REMARK  1 active torsions:
REMARK  status: ('A' for Active; 'I' for Inactive)
REMARK    1  A    between atoms: C1_1  and  C3_3 
ROOT
HETATM    1  C1  UNL     1     -22.959  17.898   9.227  1.00 20.00    -0.007 C 
HETATM    2  C2  UNL     1     -23.423  17.858  10.484  1.00 20.00    -0.016 C 
HETATM    3  C4  UNL     1     -23.894  18.462   8.199  1.00 20.00     0.058 C 
HETATM    4  C5  UNL     1     -24.963  19.263   8.950  1.00 20.00     0.052 C 
HETATM    5  C6  UNL     1     -22.760  17.345  11.720  1.00 20.00     0.056 C 
HETATM    6  C7  UNL     1     -26.315  19.246   8.258  1.00 20.00     0.022 C 
HETATM    7  S9  UNL     1     -25.045  18.503  10.611  1.00 20.00    -0.129 SA
ENDROOT
BRANCH   1   8
HETATM    8  C3  UNL     1     -21.641  17.428   8.807  1.00 20.00     0.266 C 
HETATM    9  O8  UNL     1     -21.449  16.856   7.739  1.00 20.00    -0.302 OA
ENDBRANCH   1   8
TORSDOF 1
ENDMDL
