MODEL 1
REMARK VINA RESULT:      -5.2      0.000      0.000
REMARK  1 active torsions:
REMARK  status: ('A' for Active; 'I' for Inactive)
REMARK    1  A    between atoms: C2_2  and  C9_9 
ROOT
HETATM    1  C1  UNL     1     -35.362  16.150  -5.032  1.00 20.00     0.144 C 
HETATM    2  C3  UNL     1     -35.083  17.435  -4.281  1.00 20.00     0.084 C 
HETATM    3  C4  UNL     1     -32.796  15.473  -3.865  1.00 20.00     0.002 C 
HETATM    4  C5  UNL     1     -33.214  16.500  -2.803  1.00 20.00     0.005 C 
HETATM    5  C6  UNL     1     -33.855  14.391  -4.117  1.00 20.00     0.027 C 
HETATM    6  C7  UNL     1     -35.560  15.642  -2.766  1.00 20.00     0.031 C 
HETATM    7  C8  UNL     1     -34.700  16.900  -2.891  1.00 20.00    -0.006 C 
HETATM    8  C9  UNL     1     -35.287  14.948  -4.104  1.00 20.00     0.097 C 
HETATM    9  O10 UNL     1     -35.604  16.096  -6.231  1.00 20.00    -0.297 OA
ENDROOT
BRANCH   8  10
HETATM   10  C2  UNL     1     -36.305  13.887  -4.371  1.00 20.00     0.234 C 
HETATM   11  O11 UNL     1     -35.981  12.732  -4.629  1.00 20.00    -0.279 OA
HETATM   12 CL12 UNL     1     -37.929  14.497  -4.265  1.00 20.00    -0.043 Cl
ENDBRANCH   8  10
TORSDOF 1
ENDMDL
MODEL 2
REMARK VINA RESULT:      -5.0     18.018     18.941
REMARK  1 active torsions:
REMARK  status: ('A' for Active; 'I' for Inactive)
REMARK    1  A    between atoms: C2_2  and  C9_9 
ROOT
HETATM    1  C1  UNL     1     -22.667  17.783  11.219  1.00 20.00     0.144 C 
HETATM    2  C3  UNL     1     -21.592  17.568  10.176  1.00 20.00     0.084 C 
HETATM    3  C4  UNL     1     -23.841  19.254   9.013  1.00 20.00     0.002 C 
HETATM    4  C5  UNL     1     -22.998  18.293   8.164  1.00 20.00     0.005 C 
HETATM    5  C6  UNL     1     -24.728  18.540  10.043  1.00 20.00     0.027 C 
HETATM    6  C7  UNL     1     -23.578  16.350   9.623  1.00 20.00     0.031 C 
HETATM    7  C8  UNL     1     -22.424  17.110   8.967  1.00 20.00    -0.006 C 
HETATM    8  C9  UNL     1     -24.026  17.341  10.701  1.00 20.00     0.097 C 
HETATM    9  O10 UNL     1     -22.462  18.261  12.327  1.00 20.00    -0.297 OA
ENDROOT
BRANCH   8  10
HETATM   10  C2  UNL     1     -24.894  16.669  11.714  1.00 20.00     0.234 C 
HETATM   11  O11 UNL     1     -24.718  15.500  12.041  1.00 20.00    -0.279 OA
HETATM   12 CL12 UNL     1     -26.123  17.733  12.332  1.00 20.00    -0.043 Cl
ENDBRANCH   8  10
TORSDOF 1
ENDMDL
MODEL 3
REMARK VINA RESULT:      -4.9     17.978     18.971
REMARK  1 active torsions:
REMARK  status: ('A' for Active; 'I' for Inactive)
REMARK    1  A    between atoms: C2_2  and  C9_9 
ROOT
HETATM    1  C1  UNL     1     -22.809  17.832  11.351  1.00 20.00     0.144 C 
HETATM    2  C3  UNL     1     -23.691  18.574  12.332  1.00 20.00     0.084 C 
HETATM    3  C4  UNL     1     -24.776  15.768  11.878  1.00 20.00     0.002 C 
HETATM    4  C5  UNL     1     -25.679  16.967  12.195  1.00 20.00     0.005 C 
HETATM    5  C6  UNL     1     -24.089  15.869  10.508  1.00 20.00     0.027 C 
HETATM    6  C7  UNL     1     -24.812  18.256  10.239  1.00 20.00     0.031 C 
HETATM    7  C8  UNL     1     -25.089  18.316  11.742  1.00 20.00    -0.006 C 
HETATM    8  C9  UNL     1     -23.621  17.296  10.183  1.00 20.00     0.097 C 
HETATM    9  O10 UNL     1     -21.603  17.680  11.494  1.00 20.00    -0.297 OA
ENDROOT
BRANCH   8  10
HETATM   10  C2  UNL     1     -22.937  17.374   8.857  1.00 20.00     0.234 C 
HETATM   11  O11 UNL     1     -22.005  16.630   8.567  1.00 20.00    -0.279 OA
HETATM   12 CL12 UNL     1     -23.620  18.606   7.840  1.00 20.00    -0.043 Cl
ENDBRANCH   8  10
TORSDOF 1
ENDMDL
MODEL 4
REMARK VINA RESULT:      -4.9      1.568      2.816
REMARK  1 active torsions:
REMARK  status: ('A' for Active; 'I' for Inactive)
REMARK    1  A    between atoms: C2_2  and  C9_9 
ROOT
HETATM    1  C1  UNL     1     -35.168  13.921  -4.414  1.00 20.00     0.144 C 
HETATM    2  C3  UNL     1     -33.696  13.939  -4.060  1.00 20.00     0.084 C 
HETATM    3  C4  UNL     1     -35.213  15.890  -2.286  1.00 20.00     0.002 C 
HETATM    4  C5  UNL     1     -33.755  16.113  -2.711  1.00 20.00     0.005 C 
HETATM    5  C6  UNL     1     -36.207  15.970  -3.453  1.00 20.00     0.027 C 
HETATM    6  C7  UNL     1     -34.345  15.978  -5.135  1.00 20.00     0.031 C 
HETATM    7  C8  UNL     1     -33.400  15.448  -4.055  1.00 20.00    -0.006 C 
HETATM    8  C9  UNL     1     -35.669  15.319  -4.737  1.00 20.00     0.097 C 
HETATM    9  O10 UNL     1     -35.858  12.910  -4.424  1.00 20.00    -0.297 OA
ENDROOT
BRANCH   8  10
HETATM   10  C2  UNL     1     -36.655  15.387  -5.857  1.00 20.00     0.234 C 
HETATM   11  O11 UNL     1     -37.850  15.573  -5.654  1.00 20.00    -0.279 OA
HETATM   12 CL12 UNL     1     -35.898  15.179  -7.408  1.00 20.00    -0.043 Cl
ENDBRANCH   8  10
TORSDOF 1
ENDMDL
MODEL 5
REMARK VINA RESULT:      -4.9      0.985      2.458
REMARK  1 active torsions:
REMARK  status: ('A' for Active; 'I' for Inactive)
REMARK    1  A    between atoms: C2_2  and  C9_9 
ROOT
HETATM    1  C1  UNL     1     -34.764  14.000  -4.216  1.00 20.00     0.144 C 
HETATM    2  C3  UNL     1     -33.291  14.349  -4.217  1.00 20.00     0.084 C 
HETATM    3  C4  UNL     1     -34.735  15.953  -2.073  1.00 20.00     0.002 C 
HETATM    4  C5  UNL     1     -33.505  16.483  -2.820  1.00 20.00     0.005 C 
HETATM    5  C6  UNL     1     -35.970  15.789  -2.972  1.00 20.00     0.027 C 
HETATM    6  C7  UNL     1     -34.604  16.173  -5.042  1.00 20.00     0.031 C 
HETATM    7  C8  UNL     1     -33.340  15.886  -4.231  1.00 20.00    -0.006 C 
HETATM    8  C9  UNL     1     -35.620  15.247  -4.367  1.00 20.00     0.097 C 
HETATM    9  O10 UNL     1     -35.198  12.862  -4.099  1.00 20.00    -0.297 OA
ENDROOT
BRANCH   8  10
HETATM   10  C2  UNL     1     -36.833  15.074  -5.222  1.00 20.00     0.234 C 
HETATM   11  O11 UNL     1     -36.788  15.211  -6.440  1.00 20.00    -0.279 OA
HETATM   12 CL12 UNL     1     -38.240  14.668  -4.287  1.00 20.00    -0.043 Cl
ENDBRANCH   8  10
TORSDOF 1
ENDMDL
MODEL 6
REMARK VINA RESULT:      -4.9      2.155      3.512
REMARK  1 active torsions:
REMARK  status: ('A' for Active; 'I' for Inactive)
REMARK    1  A    between atoms: C2_2  and  C9_9 
ROOT
HETATM    1  C1  UNL     1     -36.067  13.874  -4.617  1.00 20.00     0.144 C 
HETATM    2  C3  UNL     1     -37.438  14.512  -4.537  1.00 20.00     0.084 C 
HETATM    3  C4  UNL     1     -36.112  15.232  -7.178  1.00 20.00     0.002 C 
HETATM    4  C5  UNL     1     -37.093  16.167  -6.458  1.00 20.00     0.005 C 
HETATM    5  C6  UNL     1     -34.794  15.030  -6.417  1.00 20.00     0.027 C 
HETATM    6  C7  UNL     1     -35.712  16.164  -4.376  1.00 20.00     0.031 C 
HETATM    7  C8  UNL     1     -37.123  15.965  -4.931  1.00 20.00    -0.006 C 
HETATM    8  C9  UNL     1     -34.996  14.915  -4.898  1.00 20.00     0.097 C 
HETATM    9  O10 UNL     1     -35.861  12.675  -4.482  1.00 20.00    -0.297 OA
ENDROOT
BRANCH   8  10
HETATM   10  C2  UNL     1     -33.707  14.699  -4.174  1.00 20.00     0.234 C 
HETATM   11  O11 UNL     1     -32.954  13.774  -4.460  1.00 20.00    -0.279 OA
HETATM   12 CL12 UNL     1     -33.445  15.889  -2.935  1.00 20.00    -0.043 Cl
ENDBRANCH   8  10
TORSDOF 1
ENDMDL
MODEL 7
REMARK VINA RESULT:      -4.8      1.535      2.949
REMARK  1 active torsions:
REMARK  status: ('A' for Active; 'I' for Inactive)
REMARK    1  A    between atoms: C2_2  and  C9_9 
ROOT
HETATM    1  C1  UNL     1     -36.379  14.198  -4.474  1.00 20.00     0.144 C 
HETATM    2  C3  UNL     1     -35.094  13.548  -4.008  1.00 20.00     0.084 C 
HETATM    3  C4  UNL     1     -35.505  16.192  -2.560  1.00 20.00     0.002 C 
HETATM    4  C5  UNL     1     -34.114  15.631  -2.887  1.00 20.00     0.005 C 
HETATM    5  C6  UNL     1     -36.308  16.595  -3.805  1.00 20.00     0.027 C 
HETATM    6  C7  UNL     1     -34.642  15.496  -5.325  1.00 20.00     0.031 C 
HETATM    7  C8  UNL     1     -34.100  14.716  -4.127  1.00 20.00    -0.006 C 
HETATM    8  C9  UNL     1     -36.127  15.612  -4.971  1.00 20.00     0.097 C 
HETATM    9  O10 UNL     1     -37.474  13.651  -4.440  1.00 20.00    -0.297 OA
ENDROOT
BRANCH   8  10
HETATM   10  C2  UNL     1     -36.931  16.006  -6.168  1.00 20.00     0.234 C 
HETATM   11  O11 UNL     1     -36.789  15.450  -7.252  1.00 20.00    -0.279 OA
HETATM   12 CL12 UNL     1     -38.038  17.298  -5.815  1.00 20.00    -0.043 Cl
ENDBRANCH   8  10
TORSDOF 1
ENDMDL
MODEL 8
REMARK VINA RESULT:      -4.8      1.395      1.749
REMARK  1 active torsions:
REMARK  status: ('A' for Active; 'I' for Inactive)
REMARK    1  A    between atoms: C2_2  and  C9_9 
ROOT
HETATM    1  C1  UNL     1     -35.136  16.721  -4.320  1.00 20.00     0.144 C 
HETATM    2  C3  UNL     1     -35.862  17.661  -3.382  1.00 20.00     0.084 C 
HETATM    3  C4  UNL     1     -32.914  17.533  -2.646  1.00 20.00     0.002 C 
HETATM    4  C5  UNL     1     -34.020  17.770  -1.609  1.00 20.00     0.005 C 
HETATM    5  C6  UNL     1     -32.956  16.132  -3.273  1.00 20.00     0.027 C 
HETATM    6  C7  UNL     1     -35.196  15.660  -2.247  1.00 20.00     0.031 C 
HETATM    7  C8  UNL     1     -35.377  17.161  -2.011  1.00 20.00    -0.006 C 
HETATM    8  C9  UNL     1     -34.388  15.648  -3.547  1.00 20.00     0.097 C 
HETATM    9  O10 UNL     1     -35.148  16.827  -5.540  1.00 20.00    -0.297 OA
ENDROOT
BRANCH   8  10
HETATM   10  C2  UNL     1     -34.412  14.292  -4.176  1.00 20.00     0.234 C 
HETATM   11  O11 UNL     1     -33.381  13.720  -4.514  1.00 20.00    -0.279 OA
HETATM   12 CL12 UNL     1     -36.029  13.679  -4.346  1.00 20.00    -0.043 Cl
ENDBRANCH   8  10
TORSDOF 1
ENDMDL
MODEL 9
REMARK VINA RESULT:      -4.7      1.021      1.090
REMARK  1 active torsions:
REMARK  status: ('A' for Active; 'I' for Inactive)
REMARK    1  A    between atoms: C2_2  and  C9_9 
ROOT
HETATM    1  C1  UNL     1     -35.582  16.197  -5.357  1.00 20.00     0.144 C 
HETATM    2  C3  UNL     1     -34.649  17.297  -4.895  1.00 20.00     0.084 C 
HETATM    3  C4  UNL     1     -33.487  14.580  -4.174  1.00 20.00     0.002 C 
HETATM    4  C5  UNL     1     -33.246  15.838  -3.329  1.00 20.00     0.005 C 
HETATM    5  C6  UNL     1     -34.948  14.108  -4.160  1.00 20.00     0.027 C 
HETATM    6  C7  UNL     1     -35.696  16.219  -3.030  1.00 20.00     0.031 C 
HETATM    7  C8  UNL     1     -34.378  16.877  -3.441  1.00 20.00    -0.006 C 
HETATM    8  C9  UNL     1     -35.948  15.273  -4.208  1.00 20.00     0.097 C 
HETATM    9  O10 UNL     1     -35.975  16.071  -6.510  1.00 20.00    -0.297 OA
ENDROOT
BRANCH   8  10
HETATM   10  C2  UNL     1     -37.365  14.797  -4.214  1.00 20.00     0.234 C 
HETATM   11  O11 UNL     1     -37.649  13.621  -4.415  1.00 20.00    -0.279 OA
HETATM   12 CL12 UNL     1     -38.489  16.087  -3.910  1.00 20.00    -0.043 Cl
ENDBRANCH   8  10
TORSDOF 1
ENDMDL
