MODEL 1
REMARK VINA RESULT:      -4.0      0.000      0.000
REMARK  1 active torsions:
REMARK  status: ('A' for Active; 'I' for Inactive)
REMARK    1  A    between atoms: C1_1  and  C8_8 
REMARK       I    between atoms: C1_1  and  N9_9 
ROOT
HETATM    1  C1  UNL     1     -36.654  15.518  -5.371  1.00 20.00     0.237 C 
HETATM    2  C2  UNL     1     -33.144  16.727  -3.175  1.00 20.00     0.013 A 
HETATM    3  C3  UNL     1     -34.198  15.075  -4.903  1.00 20.00     0.130 A 
HETATM    4  C4  UNL     1     -35.641  15.962  -3.149  1.00 20.00     0.130 A 
HETATM    5  C5  UNL     1     -33.367  15.331  -3.688  1.00 20.00     0.010 A 
HETATM    6  C6  UNL     1     -34.250  15.873  -2.617  1.00 20.00     0.010 A 
HETATM    7  N9  UNL     1     -35.546  15.518  -4.539  1.00 20.00    -0.350 N 
HETATM    8  O10 UNL     1     -36.635  15.136  -6.544  1.00 20.00    -0.272 OA
ENDROOT
BRANCH   1   9
HETATM    9  C8  UNL     1     -37.934  16.022  -4.754  1.00 20.00     0.170 C 
HETATM   10  C7  UNL     1     -38.721  16.832  -5.756  1.00 20.00     0.036 C 
HETATM   11 CL11 UNL     1     -38.834  14.584  -4.245  1.00 20.00    -0.115 Cl
ENDBRANCH   1   9
TORSDOF 1
ENDMDL
MODEL 2
REMARK VINA RESULT:      -3.9      3.927      5.116
REMARK  1 active torsions:
REMARK  status: ('A' for Active; 'I' for Inactive)
REMARK    1  A    between atoms: C1_1  and  C8_8 
REMARK       I    between atoms: C1_1  and  N9_9 
ROOT
HETATM    1  C1  UNL     1     -33.710  17.339  -1.646  1.00 20.00     0.237 C 
HETATM    2  C2  UNL     1     -34.737  15.030  -5.143  1.00 20.00     0.013 A 
HETATM    3  C3  UNL     1     -35.180  15.507  -2.612  1.00 20.00     0.130 A 
HETATM    4  C4  UNL     1     -32.914  15.834  -3.453  1.00 20.00     0.130 A 
HETATM    5  C5  UNL     1     -34.946  14.548  -3.734  1.00 20.00     0.010 A 
HETATM    6  C6  UNL     1     -33.561  14.749  -4.247  1.00 20.00     0.010 A 
HETATM    7  N9  UNL     1     -33.944  16.288  -2.519  1.00 20.00    -0.350 N 
HETATM    8  O10 UNL     1     -34.535  17.750  -0.826  1.00 20.00    -0.272 OA
ENDROOT
BRANCH   1   9
HETATM    9  C8  UNL     1     -32.349  17.980  -1.747  1.00 20.00     0.170 C 
HETATM   10  C7  UNL     1     -32.425  19.263  -2.540  1.00 20.00     0.036 C 
HETATM   11 CL11 UNL     1     -31.826  18.287  -0.082  1.00 20.00    -0.115 Cl
ENDBRANCH   1   9
TORSDOF 1
ENDMDL
MODEL 3
REMARK VINA RESULT:      -3.9      2.294      2.769
REMARK  1 active torsions:
REMARK  status: ('A' for Active; 'I' for Inactive)
REMARK    1  A    between atoms: C1_1  and  C8_8 
REMARK       I    between atoms: C1_1  and  N9_9 
ROOT
HETATM    1  C1  UNL     1     -35.052  15.119  -5.700  1.00 20.00     0.237 C 
HETATM    2  C2  UNL     1     -33.049  16.935  -2.338  1.00 20.00     0.013 A 
HETATM    3  C3  UNL     1     -34.807  15.191  -3.173  1.00 20.00     0.130 A 
HETATM    4  C4  UNL     1     -34.495  17.217  -4.495  1.00 20.00     0.130 A 
HETATM    5  C5  UNL     1     -34.411  16.302  -2.255  1.00 20.00     0.010 A 
HETATM    6  C6  UNL     1     -34.220  17.539  -3.064  1.00 20.00     0.010 A 
HETATM    7  N9  UNL     1     -34.795  15.786  -4.512  1.00 20.00    -0.350 N 
HETATM    8  O10 UNL     1     -35.329  13.920  -5.771  1.00 20.00    -0.272 OA
ENDROOT
BRANCH   1   9
HETATM    9  C8  UNL     1     -34.980  15.961  -6.949  1.00 20.00     0.170 C 
HETATM   10  C7  UNL     1     -33.974  15.385  -7.917  1.00 20.00     0.036 C 
HETATM   11 CL11 UNL     1     -36.611  15.956  -7.641  1.00 20.00    -0.115 Cl
ENDBRANCH   1   9
TORSDOF 1
ENDMDL
MODEL 4
REMARK VINA RESULT:      -3.9     16.760     18.480
REMARK  1 active torsions:
REMARK  status: ('A' for Active; 'I' for Inactive)
REMARK    1  A    between atoms: C1_1  and  C8_8 
REMARK       I    between atoms: C1_1  and  N9_9 
ROOT
HETATM    1  C1  UNL     1     -23.261  17.603   9.707  1.00 20.00     0.237 C 
HETATM    2  C2  UNL     1     -26.190  18.451   6.655  1.00 20.00     0.013 A 
HETATM    3  C3  UNL     1     -23.704  18.650   7.436  1.00 20.00     0.130 A 
HETATM    4  C4  UNL     1     -25.440  18.653   9.149  1.00 20.00     0.130 A 
HETATM    5  C5  UNL     1     -24.940  19.261   6.860  1.00 20.00     0.010 A 
HETATM    6  C6  UNL     1     -26.000  19.263   7.907  1.00 20.00     0.010 A 
HETATM    7  N9  UNL     1     -24.077  18.258   8.798  1.00 20.00    -0.350 N 
HETATM    8  O10 UNL     1     -22.099  17.264   9.471  1.00 20.00    -0.272 OA
ENDROOT
BRANCH   1   9
HETATM    9  C8  UNL     1     -23.882  17.314  11.050  1.00 20.00     0.170 C 
HETATM   10  C7  UNL     1     -24.415  15.902  11.095  1.00 20.00     0.036 C 
HETATM   11 CL11 UNL     1     -22.598  17.552  12.247  1.00 20.00    -0.115 Cl
ENDBRANCH   1   9
TORSDOF 1
ENDMDL
MODEL 5
REMARK VINA RESULT:      -3.9      1.588      1.779
REMARK  1 active torsions:
REMARK  status: ('A' for Active; 'I' for Inactive)
REMARK    1  A    between atoms: C1_1  and  C8_8 
REMARK       I    between atoms: C1_1  and  N9_9 
ROOT
HETATM    1  C1  UNL     1     -38.000  14.877  -4.193  1.00 20.00     0.237 C 
HETATM    2  C2  UNL     1     -33.720  15.177  -4.647  1.00 20.00     0.013 A 
HETATM    3  C3  UNL     1     -35.782  13.639  -4.187  1.00 20.00     0.130 A 
HETATM    4  C4  UNL     1     -35.897  15.956  -3.431  1.00 20.00     0.130 A 
HETATM    5  C5  UNL     1     -34.401  14.099  -3.850  1.00 20.00     0.010 A 
HETATM    6  C6  UNL     1     -34.473  15.514  -3.389  1.00 20.00     0.010 A 
HETATM    7  N9  UNL     1     -36.635  14.810  -3.964  1.00 20.00    -0.350 N 
HETATM    8  O10 UNL     1     -38.673  13.938  -4.622  1.00 20.00    -0.272 OA
ENDROOT
BRANCH   1   9
HETATM    9  C8  UNL     1     -38.649  16.201  -3.880  1.00 20.00     0.170 C 
HETATM   10  C7  UNL     1     -38.846  17.007  -5.142  1.00 20.00     0.036 C 
HETATM   11 CL11 UNL     1     -40.201  15.819  -3.116  1.00 20.00    -0.115 Cl
ENDBRANCH   1   9
TORSDOF 1
ENDMDL
MODEL 6
REMARK VINA RESULT:      -3.9      3.594      4.847
REMARK  1 active torsions:
REMARK  status: ('A' for Active; 'I' for Inactive)
REMARK    1  A    between atoms: C1_1  and  C8_8 
REMARK       I    between atoms: C1_1  and  N9_9 
ROOT
HETATM    1  C1  UNL     1     -34.081  16.524  -2.282  1.00 20.00     0.237 C 
HETATM    2  C2  UNL     1     -31.422  18.411   0.542  1.00 20.00     0.013 A 
HETATM    3  C3  UNL     1     -33.886  17.872  -0.138  1.00 20.00     0.130 A 
HETATM    4  C4  UNL     1     -32.249  18.161  -1.923  1.00 20.00     0.130 A 
HETATM    5  C5  UNL     1     -32.846  18.840   0.322  1.00 20.00     0.010 A 
HETATM    6  C6  UNL     1     -31.846  19.016  -0.768  1.00 20.00     0.010 A 
HETATM    7  N9  UNL     1     -33.451  17.458  -1.475  1.00 20.00    -0.350 N 
HETATM    8  O10 UNL     1     -35.106  15.917  -1.963  1.00 20.00    -0.272 OA
ENDROOT
BRANCH   1   9
HETATM    9  C8  UNL     1     -33.433  16.277  -3.621  1.00 20.00     0.170 C 
HETATM   10  C7  UNL     1     -33.565  14.824  -4.012  1.00 20.00     0.036 C 
HETATM   11 CL11 UNL     1     -34.270  17.329  -4.774  1.00 20.00    -0.115 Cl
ENDBRANCH   1   9
TORSDOF 1
ENDMDL
MODEL 7
REMARK VINA RESULT:      -3.7      2.078      2.545
REMARK  1 active torsions:
REMARK  status: ('A' for Active; 'I' for Inactive)
REMARK    1  A    between atoms: C1_1  and  C8_8 
REMARK       I    between atoms: C1_1  and  N9_9 
ROOT
HETATM    1  C1  UNL     1     -34.358  15.084  -4.810  1.00 20.00     0.237 C 
HETATM    2  C2  UNL     1     -34.100  18.562  -2.272  1.00 20.00     0.013 A 
HETATM    3  C3  UNL     1     -33.037  16.292  -3.009  1.00 20.00     0.130 A 
HETATM    4  C4  UNL     1     -35.466  16.493  -3.092  1.00 20.00     0.130 A 
HETATM    5  C5  UNL     1     -33.473  17.237  -1.937  1.00 20.00     0.010 A 
HETATM    6  C6  UNL     1     -34.958  17.359  -1.989  1.00 20.00     0.010 A 
HETATM    7  N9  UNL     1     -34.270  15.913  -3.704  1.00 20.00    -0.350 N 
HETATM    8  O10 UNL     1     -33.386  14.554  -5.353  1.00 20.00    -0.272 OA
ENDROOT
BRANCH   1   9
HETATM    9  C8  UNL     1     -35.750  14.846  -5.339  1.00 20.00     0.170 C 
HETATM   10  C7  UNL     1     -35.735  14.752  -6.846  1.00 20.00     0.036 C 
HETATM   11 CL11 UNL     1     -36.302  13.330  -4.608  1.00 20.00    -0.115 Cl
ENDBRANCH   1   9
TORSDOF 1
ENDMDL
MODEL 8
REMARK VINA RESULT:      -3.6      1.664      1.933
REMARK  1 active torsions:
REMARK  status: ('A' for Active; 'I' for Inactive)
REMARK    1  A    between atoms: C1_1  and  C8_8 
REMARK       I    between atoms: C1_1  and  N9_9 
ROOT
HETATM    1  C1  UNL     1     -36.081  15.924  -4.693  1.00 20.00     0.237 C 
HETATM    2  C2  UNL     1     -33.490  18.139  -2.049  1.00 20.00     0.013 A 
HETATM    3  C3  UNL     1     -34.091  17.491  -4.508  1.00 20.00     0.130 A 
HETATM    4  C4  UNL     1     -34.527  15.849  -2.758  1.00 20.00     0.130 A 
HETATM    5  C5  UNL     1     -33.083  17.676  -3.420  1.00 20.00     0.010 A 
HETATM    6  C6  UNL     1     -33.351  16.672  -2.352  1.00 20.00     0.010 A 
HETATM    7  N9  UNL     1     -34.963  16.413  -4.035  1.00 20.00    -0.350 N 
HETATM    8  O10 UNL     1     -36.482  16.349  -5.779  1.00 20.00    -0.272 OA
ENDROOT
BRANCH   1   9
HETATM    9  C8  UNL     1     -36.810  14.804  -3.995  1.00 20.00     0.170 C 
HETATM   10  C7  UNL     1     -38.291  14.879  -4.279  1.00 20.00     0.036 C 
HETATM   11 CL11 UNL     1     -36.114  13.299  -4.619  1.00 20.00    -0.115 Cl
ENDBRANCH   1   9
TORSDOF 1
ENDMDL
MODEL 9
REMARK VINA RESULT:      -3.5      4.391      5.545
REMARK  1 active torsions:
REMARK  status: ('A' for Active; 'I' for Inactive)
REMARK    1  A    between atoms: C1_1  and  C8_8 
REMARK       I    between atoms: C1_1  and  N9_9 
ROOT
HETATM    1  C1  UNL     1     -34.849  17.495  -0.420  1.00 20.00     0.237 C 
HETATM    2  C2  UNL     1     -30.747  18.162   0.735  1.00 20.00     0.013 A 
HETATM    3  C3  UNL     1     -33.273  18.373   1.368  1.00 20.00     0.130 A 
HETATM    4  C4  UNL     1     -32.671  18.542  -0.990  1.00 20.00     0.130 A 
HETATM    5  C5  UNL     1     -31.904  18.962   1.267  1.00 20.00     0.010 A 
HETATM    6  C6  UNL     1     -31.537  19.064  -0.173  1.00 20.00     0.010 A 
HETATM    7  N9  UNL     1     -33.667  18.094  -0.016  1.00 20.00    -0.350 N 
HETATM    8  O10 UNL     1     -35.730  17.117   0.356  1.00 20.00    -0.272 OA
ENDROOT
BRANCH   1   9
HETATM    9  C8  UNL     1     -35.018  17.323  -1.908  1.00 20.00     0.170 C 
HETATM   10  C7  UNL     1     -34.876  15.869  -2.292  1.00 20.00     0.036 C 
HETATM   11 CL11 UNL     1     -36.637  17.931  -2.293  1.00 20.00    -0.115 Cl
ENDBRANCH   1   9
TORSDOF 1
ENDMDL
