MODEL 1
REMARK VINA RESULT:      -5.0      0.000      0.000
REMARK  1 active torsions:
REMARK  status: ('A' for Active; 'I' for Inactive)
REMARK    1  A    between atoms: C2_2  and  C3_3 
ROOT
HETATM    1  C1  UNL     1     -33.865   6.598   4.618  1.00 20.00     0.011 C 
HETATM    2  C2  UNL     1     -33.271   6.320   3.449  1.00 20.00     0.004 C 
HETATM    3  C4  UNL     1     -34.818   5.628   5.254  1.00 20.00     0.195 C 
HETATM    4  C5  UNL     1     -33.496   5.026   2.734  1.00 20.00     0.069 C 
HETATM    5  C6  UNL     1     -34.127   3.998   3.671  1.00 20.00     0.172 C 
HETATM    6  O8  UNL     1     -35.232   4.589   4.358  1.00 20.00    -0.387 OA
ENDROOT
BRANCH   2   7
HETATM    7  C3  UNL     1     -32.356   7.308   2.876  1.00 20.00     0.248 C 
HETATM    8  O7  UNL     1     -31.386   7.686   3.542  1.00 20.00    -0.274 OA
HETATM    9 CL9  UNL     1     -32.718   7.889   1.264  1.00 20.00    -0.039 Cl
ENDBRANCH   2   7
TORSDOF 1
ENDMDL
MODEL 2
REMARK VINA RESULT:      -4.7      0.455      1.663
REMARK  1 active torsions:
REMARK  status: ('A' for Active; 'I' for Inactive)
REMARK    1  A    between atoms: C2_2  and  C3_3 
ROOT
HETATM    1  C1  UNL     1     -33.184   5.059   2.654  1.00 20.00     0.011 C 
HETATM    2  C2  UNL     1     -33.205   6.242   3.284  1.00 20.00     0.004 C 
HETATM    3  C4  UNL     1     -34.047   3.920   3.115  1.00 20.00     0.195 C 
HETATM    4  C5  UNL     1     -34.104   6.503   4.450  1.00 20.00     0.069 C 
HETATM    5  C6  UNL     1     -35.194   5.437   4.537  1.00 20.00     0.172 C 
HETATM    6  O8  UNL     1     -34.608   4.139   4.415  1.00 20.00    -0.387 OA
ENDROOT
BRANCH   2   7
HETATM    7  C3  UNL     1     -32.337   7.313   2.792  1.00 20.00     0.248 C 
HETATM    8  O7  UNL     1     -31.413   7.714   3.507  1.00 20.00    -0.274 OA
HETATM    9 CL9  UNL     1     -32.688   7.953   1.200  1.00 20.00    -0.039 Cl
ENDBRANCH   2   7
TORSDOF 1
ENDMDL
MODEL 3
REMARK VINA RESULT:      -4.5      1.763      2.046
REMARK  1 active torsions:
REMARK  status: ('A' for Active; 'I' for Inactive)
REMARK    1  A    between atoms: C2_2  and  C3_3 
ROOT
HETATM    1  C1  UNL     1     -33.347   6.868   4.694  1.00 20.00     0.011 C 
HETATM    2  C2  UNL     1     -33.705   5.869   3.876  1.00 20.00     0.004 C 
HETATM    3  C4  UNL     1     -33.898   6.965   6.088  1.00 20.00     0.195 C 
HETATM    4  C5  UNL     1     -34.640   4.785   4.311  1.00 20.00     0.069 C 
HETATM    5  C6  UNL     1     -34.779   4.775   5.832  1.00 20.00     0.172 C 
HETATM    6  O8  UNL     1     -35.022   6.102   6.301  1.00 20.00    -0.387 OA
ENDROOT
BRANCH   2   7
HETATM    7  C3  UNL     1     -33.139   5.831   2.527  1.00 20.00     0.248 C 
HETATM    8  O7  UNL     1     -33.103   4.755   1.920  1.00 20.00    -0.274 OA
HETATM    9 CL9  UNL     1     -32.544   7.342   1.870  1.00 20.00    -0.039 Cl
ENDBRANCH   2   7
TORSDOF 1
ENDMDL
MODEL 4
REMARK VINA RESULT:      -4.4     16.530     16.919
REMARK  1 active torsions:
REMARK  status: ('A' for Active; 'I' for Inactive)
REMARK    1  A    between atoms: C2_2  and  C3_3 
ROOT
HETATM    1  C1  UNL     1     -22.308  17.092   9.318  1.00 20.00     0.011 C 
HETATM    2  C2  UNL     1     -23.338  17.453  10.097  1.00 20.00     0.004 C 
HETATM    3  C4  UNL     1     -22.162  17.633   7.925  1.00 20.00     0.195 C 
HETATM    4  C5  UNL     1     -24.372  18.432   9.639  1.00 20.00     0.069 C 
HETATM    5  C6  UNL     1     -23.881  19.197   8.412  1.00 20.00     0.172 C 
HETATM    6  O8  UNL     1     -23.351  18.280   7.454  1.00 20.00    -0.387 OA
ENDROOT
BRANCH   2   7
HETATM    7  C3  UNL     1     -23.429  16.888  11.443  1.00 20.00     0.248 C 
HETATM    8  O7  UNL     1     -22.673  17.310  12.325  1.00 20.00    -0.274 OA
HETATM    9 CL9  UNL     1     -24.624  15.633  11.701  1.00 20.00    -0.039 Cl
ENDBRANCH   2   7
TORSDOF 1
ENDMDL
MODEL 5
REMARK VINA RESULT:      -4.3     11.492     12.007
REMARK  1 active torsions:
REMARK  status: ('A' for Active; 'I' for Inactive)
REMARK    1  A    between atoms: C2_2  and  C3_3 
ROOT
HETATM    1  C1  UNL     1     -35.688  15.771  -2.980  1.00 20.00     0.011 C 
HETATM    2  C2  UNL     1     -35.273  14.752  -3.745  1.00 20.00     0.004 C 
HETATM    3  C4  UNL     1     -34.710  16.741  -2.381  1.00 20.00     0.195 C 
HETATM    4  C5  UNL     1     -33.828  14.543  -4.070  1.00 20.00     0.069 C 
HETATM    5  C6  UNL     1     -33.021  15.802  -3.761  1.00 20.00     0.172 C 
HETATM    6  O8  UNL     1     -33.355  16.279  -2.457  1.00 20.00    -0.387 OA
ENDROOT
BRANCH   2   7
HETATM    7  C3  UNL     1     -36.273  13.837  -4.296  1.00 20.00     0.248 C 
HETATM    8  O7  UNL     1     -35.916  12.720  -4.686  1.00 20.00    -0.274 OA
HETATM    9 CL9  UNL     1     -37.926  14.411  -4.362  1.00 20.00    -0.039 Cl
ENDBRANCH   2   7
TORSDOF 1
ENDMDL
MODEL 6
REMARK VINA RESULT:      -4.3     11.162     12.006
REMARK  1 active torsions:
REMARK  status: ('A' for Active; 'I' for Inactive)
REMARK    1  A    between atoms: C2_2  and  C3_3 
ROOT
HETATM    1  C1  UNL     1     -35.227  15.884  -2.178  1.00 20.00     0.011 C 
HETATM    2  C2  UNL     1     -34.423  15.350  -3.109  1.00 20.00     0.004 C 
HETATM    3  C4  UNL     1     -34.807  17.091  -1.391  1.00 20.00     0.195 C 
HETATM    4  C5  UNL     1     -33.088  15.940  -3.435  1.00 20.00     0.069 C 
HETATM    5  C6  UNL     1     -32.979  17.359  -2.883  1.00 20.00     0.172 C 
HETATM    6  O8  UNL     1     -33.409  17.379  -1.520  1.00 20.00    -0.387 OA
ENDROOT
BRANCH   2   7
HETATM    7  C3  UNL     1     -34.885  14.170  -3.840  1.00 20.00     0.248 C 
HETATM    8  O7  UNL     1     -34.072  13.285  -4.129  1.00 20.00    -0.274 OA
HETATM    9 CL9  UNL     1     -36.585  14.107  -4.258  1.00 20.00    -0.039 Cl
ENDBRANCH   2   7
TORSDOF 1
ENDMDL
MODEL 7
REMARK VINA RESULT:      -4.2     11.401     12.124
REMARK  1 active torsions:
REMARK  status: ('A' for Active; 'I' for Inactive)
REMARK    1  A    between atoms: C2_2  and  C3_3 
ROOT
HETATM    1  C1  UNL     1     -33.068  16.203  -3.194  1.00 20.00     0.011 C 
HETATM    2  C2  UNL     1     -34.218  15.514  -3.197  1.00 20.00     0.004 C 
HETATM    3  C4  UNL     1     -32.900  17.430  -2.346  1.00 20.00     0.195 C 
HETATM    4  C5  UNL     1     -35.378  15.907  -2.338  1.00 20.00     0.069 C 
HETATM    5  C6  UNL     1     -34.935  16.883  -1.251  1.00 20.00     0.172 C 
HETATM    6  O8  UNL     1     -34.144  17.922  -1.830  1.00 20.00    -0.387 OA
ENDROOT
BRANCH   2   7
HETATM    7  C3  UNL     1     -34.322  14.329  -4.048  1.00 20.00     0.248 C 
HETATM    8  O7  UNL     1     -33.293  13.841  -4.528  1.00 20.00    -0.274 OA
HETATM    9 CL9  UNL     1     -35.927  13.686  -4.325  1.00 20.00    -0.039 Cl
ENDBRANCH   2   7
TORSDOF 1
ENDMDL
MODEL 8
REMARK VINA RESULT:      -4.1      1.736      2.350
REMARK  1 active torsions:
REMARK  status: ('A' for Active; 'I' for Inactive)
REMARK    1  A    between atoms: C2_2  and  C3_3 
ROOT
HETATM    1  C1  UNL     1     -34.606   5.011   4.081  1.00 20.00     0.011 C 
HETATM    2  C2  UNL     1     -33.651   5.906   3.794  1.00 20.00     0.004 C 
HETATM    3  C4  UNL     1     -35.239   4.960   5.441  1.00 20.00     0.195 C 
HETATM    4  C5  UNL     1     -33.187   6.917   4.794  1.00 20.00     0.069 C 
HETATM    5  C6  UNL     1     -34.180   7.024   5.950  1.00 20.00     0.172 C 
HETATM    6  O8  UNL     1     -34.513   5.716   6.419  1.00 20.00    -0.387 OA
ENDROOT
BRANCH   2   7
HETATM    7  C3  UNL     1     -33.068   5.904   2.452  1.00 20.00     0.248 C 
HETATM    8  O7  UNL     1     -33.014   4.841   1.823  1.00 20.00    -0.274 OA
HETATM    9 CL9  UNL     1     -32.483   7.434   1.835  1.00 20.00    -0.039 Cl
ENDBRANCH   2   7
TORSDOF 1
ENDMDL
MODEL 9
REMARK VINA RESULT:      -4.1     16.472     16.808
REMARK  1 active torsions:
REMARK  status: ('A' for Active; 'I' for Inactive)
REMARK    1  A    between atoms: C2_2  and  C3_3 
ROOT
HETATM    1  C1  UNL     1     -24.835  18.424  10.338  1.00 20.00     0.011 C 
HETATM    2  C2  UNL     1     -23.757  18.153   9.589  1.00 20.00     0.004 C 
HETATM    3  C4  UNL     1     -24.859  18.114  11.806  1.00 20.00     0.195 C 
HETATM    4  C5  UNL     1     -22.515  17.560  10.176  1.00 20.00     0.069 C 
HETATM    5  C6  UNL     1     -22.525  17.690  11.698  1.00 20.00     0.172 C 
HETATM    6  O8  UNL     1     -23.786  17.253  12.209  1.00 20.00    -0.387 OA
ENDROOT
BRANCH   2   7
HETATM    7  C3  UNL     1     -23.796  18.474   8.162  1.00 20.00     0.248 C 
HETATM    8  O7  UNL     1     -22.825  18.182   7.455  1.00 20.00    -0.274 OA
HETATM    9 CL9  UNL     1     -25.239  19.262   7.562  1.00 20.00    -0.039 Cl
ENDBRANCH   2   7
TORSDOF 1
ENDMDL
