MODEL 1
REMARK VINA RESULT:      -4.2      0.000      0.000
REMARK  1 active torsions:
REMARK  status: ('A' for Active; 'I' for Inactive)
REMARK    1  A    between atoms: C2_2  and  C6_6 
ROOT
HETATM    1  C1  UNL     1     -35.229  17.817  -2.660  1.00 20.00     0.074 C 
HETATM    2  C3  UNL     1     -34.041  15.666  -2.980  1.00 20.00     0.031 C 
HETATM    3  C4  UNL     1     -33.761  14.695  -4.123  1.00 20.00     0.025 C 
HETATM    4  C5  UNL     1     -34.523  16.965  -3.617  1.00 20.00     0.154 C 
HETATM    5  C6  UNL     1     -34.964  14.728  -5.055  1.00 20.00     0.117 C 
HETATM    6  N8  UNL     1     -35.788  18.493  -1.902  1.00 20.00    -0.196 NA
HETATM    7  S10 UNL     1     -35.596  16.426  -4.985  1.00 20.00    -0.137 SA
ENDROOT
BRANCH   5   8
HETATM    8  C2  UNL     1     -36.053  13.807  -4.610  1.00 20.00     0.136 C 
HETATM    9  C7  UNL     1     -37.390  14.432  -4.317  1.00 20.00     0.092 C 
HETATM   10  O9  UNL     1     -35.866  12.597  -4.492  1.00 20.00    -0.297 OA
ENDBRANCH   5   8
TORSDOF 1
ENDMDL
MODEL 2
REMARK VINA RESULT:      -4.1     16.950     17.969
REMARK  1 active torsions:
REMARK  status: ('A' for Active; 'I' for Inactive)
REMARK    1  A    between atoms: C2_2  and  C6_6 
ROOT
HETATM    1  C1  UNL     1     -24.363  16.416  11.478  1.00 20.00     0.074 C 
HETATM    2  C3  UNL     1     -22.630  17.166   9.874  1.00 20.00     0.031 C 
HETATM    3  C4  UNL     1     -22.224  18.463   9.180  1.00 20.00     0.025 C 
HETATM    4  C5  UNL     1     -23.567  17.552  11.012  1.00 20.00     0.154 C 
HETATM    5  C6  UNL     1     -23.495  19.263   8.931  1.00 20.00     0.117 C 
HETATM    6  N8  UNL     1     -24.994  15.516  11.848  1.00 20.00    -0.196 NA
HETATM    7  S10 UNL     1     -24.600  18.879  10.317  1.00 20.00    -0.137 SA
ENDROOT
BRANCH   5   8
HETATM    8  C2  UNL     1     -24.180  18.863   7.665  1.00 20.00     0.136 C 
HETATM    9  C7  UNL     1     -25.684  18.886   7.673  1.00 20.00     0.092 C 
HETATM   10  O9  UNL     1     -23.545  18.533   6.665  1.00 20.00    -0.297 OA
ENDBRANCH   5   8
TORSDOF 1
ENDMDL
MODEL 3
REMARK VINA RESULT:      -4.0      2.733      3.987
REMARK  1 active torsions:
REMARK  status: ('A' for Active; 'I' for Inactive)
REMARK    1  A    between atoms: C2_2  and  C6_6 
ROOT
HETATM    1  C1  UNL     1     -37.146  14.421  -4.634  1.00 20.00     0.074 C 
HETATM    2  C3  UNL     1     -35.798  16.482  -4.908  1.00 20.00     0.031 C 
HETATM    3  C4  UNL     1     -34.327  16.881  -4.849  1.00 20.00     0.025 C 
HETATM    4  C5  UNL     1     -35.837  14.961  -5.003  1.00 20.00     0.154 C 
HETATM    5  C6  UNL     1     -33.657  15.999  -3.805  1.00 20.00     0.117 C 
HETATM    6  N8  UNL     1     -38.183  13.992  -4.341  1.00 20.00    -0.196 NA
HETATM    7  S10 UNL     1     -34.518  14.405  -3.879  1.00 20.00    -0.137 SA
ENDROOT
BRANCH   5   8
HETATM    8  C2  UNL     1     -33.805  16.544  -2.422  1.00 20.00     0.136 C 
HETATM    9  C7  UNL     1     -32.788  17.564  -1.984  1.00 20.00     0.092 C 
HETATM   10  O9  UNL     1     -34.714  16.180  -1.678  1.00 20.00    -0.297 OA
ENDBRANCH   5   8
TORSDOF 1
ENDMDL
MODEL 4
REMARK VINA RESULT:      -3.9      3.001      4.016
REMARK  1 active torsions:
REMARK  status: ('A' for Active; 'I' for Inactive)
REMARK    1  A    between atoms: C2_2  and  C6_6 
ROOT
HETATM    1  C1  UNL     1     -36.423  14.140  -4.158  1.00 20.00     0.074 C 
HETATM    2  C3  UNL     1     -34.071  14.742  -4.653  1.00 20.00     0.031 C 
HETATM    3  C4  UNL     1     -32.907  15.416  -3.934  1.00 20.00     0.025 C 
HETATM    4  C5  UNL     1     -35.100  14.387  -3.585  1.00 20.00     0.154 C 
HETATM    5  C6  UNL     1     -33.494  16.473  -3.009  1.00 20.00     0.117 C 
HETATM    6  N8  UNL     1     -37.473  13.944  -4.611  1.00 20.00    -0.196 NA
HETATM    7  S10 UNL     1     -35.091  15.815  -2.457  1.00 20.00    -0.137 SA
ENDROOT
BRANCH   5   8
HETATM    8  C2  UNL     1     -33.741  17.769  -3.710  1.00 20.00     0.136 C 
HETATM    9  C7  UNL     1     -35.178  18.169  -3.907  1.00 20.00     0.092 C 
HETATM   10  O9  UNL     1     -32.815  18.475  -4.106  1.00 20.00    -0.297 OA
ENDBRANCH   5   8
TORSDOF 1
ENDMDL
MODEL 5
REMARK VINA RESULT:      -3.8      1.617      1.857
REMARK  1 active torsions:
REMARK  status: ('A' for Active; 'I' for Inactive)
REMARK    1  A    between atoms: C2_2  and  C6_6 
ROOT
HETATM    1  C1  UNL     1     -33.573  17.079  -3.788  1.00 20.00     0.074 C 
HETATM    2  C3  UNL     1     -34.457  14.808  -3.340  1.00 20.00     0.031 C 
HETATM    3  C4  UNL     1     -35.152  13.697  -4.122  1.00 20.00     0.025 C 
HETATM    4  C5  UNL     1     -33.879  15.772  -4.370  1.00 20.00     0.154 C 
HETATM    5  C6  UNL     1     -36.030  14.360  -5.173  1.00 20.00     0.117 C 
HETATM    6  N8  UNL     1     -33.331  18.115  -3.326  1.00 20.00    -0.196 NA
HETATM    7  S10 UNL     1     -35.158  15.873  -5.661  1.00 20.00    -0.137 SA
ENDROOT
BRANCH   5   8
HETATM    8  C2  UNL     1     -37.369  14.747  -4.635  1.00 20.00     0.136 C 
HETATM    9  C7  UNL     1     -37.642  16.220  -4.494  1.00 20.00     0.092 C 
HETATM   10  O9  UNL     1     -38.207  13.902  -4.325  1.00 20.00    -0.297 OA
ENDBRANCH   5   8
TORSDOF 1
ENDMDL
MODEL 6
REMARK VINA RESULT:      -3.7      2.766      3.437
REMARK  1 active torsions:
REMARK  status: ('A' for Active; 'I' for Inactive)
REMARK    1  A    between atoms: C2_2  and  C6_6 
ROOT
HETATM    1  C1  UNL     1     -37.857  14.576  -4.211  1.00 20.00     0.074 C 
HETATM    2  C3  UNL     1     -35.443  14.020  -4.280  1.00 20.00     0.031 C 
HETATM    3  C4  UNL     1     -34.128  14.747  -4.542  1.00 20.00     0.025 C 
HETATM    4  C5  UNL     1     -36.499  15.094  -4.045  1.00 20.00     0.154 C 
HETATM    5  C6  UNL     1     -34.405  15.833  -5.572  1.00 20.00     0.117 C 
HETATM    6  N8  UNL     1     -38.933  14.165  -4.344  1.00 20.00    -0.196 NA
HETATM    7  S10 UNL     1     -36.100  16.391  -5.257  1.00 20.00    -0.137 SA
ENDROOT
BRANCH   5   8
HETATM    8  C2  UNL     1     -34.337  15.317  -6.973  1.00 20.00     0.136 C 
HETATM    9  C7  UNL     1     -35.593  15.424  -7.795  1.00 20.00     0.092 C 
HETATM   10  O9  UNL     1     -33.305  14.832  -7.433  1.00 20.00    -0.297 OA
ENDBRANCH   5   8
TORSDOF 1
ENDMDL
MODEL 7
REMARK VINA RESULT:      -3.6      2.051      2.666
REMARK  1 active torsions:
REMARK  status: ('A' for Active; 'I' for Inactive)
REMARK    1  A    between atoms: C2_2  and  C6_6 
ROOT
HETATM    1  C1  UNL     1     -33.615  16.555  -2.540  1.00 20.00     0.074 C 
HETATM    2  C3  UNL     1     -35.916  16.093  -3.332  1.00 20.00     0.031 C 
HETATM    3  C4  UNL     1     -36.672  14.937  -3.982  1.00 20.00     0.025 C 
HETATM    4  C5  UNL     1     -34.612  15.515  -2.794  1.00 20.00     0.154 C 
HETATM    5  C6  UNL     1     -35.691  14.203  -4.885  1.00 20.00     0.117 C 
HETATM    6  N8  UNL     1     -32.823  17.379  -2.340  1.00 20.00    -0.196 NA
HETATM    7  S10 UNL     1     -34.076  14.340  -4.075  1.00 20.00    -0.137 SA
ENDROOT
BRANCH   5   8
HETATM    8  C2  UNL     1     -35.588  14.826  -6.239  1.00 20.00     0.136 C 
HETATM    9  C7  UNL     1     -34.201  15.067  -6.769  1.00 20.00     0.092 C 
HETATM   10  O9  UNL     1     -36.588  15.126  -6.889  1.00 20.00    -0.297 OA
ENDBRANCH   5   8
TORSDOF 1
ENDMDL
MODEL 8
REMARK VINA RESULT:      -3.6      3.043      4.331
REMARK  1 active torsions:
REMARK  status: ('A' for Active; 'I' for Inactive)
REMARK    1  A    between atoms: C2_2  and  C6_6 
ROOT
HETATM    1  C1  UNL     1     -36.010  14.567  -5.244  1.00 20.00     0.074 C 
HETATM    2  C3  UNL     1     -34.831  15.053  -3.119  1.00 20.00     0.031 C 
HETATM    3  C4  UNL     1     -34.780  16.181  -2.093  1.00 20.00     0.025 C 
HETATM    4  C5  UNL     1     -36.068  15.296  -3.977  1.00 20.00     0.154 C 
HETATM    5  C6  UNL     1     -34.986  17.489  -2.844  1.00 20.00     0.117 C 
HETATM    6  N8  UNL     1     -35.964  13.989  -6.248  1.00 20.00    -0.196 NA
HETATM    7  S10 UNL     1     -36.102  17.099  -4.218  1.00 20.00    -0.137 SA
ENDROOT
BRANCH   5   8
HETATM    8  C2  UNL     1     -33.713  18.023  -3.416  1.00 20.00     0.136 C 
HETATM    9  C7  UNL     1     -32.592  18.282  -2.446  1.00 20.00     0.092 C 
HETATM   10  O9  UNL     1     -33.586  18.238  -4.620  1.00 20.00    -0.297 OA
ENDBRANCH   5   8
TORSDOF 1
ENDMDL
MODEL 9
REMARK VINA RESULT:      -3.6      2.852      3.717
REMARK  1 active torsions:
REMARK  status: ('A' for Active; 'I' for Inactive)
REMARK    1  A    between atoms: C2_2  and  C6_6 
ROOT
HETATM    1  C1  UNL     1     -36.526  15.515  -6.651  1.00 20.00     0.074 C 
HETATM    2  C3  UNL     1     -34.156  15.221  -5.989  1.00 20.00     0.031 C 
HETATM    3  C4  UNL     1     -33.376  14.518  -4.882  1.00 20.00     0.025 C 
HETATM    4  C5  UNL     1     -35.570  14.650  -5.960  1.00 20.00     0.154 C 
HETATM    5  C6  UNL     1     -34.230  14.565  -3.623  1.00 20.00     0.117 C 
HETATM    6  N8  UNL     1     -37.284  16.201  -7.200  1.00 20.00    -0.196 NA
HETATM    7  S10 UNL     1     -35.950  14.477  -4.189  1.00 20.00    -0.137 SA
ENDROOT
BRANCH   5   8
HETATM    8  C2  UNL     1     -34.054  15.839  -2.864  1.00 20.00     0.136 C 
HETATM    9  C7  UNL     1     -35.190  16.258  -1.971  1.00 20.00     0.092 C 
HETATM   10  O9  UNL     1     -33.029  16.512  -2.962  1.00 20.00    -0.297 OA
ENDBRANCH   5   8
TORSDOF 1
ENDMDL
