MODEL 1
REMARK VINA RESULT:      -6.0      0.000      0.000
REMARK  1 active torsions:
REMARK  status: ('A' for Active; 'I' for Inactive)
REMARK    1  A    between atoms: C8_8  and  C9_9 
ROOT
HETATM    1  C1  UNL     1     -34.563   4.572   4.086  1.00 20.00     0.008 A 
HETATM    2  C2  UNL     1     -33.366   5.838   2.257  1.00 20.00     0.026 A 
HETATM    3  C3  UNL     1     -32.683   7.721   3.398  1.00 20.00     0.026 A 
HETATM    4  C4  UNL     1     -34.885   4.657   5.389  1.00 20.00    -0.022 A 
HETATM    5  C5  UNL     1     -33.721   6.929   5.566  1.00 20.00    -0.011 A 
HETATM    6  C6  UNL     1     -33.820   5.654   3.508  1.00 20.00    -0.026 A 
HETATM    7  C7  UNL     1     -33.407   6.827   4.268  1.00 20.00    -0.029 A 
HETATM    8  C8  UNL     1     -32.668   7.114   2.200  1.00 20.00     0.003 A 
HETATM    9  C10 UNL     1     -34.504   5.837   6.270  1.00 20.00     0.055 A 
ENDROOT
BRANCH   8  10
HETATM   10  C9  UNL     1     -32.035   7.666   1.014  1.00 20.00     0.269 C 
HETATM   11  O11 UNL     1     -32.564   8.530   0.312  1.00 20.00    -0.301 OA
ENDBRANCH   8  10
TORSDOF 1
ENDMDL
MODEL 2
REMARK VINA RESULT:      -6.0      0.116      1.820
REMARK  1 active torsions:
REMARK  status: ('A' for Active; 'I' for Inactive)
REMARK    1  A    between atoms: C8_8  and  C9_9 
ROOT
HETATM    1  C1  UNL     1     -33.763   6.934   5.746  1.00 20.00     0.008 A 
HETATM    2  C2  UNL     1     -32.748   7.646   3.545  1.00 20.00     0.026 A 
HETATM    3  C3  UNL     1     -33.340   5.874   2.194  1.00 20.00     0.026 A 
HETATM    4  C4  UNL     1     -34.472   5.939   6.306  1.00 20.00    -0.022 A 
HETATM    5  C5  UNL     1     -34.533   4.680   4.078  1.00 20.00    -0.011 A 
HETATM    6  C6  UNL     1     -33.432   6.820   4.355  1.00 20.00    -0.026 A 
HETATM    7  C7  UNL     1     -33.828   5.682   3.536  1.00 20.00    -0.029 A 
HETATM    8  C8  UNL     1     -32.697   7.054   2.216  1.00 20.00     0.003 A 
HETATM    9  C10 UNL     1     -34.934   4.707   5.541  1.00 20.00     0.055 A 
ENDROOT
BRANCH   8  10
HETATM   10  C9  UNL     1     -32.043   7.649   1.062  1.00 20.00     0.269 C 
HETATM   11  O11 UNL     1     -32.557   8.538   0.384  1.00 20.00    -0.301 OA
ENDBRANCH   8  10
TORSDOF 1
ENDMDL
MODEL 3
REMARK VINA RESULT:      -5.5     11.234     11.786
REMARK  1 active torsions:
REMARK  status: ('A' for Active; 'I' for Inactive)
REMARK    1  A    between atoms: C8_8  and  C9_9 
ROOT
HETATM    1  C1  UNL     1     -35.076  17.133  -1.026  1.00 20.00     0.008 A 
HETATM    2  C2  UNL     1     -35.821  15.405  -2.712  1.00 20.00     0.026 A 
HETATM    3  C3  UNL     1     -33.925  15.210  -4.009  1.00 20.00     0.026 A 
HETATM    4  C4  UNL     1     -34.016  17.890  -0.692  1.00 20.00    -0.022 A 
HETATM    5  C5  UNL     1     -32.662  16.917  -2.633  1.00 20.00    -0.011 A 
HETATM    6  C6  UNL     1     -34.945  16.262  -2.158  1.00 20.00    -0.026 A 
HETATM    7  C7  UNL     1     -33.727  16.169  -2.951  1.00 20.00    -0.029 A 
HETATM    8  C8  UNL     1     -35.182  14.763  -3.851  1.00 20.00     0.003 A 
HETATM    9  C10 UNL     1     -32.699  17.869  -1.452  1.00 20.00     0.055 A 
ENDROOT
BRANCH   8  10
HETATM   10  C9  UNL     1     -35.808  13.771  -4.709  1.00 20.00     0.269 C 
HETATM   11  O11 UNL     1     -35.783  12.563  -4.468  1.00 20.00    -0.301 OA
ENDBRANCH   8  10
TORSDOF 1
ENDMDL
MODEL 4
REMARK VINA RESULT:      -5.4     11.084     11.857
REMARK  1 active torsions:
REMARK  status: ('A' for Active; 'I' for Inactive)
REMARK    1  A    between atoms: C8_8  and  C9_9 
ROOT
HETATM    1  C1  UNL     1     -35.025  17.412  -0.474  1.00 20.00     0.008 A 
HETATM    2  C2  UNL     1     -35.145  15.672  -2.302  1.00 20.00     0.026 A 
HETATM    3  C3  UNL     1     -33.139  16.028  -3.381  1.00 20.00     0.026 A 
HETATM    4  C4  UNL     1     -34.226  18.379   0.009  1.00 20.00    -0.022 A 
HETATM    5  C5  UNL     1     -32.484  17.894  -1.803  1.00 20.00    -0.011 A 
HETATM    6  C6  UNL     1     -34.570  16.676  -1.618  1.00 20.00    -0.026 A 
HETATM    7  C7  UNL     1     -33.293  16.933  -2.270  1.00 20.00    -0.029 A 
HETATM    8  C8  UNL     1     -34.256  15.281  -3.386  1.00 20.00     0.003 A 
HETATM    9  C10 UNL     1     -32.875  18.728  -0.597  1.00 20.00     0.055 A 
ENDROOT
BRANCH   8  10
HETATM   10  C9  UNL     1     -34.527  14.226  -4.348  1.00 20.00     0.269 C 
HETATM   11  O11 UNL     1     -34.600  13.036  -4.037  1.00 20.00    -0.301 OA
ENDBRANCH   8  10
TORSDOF 1
ENDMDL
MODEL 5
REMARK VINA RESULT:      -5.4     11.214     11.784
REMARK  1 active torsions:
REMARK  status: ('A' for Active; 'I' for Inactive)
REMARK    1  A    between atoms: C8_8  and  C9_9 
ROOT
HETATM    1  C1  UNL     1     -32.588  17.101  -2.546  1.00 20.00     0.008 A 
HETATM    2  C2  UNL     1     -33.825  15.401  -3.948  1.00 20.00     0.026 A 
HETATM    3  C3  UNL     1     -35.822  15.257  -2.805  1.00 20.00     0.026 A 
HETATM    4  C4  UNL     1     -32.732  17.868  -1.451  1.00 20.00    -0.022 A 
HETATM    5  C5  UNL     1     -35.092  16.953  -1.075  1.00 20.00    -0.011 A 
HETATM    6  C6  UNL     1     -33.686  16.256  -2.920  1.00 20.00    -0.026 A 
HETATM    7  C7  UNL     1     -34.933  16.197  -2.169  1.00 20.00    -0.029 A 
HETATM    8  C8  UNL     1     -35.144  14.790  -3.867  1.00 20.00     0.003 A 
HETATM    9  C10 UNL     1     -33.991  17.880  -0.597  1.00 20.00     0.055 A 
ENDROOT
BRANCH   8  10
HETATM   10  C9  UNL     1     -35.668  13.809  -4.802  1.00 20.00     0.269 C 
HETATM   11  O11 UNL     1     -35.823  12.622  -4.512  1.00 20.00    -0.301 OA
ENDBRANCH   8  10
TORSDOF 1
ENDMDL
MODEL 6
REMARK VINA RESULT:      -5.0     11.226     12.000
REMARK  1 active torsions:
REMARK  status: ('A' for Active; 'I' for Inactive)
REMARK    1  A    between atoms: C8_8  and  C9_9 
ROOT
HETATM    1  C1  UNL     1     -35.557  14.882  -3.050  1.00 20.00     0.008 A 
HETATM    2  C2  UNL     1     -35.167  16.713  -1.352  1.00 20.00     0.026 A 
HETATM    3  C3  UNL     1     -33.036  17.388  -1.913  1.00 20.00     0.026 A 
HETATM    4  C4  UNL     1     -34.957  14.252  -4.075  1.00 20.00    -0.022 A 
HETATM    5  C5  UNL     1     -32.867  15.702  -3.793  1.00 20.00    -0.011 A 
HETATM    6  C6  UNL     1     -34.827  15.925  -2.386  1.00 20.00    -0.026 A 
HETATM    7  C7  UNL     1     -33.480  16.320  -2.775  1.00 20.00    -0.029 A 
HETATM    8  C8  UNL     1     -34.057  17.610  -1.069  1.00 20.00     0.003 A 
HETATM    9  C10 UNL     1     -33.555  14.588  -4.559  1.00 20.00     0.055 A 
ENDROOT
BRANCH   8  10
HETATM   10  C9  UNL     1     -34.043  18.614  -0.018  1.00 20.00     0.269 C 
HETATM   11  O11 UNL     1     -33.626  18.390   1.119  1.00 20.00    -0.301 OA
ENDBRANCH   8  10
TORSDOF 1
ENDMDL
MODEL 7
REMARK VINA RESULT:      -5.0     11.270     12.023
REMARK  1 active torsions:
REMARK  status: ('A' for Active; 'I' for Inactive)
REMARK    1  A    between atoms: C8_8  and  C9_9 
ROOT
HETATM    1  C1  UNL     1     -32.893  15.467  -3.880  1.00 20.00     0.008 A 
HETATM    2  C2  UNL     1     -33.069  17.185  -2.036  1.00 20.00     0.026 A 
HETATM    3  C3  UNL     1     -35.230  16.836  -1.313  1.00 20.00     0.026 A 
HETATM    4  C4  UNL     1     -33.605  14.510  -4.499  1.00 20.00    -0.022 A 
HETATM    5  C5  UNL     1     -35.623  14.991  -3.000  1.00 20.00    -0.011 A 
HETATM    6  C6  UNL     1     -33.528  16.194  -2.819  1.00 20.00    -0.026 A 
HETATM    7  C7  UNL     1     -34.898  15.940  -2.393  1.00 20.00    -0.029 A 
HETATM    8  C8  UNL     1     -34.125  17.573  -1.112  1.00 20.00     0.003 A 
HETATM    9  C10 UNL     1     -35.041  14.166  -4.132  1.00 20.00     0.055 A 
ENDROOT
BRANCH   8  10
HETATM   10  C9  UNL     1     -34.012  18.615  -0.105  1.00 20.00     0.269 C 
HETATM   11  O11 UNL     1     -33.212  18.559   0.830  1.00 20.00    -0.301 OA
ENDBRANCH   8  10
TORSDOF 1
ENDMDL
MODEL 8
REMARK VINA RESULT:      -4.8     11.080     12.811
REMARK  1 active torsions:
REMARK  status: ('A' for Active; 'I' for Inactive)
REMARK    1  A    between atoms: C8_8  and  C9_9 
ROOT
HETATM    1  C1  UNL     1     -33.851  18.236  -4.822  1.00 20.00     0.008 A 
HETATM    2  C2  UNL     1     -35.177  16.103  -5.095  1.00 20.00     0.026 A 
HETATM    3  C3  UNL     1     -34.700  15.031  -3.110  1.00 20.00     0.026 A 
HETATM    4  C4  UNL     1     -33.038  18.868  -3.956  1.00 20.00    -0.022 A 
HETATM    5  C5  UNL     1     -33.224  16.922  -2.305  1.00 20.00    -0.011 A 
HETATM    6  C6  UNL     1     -34.359  16.949  -4.444  1.00 20.00    -0.026 A 
HETATM    7  C7  UNL     1     -34.033  16.307  -3.178  1.00 20.00    -0.029 A 
HETATM    8  C8  UNL     1     -35.380  14.925  -4.264  1.00 20.00     0.003 A 
HETATM    9  C10 UNL     1     -32.635  18.286  -2.610  1.00 20.00     0.055 A 
ENDROOT
BRANCH   8  10
HETATM   10  C9  UNL     1     -36.204  13.783  -4.623  1.00 20.00     0.269 C 
HETATM   11  O11 UNL     1     -35.823  12.618  -4.510  1.00 20.00    -0.301 OA
ENDBRANCH   8  10
TORSDOF 1
ENDMDL
MODEL 9
REMARK VINA RESULT:      -4.4     11.571     12.482
REMARK  1 active torsions:
REMARK  status: ('A' for Active; 'I' for Inactive)
REMARK    1  A    between atoms: C8_8  and  C9_9 
ROOT
HETATM    1  C1  UNL     1     -32.769  17.601  -2.056  1.00 20.00     0.008 A 
HETATM    2  C2  UNL     1     -33.680  18.439   0.147  1.00 20.00     0.026 A 
HETATM    3  C3  UNL     1     -35.666  17.275   0.274  1.00 20.00     0.026 A 
HETATM    4  C4  UNL     1     -33.064  16.766  -3.068  1.00 20.00    -0.022 A 
HETATM    5  C5  UNL     1     -35.264  16.111  -1.937  1.00 20.00    -0.011 A 
HETATM    6  C6  UNL     1     -33.709  17.702  -0.977  1.00 20.00    -0.026 A 
HETATM    7  C7  UNL     1     -34.954  16.947  -0.936  1.00 20.00    -0.029 A 
HETATM    8  C8  UNL     1     -34.890  18.169   0.910  1.00 20.00     0.003 A 
HETATM    9  C10 UNL     1     -34.336  15.934  -3.123  1.00 20.00     0.055 A 
ENDROOT
BRANCH   8  10
HETATM   10  C9  UNL     1     -35.224  18.777   2.187  1.00 20.00     0.269 C 
HETATM   11  O11 UNL     1     -34.542  18.624   3.201  1.00 20.00    -0.301 OA
ENDBRANCH   8  10
TORSDOF 1
ENDMDL
