MODEL 1
REMARK VINA RESULT:      -4.8      0.000      0.000
REMARK  3 active torsions:
REMARK  status: ('A' for Active; 'I' for Inactive)
REMARK    1  A    between atoms: C2_2  and  C6_6 
REMARK    2  A    between atoms: C3_3  and  C5_5 
REMARK    3  A    between atoms: C3_3  and  O10_10 
ROOT
HETATM    1  C4  UNL     1     -34.775  14.958  -6.123  1.00 20.00     0.033 A 
HETATM    2  C5  UNL     1     -36.112  14.904  -5.436  1.00 20.00     0.101 A 
HETATM    3  C6  UNL     1     -35.014  15.802  -4.891  1.00 20.00     0.023 A 
HETATM    4  C7  UNL     1     -35.170  17.288  -5.077  1.00 20.00     0.023 C 
ENDROOT
BRANCH   2   5
HETATM    5  C3  UNL     1     -36.512  13.675  -4.738  1.00 20.00     0.263 C 
HETATM    6  O9  UNL     1     -35.790  12.695  -4.609  1.00 20.00    -0.265 OA
BRANCH   5   7
HETATM    7  O10 UNL     1     -37.787  13.808  -4.274  1.00 20.00    -0.326 OA
HETATM    8  C8  UNL     1     -38.360  15.112  -4.417  1.00 20.00     0.213 C 
ENDBRANCH   5   7
ENDBRANCH   2   5
BRANCH   3   9
HETATM    9  C2  UNL     1     -34.315  15.395  -3.666  1.00 20.00     0.093 C 
HETATM   10  C1  UNL     1     -34.602  15.813  -2.428  1.00 20.00     0.052 C 
HETATM   11  F11 UNL     1     -33.293  14.517  -3.801  1.00 20.00    -0.211 F 
ENDBRANCH   3   9
TORSDOF 3
ENDMDL
MODEL 2
REMARK VINA RESULT:      -4.7      0.803      1.050
REMARK  3 active torsions:
REMARK  status: ('A' for Active; 'I' for Inactive)
REMARK    1  A    between atoms: C2_2  and  C6_6 
REMARK    2  A    between atoms: C3_3  and  C5_5 
REMARK    3  A    between atoms: C3_3  and  O10_10 
ROOT
HETATM    1  C4  UNL     1     -35.009  14.881  -6.351  1.00 20.00     0.033 A 
HETATM    2  C5  UNL     1     -36.145  14.937  -5.366  1.00 20.00     0.101 A 
HETATM    3  C6  UNL     1     -34.848  15.671  -5.072  1.00 20.00     0.023 A 
HETATM    4  C7  UNL     1     -34.859  17.174  -5.168  1.00 20.00     0.023 C 
ENDROOT
BRANCH   2   5
HETATM    5  C3  UNL     1     -36.520  13.721  -4.632  1.00 20.00     0.263 C 
HETATM    6  O9  UNL     1     -35.871  12.683  -4.650  1.00 20.00    -0.265 OA
BRANCH   5   7
HETATM    7  O10 UNL     1     -37.680  13.939  -3.950  1.00 20.00    -0.326 OA
HETATM    8  C8  UNL     1     -38.465  15.045  -4.409  1.00 20.00     0.213 C 
ENDBRANCH   5   7
ENDBRANCH   2   5
BRANCH   3   9
HETATM    9  C2  UNL     1     -33.939  15.116  -4.062  1.00 20.00     0.093 C 
HETATM   10  C1  UNL     1     -32.793  14.471  -4.314  1.00 20.00     0.052 C 
HETATM   11  F11 UNL     1     -34.288  15.272  -2.763  1.00 20.00    -0.211 F 
ENDBRANCH   3   9
TORSDOF 3
ENDMDL
MODEL 3
REMARK VINA RESULT:      -4.4      1.383      1.967
REMARK  3 active torsions:
REMARK  status: ('A' for Active; 'I' for Inactive)
REMARK    1  A    between atoms: C2_2  and  C6_6 
REMARK    2  A    between atoms: C3_3  and  C5_5 
REMARK    3  A    between atoms: C3_3  and  O10_10 
ROOT
HETATM    1  C4  UNL     1     -35.308  16.588  -4.546  1.00 20.00     0.033 A 
HETATM    2  C5  UNL     1     -36.426  15.684  -4.102  1.00 20.00     0.101 A 
HETATM    3  C6  UNL     1     -35.045  15.542  -3.486  1.00 20.00     0.023 A 
HETATM    4  C7  UNL     1     -34.862  16.011  -2.066  1.00 20.00     0.023 C 
ENDROOT
BRANCH   2   5
HETATM    5  C3  UNL     1     -36.953  14.682  -5.038  1.00 20.00     0.263 C 
HETATM    6  O9  UNL     1     -36.517  14.503  -6.168  1.00 20.00    -0.265 OA
BRANCH   5   7
HETATM    7  O10 UNL     1     -37.981  14.005  -4.451  1.00 20.00    -0.326 OA
HETATM    8  C8  UNL     1     -39.144  14.788  -4.158  1.00 20.00     0.213 C 
ENDBRANCH   5   7
ENDBRANCH   2   5
BRANCH   3   9
HETATM    9  C2  UNL     1     -34.213  14.399  -3.879  1.00 20.00     0.093 C 
HETATM   10  C1  UNL     1     -33.018  14.471  -4.476  1.00 20.00     0.052 C 
HETATM   11  F11 UNL     1     -34.696  13.162  -3.611  1.00 20.00    -0.211 F 
ENDBRANCH   3   9
TORSDOF 3
ENDMDL
MODEL 4
REMARK VINA RESULT:      -4.4      1.546      2.315
REMARK  3 active torsions:
REMARK  status: ('A' for Active; 'I' for Inactive)
REMARK    1  A    between atoms: C2_2  and  C6_6 
REMARK    2  A    between atoms: C3_3  and  C5_5 
REMARK    3  A    between atoms: C3_3  and  O10_10 
ROOT
HETATM    1  C4  UNL     1     -36.516  16.358  -3.926  1.00 20.00     0.033 A 
HETATM    2  C5  UNL     1     -36.377  14.887  -3.646  1.00 20.00     0.101 A 
HETATM    3  C6  UNL     1     -35.237  15.835  -3.314  1.00 20.00     0.023 A 
HETATM    4  C7  UNL     1     -34.978  16.135  -1.861  1.00 20.00     0.023 C 
ENDROOT
BRANCH   2   5
HETATM    5  C3  UNL     1     -36.287  13.947  -4.771  1.00 20.00     0.263 C 
HETATM    6  O9  UNL     1     -35.879  12.797  -4.673  1.00 20.00    -0.265 OA
BRANCH   5   7
HETATM    7  O10 UNL     1     -36.721  14.557  -5.911  1.00 20.00    -0.326 OA
HETATM    8  C8  UNL     1     -35.797  14.547  -7.004  1.00 20.00     0.213 C 
ENDBRANCH   5   7
ENDBRANCH   2   5
BRANCH   3   9
HETATM    9  C2  UNL     1     -34.046  15.832  -4.173  1.00 20.00     0.093 C 
HETATM   10  C1  UNL     1     -32.957  15.075  -3.996  1.00 20.00     0.052 C 
HETATM   11  F11 UNL     1     -34.052  16.668  -5.239  1.00 20.00    -0.211 F 
ENDBRANCH   3   9
TORSDOF 3
ENDMDL
MODEL 5
REMARK VINA RESULT:      -4.4      1.408      2.209
REMARK  3 active torsions:
REMARK  status: ('A' for Active; 'I' for Inactive)
REMARK    1  A    between atoms: C2_2  and  C6_6 
REMARK    2  A    between atoms: C3_3  and  C5_5 
REMARK    3  A    between atoms: C3_3  and  O10_10 
ROOT
HETATM    1  C4  UNL     1     -35.302  15.317  -2.796  1.00 20.00     0.033 A 
HETATM    2  C5  UNL     1     -35.077  14.270  -3.851  1.00 20.00     0.101 A 
HETATM    3  C6  UNL     1     -34.379  15.615  -3.955  1.00 20.00     0.023 A 
HETATM    4  C7  UNL     1     -32.899  15.657  -3.682  1.00 20.00     0.023 C 
ENDROOT
BRANCH   2   5
HETATM    5  C3  UNL     1     -36.180  13.908  -4.752  1.00 20.00     0.263 C 
HETATM    6  O9  UNL     1     -36.046  13.700  -5.951  1.00 20.00    -0.265 OA
BRANCH   5   7
HETATM    7  O10 UNL     1     -37.345  13.849  -4.046  1.00 20.00    -0.326 OA
HETATM    8  C8  UNL     1     -38.339  14.810  -4.417  1.00 20.00     0.213 C 
ENDBRANCH   5   7
ENDBRANCH   2   5
BRANCH   3   9
HETATM    9  C2  UNL     1     -34.859  16.582  -4.950  1.00 20.00     0.093 C 
HETATM   10  C1  UNL     1     -35.685  17.606  -4.709  1.00 20.00     0.052 C 
HETATM   11  F11 UNL     1     -34.425  16.425  -6.223  1.00 20.00    -0.211 F 
ENDBRANCH   3   9
TORSDOF 3
ENDMDL
MODEL 6
REMARK VINA RESULT:      -4.3      1.408      2.352
REMARK  3 active torsions:
REMARK  status: ('A' for Active; 'I' for Inactive)
REMARK    1  A    between atoms: C2_2  and  C6_6 
REMARK    2  A    between atoms: C3_3  and  C5_5 
REMARK    3  A    between atoms: C3_3  and  O10_10 
ROOT
HETATM    1  C4  UNL     1     -35.599  16.835  -4.185  1.00 20.00     0.033 A 
HETATM    2  C5  UNL     1     -36.606  15.790  -3.789  1.00 20.00     0.101 A 
HETATM    3  C6  UNL     1     -35.203  15.752  -3.207  1.00 20.00     0.023 A 
HETATM    4  C7  UNL     1     -35.035  16.138  -1.761  1.00 20.00     0.023 C 
ENDROOT
BRANCH   2   5
HETATM    5  C3  UNL     1     -37.049  14.805  -4.784  1.00 20.00     0.263 C 
HETATM    6  O9  UNL     1     -37.529  13.715  -4.503  1.00 20.00    -0.265 OA
BRANCH   5   7
HETATM    7  O10 UNL     1     -36.839  15.297  -6.038  1.00 20.00    -0.326 OA
HETATM    8  C8  UNL     1     -35.906  14.563  -6.839  1.00 20.00     0.213 C 
ENDBRANCH   5   7
ENDBRANCH   2   5
BRANCH   3   9
HETATM    9  C2  UNL     1     -34.267  14.731  -3.695  1.00 20.00     0.093 C 
HETATM   10  C1  UNL     1     -33.081  14.969  -4.267  1.00 20.00     0.052 C 
HETATM   11  F11 UNL     1     -34.635  13.436  -3.550  1.00 20.00    -0.211 F 
ENDBRANCH   3   9
TORSDOF 3
ENDMDL
MODEL 7
REMARK VINA RESULT:      -4.2      1.934      2.991
REMARK  3 active torsions:
REMARK  status: ('A' for Active; 'I' for Inactive)
REMARK    1  A    between atoms: C2_2  and  C6_6 
REMARK    2  A    between atoms: C3_3  and  C5_5 
REMARK    3  A    between atoms: C3_3  and  O10_10 
ROOT
HETATM    1  C4  UNL     1     -34.405  15.881  -2.479  1.00 20.00     0.033 A 
HETATM    2  C5  UNL     1     -33.485  15.424  -3.579  1.00 20.00     0.101 A 
HETATM    3  C6  UNL     1     -33.941  16.873  -3.522  1.00 20.00     0.023 A 
HETATM    4  C7  UNL     1     -32.929  17.908  -3.107  1.00 20.00     0.023 C 
ENDROOT
BRANCH   2   5
HETATM    5  C3  UNL     1     -33.993  14.502  -4.603  1.00 20.00     0.263 C 
HETATM    6  O9  UNL     1     -33.624  14.503  -5.770  1.00 20.00    -0.265 OA
BRANCH   5   7
HETATM    7  O10 UNL     1     -34.920  13.670  -4.048  1.00 20.00    -0.326 OA
HETATM    8  C8  UNL     1     -36.201  13.663  -4.687  1.00 20.00     0.213 C 
ENDBRANCH   5   7
ENDBRANCH   2   5
BRANCH   3   9
HETATM    9  C2  UNL     1     -34.945  17.333  -4.489  1.00 20.00     0.093 C 
HETATM   10  C1  UNL     1     -36.251  17.492  -4.243  1.00 20.00     0.052 C 
HETATM   11  F11 UNL     1     -34.512  17.623  -5.739  1.00 20.00    -0.211 F 
ENDBRANCH   3   9
TORSDOF 3
ENDMDL
MODEL 8
REMARK VINA RESULT:      -4.1      1.597      2.642
REMARK  3 active torsions:
REMARK  status: ('A' for Active; 'I' for Inactive)
REMARK    1  A    between atoms: C2_2  and  C6_6 
REMARK    2  A    between atoms: C3_3  and  C5_5 
REMARK    3  A    between atoms: C3_3  and  O10_10 
ROOT
HETATM    1  C4  UNL     1     -34.562  15.786  -3.172  1.00 20.00     0.033 A 
HETATM    2  C5  UNL     1     -35.216  14.493  -3.574  1.00 20.00     0.101 A 
HETATM    3  C6  UNL     1     -34.088  15.067  -4.415  1.00 20.00     0.023 A 
HETATM    4  C7  UNL     1     -32.753  14.373  -4.359  1.00 20.00     0.023 C 
ENDROOT
BRANCH   2   5
HETATM    5  C3  UNL     1     -36.607  14.508  -4.048  1.00 20.00     0.263 C 
HETATM    6  O9  UNL     1     -37.151  13.564  -4.605  1.00 20.00    -0.265 OA
BRANCH   5   7
HETATM    7  O10 UNL     1     -37.170  15.718  -3.770  1.00 20.00    -0.326 OA
HETATM    8  C8  UNL     1     -38.090  16.208  -4.752  1.00 20.00     0.213 C 
ENDBRANCH   5   7
ENDBRANCH   2   5
BRANCH   3   9
HETATM    9  C2  UNL     1     -34.417  15.688  -5.703  1.00 20.00     0.093 C 
HETATM   10  C1  UNL     1     -34.242  15.130  -6.907  1.00 20.00     0.052 C 
HETATM   11  F11 UNL     1     -34.945  16.935  -5.671  1.00 20.00    -0.211 F 
ENDBRANCH   3   9
TORSDOF 3
ENDMDL
MODEL 9
REMARK VINA RESULT:      -4.1      1.880      2.811
REMARK  3 active torsions:
REMARK  status: ('A' for Active; 'I' for Inactive)
REMARK    1  A    between atoms: C2_2  and  C6_6 
REMARK    2  A    between atoms: C3_3  and  C5_5 
REMARK    3  A    between atoms: C3_3  and  O10_10 
ROOT
HETATM    1  C4  UNL     1     -36.132  16.379  -3.640  1.00 20.00     0.033 A 
HETATM    2  C5  UNL     1     -35.546  15.035  -3.304  1.00 20.00     0.101 A 
HETATM    3  C6  UNL     1     -34.930  16.297  -2.726  1.00 20.00     0.023 A 
HETATM    4  C7  UNL     1     -35.142  16.570  -1.260  1.00 20.00     0.023 C 
ENDROOT
BRANCH   2   5
HETATM    5  C3  UNL     1     -34.868  14.264  -4.355  1.00 20.00     0.263 C 
HETATM    6  O9  UNL     1     -34.109  13.329  -4.138  1.00 20.00    -0.265 OA
BRANCH   5   7
HETATM    7  O10 UNL     1     -35.216  14.756  -5.578  1.00 20.00    -0.326 OA
HETATM    8  C8  UNL     1     -34.127  14.998  -6.476  1.00 20.00     0.213 C 
ENDBRANCH   5   7
ENDBRANCH   2   5
BRANCH   3   9
HETATM    9  C2  UNL     1     -33.653  16.771  -3.271  1.00 20.00     0.093 C 
HETATM   10  C1  UNL     1     -33.479  17.873  -4.010  1.00 20.00     0.052 C 
HETATM   11  F11 UNL     1     -32.553  16.028  -3.001  1.00 20.00    -0.211 F 
ENDBRANCH   3   9
TORSDOF 3
ENDMDL
