MODEL 1
REMARK VINA RESULT:      -5.1      0.000      0.000
REMARK  0 active torsions:
REMARK  status: ('A' for Active; 'I' for Inactive)
ROOT
HETATM    1  C1  UNL     1     -32.278  17.882  -1.396  1.00 20.00     0.013 C 
HETATM    2  C2  UNL     1     -32.979  17.337  -2.204  1.00 20.00    -0.104 C 
HETATM    3  C3  UNL     1     -33.439  14.390  -4.225  1.00 20.00     0.048 C 
HETATM    4  C4  UNL     1     -33.015  15.621  -3.919  1.00 20.00    -0.001 C 
HETATM    5  C5  UNL     1     -34.829  13.976  -3.914  1.00 20.00     0.149 C 
HETATM    6  C6  UNL     1     -35.773  14.999  -3.327  1.00 20.00     0.085 C 
HETATM    7  C7  UNL     1     -35.025  16.006  -2.461  1.00 20.00     0.034 C 
HETATM    8  C8  UNL     1     -33.841  16.664  -3.200  1.00 20.00     0.037 C 
HETATM    9  C9  UNL     1     -34.331  17.707  -4.215  1.00 20.00     0.034 C 
HETATM   10  O10 UNL     1     -35.202  12.838  -4.193  1.00 20.00    -0.293 OA
ENDROOT
TORSDOF 0
ENDMDL
MODEL 2
REMARK VINA RESULT:      -4.6     17.002     17.674
REMARK  0 active torsions:
REMARK  status: ('A' for Active; 'I' for Inactive)
ROOT
HETATM    1  C1  UNL     1     -22.148  17.039   8.685  1.00 20.00     0.013 C 
HETATM    2  C2  UNL     1     -22.764  17.191   9.704  1.00 20.00    -0.104 C 
HETATM    3  C3  UNL     1     -25.740  18.566  11.196  1.00 20.00     0.048 C 
HETATM    4  C4  UNL     1     -24.471  18.542  10.774  1.00 20.00    -0.001 C 
HETATM    5  C5  UNL     1     -26.301  17.424  11.958  1.00 20.00     0.149 C 
HETATM    6  C6  UNL     1     -25.384  16.278  12.318  1.00 20.00     0.085 C 
HETATM    7  C7  UNL     1     -24.304  16.082  11.260  1.00 20.00     0.034 C 
HETATM    8  C8  UNL     1     -23.523  17.379  10.959  1.00 20.00     0.037 C 
HETATM    9  C9  UNL     1     -22.537  17.707  12.090  1.00 20.00     0.034 C 
HETATM   10  O10 UNL     1     -27.471  17.457  12.332  1.00 20.00    -0.293 OA
ENDROOT
TORSDOF 0
ENDMDL
MODEL 3
REMARK VINA RESULT:      -4.6      1.827      2.619
REMARK  0 active torsions:
REMARK  status: ('A' for Active; 'I' for Inactive)
ROOT
HETATM    1  C1  UNL     1     -35.171  16.651  -1.188  1.00 20.00     0.013 C 
HETATM    2  C2  UNL     1     -34.871  16.213  -2.265  1.00 20.00    -0.104 C 
HETATM    3  C3  UNL     1     -35.756  13.898  -4.879  1.00 20.00     0.048 C 
HETATM    4  C4  UNL     1     -35.163  14.324  -3.758  1.00 20.00    -0.001 C 
HETATM    5  C5  UNL     1     -35.749  14.740  -6.099  1.00 20.00     0.149 C 
HETATM    6  C6  UNL     1     -34.985  16.044  -6.072  1.00 20.00     0.085 C 
HETATM    7  C7  UNL     1     -34.991  16.657  -4.676  1.00 20.00     0.034 C 
HETATM    8  C8  UNL     1     -34.502  15.673  -3.591  1.00 20.00     0.037 C 
HETATM    9  C9  UNL     1     -32.978  15.499  -3.648  1.00 20.00     0.034 C 
HETATM   10  O10 UNL     1     -36.305  14.339  -7.120  1.00 20.00    -0.293 OA
ENDROOT
TORSDOF 0
ENDMDL
MODEL 4
REMARK VINA RESULT:      -4.5      1.412      1.710
REMARK  0 active torsions:
REMARK  status: ('A' for Active; 'I' for Inactive)
ROOT
HETATM    1  C1  UNL     1     -33.002  17.319  -1.906  1.00 20.00     0.013 C 
HETATM    2  C2  UNL     1     -33.731  16.913  -2.769  1.00 20.00    -0.104 C 
HETATM    3  C3  UNL     1     -35.442  14.035  -4.098  1.00 20.00     0.048 C 
HETATM    4  C4  UNL     1     -34.447  14.916  -3.944  1.00 20.00    -0.001 C 
HETATM    5  C5  UNL     1     -36.844  14.501  -4.231  1.00 20.00     0.149 C 
HETATM    6  C6  UNL     1     -37.109  15.988  -4.276  1.00 20.00     0.085 C 
HETATM    7  C7  UNL     1     -36.085  16.756  -3.448  1.00 20.00     0.034 C 
HETATM    8  C8  UNL     1     -34.629  16.412  -3.832  1.00 20.00     0.037 C 
HETATM    9  C9  UNL     1     -34.237  17.070  -5.163  1.00 20.00     0.034 C 
HETATM   10  O10 UNL     1     -37.749  13.679  -4.363  1.00 20.00    -0.293 OA
ENDROOT
TORSDOF 0
ENDMDL
MODEL 5
REMARK VINA RESULT:      -4.4     11.085     12.956
REMARK  0 active torsions:
REMARK  status: ('A' for Active; 'I' for Inactive)
ROOT
HETATM    1  C1  UNL     1     -42.234   4.221  -1.986  1.00 20.00     0.013 C 
HETATM    2  C2  UNL     1     -42.412   5.107  -1.196  1.00 20.00    -0.104 C 
HETATM    3  C3  UNL     1     -40.957   7.979   0.420  1.00 20.00     0.048 C 
HETATM    4  C4  UNL     1     -41.283   6.693   0.251  1.00 20.00    -0.001 C 
HETATM    5  C5  UNL     1     -41.965   9.044   0.197  1.00 20.00     0.149 C 
HETATM    6  C6  UNL     1     -43.382   8.639  -0.137  1.00 20.00     0.085 C 
HETATM    7  C7  UNL     1     -43.410   7.333  -0.923  1.00 20.00     0.034 C 
HETATM    8  C8  UNL     1     -42.631   6.199  -0.223  1.00 20.00     0.037 C 
HETATM    9  C9  UNL     1     -43.415   5.645   0.975  1.00 20.00     0.034 C 
HETATM   10  O10 UNL     1     -41.649  10.223   0.348  1.00 20.00    -0.293 OA
ENDROOT
TORSDOF 0
ENDMDL
MODEL 6
REMARK VINA RESULT:      -4.4      1.141      2.392
REMARK  0 active torsions:
REMARK  status: ('A' for Active; 'I' for Inactive)
ROOT
HETATM    1  C1  UNL     1     -34.108  18.892  -4.658  1.00 20.00     0.013 C 
HETATM    2  C2  UNL     1     -34.295  17.818  -4.156  1.00 20.00    -0.104 C 
HETATM    3  C3  UNL     1     -36.464  14.945  -4.012  1.00 20.00     0.048 C 
HETATM    4  C4  UNL     1     -35.991  16.151  -3.678  1.00 20.00    -0.001 C 
HETATM    5  C5  UNL     1     -35.537  13.806  -4.218  1.00 20.00     0.149 C 
HETATM    6  C6  UNL     1     -34.064  14.017  -3.957  1.00 20.00     0.085 C 
HETATM    7  C7  UNL     1     -33.650  15.452  -4.265  1.00 20.00     0.034 C 
HETATM    8  C8  UNL     1     -34.526  16.494  -3.537  1.00 20.00     0.037 C 
HETATM    9  C9  UNL     1     -34.167  16.575  -2.046  1.00 20.00     0.034 C 
HETATM   10  O10 UNL     1     -35.986  12.705  -4.533  1.00 20.00    -0.293 OA
ENDROOT
TORSDOF 0
ENDMDL
MODEL 7
REMARK VINA RESULT:      -4.4      1.364      2.216
REMARK  0 active torsions:
REMARK  status: ('A' for Active; 'I' for Inactive)
ROOT
HETATM    1  C1  UNL     1     -32.290  18.479  -1.941  1.00 20.00     0.013 C 
HETATM    2  C2  UNL     1     -32.980  17.639  -2.450  1.00 20.00    -0.104 C 
HETATM    3  C3  UNL     1     -34.694  16.623  -5.451  1.00 20.00     0.048 C 
HETATM    4  C4  UNL     1     -34.534  17.220  -4.264  1.00 20.00    -0.001 C 
HETATM    5  C5  UNL     1     -34.220  15.234  -5.663  1.00 20.00     0.149 C 
HETATM    6  C6  UNL     1     -33.634  14.484  -4.488  1.00 20.00     0.085 C 
HETATM    7  C7  UNL     1     -32.930  15.433  -3.525  1.00 20.00     0.034 C 
HETATM    8  C8  UNL     1     -33.830  16.604  -3.077  1.00 20.00     0.037 C 
HETATM    9  C9  UNL     1     -34.878  16.138  -2.055  1.00 20.00     0.034 C 
HETATM   10  O10 UNL     1     -34.366  14.701  -6.761  1.00 20.00    -0.293 OA
ENDROOT
TORSDOF 0
ENDMDL
MODEL 8
REMARK VINA RESULT:      -4.3      2.617      4.262
REMARK  0 active torsions:
REMARK  status: ('A' for Active; 'I' for Inactive)
ROOT
HETATM    1  C1  UNL     1     -34.737  13.888  -3.905  1.00 20.00     0.013 C 
HETATM    2  C2  UNL     1     -34.636  15.012  -3.498  1.00 20.00    -0.104 C 
HETATM    3  C3  UNL     1     -34.957  17.172  -0.632  1.00 20.00     0.048 C 
HETATM    4  C4  UNL     1     -35.342  16.526  -1.739  1.00 20.00    -0.001 C 
HETATM    5  C5  UNL     1     -33.656  17.881  -0.591  1.00 20.00     0.149 C 
HETATM    6  C6  UNL     1     -32.820  17.931  -1.849  1.00 20.00     0.085 C 
HETATM    7  C7  UNL     1     -33.023  16.680  -2.695  1.00 20.00     0.034 C 
HETATM    8  C8  UNL     1     -34.511  16.398  -2.995  1.00 20.00     0.037 C 
HETATM    9  C9  UNL     1     -35.053  17.362  -4.060  1.00 20.00     0.034 C 
HETATM   10  O10 UNL     1     -33.311  18.463   0.437  1.00 20.00    -0.293 OA
ENDROOT
TORSDOF 0
ENDMDL
MODEL 9
REMARK VINA RESULT:      -4.3      1.615      1.866
REMARK  0 active torsions:
REMARK  status: ('A' for Active; 'I' for Inactive)
ROOT
HETATM    1  C1  UNL     1     -35.205  17.087  -0.349  1.00 20.00     0.013 C 
HETATM    2  C2  UNL     1     -35.187  16.798  -1.514  1.00 20.00    -0.104 C 
HETATM    3  C3  UNL     1     -34.759  14.138  -3.906  1.00 20.00     0.048 C 
HETATM    4  C4  UNL     1     -34.396  15.149  -3.107  1.00 20.00    -0.001 C 
HETATM    5  C5  UNL     1     -35.960  14.256  -4.767  1.00 20.00     0.149 C 
HETATM    6  C6  UNL     1     -36.710  15.568  -4.785  1.00 20.00     0.085 C 
HETATM    7  C7  UNL     1     -36.619  16.273  -3.437  1.00 20.00     0.034 C 
HETATM    8  C8  UNL     1     -35.164  16.441  -2.949  1.00 20.00     0.037 C 
HETATM    9  C9  UNL     1     -34.445  17.554  -3.725  1.00 20.00     0.034 C 
HETATM   10  O10 UNL     1     -36.286  13.316  -5.489  1.00 20.00    -0.293 OA
ENDROOT
TORSDOF 0
ENDMDL
