MODEL 1
REMARK VINA RESULT:      -4.4      0.000      0.000
REMARK  5 active torsions:
REMARK  status: ('A' for Active; 'I' for Inactive)
REMARK    1  A    between atoms: C1_1  and  C5_5 
REMARK    2  A    between atoms: C2_2  and  C9_9 
REMARK    3  A    between atoms: C3_3  and  C6_6 
REMARK    4  A    between atoms: C9_9  and  C11_11 
REMARK    5  A    between atoms: C10_10  and  C11_11 
ROOT
HETATM    1  C4  UNL     1     -33.838  15.045  -4.139  1.00 20.00     0.022 A 
HETATM    2  C5  UNL     1     -34.736  15.176  -2.962  1.00 20.00     0.020 A 
HETATM    3  C6  UNL     1     -34.943  14.049  -3.916  1.00 20.00     0.063 A 
ENDROOT
BRANCH   2   4
HETATM    4  C1  UNL     1     -35.699  16.317  -2.950  1.00 20.00    -0.025 C 
HETATM    5  C2  UNL     1     -35.809  17.191  -1.938  1.00 20.00    -0.030 C 
BRANCH   5   6
HETATM    6  C9  UNL     1     -34.977  17.130  -0.690  1.00 20.00     0.027 C 
BRANCH   6   7
HETATM    7  C11 UNL     1     -33.898  18.217  -0.636  1.00 20.00     0.003 C 
BRANCH   7   8
HETATM    8  C10 UNL     1     -32.644  17.858  -1.436  1.00 20.00    -0.004 C 
HETATM    9  C8  UNL     1     -32.528  18.706  -2.694  1.00 20.00     0.005 C 
ENDBRANCH   7   8
ENDBRANCH   6   7
ENDBRANCH   5   6
ENDBRANCH   2   4
BRANCH   3  10
HETATM   10  C3  UNL     1     -36.072  14.005  -4.854  1.00 20.00     0.128 C 
HETATM   11  C7  UNL     1     -35.805  14.482  -6.256  1.00 20.00     0.091 C 
HETATM   12  O12 UNL     1     -37.181  13.596  -4.511  1.00 20.00    -0.298 OA
ENDBRANCH   3  10
TORSDOF 5
ENDMDL
MODEL 2
REMARK VINA RESULT:      -4.4      1.887      2.353
REMARK  5 active torsions:
REMARK  status: ('A' for Active; 'I' for Inactive)
REMARK    1  A    between atoms: C1_1  and  C5_5 
REMARK    2  A    between atoms: C2_2  and  C9_9 
REMARK    3  A    between atoms: C3_3  and  C6_6 
REMARK    4  A    between atoms: C9_9  and  C11_11 
REMARK    5  A    between atoms: C10_10  and  C11_11 
ROOT
HETATM    1  C4  UNL     1     -34.730  13.966  -3.840  1.00 20.00     0.022 A 
HETATM    2  C5  UNL     1     -34.610  15.354  -3.321  1.00 20.00     0.020 A 
HETATM    3  C6  UNL     1     -35.274  15.121  -4.636  1.00 20.00     0.063 A 
ENDROOT
BRANCH   2   4
HETATM    4  C1  UNL     1     -33.247  15.962  -3.282  1.00 20.00    -0.025 C 
HETATM    5  C2  UNL     1     -32.886  16.930  -2.428  1.00 20.00    -0.030 C 
BRANCH   5   6
HETATM    6  C9  UNL     1     -33.808  17.526  -1.404  1.00 20.00     0.027 C 
BRANCH   6   7
HETATM    7  C11 UNL     1     -33.080  18.407  -0.384  1.00 20.00     0.003 C 
BRANCH   7   8
HETATM    8  C10 UNL     1     -31.565  18.447  -0.597  1.00 20.00    -0.004 C 
HETATM    9  C8  UNL     1     -30.817  18.259   0.713  1.00 20.00     0.005 C 
ENDBRANCH   7   8
ENDBRANCH   6   7
ENDBRANCH   5   6
ENDBRANCH   2   4
BRANCH   3  10
HETATM   10  C3  UNL     1     -34.642  15.473  -5.914  1.00 20.00     0.128 C 
HETATM   11  C7  UNL     1     -34.867  16.874  -6.416  1.00 20.00     0.091 C 
HETATM   12  O12 UNL     1     -33.961  14.664  -6.543  1.00 20.00    -0.298 OA
ENDBRANCH   3  10
TORSDOF 5
ENDMDL
MODEL 3
REMARK VINA RESULT:      -4.4      1.439      1.930
REMARK  5 active torsions:
REMARK  status: ('A' for Active; 'I' for Inactive)
REMARK    1  A    between atoms: C1_1  and  C5_5 
REMARK    2  A    between atoms: C2_2  and  C9_9 
REMARK    3  A    between atoms: C3_3  and  C6_6 
REMARK    4  A    between atoms: C9_9  and  C11_11 
REMARK    5  A    between atoms: C10_10  and  C11_11 
ROOT
HETATM    1  C4  UNL     1     -34.880  15.989  -5.191  1.00 20.00     0.022 A 
HETATM    2  C5  UNL     1     -34.152  15.477  -4.000  1.00 20.00     0.020 A 
HETATM    3  C6  UNL     1     -34.820  14.511  -4.919  1.00 20.00     0.063 A 
ENDROOT
BRANCH   2   4
HETATM    4  C1  UNL     1     -34.746  15.748  -2.658  1.00 20.00    -0.025 C 
HETATM    5  C2  UNL     1     -34.237  16.623  -1.779  1.00 20.00    -0.030 C 
BRANCH   5   6
HETATM    6  C9  UNL     1     -33.005  17.442  -2.035  1.00 20.00     0.027 C 
BRANCH   6   7
HETATM    7  C11 UNL     1     -32.655  18.376  -0.873  1.00 20.00     0.003 C 
BRANCH   7   8
HETATM    8  C10 UNL     1     -31.161  18.387  -0.541  1.00 20.00    -0.004 C 
HETATM    9  C8  UNL     1     -30.924  18.194   0.949  1.00 20.00     0.005 C 
ENDBRANCH   7   8
ENDBRANCH   6   7
ENDBRANCH   5   6
ENDBRANCH   2   4
BRANCH   3  10
HETATM   10  C3  UNL     1     -36.050  13.796  -4.556  1.00 20.00     0.128 C 
HETATM   11  C7  UNL     1     -37.308  14.618  -4.462  1.00 20.00     0.091 C 
HETATM   12  O12 UNL     1     -36.053  12.584  -4.340  1.00 20.00    -0.298 OA
ENDBRANCH   3  10
TORSDOF 5
ENDMDL
MODEL 4
REMARK VINA RESULT:      -4.3     10.663     11.951
REMARK  5 active torsions:
REMARK  status: ('A' for Active; 'I' for Inactive)
REMARK    1  A    between atoms: C1_1  and  C5_5 
REMARK    2  A    between atoms: C2_2  and  C9_9 
REMARK    3  A    between atoms: C3_3  and  C6_6 
REMARK    4  A    between atoms: C9_9  and  C11_11 
REMARK    5  A    between atoms: C10_10  and  C11_11 
ROOT
HETATM    1  C4  UNL     1     -33.332   7.824   3.034  1.00 20.00     0.022 A 
HETATM    2  C5  UNL     1     -32.511   6.604   2.817  1.00 20.00     0.020 A 
HETATM    3  C6  UNL     1     -32.104   7.883   2.167  1.00 20.00     0.063 A 
ENDROOT
BRANCH   2   4
HETATM    4  C1  UNL     1     -33.101   5.512   1.987  1.00 20.00    -0.025 C 
HETATM    5  C2  UNL     1     -33.738   4.448   2.497  1.00 20.00    -0.030 C 
BRANCH   5   6
HETATM    6  C9  UNL     1     -33.937   4.221   3.968  1.00 20.00     0.027 C 
BRANCH   6   7
HETATM    7  C11 UNL     1     -35.139   4.985   4.534  1.00 20.00     0.003 C 
BRANCH   7   8
HETATM    8  C10 UNL     1     -34.950   5.406   5.993  1.00 20.00    -0.004 C 
HETATM    9  C8  UNL     1     -34.029   6.611   6.106  1.00 20.00     0.005 C 
ENDBRANCH   7   8
ENDBRANCH   6   7
ENDBRANCH   5   6
ENDBRANCH   2   4
BRANCH   3  10
HETATM   10  C3  UNL     1     -32.252   8.119   0.726  1.00 20.00     0.128 C 
HETATM   11  C7  UNL     1     -33.335   9.076   0.304  1.00 20.00     0.091 C 
HETATM   12  O12 UNL     1     -31.525   7.564  -0.098  1.00 20.00    -0.298 OA
ENDBRANCH   3  10
TORSDOF 5
ENDMDL
MODEL 5
REMARK VINA RESULT:      -4.2      1.419      2.558
REMARK  5 active torsions:
REMARK  status: ('A' for Active; 'I' for Inactive)
REMARK    1  A    between atoms: C1_1  and  C5_5 
REMARK    2  A    between atoms: C2_2  and  C9_9 
REMARK    3  A    between atoms: C3_3  and  C6_6 
REMARK    4  A    between atoms: C9_9  and  C11_11 
REMARK    5  A    between atoms: C10_10  and  C11_11 
ROOT
HETATM    1  C4  UNL     1     -36.878  14.386  -4.187  1.00 20.00     0.022 A 
HETATM    2  C5  UNL     1     -35.774  15.296  -3.786  1.00 20.00     0.020 A 
HETATM    3  C6  UNL     1     -36.421  15.476  -5.117  1.00 20.00     0.063 A 
ENDROOT
BRANCH   2   4
HETATM    4  C1  UNL     1     -34.398  14.722  -3.707  1.00 20.00    -0.025 C 
HETATM    5  C2  UNL     1     -33.293  15.456  -3.513  1.00 20.00    -0.030 C 
BRANCH   5   6
HETATM    6  C9  UNL     1     -33.301  16.949  -3.351  1.00 20.00     0.027 C 
BRANCH   6   7
HETATM    7  C11 UNL     1     -33.000  17.397  -1.917  1.00 20.00     0.003 C 
BRANCH   7   8
HETATM    8  C10 UNL     1     -34.199  18.054  -1.229  1.00 20.00    -0.004 C 
HETATM    9  C8  UNL     1     -35.167  17.012  -0.690  1.00 20.00     0.005 C 
ENDBRANCH   7   8
ENDBRANCH   6   7
ENDBRANCH   5   6
ENDBRANCH   2   4
BRANCH   3  10
HETATM   10  C3  UNL     1     -35.754  15.115  -6.375  1.00 20.00     0.128 C 
HETATM   11  C7  UNL     1     -34.858  16.157  -6.988  1.00 20.00     0.091 C 
HETATM   12  O12 UNL     1     -35.918  14.015  -6.900  1.00 20.00    -0.298 OA
ENDBRANCH   3  10
TORSDOF 5
ENDMDL
MODEL 6
REMARK VINA RESULT:      -4.2      2.412      5.344
REMARK  5 active torsions:
REMARK  status: ('A' for Active; 'I' for Inactive)
REMARK    1  A    between atoms: C1_1  and  C5_5 
REMARK    2  A    between atoms: C2_2  and  C9_9 
REMARK    3  A    between atoms: C3_3  and  C6_6 
REMARK    4  A    between atoms: C9_9  and  C11_11 
REMARK    5  A    between atoms: C10_10  and  C11_11 
ROOT
HETATM    1  C4  UNL     1     -34.954  17.555  -2.393  1.00 20.00     0.022 A 
HETATM    2  C5  UNL     1     -34.182  16.291  -2.269  1.00 20.00     0.020 A 
HETATM    3  C6  UNL     1     -33.773  17.478  -1.465  1.00 20.00     0.063 A 
ENDROOT
BRANCH   2   4
HETATM    4  C1  UNL     1     -33.352  15.870  -3.436  1.00 20.00    -0.025 C 
HETATM    5  C2  UNL     1     -33.592  14.770  -4.164  1.00 20.00    -0.030 C 
BRANCH   5   6
HETATM    6  C9  UNL     1     -34.725  13.823  -3.897  1.00 20.00     0.027 C 
BRANCH   6   7
HETATM    7  C11 UNL     1     -35.910  14.024  -4.847  1.00 20.00     0.003 C 
BRANCH   7   8
HETATM    8  C10 UNL     1     -37.094  14.735  -4.189  1.00 20.00    -0.004 C 
HETATM    9  C8  UNL     1     -37.369  16.078  -4.847  1.00 20.00     0.005 C 
ENDBRANCH   7   8
ENDBRANCH   6   7
ENDBRANCH   5   6
ENDBRANCH   2   4
BRANCH   3  10
HETATM   10  C3  UNL     1     -32.568  18.260  -1.768  1.00 20.00     0.128 C 
HETATM   11  C7  UNL     1     -31.456  18.211  -0.755  1.00 20.00     0.091 C 
HETATM   12  O12 UNL     1     -32.470  18.922  -2.801  1.00 20.00    -0.298 OA
ENDBRANCH   3  10
TORSDOF 5
ENDMDL
MODEL 7
REMARK VINA RESULT:      -4.1      1.359      2.229
REMARK  5 active torsions:
REMARK  status: ('A' for Active; 'I' for Inactive)
REMARK    1  A    between atoms: C1_1  and  C5_5 
REMARK    2  A    between atoms: C2_2  and  C9_9 
REMARK    3  A    between atoms: C3_3  and  C6_6 
REMARK    4  A    between atoms: C9_9  and  C11_11 
REMARK    5  A    between atoms: C10_10  and  C11_11 
ROOT
HETATM    1  C4  UNL     1     -37.486  16.744  -3.993  1.00 20.00     0.022 A 
HETATM    2  C5  UNL     1     -36.011  16.604  -3.883  1.00 20.00     0.020 A 
HETATM    3  C6  UNL     1     -36.762  15.707  -4.807  1.00 20.00     0.063 A 
ENDROOT
BRANCH   2   4
HETATM    4  C1  UNL     1     -35.461  16.056  -2.608  1.00 20.00    -0.025 C 
HETATM    5  C2  UNL     1     -34.168  16.128  -2.261  1.00 20.00    -0.030 C 
BRANCH   5   6
HETATM    6  C9  UNL     1     -33.110  16.768  -3.112  1.00 20.00     0.027 C 
BRANCH   6   7
HETATM    7  C11 UNL     1     -32.688  18.150  -2.603  1.00 20.00     0.003 C 
BRANCH   7   8
HETATM    8  C10 UNL     1     -32.076  18.113  -1.201  1.00 20.00    -0.004 C 
HETATM    9  C8  UNL     1     -32.853  18.993  -0.234  1.00 20.00     0.005 C 
ENDBRANCH   7   8
ENDBRANCH   6   7
ENDBRANCH   5   6
ENDBRANCH   2   4
BRANCH   3  10
HETATM   10  C3  UNL     1     -36.984  14.284  -4.519  1.00 20.00     0.128 C 
HETATM   11  C7  UNL     1     -35.763  13.406  -4.464  1.00 20.00     0.091 C 
HETATM   12  O12 UNL     1     -38.113  13.832  -4.330  1.00 20.00    -0.298 OA
ENDBRANCH   3  10
TORSDOF 5
ENDMDL
MODEL 8
REMARK VINA RESULT:      -4.1     11.480     14.199
REMARK  5 active torsions:
REMARK  status: ('A' for Active; 'I' for Inactive)
REMARK    1  A    between atoms: C1_1  and  C5_5 
REMARK    2  A    between atoms: C2_2  and  C9_9 
REMARK    3  A    between atoms: C3_3  and  C6_6 
REMARK    4  A    between atoms: C9_9  and  C11_11 
REMARK    5  A    between atoms: C10_10  and  C11_11 
ROOT
HETATM    1  C4  UNL     1     -41.125   5.919   0.225  1.00 20.00     0.022 A 
HETATM    2  C5  UNL     1     -41.411   5.393  -1.135  1.00 20.00     0.020 A 
HETATM    3  C6  UNL     1     -41.125   6.846  -0.959  1.00 20.00     0.063 A 
ENDROOT
BRANCH   2   4
HETATM    4  C1  UNL     1     -42.806   4.946  -1.424  1.00 20.00    -0.025 C 
HETATM    5  C2  UNL     1     -43.110   3.953  -2.272  1.00 20.00    -0.030 C 
BRANCH   5   6
HETATM    6  C9  UNL     1     -42.086   3.165  -3.036  1.00 20.00     0.027 C 
BRANCH   6   7
HETATM    7  C11 UNL     1     -42.601   1.795  -3.489  1.00 20.00     0.003 C 
BRANCH   7   8
HETATM    8  C10 UNL     1     -42.626   1.636  -5.011  1.00 20.00    -0.004 C 
HETATM    9  C8  UNL     1     -42.612   2.987  -5.709  1.00 20.00     0.005 C 
ENDBRANCH   7   8
ENDBRANCH   6   7
ENDBRANCH   5   6
ENDBRANCH   2   4
BRANCH   3  10
HETATM   10  C3  UNL     1     -42.167   7.874  -1.067  1.00 20.00     0.128 C 
HETATM   11  C7  UNL     1     -42.186   8.933   0.003  1.00 20.00     0.091 C 
HETATM   12  O12 UNL     1     -42.984   7.873  -1.988  1.00 20.00    -0.298 OA
ENDBRANCH   3  10
TORSDOF 5
ENDMDL
MODEL 9
REMARK VINA RESULT:      -4.1      2.885      5.521
REMARK  5 active torsions:
REMARK  status: ('A' for Active; 'I' for Inactive)
REMARK    1  A    between atoms: C1_1  and  C5_5 
REMARK    2  A    between atoms: C2_2  and  C9_9 
REMARK    3  A    between atoms: C3_3  and  C6_6 
REMARK    4  A    between atoms: C9_9  and  C11_11 
REMARK    5  A    between atoms: C10_10  and  C11_11 
ROOT
HETATM    1  C4  UNL     1     -32.526  18.442  -2.746  1.00 20.00     0.022 A 
HETATM    2  C5  UNL     1     -33.707  18.510  -1.846  1.00 20.00     0.020 A 
HETATM    3  C6  UNL     1     -32.445  19.196  -1.447  1.00 20.00     0.063 A 
ENDROOT
BRANCH   2   4
HETATM    4  C1  UNL     1     -34.117  17.256  -1.146  1.00 20.00    -0.025 C 
HETATM    5  C2  UNL     1     -35.092  16.444  -1.581  1.00 20.00    -0.030 C 
BRANCH   5   6
HETATM    6  C9  UNL     1     -35.894  16.694  -2.825  1.00 20.00     0.027 C 
BRANCH   6   7
HETATM    7  C11 UNL     1     -35.319  15.992  -4.059  1.00 20.00     0.003 C 
BRANCH   7   8
HETATM    8  C10 UNL     1     -34.558  14.708  -3.719  1.00 20.00    -0.004 C 
HETATM    9  C8  UNL     1     -33.130  14.757  -4.240  1.00 20.00     0.005 C 
ENDBRANCH   7   8
ENDBRANCH   6   7
ENDBRANCH   5   6
ENDBRANCH   2   4
BRANCH   3  10
HETATM   10  C3  UNL     1     -31.576  18.691  -0.376  1.00 20.00     0.128 C 
HETATM   11  C7  UNL     1     -32.094  18.817   1.031  1.00 20.00     0.091 C 
HETATM   12  O12 UNL     1     -30.479  18.188  -0.617  1.00 20.00    -0.298 OA
ENDBRANCH   3  10
TORSDOF 5
ENDMDL
