MODEL 1
REMARK VINA RESULT:      -4.0      0.000      0.000
REMARK  0 active torsions:
REMARK  status: ('A' for Active; 'I' for Inactive)
ROOT
HETATM    1  C1  UNL     1     -34.372  16.189  -6.441  1.00 20.00     0.037 C 
HETATM    2  C2  UNL     1     -35.148  17.409  -5.909  1.00 20.00     0.019 C 
HETATM    3  C3  UNL     1     -33.330  14.889  -4.447  1.00 20.00     0.051 C 
HETATM    4  C4  UNL     1     -34.922  15.657  -2.657  1.00 20.00     0.052 C 
HETATM    5  C5  UNL     1     -34.469  14.961  -5.508  1.00 20.00     0.224 C 
HETATM    6  C6  UNL     1     -35.825  16.047  -3.835  1.00 20.00     0.237 C 
HETATM    7  C7  UNL     1     -35.256  17.400  -4.383  1.00 20.00     0.081 C 
HETATM    8  C8  UNL     1     -33.513  15.800  -3.216  1.00 20.00     0.052 C 
HETATM    9  C9  UNL     1     -36.303  13.711  -4.483  1.00 20.00     0.310 C 
HETATM   10  N10 UNL     1     -35.804  15.016  -4.895  1.00 20.00     0.094 N 
HETATM   11  S11 UNL     1     -33.561  17.543  -3.703  1.00 20.00    -0.157 SA
ENDROOT
TORSDOF 0
ENDMDL
MODEL 2
REMARK VINA RESULT:      -3.9      1.878      3.245
REMARK  0 active torsions:
REMARK  status: ('A' for Active; 'I' for Inactive)
ROOT
HETATM    1  C1  UNL     1     -33.801  15.521  -3.449  1.00 20.00     0.037 C 
HETATM    2  C2  UNL     1     -35.155  15.532  -2.716  1.00 20.00     0.019 C 
HETATM    3  C3  UNL     1     -34.186  15.037  -5.972  1.00 20.00     0.051 C 
HETATM    4  C4  UNL     1     -36.567  15.832  -6.124  1.00 20.00     0.052 C 
HETATM    5  C5  UNL     1     -33.886  16.105  -4.878  1.00 20.00     0.224 C 
HETATM    6  C6  UNL     1     -36.254  16.552  -4.805  1.00 20.00     0.237 C 
HETATM    7  C7  UNL     1     -36.334  15.457  -3.687  1.00 20.00     0.081 C 
HETATM    8  C8  UNL     1     -35.662  14.608  -6.093  1.00 20.00     0.052 C 
HETATM    9  C9  UNL     1     -34.723  18.187  -5.846  1.00 20.00     0.310 C 
HETATM   10  N10 UNL     1     -34.906  17.161  -4.830  1.00 20.00     0.094 N 
HETATM   11  S11 UNL     1     -36.242  13.848  -4.556  1.00 20.00    -0.157 SA
ENDROOT
TORSDOF 0
ENDMDL
MODEL 3
REMARK VINA RESULT:      -3.8      1.374      2.703
REMARK  0 active torsions:
REMARK  status: ('A' for Active; 'I' for Inactive)
ROOT
HETATM    1  C1  UNL     1     -36.369  14.284  -4.512  1.00 20.00     0.037 C 
HETATM    2  C2  UNL     1     -35.575  14.388  -5.828  1.00 20.00     0.019 C 
HETATM    3  C3  UNL     1     -35.087  15.530  -2.627  1.00 20.00     0.051 C 
HETATM    4  C4  UNL     1     -33.767  17.103  -4.079  1.00 20.00     0.052 C 
HETATM    5  C5  UNL     1     -36.266  15.560  -3.645  1.00 20.00     0.224 C 
HETATM    6  C6  UNL     1     -34.805  16.748  -5.152  1.00 20.00     0.237 C 
HETATM    7  C7  UNL     1     -34.387  15.344  -5.707  1.00 20.00     0.081 C 
HETATM    8  C8  UNL     1     -33.697  15.854  -3.212  1.00 20.00     0.052 C 
HETATM    9  C9  UNL     1     -36.651  17.944  -4.026  1.00 20.00     0.310 C 
HETATM   10  N10 UNL     1     -36.169  16.687  -4.582  1.00 20.00     0.094 N 
HETATM   11  S11 UNL     1     -33.229  14.642  -4.473  1.00 20.00    -0.157 SA
ENDROOT
TORSDOF 0
ENDMDL
MODEL 4
REMARK VINA RESULT:      -3.8      1.786      3.085
REMARK  0 active torsions:
REMARK  status: ('A' for Active; 'I' for Inactive)
ROOT
HETATM    1  C1  UNL     1     -34.401  16.297  -6.033  1.00 20.00     0.037 C 
HETATM    2  C2  UNL     1     -33.972  14.880  -5.608  1.00 20.00     0.019 C 
HETATM    3  C3  UNL     1     -35.870  17.353  -4.169  1.00 20.00     0.051 C 
HETATM    4  C4  UNL     1     -35.022  15.985  -2.235  1.00 20.00     0.052 C 
HETATM    5  C5  UNL     1     -34.469  17.286  -4.846  1.00 20.00     0.224 C 
HETATM    6  C6  UNL     1     -33.841  15.675  -3.165  1.00 20.00     0.237 C 
HETATM    7  C7  UNL     1     -34.353  14.576  -4.158  1.00 20.00     0.081 C 
HETATM    8  C8  UNL     1     -36.188  16.205  -3.189  1.00 20.00     0.052 C 
HETATM    9  C9  UNL     1     -32.928  17.969  -3.076  1.00 20.00     0.310 C 
HETATM   10  N10 UNL     1     -33.412  16.878  -3.911  1.00 20.00     0.094 N 
HETATM   11  S11 UNL     1     -36.181  14.608  -4.042  1.00 20.00    -0.157 SA
ENDROOT
TORSDOF 0
ENDMDL
MODEL 5
REMARK VINA RESULT:      -3.8      1.624      2.466
REMARK  0 active torsions:
REMARK  status: ('A' for Active; 'I' for Inactive)
ROOT
HETATM    1  C1  UNL     1     -36.835  15.553  -4.889  1.00 20.00     0.037 C 
HETATM    2  C2  UNL     1     -36.159  16.681  -5.691  1.00 20.00     0.019 C 
HETATM    3  C3  UNL     1     -35.014  14.029  -3.834  1.00 20.00     0.051 C 
HETATM    4  C4  UNL     1     -33.136  15.702  -3.793  1.00 20.00     0.052 C 
HETATM    5  C5  UNL     1     -36.052  15.170  -3.612  1.00 20.00     0.224 C 
HETATM    6  C6  UNL     1     -34.254  16.739  -3.964  1.00 20.00     0.237 C 
HETATM    7  C7  UNL     1     -34.644  16.706  -5.481  1.00 20.00     0.081 C 
HETATM    8  C8  UNL     1     -33.684  14.460  -4.484  1.00 20.00     0.052 C 
HETATM    9  C9  UNL     1     -35.168  16.400  -1.694  1.00 20.00     0.310 C 
HETATM   10  N10 UNL     1     -35.428  16.409  -3.126  1.00 20.00     0.094 N 
HETATM   11  S11 UNL     1     -33.962  15.138  -6.138  1.00 20.00    -0.157 SA
ENDROOT
TORSDOF 0
ENDMDL
MODEL 6
REMARK VINA RESULT:      -3.8      1.674      2.911
REMARK  0 active torsions:
REMARK  status: ('A' for Active; 'I' for Inactive)
ROOT
HETATM    1  C1  UNL     1     -35.860  13.548  -4.273  1.00 20.00     0.037 C 
HETATM    2  C2  UNL     1     -37.170  14.332  -4.471  1.00 20.00     0.019 C 
HETATM    3  C3  UNL     1     -33.868  14.947  -5.180  1.00 20.00     0.051 C 
HETATM    4  C4  UNL     1     -34.918  17.224  -4.982  1.00 20.00     0.052 C 
HETATM    5  C5  UNL     1     -34.659  14.459  -3.930  1.00 20.00     0.224 C 
HETATM    6  C6  UNL     1     -35.900  16.525  -4.032  1.00 20.00     0.237 C 
HETATM    7  C7  UNL     1     -36.916  15.763  -4.949  1.00 20.00     0.081 C 
HETATM    8  C8  UNL     1     -34.502  16.124  -5.949  1.00 20.00     0.052 C 
HETATM    9  C9  UNL     1     -34.222  16.181  -2.252  1.00 20.00     0.310 C 
HETATM   10  N10 UNL     1     -35.202  15.573  -3.140  1.00 20.00     0.094 N 
HETATM   11  S11 UNL     1     -36.128  15.670  -6.600  1.00 20.00    -0.157 SA
ENDROOT
TORSDOF 0
ENDMDL
MODEL 7
REMARK VINA RESULT:      -3.8      0.875      2.821
REMARK  0 active torsions:
REMARK  status: ('A' for Active; 'I' for Inactive)
ROOT
HETATM    1  C1  UNL     1     -35.551  16.325  -2.291  1.00 20.00     0.037 C 
HETATM    2  C2  UNL     1     -34.014  16.246  -2.335  1.00 20.00     0.019 C 
HETATM    3  C3  UNL     1     -36.467  16.722  -4.690  1.00 20.00     0.051 C 
HETATM    4  C4  UNL     1     -34.521  15.773  -5.971  1.00 20.00     0.052 C 
HETATM    5  C5  UNL     1     -36.221  15.703  -3.538  1.00 20.00     0.224 C 
HETATM    6  C6  UNL     1     -34.159  15.107  -4.636  1.00 20.00     0.237 C 
HETATM    7  C7  UNL     1     -33.481  16.221  -3.769  1.00 20.00     0.081 C 
HETATM    8  C8  UNL     1     -35.234  17.053  -5.556  1.00 20.00     0.052 C 
HETATM    9  C9  UNL     1     -36.075  13.548  -4.683  1.00 20.00     0.310 C 
HETATM   10  N10 UNL     1     -35.361  14.585  -3.951  1.00 20.00     0.094 N 
HETATM   11  S11 UNL     1     -33.928  17.812  -4.559  1.00 20.00    -0.157 SA
ENDROOT
TORSDOF 0
ENDMDL
MODEL 8
REMARK VINA RESULT:      -3.8      1.835      3.142
REMARK  0 active torsions:
REMARK  status: ('A' for Active; 'I' for Inactive)
ROOT
HETATM    1  C1  UNL     1     -33.411  14.838  -4.220  1.00 20.00     0.037 C 
HETATM    2  C2  UNL     1     -34.694  14.041  -3.916  1.00 20.00     0.019 C 
HETATM    3  C3  UNL     1     -34.022  17.324  -4.666  1.00 20.00     0.051 C 
HETATM    4  C4  UNL     1     -36.195  17.385  -3.401  1.00 20.00     0.052 C 
HETATM    5  C5  UNL     1     -33.451  16.279  -3.661  1.00 20.00     0.224 C 
HETATM    6  C6  UNL     1     -35.671  16.106  -2.733  1.00 20.00     0.237 C 
HETATM    7  C7  UNL     1     -35.913  14.953  -3.765  1.00 20.00     0.081 C 
HETATM    8  C8  UNL     1     -35.559  17.360  -4.784  1.00 20.00     0.052 C 
HETATM    9  C9  UNL     1     -33.894  17.270  -1.471  1.00 20.00     0.310 C 
HETATM   10  N10 UNL     1     -34.230  16.215  -2.417  1.00 20.00     0.094 N 
HETATM   11  S11 UNL     1     -36.199  15.774  -5.377  1.00 20.00    -0.157 SA
ENDROOT
TORSDOF 0
ENDMDL
MODEL 9
REMARK VINA RESULT:      -3.7      1.309      2.468
REMARK  0 active torsions:
REMARK  status: ('A' for Active; 'I' for Inactive)
ROOT
HETATM    1  C1  UNL     1     -36.606  16.751  -4.881  1.00 20.00     0.037 C 
HETATM    2  C2  UNL     1     -36.902  15.486  -4.052  1.00 20.00     0.019 C 
HETATM    3  C3  UNL     1     -34.093  17.368  -4.648  1.00 20.00     0.051 C 
HETATM    4  C4  UNL     1     -33.223  15.084  -4.052  1.00 20.00     0.052 C 
HETATM    5  C5  UNL     1     -35.204  16.727  -5.532  1.00 20.00     0.224 C 
HETATM    6  C6  UNL     1     -34.560  14.590  -4.621  1.00 20.00     0.237 C 
HETATM    7  C7  UNL     1     -35.626  14.848  -3.502  1.00 20.00     0.081 C 
HETATM    8  C8  UNL     1     -33.548  16.472  -3.517  1.00 20.00     0.052 C 
HETATM    9  C9  UNL     1     -33.987  15.157  -6.956  1.00 20.00     0.310 C 
HETATM   10  N10 UNL     1     -34.924  15.322  -5.854  1.00 20.00     0.094 N 
HETATM   11  S11 UNL     1     -34.858  16.042  -2.345  1.00 20.00    -0.157 SA
ENDROOT
TORSDOF 0
ENDMDL
