MODEL 1
REMARK VINA RESULT:      -3.9      0.000      0.000
REMARK  1 active torsions:
REMARK  status: ('A' for Active; 'I' for Inactive)
REMARK    1  A    between atoms: C1_1  and  C3_3 
ROOT
HETATM    1  C2  UNL     1     -35.275  17.010  -3.809  1.00 20.00     0.090 C 
HETATM    2  C3  UNL     1     -35.281  14.744  -5.267  1.00 20.00     0.195 C 
HETATM    3  C4  UNL     1     -33.815  16.586  -3.893  1.00 20.00     0.054 C 
HETATM    4  C5  UNL     1     -33.070  16.870  -2.597  1.00 20.00     0.022 C 
HETATM    5  S7  UNL     1     -36.112  16.348  -5.272  1.00 20.00    -0.143 SA
HETATM    6  S8  UNL     1     -33.779  14.800  -4.258  1.00 20.00    -0.139 SA
ENDROOT
BRANCH   2   7
HETATM    7  C1  UNL     1     -36.204  13.734  -4.680  1.00 20.00     0.242 C 
HETATM    8  O6  UNL     1     -35.852  12.575  -4.484  1.00 20.00    -0.278 OA
HETATM    9 CL9  UNL     1     -37.769  14.403  -4.333  1.00 20.00    -0.042 Cl
ENDBRANCH   2   7
TORSDOF 1
ENDMDL
MODEL 2
REMARK VINA RESULT:      -3.5      1.608      1.624
REMARK  1 active torsions:
REMARK  status: ('A' for Active; 'I' for Inactive)
REMARK    1  A    between atoms: C1_1  and  C3_3 
ROOT
HETATM    1  C2  UNL     1     -34.638  17.339  -4.513  1.00 20.00     0.090 C 
HETATM    2  C3  UNL     1     -34.336  15.094  -5.971  1.00 20.00     0.195 C 
HETATM    3  C4  UNL     1     -33.558  16.540  -3.796  1.00 20.00     0.054 C 
HETATM    4  C5  UNL     1     -33.670  16.674  -2.284  1.00 20.00     0.022 C 
HETATM    5  S7  UNL     1     -34.592  16.860  -6.259  1.00 20.00    -0.143 SA
HETATM    6  S8  UNL     1     -33.748  14.794  -4.286  1.00 20.00    -0.139 SA
ENDROOT
BRANCH   2   7
HETATM    7  C1  UNL     1     -35.639  14.393  -6.147  1.00 20.00     0.242 C 
HETATM    8  O6  UNL     1     -36.227  14.386  -7.223  1.00 20.00    -0.278 OA
HETATM    9 CL9  UNL     1     -36.173  13.630  -4.681  1.00 20.00    -0.042 Cl
ENDBRANCH   2   7
TORSDOF 1
ENDMDL
MODEL 3
REMARK VINA RESULT:      -3.5      2.812      3.525
REMARK  1 active torsions:
REMARK  status: ('A' for Active; 'I' for Inactive)
REMARK    1  A    between atoms: C1_1  and  C3_3 
ROOT
HETATM    1  C2  UNL     1     -35.931  15.742  -5.689  1.00 20.00     0.090 C 
HETATM    2  C3  UNL     1     -34.863  14.797  -3.402  1.00 20.00     0.195 C 
HETATM    3  C4  UNL     1     -34.771  14.856  -6.126  1.00 20.00     0.054 C 
HETATM    4  C5  UNL     1     -34.050  15.431  -7.336  1.00 20.00     0.022 C 
HETATM    5  S7  UNL     1     -36.504  15.125  -4.085  1.00 20.00    -0.143 SA
HETATM    6  S8  UNL     1     -33.622  14.718  -4.717  1.00 20.00    -0.139 SA
ENDROOT
BRANCH   2   7
HETATM    7  C1  UNL     1     -34.503  15.911  -2.482  1.00 20.00     0.242 C 
HETATM    8  O6  UNL     1     -35.234  16.244  -1.554  1.00 20.00    -0.278 OA
HETATM    9 CL9  UNL     1     -32.977  16.632  -2.894  1.00 20.00    -0.042 Cl
ENDBRANCH   2   7
TORSDOF 1
ENDMDL
MODEL 4
REMARK VINA RESULT:      -3.5      1.919      2.083
REMARK  1 active torsions:
REMARK  status: ('A' for Active; 'I' for Inactive)
REMARK    1  A    between atoms: C1_1  and  C3_3 
ROOT
HETATM    1  C2  UNL     1     -34.689  15.579  -2.950  1.00 20.00     0.090 C 
HETATM    2  C3  UNL     1     -36.770  15.846  -4.640  1.00 20.00     0.195 C 
HETATM    3  C4  UNL     1     -34.085  15.480  -4.344  1.00 20.00     0.054 C 
HETATM    4  C5  UNL     1     -32.953  14.465  -4.397  1.00 20.00     0.022 C 
HETATM    5  S7  UNL     1     -36.199  16.570  -3.086  1.00 20.00    -0.143 SA
HETATM    6  S8  UNL     1     -35.419  14.992  -5.488  1.00 20.00    -0.139 SA
ENDROOT
BRANCH   2   7
HETATM    7  C1  UNL     1     -37.836  14.852  -4.334  1.00 20.00     0.242 C 
HETATM    8  O6  UNL     1     -37.636  13.644  -4.423  1.00 20.00    -0.278 OA
HETATM    9 CL9  UNL     1     -39.324  15.613  -3.862  1.00 20.00    -0.042 Cl
ENDBRANCH   2   7
TORSDOF 1
ENDMDL
MODEL 5
REMARK VINA RESULT:      -3.5      2.521      2.799
REMARK  1 active torsions:
REMARK  status: ('A' for Active; 'I' for Inactive)
REMARK    1  A    between atoms: C1_1  and  C3_3 
ROOT
HETATM    1  C2  UNL     1     -34.688  14.332  -3.790  1.00 20.00     0.090 C 
HETATM    2  C3  UNL     1     -36.175  15.521  -5.697  1.00 20.00     0.195 C 
HETATM    3  C4  UNL     1     -34.597  15.824  -3.495  1.00 20.00     0.054 C 
HETATM    4  C5  UNL     1     -33.213  16.216  -2.998  1.00 20.00     0.022 C 
HETATM    5  S7  UNL     1     -36.256  14.049  -4.652  1.00 20.00    -0.143 SA
HETATM    6  S8  UNL     1     -34.986  16.715  -5.037  1.00 20.00    -0.139 SA
ENDROOT
BRANCH   2   7
HETATM    7  C1  UNL     1     -35.725  15.111  -7.056  1.00 20.00     0.242 C 
HETATM    8  O6  UNL     1     -36.522  14.751  -7.918  1.00 20.00    -0.278 OA
HETATM    9 CL9  UNL     1     -34.000  15.212  -7.233  1.00 20.00    -0.042 Cl
ENDBRANCH   2   7
TORSDOF 1
ENDMDL
MODEL 6
REMARK VINA RESULT:      -3.4      2.252      2.714
REMARK  1 active torsions:
REMARK  status: ('A' for Active; 'I' for Inactive)
REMARK    1  A    between atoms: C1_1  and  C3_3 
ROOT
HETATM    1  C2  UNL     1     -33.255  16.032  -3.466  1.00 20.00     0.090 C 
HETATM    2  C3  UNL     1     -34.992  14.364  -4.673  1.00 20.00     0.195 C 
HETATM    3  C4  UNL     1     -34.428  15.914  -2.503  1.00 20.00     0.054 C 
HETATM    4  C5  UNL     1     -34.719  17.234  -1.805  1.00 20.00     0.022 C 
HETATM    5  S7  UNL     1     -33.205  14.509  -4.445  1.00 20.00    -0.143 SA
HETATM    6  S8  UNL     1     -35.880  15.380  -3.467  1.00 20.00    -0.139 SA
ENDROOT
BRANCH   2   7
HETATM    7  C1  UNL     1     -35.335  14.848  -6.039  1.00 20.00     0.242 C 
HETATM    8  O6  UNL     1     -36.498  15.031  -6.385  1.00 20.00    -0.278 OA
HETATM    9 CL9  UNL     1     -33.922  15.101  -7.018  1.00 20.00    -0.042 Cl
ENDBRANCH   2   7
TORSDOF 1
ENDMDL
MODEL 7
REMARK VINA RESULT:      -3.4      1.690      1.708
REMARK  1 active torsions:
REMARK  status: ('A' for Active; 'I' for Inactive)
REMARK    1  A    between atoms: C1_1  and  C3_3 
ROOT
HETATM    1  C2  UNL     1     -35.887  16.920  -2.510  1.00 20.00     0.090 C 
HETATM    2  C3  UNL     1     -36.521  15.618  -4.782  1.00 20.00     0.195 C 
HETATM    3  C4  UNL     1     -34.644  17.015  -3.384  1.00 20.00     0.054 C 
HETATM    4  C5  UNL     1     -33.368  16.908  -2.562  1.00 20.00     0.022 C 
HETATM    5  S7  UNL     1     -37.311  16.750  -3.616  1.00 20.00    -0.143 SA
HETATM    6  S8  UNL     1     -34.721  15.659  -4.601  1.00 20.00    -0.139 SA
ENDROOT
BRANCH   2   7
HETATM    7  C1  UNL     1     -36.992  14.236  -4.491  1.00 20.00     0.242 C 
HETATM    8  O6  UNL     1     -38.185  13.969  -4.388  1.00 20.00    -0.278 OA
HETATM    9 CL9  UNL     1     -35.673  13.117  -4.326  1.00 20.00    -0.042 Cl
ENDBRANCH   2   7
TORSDOF 1
ENDMDL
MODEL 8
REMARK VINA RESULT:      -3.3      2.415      2.603
REMARK  1 active torsions:
REMARK  status: ('A' for Active; 'I' for Inactive)
REMARK    1  A    between atoms: C1_1  and  C3_3 
ROOT
HETATM    1  C2  UNL     1     -37.654  16.698  -3.711  1.00 20.00     0.090 C 
HETATM    2  C3  UNL     1     -36.560  14.754  -5.220  1.00 20.00     0.195 C 
HETATM    3  C4  UNL     1     -36.935  17.426  -4.838  1.00 20.00     0.054 C 
HETATM    4  C5  UNL     1     -36.293  18.718  -4.354  1.00 20.00     0.022 C 
HETATM    5  S7  UNL     1     -38.102  15.056  -4.330  1.00 20.00    -0.143 SA
HETATM    6  S8  UNL     1     -35.661  16.300  -5.496  1.00 20.00    -0.139 SA
ENDROOT
BRANCH   2   7
HETATM    7  C1  UNL     1     -35.706  13.855  -4.395  1.00 20.00     0.242 C 
HETATM    8  O6  UNL     1     -35.824  12.634  -4.439  1.00 20.00    -0.278 OA
HETATM    9 CL9  UNL     1     -34.579  14.741  -3.414  1.00 20.00    -0.042 Cl
ENDBRANCH   2   7
TORSDOF 1
ENDMDL
MODEL 9
REMARK VINA RESULT:      -3.3     10.835     11.930
REMARK  1 active torsions:
REMARK  status: ('A' for Active; 'I' for Inactive)
REMARK    1  A    between atoms: C1_1  and  C3_3 
ROOT
HETATM    1  C2  UNL     1     -42.355   7.211   1.066  1.00 20.00     0.090 C 
HETATM    2  C3  UNL     1     -42.847   6.031  -1.305  1.00 20.00     0.195 C 
HETATM    3  C4  UNL     1     -42.433   8.353   0.062  1.00 20.00     0.054 C 
HETATM    4  C5  UNL     1     -41.427   9.450   0.378  1.00 20.00     0.022 C 
HETATM    5  S7  UNL     1     -43.362   5.854   0.418  1.00 20.00    -0.143 SA
HETATM    6  S8  UNL     1     -42.102   7.656  -1.590  1.00 20.00    -0.139 SA
ENDROOT
BRANCH   2   7
HETATM    7  C1  UNL     1     -41.827   4.988  -1.603  1.00 20.00     0.242 C 
HETATM    8  O6  UNL     1     -40.659   5.105  -1.243  1.00 20.00    -0.278 OA
HETATM    9 CL9  UNL     1     -42.497   3.653  -2.491  1.00 20.00    -0.042 Cl
ENDBRANCH   2   7
TORSDOF 1
ENDMDL
