MODEL 1
REMARK VINA RESULT:      -4.4      0.000      0.000
REMARK  0 active torsions:
REMARK  status: ('A' for Active; 'I' for Inactive)
ROOT
HETATM    1  C1  UNL     1     -26.164  19.124  11.976  1.00 20.00     0.015 C 
HETATM    2  C2  UNL     1     -25.324  18.465  11.427  1.00 20.00    -0.073 C 
HETATM    3  C3  UNL     1     -24.318  17.919   9.246  1.00 20.00     0.225 C 
HETATM    4  C4  UNL     1     -22.140  17.761   9.916  1.00 20.00     0.442 C 
HETATM    5  C5  UNL     1     -24.293  17.656  10.755  1.00 20.00     0.240 C 
HETATM    6  C6  UNL     1     -24.530  16.164  11.046  1.00 20.00     0.066 C 
HETATM    7  C7  UNL     1     -22.367  17.718  12.332  1.00 20.00     0.315 C 
HETATM    8  N8  UNL     1     -22.946  18.148  11.069  1.00 20.00     0.130 N 
HETATM    9  O9  UNL     1     -22.993  17.644   8.770  1.00 20.00    -0.359 OA
ENDROOT
TORSDOF 0
ENDMDL
MODEL 2
REMARK VINA RESULT:      -4.3     18.089     19.222
REMARK  0 active torsions:
REMARK  status: ('A' for Active; 'I' for Inactive)
ROOT
HETATM    1  C1  UNL     1     -34.969  16.146  -1.815  1.00 20.00     0.015 C 
HETATM    2  C2  UNL     1     -34.878  15.613  -2.887  1.00 20.00    -0.073 C 
HETATM    3  C3  UNL     1     -35.705  13.751  -4.274  1.00 20.00     0.225 C 
HETATM    4  C4  UNL     1     -35.770  14.839  -6.282  1.00 20.00     0.442 C 
HETATM    5  C5  UNL     1     -34.764  14.959  -4.202  1.00 20.00     0.240 C 
HETATM    6  C6  UNL     1     -33.309  14.524  -4.443  1.00 20.00     0.066 C 
HETATM    7  C7  UNL     1     -34.520  16.860  -5.792  1.00 20.00     0.315 C 
HETATM    8  N8  UNL     1     -35.351  15.791  -5.260  1.00 20.00     0.130 N 
HETATM    9  O9  UNL     1     -36.018  13.570  -5.662  1.00 20.00    -0.359 OA
ENDROOT
TORSDOF 0
ENDMDL
MODEL 3
REMARK VINA RESULT:      -4.1     18.032     19.244
REMARK  0 active torsions:
REMARK  status: ('A' for Active; 'I' for Inactive)
ROOT
HETATM    1  C1  UNL     1     -33.326  16.432  -2.685  1.00 20.00     0.015 C 
HETATM    2  C2  UNL     1     -33.964  15.758  -3.447  1.00 20.00    -0.073 C 
HETATM    3  C3  UNL     1     -34.683  13.459  -3.965  1.00 20.00     0.225 C 
HETATM    4  C4  UNL     1     -36.811  13.924  -4.651  1.00 20.00     0.442 C 
HETATM    5  C5  UNL     1     -34.746  14.931  -4.382  1.00 20.00     0.240 C 
HETATM    6  C6  UNL     1     -34.207  15.111  -5.811  1.00 20.00     0.066 C 
HETATM    7  C7  UNL     1     -36.736  16.337  -4.895  1.00 20.00     0.315 C 
HETATM    8  N8  UNL     1     -36.186  15.171  -4.223  1.00 20.00     0.130 N 
HETATM    9  O9  UNL     1     -35.881  12.850  -4.464  1.00 20.00    -0.359 OA
ENDROOT
TORSDOF 0
ENDMDL
MODEL 4
REMARK VINA RESULT:      -3.9     18.625     19.836
REMARK  0 active torsions:
REMARK  status: ('A' for Active; 'I' for Inactive)
ROOT
HETATM    1  C1  UNL     1     -33.387  15.740  -3.414  1.00 20.00     0.015 C 
HETATM    2  C2  UNL     1     -34.419  15.466  -3.964  1.00 20.00    -0.073 C 
HETATM    3  C3  UNL     1     -36.024  13.653  -4.420  1.00 20.00     0.225 C 
HETATM    4  C4  UNL     1     -37.951  14.868  -4.258  1.00 20.00     0.442 C 
HETATM    5  C5  UNL     1     -35.685  15.131  -4.639  1.00 20.00     0.240 C 
HETATM    6  C6  UNL     1     -35.572  15.442  -6.141  1.00 20.00     0.066 C 
HETATM    7  C7  UNL     1     -37.105  17.142  -4.271  1.00 20.00     0.315 C 
HETATM    8  N8  UNL     1     -36.829  15.750  -3.957  1.00 20.00     0.130 N 
HETATM    9  O9  UNL     1     -37.451  13.551  -4.520  1.00 20.00    -0.359 OA
ENDROOT
TORSDOF 0
ENDMDL
MODEL 5
REMARK VINA RESULT:      -3.8      1.567      2.668
REMARK  0 active torsions:
REMARK  status: ('A' for Active; 'I' for Inactive)
ROOT
HETATM    1  C1  UNL     1     -24.703  15.592  11.646  1.00 20.00     0.015 C 
HETATM    2  C2  UNL     1     -24.168  16.392  10.928  1.00 20.00    -0.073 C 
HETATM    3  C3  UNL     1     -22.734  16.654   8.941  1.00 20.00     0.225 C 
HETATM    4  C4  UNL     1     -23.761  18.481   8.031  1.00 20.00     0.442 C 
HETATM    5  C5  UNL     1     -23.512  17.374  10.048  1.00 20.00     0.240 C 
HETATM    6  C6  UNL     1     -22.573  18.269  10.874  1.00 20.00     0.066 C 
HETATM    7  C7  UNL     1     -25.184  19.210   9.856  1.00 20.00     0.315 C 
HETATM    8  N8  UNL     1     -24.498  18.093   9.229  1.00 20.00     0.130 N 
HETATM    9  O9  UNL     1     -22.675  17.566   7.836  1.00 20.00    -0.359 OA
ENDROOT
TORSDOF 0
ENDMDL
MODEL 6
REMARK VINA RESULT:      -3.7     17.865     19.014
REMARK  0 active torsions:
REMARK  status: ('A' for Active; 'I' for Inactive)
ROOT
HETATM    1  C1  UNL     1     -35.090  16.675  -1.267  1.00 20.00     0.015 C 
HETATM    2  C2  UNL     1     -35.214  16.161  -2.345  1.00 20.00    -0.073 C 
HETATM    3  C3  UNL     1     -34.490  14.279  -3.761  1.00 20.00     0.225 C 
HETATM    4  C4  UNL     1     -36.490  13.837  -4.773  1.00 20.00     0.442 C 
HETATM    5  C5  UNL     1     -35.367  15.532  -3.669  1.00 20.00     0.240 C 
HETATM    6  C6  UNL     1     -34.990  16.537  -4.770  1.00 20.00     0.066 C 
HETATM    7  C7  UNL     1     -37.790  15.797  -4.177  1.00 20.00     0.315 C 
HETATM    8  N8  UNL     1     -36.693  14.916  -3.812  1.00 20.00     0.130 N 
HETATM    9  O9  UNL     1     -35.120  13.420  -4.722  1.00 20.00    -0.359 OA
ENDROOT
TORSDOF 0
ENDMDL
MODEL 7
REMARK VINA RESULT:      -3.6     22.990     23.750
REMARK  0 active torsions:
REMARK  status: ('A' for Active; 'I' for Inactive)
ROOT
HETATM    1  C1  UNL     1     -41.171   9.873   0.404  1.00 20.00     0.015 C 
HETATM    2  C2  UNL     1     -41.548   8.795   0.033  1.00 20.00    -0.073 C 
HETATM    3  C3  UNL     1     -40.890   6.752  -1.178  1.00 20.00     0.225 C 
HETATM    4  C4  UNL     1     -41.976   5.227   0.133  1.00 20.00     0.442 C 
HETATM    5  C5  UNL     1     -42.012   7.473  -0.423  1.00 20.00     0.240 C 
HETATM    6  C6  UNL     1     -43.249   7.636  -1.321  1.00 20.00     0.066 C 
HETATM    7  C7  UNL     1     -43.417   6.655   1.463  1.00 20.00     0.315 C 
HETATM    8  N8  UNL     1     -42.179   6.552   0.709  1.00 20.00     0.130 N 
HETATM    9  O9  UNL     1     -41.148   5.349  -1.031  1.00 20.00    -0.359 OA
ENDROOT
TORSDOF 0
ENDMDL
MODEL 8
REMARK VINA RESULT:      -3.6     18.834     19.935
REMARK  0 active torsions:
REMARK  status: ('A' for Active; 'I' for Inactive)
ROOT
HETATM    1  C1  UNL     1     -34.802  15.928  -2.225  1.00 20.00     0.015 C 
HETATM    2  C2  UNL     1     -35.323  15.552  -3.239  1.00 20.00    -0.073 C 
HETATM    3  C3  UNL     1     -37.362  15.699  -4.616  1.00 20.00     0.225 C 
HETATM    4  C4  UNL     1     -36.370  15.708  -6.674  1.00 20.00     0.442 C 
HETATM    5  C5  UNL     1     -35.963  15.088  -4.483  1.00 20.00     0.240 C 
HETATM    6  C6  UNL     1     -36.042  13.553  -4.487  1.00 20.00     0.066 C 
HETATM    7  C7  UNL     1     -34.098  15.054  -6.132  1.00 20.00     0.315 C 
HETATM    8  N8  UNL     1     -35.320  15.684  -5.661  1.00 20.00     0.130 N 
HETATM    9  O9  UNL     1     -37.646  15.745  -6.021  1.00 20.00    -0.359 OA
ENDROOT
TORSDOF 0
ENDMDL
MODEL 9
REMARK VINA RESULT:      -3.4     18.191     19.294
REMARK  0 active torsions:
REMARK  status: ('A' for Active; 'I' for Inactive)
ROOT
HETATM    1  C1  UNL     1     -38.253  14.764  -4.250  1.00 20.00     0.015 C 
HETATM    2  C2  UNL     1     -37.060  14.848  -4.135  1.00 20.00    -0.073 C 
HETATM    3  C3  UNL     1     -34.969  13.555  -3.972  1.00 20.00     0.225 C 
HETATM    4  C4  UNL     1     -33.633  14.928  -5.215  1.00 20.00     0.442 C 
HETATM    5  C5  UNL     1     -35.598  14.952  -3.994  1.00 20.00     0.240 C 
HETATM    6  C6  UNL     1     -35.252  15.720  -2.707  1.00 20.00     0.066 C 
HETATM    7  C7  UNL     1     -35.004  16.922  -5.397  1.00 20.00     0.315 C 
HETATM    8  N8  UNL     1     -34.984  15.479  -5.220  1.00 20.00     0.130 N 
HETATM    9  O9  UNL     1     -33.629  13.712  -4.458  1.00 20.00    -0.359 OA
ENDROOT
TORSDOF 0
ENDMDL
