MODEL 1
REMARK VINA RESULT:      -4.7      0.000      0.000
REMARK  2 active torsions:
REMARK  status: ('A' for Active; 'I' for Inactive)
REMARK    1  A    between atoms: C2_2  and  C8_8 
REMARK    2  A    between atoms: C8_8  and  N9_9 
ROOT
HETATM    1  C1  UNL     1     -32.939   8.341   0.864  1.00 20.00    -0.109 C 
HETATM    2  C2  UNL     1     -32.643   7.740   1.861  1.00 20.00    -0.077 C 
HETATM    3  C7  UNL     1     -33.299   9.072  -0.349  1.00 20.00     0.112 C 
ENDROOT
BRANCH   2   4
HETATM    4  C8  UNL     1     -32.288   7.006   3.079  1.00 20.00     0.365 C 
BRANCH   4   5
HETATM    5  N9  UNL     1     -33.482   6.673   3.852  1.00 20.00     0.103 N 
HETATM    6  C3  UNL     1     -33.239   6.849   5.291  1.00 20.00     0.299 C 
HETATM    7  C5  UNL     1     -34.494   6.481   6.078  1.00 20.00     0.198 C 
HETATM    8  O10 UNL     1     -34.881   5.136   5.798  1.00 20.00    -0.388 OA
HETATM    9  C6  UNL     1     -35.152   4.965   4.406  1.00 20.00     0.198 C 
HETATM   10  C4  UNL     1     -33.912   5.294   3.580  1.00 20.00     0.299 C 
ENDBRANCH   4   5
ENDBRANCH   2   4
TORSDOF 2
ENDMDL
MODEL 2
REMARK VINA RESULT:      -4.2     11.148     12.140
REMARK  2 active torsions:
REMARK  status: ('A' for Active; 'I' for Inactive)
REMARK    1  A    between atoms: C2_2  and  C8_8 
REMARK    2  A    between atoms: C8_8  and  N9_9 
ROOT
HETATM    1  C1  UNL     1     -33.527  17.251  -1.779  1.00 20.00    -0.109 C 
HETATM    2  C2  UNL     1     -33.350  16.499  -2.698  1.00 20.00    -0.077 C 
HETATM    3  C7  UNL     1     -33.744  18.168  -0.662  1.00 20.00     0.112 C 
ENDROOT
BRANCH   2   4
HETATM    4  C8  UNL     1     -33.127  15.581  -3.820  1.00 20.00     0.365 C 
BRANCH   4   5
HETATM    5  N9  UNL     1     -34.377  15.303  -4.523  1.00 20.00     0.103 N 
HETATM    6  C3  UNL     1     -35.040  14.119  -3.962  1.00 20.00     0.299 C 
HETATM    7  C5  UNL     1     -36.335  13.840  -4.721  1.00 20.00     0.198 C 
HETATM    8  O10 UNL     1     -36.066  13.650  -6.110  1.00 20.00    -0.388 OA
HETATM    9  C6  UNL     1     -35.451  14.811  -6.671  1.00 20.00     0.198 C 
HETATM   10  C4  UNL     1     -34.134  15.111  -5.960  1.00 20.00     0.299 C 
ENDBRANCH   4   5
ENDBRANCH   2   4
TORSDOF 2
ENDMDL
MODEL 3
REMARK VINA RESULT:      -4.0     15.075     15.721
REMARK  2 active torsions:
REMARK  status: ('A' for Active; 'I' for Inactive)
REMARK    1  A    between atoms: C2_2  and  C8_8 
REMARK    2  A    between atoms: C8_8  and  N9_9 
ROOT
HETATM    1  C1  UNL     1     -25.166  18.885   7.456  1.00 20.00    -0.109 C 
HETATM    2  C2  UNL     1     -24.326  18.807   8.311  1.00 20.00    -0.077 C 
HETATM    3  C7  UNL     1     -26.189  18.979   6.416  1.00 20.00     0.112 C 
ENDROOT
BRANCH   2   4
HETATM    4  C8  UNL     1     -23.295  18.712   9.348  1.00 20.00     0.365 C 
BRANCH   4   5
HETATM    5  N9  UNL     1     -23.814  18.047  10.541  1.00 20.00     0.103 N 
HETATM    6  C3  UNL     1     -23.970  16.604  10.308  1.00 20.00     0.299 C 
HETATM    7  C5  UNL     1     -24.526  15.934  11.561  1.00 20.00     0.198 C 
HETATM    8  O10 UNL     1     -25.776  16.518  11.925  1.00 20.00    -0.388 OA
HETATM    9  C6  UNL     1     -25.627  17.914  12.186  1.00 20.00     0.198 C 
HETATM   10  C4  UNL     1     -25.099  18.632  10.947  1.00 20.00     0.299 C 
ENDBRANCH   4   5
ENDBRANCH   2   4
TORSDOF 2
ENDMDL
MODEL 4
REMARK VINA RESULT:      -3.9     15.469     16.068
REMARK  2 active torsions:
REMARK  status: ('A' for Active; 'I' for Inactive)
REMARK    1  A    between atoms: C2_2  and  C8_8 
REMARK    2  A    between atoms: C8_8  and  N9_9 
ROOT
HETATM    1  C1  UNL     1     -25.383  18.911   7.238  1.00 20.00    -0.109 C 
HETATM    2  C2  UNL     1     -24.413  18.870   7.946  1.00 20.00    -0.077 C 
HETATM    3  C7  UNL     1     -26.563  18.961   6.378  1.00 20.00     0.112 C 
ENDROOT
BRANCH   2   4
HETATM    4  C8  UNL     1     -23.229  18.812   8.807  1.00 20.00     0.365 C 
BRANCH   4   5
HETATM    5  N9  UNL     1     -23.561  18.252  10.114  1.00 20.00     0.103 N 
HETATM    6  C3  UNL     1     -22.351  18.070  10.928  1.00 20.00     0.299 C 
HETATM    7  C5  UNL     1     -22.722  17.471  12.282  1.00 20.00     0.198 C 
HETATM    8  O10 UNL     1     -23.397  16.226  12.108  1.00 20.00    -0.388 OA
HETATM    9  C6  UNL     1     -24.592  16.399  11.346  1.00 20.00     0.198 C 
HETATM   10  C4  UNL     1     -24.266  16.971   9.968  1.00 20.00     0.299 C 
ENDBRANCH   4   5
ENDBRANCH   2   4
TORSDOF 2
ENDMDL
MODEL 5
REMARK VINA RESULT:      -3.9     10.970     11.827
REMARK  2 active torsions:
REMARK  status: ('A' for Active; 'I' for Inactive)
REMARK    1  A    between atoms: C2_2  and  C8_8 
REMARK    2  A    between atoms: C8_8  and  N9_9 
ROOT
HETATM    1  C1  UNL     1     -32.377  18.019  -0.977  1.00 20.00    -0.109 C 
HETATM    2  C2  UNL     1     -33.379  17.578  -1.470  1.00 20.00    -0.077 C 
HETATM    3  C7  UNL     1     -31.157  18.556  -0.377  1.00 20.00     0.112 C 
ENDROOT
BRANCH   2   4
HETATM    4  C8  UNL     1     -34.606  17.040  -2.065  1.00 20.00     0.365 C 
BRANCH   4   5
HETATM    5  N9  UNL     1     -34.349  15.760  -2.722  1.00 20.00     0.103 N 
HETATM    6  C3  UNL     1     -33.258  15.883  -3.697  1.00 20.00     0.299 C 
HETATM    7  C5  UNL     1     -33.017  14.539  -4.380  1.00 20.00     0.198 C 
HETATM    8  O10 UNL     1     -34.210  14.086  -5.020  1.00 20.00    -0.388 OA
HETATM    9  C6  UNL     1     -35.267  13.932  -4.073  1.00 20.00     0.198 C 
HETATM   10  C4  UNL     1     -35.563  15.262  -3.384  1.00 20.00     0.299 C 
ENDBRANCH   4   5
ENDBRANCH   2   4
TORSDOF 2
ENDMDL
MODEL 6
REMARK VINA RESULT:      -3.9     11.224     12.082
REMARK  2 active torsions:
REMARK  status: ('A' for Active; 'I' for Inactive)
REMARK    1  A    between atoms: C2_2  and  C8_8 
REMARK    2  A    between atoms: C8_8  and  N9_9 
ROOT
HETATM    1  C1  UNL     1     -34.074  16.746  -1.981  1.00 20.00    -0.109 C 
HETATM    2  C2  UNL     1     -33.602  16.098  -2.876  1.00 20.00    -0.077 C 
HETATM    3  C7  UNL     1     -34.649  17.534  -0.893  1.00 20.00     0.112 C 
ENDROOT
BRANCH   2   4
HETATM    4  C8  UNL     1     -33.019  15.310  -3.965  1.00 20.00     0.365 C 
BRANCH   4   5
HETATM    5  N9  UNL     1     -34.062  14.651  -4.748  1.00 20.00     0.103 N 
HETATM    6  C3  UNL     1     -34.516  15.514  -5.847  1.00 20.00     0.299 C 
HETATM    7  C5  UNL     1     -35.613  14.811  -6.640  1.00 20.00     0.198 C 
HETATM    8  O10 UNL     1     -36.706  14.473  -5.787  1.00 20.00    -0.388 OA
HETATM    9  C6  UNL     1     -36.280  13.606  -4.735  1.00 20.00     0.198 C 
HETATM   10  C4  UNL     1     -35.200  14.282  -3.894  1.00 20.00     0.299 C 
ENDBRANCH   4   5
ENDBRANCH   2   4
TORSDOF 2
ENDMDL
MODEL 7
REMARK VINA RESULT:      -3.6     11.957     12.885
REMARK  2 active torsions:
REMARK  status: ('A' for Active; 'I' for Inactive)
REMARK    1  A    between atoms: C2_2  and  C8_8 
REMARK    2  A    between atoms: C8_8  and  N9_9 
ROOT
HETATM    1  C1  UNL     1     -33.000  17.062  -2.330  1.00 20.00    -0.109 C 
HETATM    2  C2  UNL     1     -33.187  16.190  -3.134  1.00 20.00    -0.077 C 
HETATM    3  C7  UNL     1     -32.774  18.123  -1.350  1.00 20.00     0.112 C 
ENDROOT
BRANCH   2   4
HETATM    4  C8  UNL     1     -33.407  15.127  -4.119  1.00 20.00     0.365 C 
BRANCH   4   5
HETATM    5  N9  UNL     1     -34.371  15.547  -5.133  1.00 20.00     0.103 N 
HETATM    6  C3  UNL     1     -35.739  15.190  -4.733  1.00 20.00     0.299 C 
HETATM    7  C5  UNL     1     -36.726  15.626  -5.814  1.00 20.00     0.198 C 
HETATM    8  O10 UNL     1     -36.397  15.018  -7.062  1.00 20.00    -0.388 OA
HETATM    9  C6  UNL     1     -35.080  15.387  -7.475  1.00 20.00     0.198 C 
HETATM   10  C4  UNL     1     -34.054  14.944  -6.435  1.00 20.00     0.299 C 
ENDBRANCH   4   5
ENDBRANCH   2   4
TORSDOF 2
ENDMDL
MODEL 8
REMARK VINA RESULT:      -3.6     11.664     13.056
REMARK  2 active torsions:
REMARK  status: ('A' for Active; 'I' for Inactive)
REMARK    1  A    between atoms: C2_2  and  C8_8 
REMARK    2  A    between atoms: C8_8  and  N9_9 
ROOT
HETATM    1  C1  UNL     1     -34.560  15.953  -2.528  1.00 20.00    -0.109 C 
HETATM    2  C2  UNL     1     -34.927  15.081  -3.267  1.00 20.00    -0.077 C 
HETATM    3  C7  UNL     1     -34.112  17.015  -1.628  1.00 20.00     0.112 C 
ENDROOT
BRANCH   2   4
HETATM    4  C8  UNL     1     -35.382  14.019  -4.170  1.00 20.00     0.365 C 
BRANCH   4   5
HETATM    5  N9  UNL     1     -35.374  14.476  -5.558  1.00 20.00     0.103 N 
HETATM    6  C3  UNL     1     -34.023  14.882  -5.967  1.00 20.00     0.299 C 
HETATM    7  C5  UNL     1     -34.043  15.368  -7.414  1.00 20.00     0.198 C 
HETATM    8  O10 UNL     1     -34.956  16.454  -7.561  1.00 20.00    -0.388 OA
HETATM    9  C6  UNL     1     -36.279  16.058  -7.197  1.00 20.00     0.198 C 
HETATM   10  C4  UNL     1     -36.313  15.591  -5.745  1.00 20.00     0.299 C 
ENDBRANCH   4   5
ENDBRANCH   2   4
TORSDOF 2
ENDMDL
MODEL 9
REMARK VINA RESULT:      -3.5     15.635     16.005
REMARK  2 active torsions:
REMARK  status: ('A' for Active; 'I' for Inactive)
REMARK    1  A    between atoms: C2_2  and  C8_8 
REMARK    2  A    between atoms: C8_8  and  N9_9 
ROOT
HETATM    1  C1  UNL     1     -22.336  17.745   7.916  1.00 20.00    -0.109 C 
HETATM    2  C2  UNL     1     -23.193  18.325   8.526  1.00 20.00    -0.077 C 
HETATM    3  C7  UNL     1     -21.293  17.040   7.174  1.00 20.00     0.112 C 
ENDROOT
BRANCH   2   4
HETATM    4  C8  UNL     1     -24.242  19.026   9.271  1.00 20.00     0.365 C 
BRANCH   4   5
HETATM    5  N9  UNL     1     -24.514  18.359  10.542  1.00 20.00     0.103 N 
HETATM    6  C3  UNL     1     -24.319  16.908  10.423  1.00 20.00     0.299 C 
HETATM    7  C5  UNL     1     -24.622  16.233  11.758  1.00 20.00     0.198 C 
HETATM    8  O10 UNL     1     -25.957  16.525  12.172  1.00 20.00    -0.388 OA
HETATM    9  C6  UNL     1     -26.145  17.933  12.322  1.00 20.00     0.198 C 
HETATM   10  C4  UNL     1     -25.880  18.648  11.001  1.00 20.00     0.299 C 
ENDBRANCH   4   5
ENDBRANCH   2   4
TORSDOF 2
ENDMDL
