MODEL 1
REMARK VINA RESULT:      -4.0      0.000      0.000
REMARK  2 active torsions:
REMARK  status: ('A' for Active; 'I' for Inactive)
REMARK    1  A    between atoms: C1_1  and  C8_8 
REMARK    2  A    between atoms: C3_3  and  C8_8 
ROOT
HETATM    1  C2  UNL     1     -36.726  14.299  -4.130  1.00 20.00     0.153 A 
HETATM    2  C3  UNL     1     -35.435  15.012  -4.485  1.00 20.00     0.093 A 
HETATM    3  C5  UNL     1     -38.067  14.767  -4.569  1.00 20.00     0.042 C 
HETATM    4  C6  UNL     1     -35.434  16.256  -5.316  1.00 20.00     0.049 C 
HETATM    5  O10 UNL     1     -35.876  13.839  -5.188  1.00 20.00    -0.369 OA
ENDROOT
BRANCH   2   6
HETATM    6  C8  UNL     1     -34.231  14.782  -3.626  1.00 20.00     0.087 C 
HETATM    7  C7  UNL     1     -32.984  14.462  -4.466  1.00 20.00     0.021 C 
BRANCH   6   8
HETATM    8  C1  UNL     1     -33.959  15.995  -2.726  1.00 20.00     0.129 C 
HETATM    9  C4  UNL     1     -35.014  16.328  -1.701  1.00 20.00     0.091 C 
HETATM   10  O9  UNL     1     -32.959  16.701  -2.851  1.00 20.00    -0.298 OA
ENDBRANCH   6   8
ENDBRANCH   2   6
TORSDOF 2
ENDMDL
MODEL 2
REMARK VINA RESULT:      -3.8      1.462      3.265
REMARK  2 active torsions:
REMARK  status: ('A' for Active; 'I' for Inactive)
REMARK    1  A    between atoms: C1_1  and  C8_8 
REMARK    2  A    between atoms: C3_3  and  C8_8 
ROOT
HETATM    1  C2  UNL     1     -35.394  17.383  -4.312  1.00 20.00     0.153 A 
HETATM    2  C3  UNL     1     -34.760  16.149  -3.696  1.00 20.00     0.093 A 
HETATM    3  C5  UNL     1     -36.171  18.380  -3.531  1.00 20.00     0.042 C 
HETATM    4  C6  UNL     1     -34.881  15.857  -2.234  1.00 20.00     0.049 C 
HETATM    5  O10 UNL     1     -33.997  17.330  -3.996  1.00 20.00    -0.369 OA
ENDROOT
BRANCH   2   6
HETATM    6  C8  UNL     1     -34.445  14.987  -4.586  1.00 20.00     0.087 C 
HETATM    7  C7  UNL     1     -32.999  14.502  -4.398  1.00 20.00     0.021 C 
BRANCH   6   8
HETATM    8  C1  UNL     1     -35.422  13.829  -4.341  1.00 20.00     0.129 C 
HETATM    9  C4  UNL     1     -36.891  14.144  -4.467  1.00 20.00     0.091 C 
HETATM   10  O9  UNL     1     -35.046  12.704  -4.012  1.00 20.00    -0.298 OA
ENDBRANCH   6   8
ENDBRANCH   2   6
TORSDOF 2
ENDMDL
MODEL 3
REMARK VINA RESULT:      -3.8      1.528      3.935
REMARK  2 active torsions:
REMARK  status: ('A' for Active; 'I' for Inactive)
REMARK    1  A    between atoms: C1_1  and  C8_8 
REMARK    2  A    between atoms: C3_3  and  C8_8 
ROOT
HETATM    1  C2  UNL     1     -34.305  15.507  -2.973  1.00 20.00     0.153 A 
HETATM    2  C3  UNL     1     -35.686  15.907  -3.460  1.00 20.00     0.093 A 
HETATM    3  C5  UNL     1     -33.121  16.403  -3.042  1.00 20.00     0.042 C 
HETATM    4  C6  UNL     1     -35.944  17.256  -4.052  1.00 20.00     0.049 C 
HETATM    5  O10 UNL     1     -35.331  15.937  -2.068  1.00 20.00    -0.369 OA
ENDROOT
BRANCH   2   6
HETATM    6  C8  UNL     1     -36.662  14.827  -3.809  1.00 20.00     0.087 C 
HETATM    7  C7  UNL     1     -37.983  15.403  -4.343  1.00 20.00     0.021 C 
BRANCH   6   8
HETATM    8  C1  UNL     1     -36.062  13.856  -4.835  1.00 20.00     0.129 C 
HETATM    9  C4  UNL     1     -35.779  14.411  -6.209  1.00 20.00     0.091 C 
HETATM   10  O9  UNL     1     -35.858  12.668  -4.583  1.00 20.00    -0.298 OA
ENDBRANCH   6   8
ENDBRANCH   2   6
TORSDOF 2
ENDMDL
MODEL 4
REMARK VINA RESULT:      -3.8      1.227      3.624
REMARK  2 active torsions:
REMARK  status: ('A' for Active; 'I' for Inactive)
REMARK    1  A    between atoms: C1_1  and  C8_8 
REMARK    2  A    between atoms: C3_3  and  C8_8 
ROOT
HETATM    1  C2  UNL     1     -34.889  16.557  -3.259  1.00 20.00     0.153 A 
HETATM    2  C3  UNL     1     -34.533  15.601  -4.383  1.00 20.00     0.093 A 
HETATM    3  C5  UNL     1     -34.102  16.672  -2.003  1.00 20.00     0.042 C 
HETATM    4  C6  UNL     1     -33.344  14.698  -4.292  1.00 20.00     0.049 C 
HETATM    5  O10 UNL     1     -34.204  16.999  -4.438  1.00 20.00    -0.369 OA
ENDROOT
BRANCH   2   6
HETATM    6  C8  UNL     1     -35.606  15.197  -5.345  1.00 20.00     0.087 C 
HETATM    7  C7  UNL     1     -35.025  14.781  -6.706  1.00 20.00     0.021 C 
BRANCH   6   8
HETATM    8  C1  UNL     1     -36.459  14.059  -4.769  1.00 20.00     0.129 C 
HETATM    9  C4  UNL     1     -37.822  14.432  -4.243  1.00 20.00     0.091 C 
HETATM   10  O9  UNL     1     -36.049  12.900  -4.689  1.00 20.00    -0.298 OA
ENDBRANCH   6   8
ENDBRANCH   2   6
TORSDOF 2
ENDMDL
MODEL 5
REMARK VINA RESULT:      -3.7     17.856     18.973
REMARK  2 active torsions:
REMARK  status: ('A' for Active; 'I' for Inactive)
REMARK    1  A    between atoms: C1_1  and  C8_8 
REMARK    2  A    between atoms: C3_3  and  C8_8 
ROOT
HETATM    1  C2  UNL     1     -21.665  17.181   8.913  1.00 20.00     0.153 A 
HETATM    2  C3  UNL     1     -22.644  17.865   9.850  1.00 20.00     0.093 A 
HETATM    3  C5  UNL     1     -21.655  17.393   7.442  1.00 20.00     0.042 C 
HETATM    4  C6  UNL     1     -23.680  18.814   9.337  1.00 20.00     0.049 C 
HETATM    5  O10 UNL     1     -21.294  18.329   9.687  1.00 20.00    -0.369 OA
ENDROOT
BRANCH   2   6
HETATM    6  C8  UNL     1     -22.911  17.243  11.185  1.00 20.00     0.087 C 
HETATM    7  C7  UNL     1     -22.706  18.245  12.332  1.00 20.00     0.021 C 
BRANCH   6   8
HETATM    8  C1  UNL     1     -24.329  16.660  11.245  1.00 20.00     0.129 C 
HETATM    9  C4  UNL     1     -25.304  17.344  12.171  1.00 20.00     0.091 C 
HETATM   10  O9  UNL     1     -24.660  15.657  10.614  1.00 20.00    -0.298 OA
ENDBRANCH   6   8
ENDBRANCH   2   6
TORSDOF 2
ENDMDL
MODEL 6
REMARK VINA RESULT:      -3.7      1.625      3.913
REMARK  2 active torsions:
REMARK  status: ('A' for Active; 'I' for Inactive)
REMARK    1  A    between atoms: C1_1  and  C8_8 
REMARK    2  A    between atoms: C3_3  and  C8_8 
ROOT
HETATM    1  C2  UNL     1     -33.566  15.810  -3.376  1.00 20.00     0.153 A 
HETATM    2  C3  UNL     1     -34.911  15.651  -4.059  1.00 20.00     0.093 A 
HETATM    3  C5  UNL     1     -33.027  17.120  -2.924  1.00 20.00     0.042 C 
HETATM    4  C6  UNL     1     -35.796  16.828  -4.324  1.00 20.00     0.049 C 
HETATM    5  O10 UNL     1     -34.726  15.361  -2.664  1.00 20.00    -0.369 OA
ENDROOT
BRANCH   2   6
HETATM    6  C8  UNL     1     -35.147  14.436  -4.901  1.00 20.00     0.087 C 
HETATM    7  C7  UNL     1     -36.431  13.698  -4.490  1.00 20.00     0.021 C 
BRANCH   6   8
HETATM    8  C1  UNL     1     -35.208  14.803  -6.390  1.00 20.00     0.129 C 
HETATM    9  C4  UNL     1     -33.909  15.205  -7.042  1.00 20.00     0.091 C 
HETATM   10  O9  UNL     1     -36.263  14.821  -7.025  1.00 20.00    -0.298 OA
ENDBRANCH   6   8
ENDBRANCH   2   6
TORSDOF 2
ENDMDL
MODEL 7
REMARK VINA RESULT:      -3.7      1.676      3.294
REMARK  2 active torsions:
REMARK  status: ('A' for Active; 'I' for Inactive)
REMARK    1  A    between atoms: C1_1  and  C8_8 
REMARK    2  A    between atoms: C3_3  and  C8_8 
ROOT
HETATM    1  C2  UNL     1     -34.822  14.797  -6.460  1.00 20.00     0.153 A 
HETATM    2  C3  UNL     1     -34.666  15.414  -5.082  1.00 20.00     0.093 A 
HETATM    3  C5  UNL     1     -34.578  15.543  -7.723  1.00 20.00     0.042 C 
HETATM    4  C6  UNL     1     -34.249  16.840  -4.908  1.00 20.00     0.049 C 
HETATM    5  O10 UNL     1     -33.654  14.574  -5.660  1.00 20.00    -0.369 OA
ENDROOT
BRANCH   2   6
HETATM    6  C8  UNL     1     -35.387  14.783  -3.931  1.00 20.00     0.087 C 
HETATM    7  C7  UNL     1     -35.110  15.522  -2.612  1.00 20.00     0.021 C 
BRANCH   6   8
HETATM    8  C1  UNL     1     -36.897  14.728  -4.194  1.00 20.00     0.129 C 
HETATM    9  C4  UNL     1     -37.657  16.024  -4.062  1.00 20.00     0.091 C 
HETATM   10  O9  UNL     1     -37.486  13.678  -4.453  1.00 20.00    -0.298 OA
ENDBRANCH   6   8
ENDBRANCH   2   6
TORSDOF 2
ENDMDL
MODEL 8
REMARK VINA RESULT:      -3.7     16.173     18.083
REMARK  2 active torsions:
REMARK  status: ('A' for Active; 'I' for Inactive)
REMARK    1  A    between atoms: C1_1  and  C8_8 
REMARK    2  A    between atoms: C3_3  and  C8_8 
ROOT
HETATM    1  C2  UNL     1     -24.232  18.462   7.861  1.00 20.00     0.153 A 
HETATM    2  C3  UNL     1     -24.093  18.225   9.353  1.00 20.00     0.093 A 
HETATM    3  C5  UNL     1     -25.371  19.199   7.252  1.00 20.00     0.042 C 
HETATM    4  C6  UNL     1     -25.116  18.729  10.322  1.00 20.00     0.049 C 
HETATM    5  O10 UNL     1     -23.367  19.263   8.676  1.00 20.00    -0.369 OA
ENDROOT
BRANCH   2   6
HETATM    6  C8  UNL     1     -23.232  17.093   9.821  1.00 20.00     0.087 C 
HETATM    7  C7  UNL     1     -21.744  17.355   9.538  1.00 20.00     0.021 C 
BRANCH   6   8
HETATM    8  C1  UNL     1     -23.442  16.826  11.317  1.00 20.00     0.129 C 
HETATM    9  C4  UNL     1     -24.463  15.779  11.683  1.00 20.00     0.091 C 
HETATM   10  O9  UNL     1     -22.849  17.459  12.192  1.00 20.00    -0.298 OA
ENDBRANCH   6   8
ENDBRANCH   2   6
TORSDOF 2
ENDMDL
MODEL 9
REMARK VINA RESULT:      -3.6      1.622      3.729
REMARK  2 active torsions:
REMARK  status: ('A' for Active; 'I' for Inactive)
REMARK    1  A    between atoms: C1_1  and  C8_8 
REMARK    2  A    between atoms: C3_3  and  C8_8 
ROOT
HETATM    1  C2  UNL     1     -33.739  15.977  -2.778  1.00 20.00     0.153 A 
HETATM    2  C3  UNL     1     -35.034  15.872  -3.562  1.00 20.00     0.093 A 
HETATM    3  C5  UNL     1     -33.113  17.272  -2.402  1.00 20.00     0.042 C 
HETATM    4  C6  UNL     1     -35.775  17.090  -4.013  1.00 20.00     0.049 C 
HETATM    5  O10 UNL     1     -34.991  15.707  -2.135  1.00 20.00    -0.369 OA
ENDROOT
BRANCH   2   6
HETATM    6  C8  UNL     1     -35.319  14.604  -4.305  1.00 20.00     0.087 C 
HETATM    7  C7  UNL     1     -36.819  14.273  -4.316  1.00 20.00     0.021 C 
BRANCH   6   8
HETATM    8  C1  UNL     1     -34.789  14.681  -5.744  1.00 20.00     0.129 C 
HETATM    9  C4  UNL     1     -35.817  14.831  -6.837  1.00 20.00     0.091 C 
HETATM   10  O9  UNL     1     -33.593  14.580  -6.015  1.00 20.00    -0.298 OA
ENDBRANCH   6   8
ENDBRANCH   2   6
TORSDOF 2
ENDMDL
