MODEL 1
REMARK VINA RESULT:      -4.6      0.000      0.000
REMARK  0 active torsions:
REMARK  status: ('A' for Active; 'I' for Inactive)
ROOT
HETATM    1  C1  UNL     1     -25.202  19.242   8.796  1.00 20.00     0.015 C 
HETATM    2  C2  UNL     1     -24.461  18.434   9.285  1.00 20.00    -0.075 C 
HETATM    3  C3  UNL     1     -21.371  17.778   8.967  1.00 20.00     0.034 C 
HETATM    4  C4  UNL     1     -24.347  16.929  12.079  1.00 20.00     0.034 C 
HETATM    5  C5  UNL     1     -22.594  16.883   8.830  1.00 20.00     0.057 C 
HETATM    6  C6  UNL     1     -24.343  16.385  10.659  1.00 20.00     0.057 C 
HETATM    7  C7  UNL     1     -21.293  18.000  10.467  1.00 20.00     0.275 C 
HETATM    8  C8  UNL     1     -22.955  17.527  12.207  1.00 20.00     0.275 C 
HETATM    9  C9  UNL     1     -23.549  17.439   9.886  1.00 20.00     0.221 C 
HETATM   10  N10 UNL     1     -22.693  18.116  10.888  1.00 20.00     0.110 N 
ENDROOT
TORSDOF 0
ENDMDL
MODEL 2
REMARK VINA RESULT:      -4.2      2.177      3.678
REMARK  0 active torsions:
REMARK  status: ('A' for Active; 'I' for Inactive)
ROOT
HETATM    1  C1  UNL     1     -24.784  18.800   8.814  1.00 20.00     0.015 C 
HETATM    2  C2  UNL     1     -24.860  18.530   9.981  1.00 20.00    -0.075 C 
HETATM    3  C3  UNL     1     -27.214  18.532  12.111  1.00 20.00     0.034 C 
HETATM    4  C4  UNL     1     -23.316  16.528  11.903  1.00 20.00     0.034 C 
HETATM    5  C5  UNL     1     -25.849  19.203  12.142  1.00 20.00     0.057 C 
HETATM    6  C6  UNL     1     -23.558  18.025  12.019  1.00 20.00     0.057 C 
HETATM    7  C7  UNL     1     -26.866  17.069  12.319  1.00 20.00     0.275 C 
HETATM    8  C8  UNL     1     -24.688  15.948  12.202  1.00 20.00     0.275 C 
HETATM    9  C9  UNL     1     -24.954  18.197  11.419  1.00 20.00     0.221 C 
HETATM   10  N10 UNL     1     -25.622  16.883  11.564  1.00 20.00     0.110 N 
ENDROOT
TORSDOF 0
ENDMDL
MODEL 3
REMARK VINA RESULT:      -4.0     17.480     19.172
REMARK  0 active torsions:
REMARK  status: ('A' for Active; 'I' for Inactive)
ROOT
HETATM    1  C1  UNL     1     -36.329  13.644  -4.540  1.00 20.00     0.015 C 
HETATM    2  C2  UNL     1     -35.391  14.339  -4.820  1.00 20.00    -0.075 C 
HETATM    3  C3  UNL     1     -34.615  16.113  -7.336  1.00 20.00     0.034 C 
HETATM    4  C4  UNL     1     -33.338  16.082  -3.138  1.00 20.00     0.034 C 
HETATM    5  C5  UNL     1     -33.849  15.003  -6.632  1.00 20.00     0.057 C 
HETATM    6  C6  UNL     1     -33.099  14.985  -4.164  1.00 20.00     0.057 C 
HETATM    7  C7  UNL     1     -34.518  17.260  -6.346  1.00 20.00     0.275 C 
HETATM    8  C8  UNL     1     -33.805  17.243  -4.000  1.00 20.00     0.275 C 
HETATM    9  C9  UNL     1     -34.236  15.194  -5.165  1.00 20.00     0.221 C 
HETATM   10  N10 UNL     1     -34.635  16.615  -5.033  1.00 20.00     0.110 N 
ENDROOT
TORSDOF 0
ENDMDL
MODEL 4
REMARK VINA RESULT:      -3.9     17.381     19.214
REMARK  0 active torsions:
REMARK  status: ('A' for Active; 'I' for Inactive)
ROOT
HETATM    1  C1  UNL     1     -35.121  16.521  -1.596  1.00 20.00     0.015 C 
HETATM    2  C2  UNL     1     -35.276  15.880  -2.599  1.00 20.00    -0.075 C 
HETATM    3  C3  UNL     1     -37.525  15.767  -4.837  1.00 20.00     0.034 C 
HETATM    4  C4  UNL     1     -33.311  14.548  -4.708  1.00 20.00     0.034 C 
HETATM    5  C5  UNL     1     -36.928  14.665  -3.974  1.00 20.00     0.057 C 
HETATM    6  C6  UNL     1     -34.451  13.949  -3.899  1.00 20.00     0.057 C 
HETATM    7  C7  UNL     1     -36.400  16.068  -5.811  1.00 20.00     0.275 C 
HETATM    8  C8  UNL     1     -34.045  15.388  -5.740  1.00 20.00     0.275 C 
HETATM    9  C9  UNL     1     -35.466  15.090  -3.833  1.00 20.00     0.221 C 
HETATM   10  N10 UNL     1     -35.181  15.953  -5.003  1.00 20.00     0.110 N 
ENDROOT
TORSDOF 0
ENDMDL
MODEL 5
REMARK VINA RESULT:      -3.9     17.383     19.065
REMARK  0 active torsions:
REMARK  status: ('A' for Active; 'I' for Inactive)
ROOT
HETATM    1  C1  UNL     1     -34.074  15.195  -7.263  1.00 20.00     0.015 C 
HETATM    2  C2  UNL     1     -34.340  15.136  -6.094  1.00 20.00    -0.075 C 
HETATM    3  C3  UNL     1     -33.314  16.659  -3.504  1.00 20.00     0.034 C 
HETATM    4  C4  UNL     1     -36.948  14.387  -4.445  1.00 20.00     0.034 C 
HETATM    5  C5  UNL     1     -33.396  15.171  -3.812  1.00 20.00     0.057 C 
HETATM    6  C6  UNL     1     -35.533  13.836  -4.365  1.00 20.00     0.057 C 
HETATM    7  C7  UNL     1     -34.770  17.033  -3.294  1.00 20.00     0.275 C 
HETATM    8  C8  UNL     1     -36.802  15.765  -3.820  1.00 20.00     0.275 C 
HETATM    9  C9  UNL     1     -34.667  15.063  -4.654  1.00 20.00     0.221 C 
HETATM   10  N10 UNL     1     -35.495  16.237  -4.291  1.00 20.00     0.110 N 
ENDROOT
TORSDOF 0
ENDMDL
MODEL 6
REMARK VINA RESULT:      -3.8      1.348      3.079
REMARK  0 active torsions:
REMARK  status: ('A' for Active; 'I' for Inactive)
ROOT
HETATM    1  C1  UNL     1     -25.953  19.263   7.947  1.00 20.00     0.015 C 
HETATM    2  C2  UNL     1     -25.118  18.878   8.719  1.00 20.00    -0.075 C 
HETATM    3  C3  UNL     1     -25.204  17.372  11.512  1.00 20.00     0.034 C 
HETATM    4  C4  UNL     1     -22.121  17.868   8.428  1.00 20.00     0.034 C 
HETATM    5  C5  UNL     1     -24.529  18.675  11.109  1.00 20.00     0.057 C 
HETATM    6  C6  UNL     1     -22.718  18.966   9.296  1.00 20.00     0.057 C 
HETATM    7  C7  UNL     1     -24.331  16.327  10.840  1.00 20.00     0.275 C 
HETATM    8  C8  UNL     1     -22.609  16.603   9.116  1.00 20.00     0.275 C 
HETATM    9  C9  UNL     1     -24.090  18.404   9.670  1.00 20.00     0.221 C 
HETATM   10  N10 UNL     1     -23.971  16.932   9.553  1.00 20.00     0.110 N 
ENDROOT
TORSDOF 0
ENDMDL
MODEL 7
REMARK VINA RESULT:      -3.8     16.496     17.949
REMARK  0 active torsions:
REMARK  status: ('A' for Active; 'I' for Inactive)
ROOT
HETATM    1  C1  UNL     1     -35.426  16.992  -0.419  1.00 20.00     0.015 C 
HETATM    2  C2  UNL     1     -35.029  16.687  -1.510  1.00 20.00    -0.075 C 
HETATM    3  C3  UNL     1     -36.266  15.085  -3.956  1.00 20.00     0.034 C 
HETATM    4  C4  UNL     1     -32.992  17.981  -3.574  1.00 20.00     0.034 C 
HETATM    5  C5  UNL     1     -34.964  14.883  -3.195  1.00 20.00     0.057 C 
HETATM    6  C6  UNL     1     -33.040  16.586  -2.971  1.00 20.00     0.057 C 
HETATM    7  C7  UNL     1     -35.984  16.339  -4.764  1.00 20.00     0.275 C 
HETATM    8  C8  UNL     1     -34.155  17.958  -4.551  1.00 20.00     0.275 C 
HETATM    9  C9  UNL     1     -34.539  16.311  -2.853  1.00 20.00     0.221 C 
HETATM   10  N10 UNL     1     -35.190  17.179  -3.861  1.00 20.00     0.110 N 
ENDROOT
TORSDOF 0
ENDMDL
MODEL 8
REMARK VINA RESULT:      -3.8     16.902     18.646
REMARK  0 active torsions:
REMARK  status: ('A' for Active; 'I' for Inactive)
ROOT
HETATM    1  C1  UNL     1     -37.133  18.012  -4.115  1.00 20.00     0.015 C 
HETATM    2  C2  UNL     1     -36.422  17.069  -3.900  1.00 20.00    -0.075 C 
HETATM    3  C3  UNL     1     -35.715  14.413  -5.489  1.00 20.00     0.034 C 
HETATM    4  C4  UNL     1     -33.726  16.645  -2.276  1.00 20.00     0.034 C 
HETATM    5  C5  UNL     1     -36.232  14.612  -4.072  1.00 20.00     0.057 C 
HETATM    6  C6  UNL     1     -35.063  15.925  -2.184  1.00 20.00     0.057 C 
HETATM    7  C7  UNL     1     -34.273  14.877  -5.381  1.00 20.00     0.275 C 
HETATM    8  C8  UNL     1     -33.161  16.124  -3.587  1.00 20.00     0.275 C 
HETATM    9  C9  UNL     1     -35.547  15.907  -3.634  1.00 20.00     0.221 C 
HETATM   10  N10 UNL     1     -34.329  16.024  -4.469  1.00 20.00     0.110 N 
ENDROOT
TORSDOF 0
ENDMDL
MODEL 9
REMARK VINA RESULT:      -3.8     16.780     18.527
REMARK  0 active torsions:
REMARK  status: ('A' for Active; 'I' for Inactive)
ROOT
HETATM    1  C1  UNL     1     -35.221  16.660  -1.036  1.00 20.00     0.015 C 
HETATM    2  C2  UNL     1     -35.197  16.318  -2.186  1.00 20.00    -0.075 C 
HETATM    3  C3  UNL     1     -32.949  15.175  -4.115  1.00 20.00     0.034 C 
HETATM    4  C4  UNL     1     -37.336  15.082  -4.182  1.00 20.00     0.034 C 
HETATM    5  C5  UNL     1     -33.877  16.371  -4.273  1.00 20.00     0.057 C 
HETATM    6  C6  UNL     1     -36.455  16.316  -4.312  1.00 20.00     0.057 C 
HETATM    7  C7  UNL     1     -33.889  14.000  -4.317  1.00 20.00     0.275 C 
HETATM    8  C8  UNL     1     -36.340  13.947  -4.354  1.00 20.00     0.275 C 
HETATM    9  C9  UNL     1     -35.167  15.897  -3.603  1.00 20.00     0.221 C 
HETATM   10  N10 UNL     1     -35.134  14.417  -3.663  1.00 20.00     0.110 N 
ENDROOT
TORSDOF 0
ENDMDL
