MODEL 1
REMARK VINA RESULT:      -5.0      0.000      0.000
REMARK  2 active torsions:
REMARK  status: ('A' for Active; 'I' for Inactive)
REMARK    1  A    between atoms: C3_3  and  C5_5 
REMARK    2  A    between atoms: C3_3  and  O11_11 
ROOT
HETATM    1  C1  UNL     1     -34.829  15.259  -7.461  1.00 20.00     0.012 C 
HETATM    2  C2  UNL     1     -34.919  15.572  -6.305  1.00 20.00    -0.111 C 
HETATM    3  C4  UNL     1     -35.026  15.947  -4.924  1.00 20.00     0.087 A 
HETATM    4  C5  UNL     1     -35.564  14.970  -3.904  1.00 20.00     0.111 A 
HETATM    5  C6  UNL     1     -34.094  15.347  -3.885  1.00 20.00    -0.019 A 
HETATM    6  C7  UNL     1     -33.628  16.254  -2.772  1.00 20.00     0.017 C 
HETATM    7  C8  UNL     1     -33.054  14.329  -4.294  1.00 20.00     0.017 C 
ENDROOT
BRANCH   4   8
HETATM    8  C3  UNL     1     -35.998  13.619  -4.290  1.00 20.00     0.264 C 
HETATM    9  O10 UNL     1     -35.279  12.631  -4.249  1.00 20.00    -0.265 OA
BRANCH   8  10
HETATM   10  O11 UNL     1     -37.301  13.657  -4.690  1.00 20.00    -0.326 OA
HETATM   11  C9  UNL     1     -38.071  14.748  -4.172  1.00 20.00     0.213 C 
ENDBRANCH   8  10
ENDBRANCH   4   8
TORSDOF 2
ENDMDL
MODEL 2
REMARK VINA RESULT:      -4.6      1.375      2.566
REMARK  2 active torsions:
REMARK  status: ('A' for Active; 'I' for Inactive)
REMARK    1  A    between atoms: C3_3  and  C5_5 
REMARK    2  A    between atoms: C3_3  and  O11_11 
ROOT
HETATM    1  C1  UNL     1     -36.439  17.285  -2.631  1.00 20.00     0.012 C 
HETATM    2  C2  UNL     1     -35.749  16.327  -2.850  1.00 20.00    -0.111 C 
HETATM    3  C4  UNL     1     -34.925  15.181  -3.111  1.00 20.00     0.087 A 
HETATM    4  C5  UNL     1     -35.349  14.147  -4.128  1.00 20.00     0.111 A 
HETATM    5  C6  UNL     1     -34.169  15.055  -4.422  1.00 20.00    -0.019 A 
HETATM    6  C7  UNL     1     -32.792  14.437  -4.366  1.00 20.00     0.017 C 
HETATM    7  C8  UNL     1     -34.294  16.128  -5.478  1.00 20.00     0.017 C 
ENDROOT
BRANCH   4   8
HETATM    8  C3  UNL     1     -36.611  14.275  -4.872  1.00 20.00     0.264 C 
HETATM    9  O10 UNL     1     -36.683  14.612  -6.046  1.00 20.00    -0.265 OA
BRANCH   8  10
HETATM   10  O11 UNL     1     -37.655  13.963  -4.052  1.00 20.00    -0.326 OA
HETATM   11  C9  UNL     1     -38.827  14.769  -4.217  1.00 20.00     0.213 C 
ENDBRANCH   8  10
ENDBRANCH   4   8
TORSDOF 2
ENDMDL
MODEL 3
REMARK VINA RESULT:      -4.3      1.251      1.611
REMARK  2 active torsions:
REMARK  status: ('A' for Active; 'I' for Inactive)
REMARK    1  A    between atoms: C3_3  and  C5_5 
REMARK    2  A    between atoms: C3_3  and  O11_11 
ROOT
HETATM    1  C1  UNL     1     -34.681  15.506  -7.245  1.00 20.00     0.012 C 
HETATM    2  C2  UNL     1     -34.934  15.873  -6.130  1.00 20.00    -0.111 C 
HETATM    3  C4  UNL     1     -35.235  16.312  -4.798  1.00 20.00     0.087 A 
HETATM    4  C5  UNL     1     -36.480  15.824  -4.092  1.00 20.00     0.111 A 
HETATM    5  C6  UNL     1     -35.115  15.357  -3.622  1.00 20.00    -0.019 A 
HETATM    6  C7  UNL     1     -34.600  15.928  -2.323  1.00 20.00     0.017 C 
HETATM    7  C8  UNL     1     -34.694  13.924  -3.848  1.00 20.00     0.017 C 
ENDROOT
BRANCH   4   8
HETATM    8  C3  UNL     1     -37.418  14.897  -4.744  1.00 20.00     0.264 C 
HETATM    9  O10 UNL     1     -37.583  13.736  -4.400  1.00 20.00    -0.265 OA
BRANCH   8  10
HETATM   10  O11 UNL     1     -38.051  15.537  -5.768  1.00 20.00    -0.326 OA
HETATM   11  C9  UNL     1     -39.059  16.475  -5.376  1.00 20.00     0.213 C 
ENDBRANCH   8  10
ENDBRANCH   4   8
TORSDOF 2
ENDMDL
MODEL 4
REMARK VINA RESULT:      -4.3      1.681      2.363
REMARK  2 active torsions:
REMARK  status: ('A' for Active; 'I' for Inactive)
REMARK    1  A    between atoms: C3_3  and  C5_5 
REMARK    2  A    between atoms: C3_3  and  O11_11 
ROOT
HETATM    1  C1  UNL     1     -34.485  17.639  -5.833  1.00 20.00     0.012 C 
HETATM    2  C2  UNL     1     -34.913  17.229  -4.788  1.00 20.00    -0.111 C 
HETATM    3  C4  UNL     1     -35.425  16.740  -3.540  1.00 20.00     0.087 A 
HETATM    4  C5  UNL     1     -35.075  15.350  -3.059  1.00 20.00     0.111 A 
HETATM    5  C6  UNL     1     -34.506  16.561  -2.343  1.00 20.00    -0.019 A 
HETATM    6  C7  UNL     1     -35.075  16.890  -0.984  1.00 20.00     0.017 C 
HETATM    7  C8  UNL     1     -33.034  16.878  -2.462  1.00 20.00     0.017 C 
ENDROOT
BRANCH   4   8
HETATM    8  C3  UNL     1     -34.213  14.459  -3.850  1.00 20.00     0.264 C 
HETATM    9  O10 UNL     1     -33.059  14.720  -4.158  1.00 20.00    -0.265 OA
BRANCH   8  10
HETATM   10  O11 UNL     1     -34.902  13.327  -4.170  1.00 20.00    -0.326 OA
HETATM   11  C9  UNL     1     -36.242  13.532  -4.632  1.00 20.00     0.213 C 
ENDBRANCH   8  10
ENDBRANCH   4   8
TORSDOF 2
ENDMDL
MODEL 5
REMARK VINA RESULT:      -4.1      1.929      2.908
REMARK  2 active torsions:
REMARK  status: ('A' for Active; 'I' for Inactive)
REMARK    1  A    between atoms: C3_3  and  C5_5 
REMARK    2  A    between atoms: C3_3  and  O11_11 
ROOT
HETATM    1  C1  UNL     1     -34.186  18.395  -5.745  1.00 20.00     0.012 C 
HETATM    2  C2  UNL     1     -34.671  17.720  -4.878  1.00 20.00    -0.111 C 
HETATM    3  C4  UNL     1     -35.251  16.913  -3.843  1.00 20.00     0.087 A 
HETATM    4  C5  UNL     1     -34.842  15.467  -3.676  1.00 20.00     0.111 A 
HETATM    5  C6  UNL     1     -34.429  16.493  -2.636  1.00 20.00    -0.019 A 
HETATM    6  C7  UNL     1     -35.136  16.448  -1.303  1.00 20.00     0.017 C 
HETATM    7  C8  UNL     1     -32.980  16.905  -2.524  1.00 20.00     0.017 C 
ENDROOT
BRANCH   4   8
HETATM    8  C3  UNL     1     -33.850  14.844  -4.564  1.00 20.00     0.264 C 
HETATM    9  O10 UNL     1     -32.673  14.685  -4.273  1.00 20.00    -0.265 OA
BRANCH   8  10
HETATM   10  O11 UNL     1     -34.451  14.484  -5.735  1.00 20.00    -0.326 OA
HETATM   11  C9  UNL     1     -33.806  14.949  -6.925  1.00 20.00     0.213 C 
ENDBRANCH   8  10
ENDBRANCH   4   8
TORSDOF 2
ENDMDL
MODEL 6
REMARK VINA RESULT:      -4.1      1.801      3.001
REMARK  2 active torsions:
REMARK  status: ('A' for Active; 'I' for Inactive)
REMARK    1  A    between atoms: C3_3  and  C5_5 
REMARK    2  A    between atoms: C3_3  and  O11_11 
ROOT
HETATM    1  C1  UNL     1     -37.311  16.982  -3.468  1.00 20.00     0.012 C 
HETATM    2  C2  UNL     1     -36.254  16.757  -2.944  1.00 20.00    -0.111 C 
HETATM    3  C4  UNL     1     -34.990  16.489  -2.319  1.00 20.00     0.087 A 
HETATM    4  C5  UNL     1     -33.980  15.584  -2.987  1.00 20.00     0.111 A 
HETATM    5  C6  UNL     1     -33.707  17.074  -2.885  1.00 20.00    -0.019 A 
HETATM    6  C7  UNL     1     -32.658  17.516  -1.894  1.00 20.00     0.017 C 
HETATM    7  C8  UNL     1     -33.747  17.930  -4.129  1.00 20.00     0.017 C 
ENDROOT
BRANCH   4   8
HETATM    8  C3  UNL     1     -34.259  14.950  -4.284  1.00 20.00     0.264 C 
HETATM    9  O10 UNL     1     -34.031  15.473  -5.366  1.00 20.00    -0.265 OA
BRANCH   8  10
HETATM   10  O11 UNL     1     -34.799  13.715  -4.079  1.00 20.00    -0.326 OA
HETATM   11  C9  UNL     1     -36.125  13.532  -4.588  1.00 20.00     0.213 C 
ENDBRANCH   8  10
ENDBRANCH   4   8
TORSDOF 2
ENDMDL
MODEL 7
REMARK VINA RESULT:      -4.1      1.356      2.968
REMARK  2 active torsions:
REMARK  status: ('A' for Active; 'I' for Inactive)
REMARK    1  A    between atoms: C3_3  and  C5_5 
REMARK    2  A    between atoms: C3_3  and  O11_11 
ROOT
HETATM    1  C1  UNL     1     -34.457  15.901  -2.339  1.00 20.00     0.012 C 
HETATM    2  C2  UNL     1     -34.391  15.346  -3.402  1.00 20.00    -0.111 C 
HETATM    3  C4  UNL     1     -34.313  14.684  -4.673  1.00 20.00     0.087 A 
HETATM    4  C5  UNL     1     -35.570  14.355  -5.446  1.00 20.00     0.111 A 
HETATM    5  C6  UNL     1     -34.631  15.433  -5.957  1.00 20.00    -0.019 A 
HETATM    6  C7  UNL     1     -33.796  15.101  -7.170  1.00 20.00     0.017 C 
HETATM    7  C8  UNL     1     -35.054  16.882  -5.906  1.00 20.00     0.017 C 
ENDROOT
BRANCH   4   8
HETATM    8  C3  UNL     1     -36.902  14.694  -4.923  1.00 20.00     0.264 C 
HETATM    9  O10 UNL     1     -37.325  14.325  -3.837  1.00 20.00    -0.265 OA
BRANCH   8  10
HETATM   10  O11 UNL     1     -37.564  15.466  -5.832  1.00 20.00    -0.326 OA
HETATM   11  C9  UNL     1     -38.675  16.206  -5.315  1.00 20.00     0.213 C 
ENDBRANCH   8  10
ENDBRANCH   4   8
TORSDOF 2
ENDMDL
MODEL 8
REMARK VINA RESULT:      -4.1      1.529      3.030
REMARK  2 active torsions:
REMARK  status: ('A' for Active; 'I' for Inactive)
REMARK    1  A    between atoms: C3_3  and  C5_5 
REMARK    2  A    between atoms: C3_3  and  O11_11 
ROOT
HETATM    1  C1  UNL     1     -37.939  16.068  -4.248  1.00 20.00     0.012 C 
HETATM    2  C2  UNL     1     -36.860  15.773  -3.809  1.00 20.00    -0.111 C 
HETATM    3  C4  UNL     1     -35.572  15.421  -3.285  1.00 20.00     0.087 A 
HETATM    4  C5  UNL     1     -34.545  14.743  -4.163  1.00 20.00     0.111 A 
HETATM    5  C6  UNL     1     -34.327  16.177  -3.718  1.00 20.00    -0.019 A 
HETATM    6  C7  UNL     1     -33.270  16.420  -2.668  1.00 20.00     0.017 C 
HETATM    7  C8  UNL     1     -34.431  17.299  -4.724  1.00 20.00     0.017 C 
ENDROOT
BRANCH   4   8
HETATM    8  C3  UNL     1     -34.832  14.418  -5.568  1.00 20.00     0.264 C 
HETATM    9  O10 UNL     1     -35.903  13.979  -5.965  1.00 20.00    -0.265 OA
BRANCH   8  10
HETATM   10  O11 UNL     1     -33.733  14.683  -6.330  1.00 20.00    -0.326 OA
HETATM   11  C9  UNL     1     -34.001  15.201  -7.638  1.00 20.00     0.213 C 
ENDBRANCH   8  10
ENDBRANCH   4   8
TORSDOF 2
ENDMDL
MODEL 9
REMARK VINA RESULT:      -4.1      2.310      3.806
REMARK  2 active torsions:
REMARK  status: ('A' for Active; 'I' for Inactive)
REMARK    1  A    between atoms: C3_3  and  C5_5 
REMARK    2  A    between atoms: C3_3  and  O11_11 
ROOT
HETATM    1  C1  UNL     1     -32.917  17.396  -1.856  1.00 20.00     0.012 C 
HETATM    2  C2  UNL     1     -33.749  16.679  -2.341  1.00 20.00    -0.111 C 
HETATM    3  C4  UNL     1     -34.744  15.822  -2.920  1.00 20.00     0.087 A 
HETATM    4  C5  UNL     1     -35.169  16.003  -4.360  1.00 20.00     0.111 A 
HETATM    5  C6  UNL     1     -34.361  14.782  -3.960  1.00 20.00    -0.019 A 
HETATM    6  C7  UNL     1     -35.087  13.460  -3.910  1.00 20.00     0.017 C 
HETATM    7  C8  UNL     1     -32.925  14.654  -4.411  1.00 20.00     0.017 C 
ENDROOT
BRANCH   4   8
HETATM    8  C3  UNL     1     -34.587  17.057  -5.204  1.00 20.00     0.264 C 
HETATM    9  O10 UNL     1     -34.344  18.191  -4.814  1.00 20.00    -0.265 OA
BRANCH   8  10
HETATM   10  O11 UNL     1     -34.371  16.568  -6.459  1.00 20.00    -0.326 OA
HETATM   11  C9  UNL     1     -35.541  16.122  -7.154  1.00 20.00     0.213 C 
ENDBRANCH   8  10
ENDBRANCH   4   8
TORSDOF 2
ENDMDL
