MODEL 1
REMARK VINA RESULT:      -5.0      0.000      0.000
REMARK  2 active torsions:
REMARK  status: ('A' for Active; 'I' for Inactive)
REMARK    1  A    between atoms: C1_1  and  C5_5 
REMARK    2  A    between atoms: C3_3  and  C6_6 
ROOT
HETATM    1  C1  UNL     1     -32.723   7.630   1.790  1.00 20.00    -0.053 C 
HETATM    2  C2  UNL     1     -32.651   8.579   1.058  1.00 20.00     0.106 C 
HETATM    3  F9  UNL     1     -32.572   9.636   0.243  1.00 20.00    -0.144 F 
ENDROOT
BRANCH   1   4
HETATM    4  C5  UNL     1     -32.808   6.512   2.653  1.00 20.00     0.114 A 
HETATM    5  C6  UNL     1     -34.096   6.013   3.021  1.00 20.00     0.108 A 
HETATM    6  C7  UNL     1     -33.141   5.295   2.229  1.00 20.00     0.186 A 
HETATM    7  F10 UNL     1     -32.601   4.183   2.774  1.00 20.00    -0.235 F 
BRANCH   5   8
HETATM    8  C3  UNL     1     -34.412   5.681   4.235  1.00 20.00    -0.080 C 
HETATM    9  C4  UNL     1     -34.705   5.375   5.358  1.00 20.00     0.272 C 
HETATM   10  O8  UNL     1     -34.992   5.074   6.458  1.00 20.00    -0.274 OA
ENDBRANCH   5   8
ENDBRANCH   1   4
TORSDOF 2
ENDMDL
MODEL 2
REMARK VINA RESULT:      -4.9      2.988      4.787
REMARK  2 active torsions:
REMARK  status: ('A' for Active; 'I' for Inactive)
REMARK    1  A    between atoms: C1_1  and  C5_5 
REMARK    2  A    between atoms: C3_3  and  C6_6 
ROOT
HETATM    1  C1  UNL     1     -34.536   5.397   4.519  1.00 20.00    -0.053 C 
HETATM    2  C2  UNL     1     -34.938   5.254   5.640  1.00 20.00     0.106 C 
HETATM    3  F9  UNL     1     -35.389   5.095   6.890  1.00 20.00    -0.144 F 
ENDROOT
BRANCH   1   4
HETATM    4  C5  UNL     1     -34.061   5.566   3.196  1.00 20.00     0.114 A 
HETATM    5  C6  UNL     1     -32.867   6.321   2.976  1.00 20.00     0.108 A 
HETATM    6  C7  UNL     1     -33.001   4.917   2.720  1.00 20.00     0.186 A 
HETATM    7  F10 UNL     1     -32.936   4.518   1.431  1.00 20.00    -0.235 F 
BRANCH   5   8
HETATM    8  C3  UNL     1     -32.748   7.211   2.040  1.00 20.00    -0.080 C 
HETATM    9  C4  UNL     1     -32.640   8.035   1.174  1.00 20.00     0.272 C 
HETATM   10  O8  UNL     1     -32.532   8.842   0.325  1.00 20.00    -0.274 OA
ENDBRANCH   5   8
ENDBRANCH   1   4
TORSDOF 2
ENDMDL
MODEL 3
REMARK VINA RESULT:      -4.4     11.152     11.711
REMARK  2 active torsions:
REMARK  status: ('A' for Active; 'I' for Inactive)
REMARK    1  A    between atoms: C1_1  and  C5_5 
REMARK    2  A    between atoms: C3_3  and  C6_6 
ROOT
HETATM    1  C1  UNL     1     -33.253  16.857  -2.621  1.00 20.00    -0.053 C 
HETATM    2  C2  UNL     1     -32.787  17.897  -2.245  1.00 20.00     0.106 C 
HETATM    3  F9  UNL     1     -32.268  19.058  -1.828  1.00 20.00    -0.144 F 
ENDROOT
BRANCH   1   4
HETATM    4  C5  UNL     1     -33.802  15.631  -3.064  1.00 20.00     0.114 A 
HETATM    5  C6  UNL     1     -34.649  15.623  -4.216  1.00 20.00     0.108 A 
HETATM    6  C7  UNL     1     -33.364  14.991  -4.147  1.00 20.00     0.186 A 
HETATM    7  F10 UNL     1     -33.337  13.643  -4.209  1.00 20.00    -0.235 F 
BRANCH   5   8
HETATM    8  C3  UNL     1     -35.766  14.966  -4.274  1.00 20.00    -0.080 C 
HETATM    9  C4  UNL     1     -36.800  14.358  -4.327  1.00 20.00     0.272 C 
HETATM   10  O8  UNL     1     -37.813  13.763  -4.380  1.00 20.00    -0.274 OA
ENDBRANCH   5   8
ENDBRANCH   1   4
TORSDOF 2
ENDMDL
MODEL 4
REMARK VINA RESULT:      -4.3     10.840     11.725
REMARK  2 active torsions:
REMARK  status: ('A' for Active; 'I' for Inactive)
REMARK    1  A    between atoms: C1_1  and  C5_5 
REMARK    2  A    between atoms: C3_3  and  C6_6 
ROOT
HETATM    1  C1  UNL     1     -34.396  17.269  -1.462  1.00 20.00    -0.053 C 
HETATM    2  C2  UNL     1     -34.696  18.212  -0.783  1.00 20.00     0.106 C 
HETATM    3  F9  UNL     1     -35.029  19.263  -0.025  1.00 20.00    -0.144 F 
ENDROOT
BRANCH   1   4
HETATM    4  C5  UNL     1     -34.043  16.157  -2.263  1.00 20.00     0.114 A 
HETATM    5  C6  UNL     1     -34.738  15.935  -3.493  1.00 20.00     0.108 A 
HETATM    6  C7  UNL     1     -33.348  16.270  -3.393  1.00 20.00     0.186 A 
HETATM    7  F10 UNL     1     -32.459  15.328  -3.774  1.00 20.00    -0.235 F 
BRANCH   5   8
HETATM    8  C3  UNL     1     -35.167  14.770  -3.869  1.00 20.00    -0.080 C 
HETATM    9  C4  UNL     1     -35.566  13.693  -4.218  1.00 20.00     0.272 C 
HETATM   10  O8  UNL     1     -35.955  12.638  -4.560  1.00 20.00    -0.274 OA
ENDBRANCH   5   8
ENDBRANCH   1   4
TORSDOF 2
ENDMDL
MODEL 5
REMARK VINA RESULT:      -4.2     11.091     12.013
REMARK  2 active torsions:
REMARK  status: ('A' for Active; 'I' for Inactive)
REMARK    1  A    between atoms: C1_1  and  C5_5 
REMARK    2  A    between atoms: C3_3  and  C6_6 
ROOT
HETATM    1  C1  UNL     1     -32.927  17.149  -2.437  1.00 20.00    -0.053 C 
HETATM    2  C2  UNL     1     -32.528  17.804  -1.514  1.00 20.00     0.106 C 
HETATM    3  F9  UNL     1     -32.083  18.536  -0.486  1.00 20.00    -0.144 F 
ENDROOT
BRANCH   1   4
HETATM    4  C5  UNL     1     -33.397  16.376  -3.525  1.00 20.00     0.114 A 
HETATM    5  C6  UNL     1     -34.754  15.925  -3.524  1.00 20.00     0.108 A 
HETATM    6  C7  UNL     1     -34.209  16.863  -4.461  1.00 20.00     0.186 A 
HETATM    7  F10 UNL     1     -34.122  16.467  -5.749  1.00 20.00    -0.235 F 
BRANCH   5   8
HETATM    8  C3  UNL     1     -35.104  14.717  -3.843  1.00 20.00    -0.080 C 
HETATM    9  C4  UNL     1     -35.427  13.600  -4.140  1.00 20.00     0.272 C 
HETATM   10  O8  UNL     1     -35.744  12.505  -4.429  1.00 20.00    -0.274 OA
ENDBRANCH   5   8
ENDBRANCH   1   4
TORSDOF 2
ENDMDL
MODEL 6
REMARK VINA RESULT:      -4.1     11.525     12.126
REMARK  2 active torsions:
REMARK  status: ('A' for Active; 'I' for Inactive)
REMARK    1  A    between atoms: C1_1  and  C5_5 
REMARK    2  A    between atoms: C3_3  and  C6_6 
ROOT
HETATM    1  C1  UNL     1     -34.805  15.241  -3.449  1.00 20.00    -0.053 C 
HETATM    2  C2  UNL     1     -35.203  14.698  -4.442  1.00 20.00     0.106 C 
HETATM    3  F9  UNL     1     -35.647  14.092  -5.549  1.00 20.00    -0.144 F 
ENDROOT
BRANCH   1   4
HETATM    4  C5  UNL     1     -34.336  15.882  -2.277  1.00 20.00     0.114 A 
HETATM    5  C6  UNL     1     -33.927  17.250  -2.348  1.00 20.00     0.108 A 
HETATM    6  C7  UNL     1     -35.057  16.775  -1.603  1.00 20.00     0.186 A 
HETATM    7  F10 UNL     1     -34.990  16.868  -0.258  1.00 20.00    -0.235 F 
BRANCH   5   8
HETATM    8  C3  UNL     1     -32.844  17.700  -1.794  1.00 20.00    -0.080 C 
HETATM    9  C4  UNL     1     -31.841  18.115  -1.282  1.00 20.00     0.272 C 
HETATM   10  O8  UNL     1     -30.859  18.523  -0.780  1.00 20.00    -0.274 OA
ENDBRANCH   5   8
ENDBRANCH   1   4
TORSDOF 2
ENDMDL
MODEL 7
REMARK VINA RESULT:      -4.1     11.671     12.365
REMARK  2 active torsions:
REMARK  status: ('A' for Active; 'I' for Inactive)
REMARK    1  A    between atoms: C1_1  and  C5_5 
REMARK    2  A    between atoms: C3_3  and  C6_6 
ROOT
HETATM    1  C1  UNL     1     -32.750  17.703  -1.887  1.00 20.00    -0.053 C 
HETATM    2  C2  UNL     1     -31.906  18.250  -1.232  1.00 20.00     0.106 C 
HETATM    3  F9  UNL     1     -30.965  18.860  -0.503  1.00 20.00    -0.144 F 
ENDROOT
BRANCH   1   4
HETATM    4  C5  UNL     1     -33.746  17.059  -2.659  1.00 20.00     0.114 A 
HETATM    5  C6  UNL     1     -33.511  15.729  -3.127  1.00 20.00     0.108 A 
HETATM    6  C7  UNL     1     -34.521  16.090  -2.177  1.00 20.00     0.186 A 
HETATM    7  F10 UNL     1     -35.808  15.955  -2.564  1.00 20.00    -0.235 F 
BRANCH   5   8
HETATM    8  C3  UNL     1     -33.774  15.342  -4.337  1.00 20.00    -0.080 C 
HETATM    9  C4  UNL     1     -34.017  14.986  -5.458  1.00 20.00     0.272 C 
HETATM   10  O8  UNL     1     -34.255  14.635  -6.554  1.00 20.00    -0.274 OA
ENDBRANCH   5   8
ENDBRANCH   1   4
TORSDOF 2
ENDMDL
MODEL 8
REMARK VINA RESULT:      -4.0     11.093     12.242
REMARK  2 active torsions:
REMARK  status: ('A' for Active; 'I' for Inactive)
REMARK    1  A    between atoms: C1_1  and  C5_5 
REMARK    2  A    between atoms: C3_3  and  C6_6 
ROOT
HETATM    1  C1  UNL     1     -33.667  16.211  -2.976  1.00 20.00    -0.053 C 
HETATM    2  C2  UNL     1     -32.945  16.941  -2.356  1.00 20.00     0.106 C 
HETATM    3  F9  UNL     1     -32.139  17.755  -1.664  1.00 20.00    -0.144 F 
ENDROOT
BRANCH   1   4
HETATM    4  C5  UNL     1     -34.518  15.349  -3.707  1.00 20.00     0.114 A 
HETATM    5  C6  UNL     1     -34.117  14.913  -5.008  1.00 20.00     0.108 A 
HETATM    6  C7  UNL     1     -34.267  14.052  -3.872  1.00 20.00     0.186 A 
HETATM    7  F10 UNL     1     -35.261  13.139  -3.919  1.00 20.00    -0.235 F 
BRANCH   5   8
HETATM    8  C3  UNL     1     -34.915  14.892  -6.031  1.00 20.00    -0.080 C 
HETATM    9  C4  UNL     1     -35.654  14.873  -6.977  1.00 20.00     0.272 C 
HETATM   10  O8  UNL     1     -36.377  14.854  -7.903  1.00 20.00    -0.274 OA
ENDBRANCH   5   8
ENDBRANCH   1   4
TORSDOF 2
ENDMDL
MODEL 9
REMARK VINA RESULT:      -3.9     11.183     11.927
REMARK  2 active torsions:
REMARK  status: ('A' for Active; 'I' for Inactive)
REMARK    1  A    between atoms: C1_1  and  C5_5 
REMARK    2  A    between atoms: C3_3  and  C6_6 
ROOT
HETATM    1  C1  UNL     1     -36.520  14.870  -4.248  1.00 20.00    -0.053 C 
HETATM    2  C2  UNL     1     -37.678  14.560  -4.289  1.00 20.00     0.106 C 
HETATM    3  F9  UNL     1     -38.970  14.214  -4.334  1.00 20.00    -0.144 F 
ENDROOT
BRANCH   1   4
HETATM    4  C5  UNL     1     -35.153  15.236  -4.200  1.00 20.00     0.114 A 
HETATM    5  C6  UNL     1     -34.511  15.363  -2.929  1.00 20.00     0.108 A 
HETATM    6  C7  UNL     1     -34.183  14.371  -3.911  1.00 20.00     0.186 A 
HETATM    7  F10 UNL     1     -32.965  14.456  -4.488  1.00 20.00    -0.235 F 
BRANCH   5   8
HETATM    8  C3  UNL     1     -33.729  16.350  -2.621  1.00 20.00    -0.080 C 
HETATM    9  C4  UNL     1     -33.005  17.264  -2.334  1.00 20.00     0.272 C 
HETATM   10  O8  UNL     1     -32.296  18.159  -2.054  1.00 20.00    -0.274 OA
ENDBRANCH   5   8
ENDBRANCH   1   4
TORSDOF 2
ENDMDL
