MODEL 1
REMARK VINA RESULT:      -4.7      0.000      0.000
REMARK  3 active torsions:
REMARK  status: ('A' for Active; 'I' for Inactive)
REMARK    1  A    between atoms: C1_1  and  C7_7 
REMARK    2  A    between atoms: C1_1  and  O10_10 
REMARK    3  A    between atoms: C6_6  and  C7_7 
ROOT
HETATM    1  C4  UNL     1     -35.000  16.027  -5.739  1.00 20.00     0.021 A 
HETATM    2  C5  UNL     1     -34.030  14.921  -6.027  1.00 20.00     0.021 A 
HETATM    3  C7  UNL     1     -34.910  14.845  -4.795  1.00 20.00     0.051 A 
ENDROOT
BRANCH   3   4
HETATM    4  C1  UNL     1     -36.034  13.874  -4.846  1.00 20.00     0.267 C 
HETATM    5  O9  UNL     1     -35.932  12.692  -4.547  1.00 20.00    -0.264 OA
BRANCH   4   6
HETATM    6  O10 UNL     1     -37.165  14.507  -5.269  1.00 20.00    -0.326 OA
HETATM    7  C8  UNL     1     -38.155  14.738  -4.261  1.00 20.00     0.213 C 
ENDBRANCH   4   6
ENDBRANCH   3   4
BRANCH   3   8
HETATM    8  C6  UNL     1     -34.296  15.019  -3.393  1.00 20.00     0.004 A 
HETATM    9  C2  UNL     1     -33.614  16.287  -2.958  1.00 20.00     0.006 A 
HETATM   10  C3  UNL     1     -34.923  15.885  -2.336  1.00 20.00     0.006 A 
ENDBRANCH   3   8
TORSDOF 3
ENDMDL
MODEL 2
REMARK VINA RESULT:      -4.1     11.057     12.011
REMARK  3 active torsions:
REMARK  status: ('A' for Active; 'I' for Inactive)
REMARK    1  A    between atoms: C1_1  and  C7_7 
REMARK    2  A    between atoms: C1_1  and  O10_10 
REMARK    3  A    between atoms: C6_6  and  C7_7 
ROOT
HETATM    1  C4  UNL     1     -32.919   4.573   3.114  1.00 20.00     0.021 A 
HETATM    2  C5  UNL     1     -33.886   5.114   2.105  1.00 20.00     0.021 A 
HETATM    3  C7  UNL     1     -33.400   6.005   3.230  1.00 20.00     0.051 A 
ENDROOT
BRANCH   3   4
HETATM    4  C1  UNL     1     -32.422   7.061   2.860  1.00 20.00     0.267 C 
HETATM    5  O9  UNL     1     -31.695   7.632   3.661  1.00 20.00    -0.264 OA
BRANCH   4   6
HETATM    6  O10 UNL     1     -32.472   7.278   1.515  1.00 20.00    -0.326 OA
HETATM    7  C8  UNL     1     -32.797   8.614   1.119  1.00 20.00     0.213 C 
ENDBRANCH   4   6
ENDBRANCH   3   4
BRANCH   3   8
HETATM    8  C6  UNL     1     -34.359   6.411   4.366  1.00 20.00     0.004 A 
HETATM    9  C2  UNL     1     -34.783   5.457   5.448  1.00 20.00     0.006 A 
HETATM   10  C3  UNL     1     -33.896   6.624   5.780  1.00 20.00     0.006 A 
ENDBRANCH   3   8
TORSDOF 3
ENDMDL
MODEL 3
REMARK VINA RESULT:      -4.0      1.092      1.242
REMARK  3 active torsions:
REMARK  status: ('A' for Active; 'I' for Inactive)
REMARK    1  A    between atoms: C1_1  and  C7_7 
REMARK    2  A    between atoms: C1_1  and  O10_10 
REMARK    3  A    between atoms: C6_6  and  C7_7 
ROOT
HETATM    1  C4  UNL     1     -35.368  16.164  -5.705  1.00 20.00     0.021 A 
HETATM    2  C5  UNL     1     -35.135  14.718  -6.023  1.00 20.00     0.021 A 
HETATM    3  C7  UNL     1     -35.695  15.108  -4.669  1.00 20.00     0.051 A 
ENDROOT
BRANCH   3   4
HETATM    4  C1  UNL     1     -37.137  14.828  -4.446  1.00 20.00     0.267 C 
HETATM    5  O9  UNL     1     -37.617  13.703  -4.398  1.00 20.00    -0.264 OA
BRANCH   4   6
HETATM    6  O10 UNL     1     -37.814  16.003  -4.307  1.00 20.00    -0.326 OA
HETATM    7  C8  UNL     1     -39.088  16.060  -4.957  1.00 20.00     0.213 C 
ENDBRANCH   4   6
ENDBRANCH   3   4
BRANCH   3   8
HETATM    8  C6  UNL     1     -34.827  14.970  -3.404  1.00 20.00     0.004 A 
HETATM    9  C2  UNL     1     -33.744  15.952  -3.052  1.00 20.00     0.006 A 
HETATM   10  C3  UNL     1     -34.987  15.869  -2.210  1.00 20.00     0.006 A 
ENDBRANCH   3   8
TORSDOF 3
ENDMDL
MODEL 4
REMARK VINA RESULT:      -3.9      1.432      2.436
REMARK  3 active torsions:
REMARK  status: ('A' for Active; 'I' for Inactive)
REMARK    1  A    between atoms: C1_1  and  C7_7 
REMARK    2  A    between atoms: C1_1  and  O10_10 
REMARK    3  A    between atoms: C6_6  and  C7_7 
ROOT
HETATM    1  C4  UNL     1     -36.922  15.919  -4.200  1.00 20.00     0.021 A 
HETATM    2  C5  UNL     1     -35.943  16.854  -4.842  1.00 20.00     0.021 A 
HETATM    3  C7  UNL     1     -35.484  15.481  -4.393  1.00 20.00     0.051 A 
ENDROOT
BRANCH   3   4
HETATM    4  C1  UNL     1     -35.238  14.484  -5.466  1.00 20.00     0.267 C 
HETATM    5  O9  UNL     1     -36.083  13.703  -5.883  1.00 20.00    -0.264 OA
BRANCH   4   6
HETATM    6  O10 UNL     1     -33.948  14.585  -5.897  1.00 20.00    -0.326 OA
HETATM    7  C8  UNL     1     -33.781  15.084  -7.227  1.00 20.00     0.213 C 
ENDBRANCH   4   6
ENDBRANCH   3   4
BRANCH   3   8
HETATM    8  C6  UNL     1     -34.548  15.337  -3.178  1.00 20.00     0.004 A 
HETATM    9  C2  UNL     1     -33.460  16.328  -2.870  1.00 20.00     0.006 A 
HETATM   10  C3  UNL     1     -34.655  16.217  -1.964  1.00 20.00     0.006 A 
ENDBRANCH   3   8
TORSDOF 3
ENDMDL
MODEL 5
REMARK VINA RESULT:      -3.8      1.772      3.306
REMARK  3 active torsions:
REMARK  status: ('A' for Active; 'I' for Inactive)
REMARK    1  A    between atoms: C1_1  and  C7_7 
REMARK    2  A    between atoms: C1_1  and  O10_10 
REMARK    3  A    between atoms: C6_6  and  C7_7 
ROOT
HETATM    1  C4  UNL     1     -34.727  16.986  -3.431  1.00 20.00     0.021 A 
HETATM    2  C5  UNL     1     -34.090  16.047  -2.452  1.00 20.00     0.021 A 
HETATM    3  C7  UNL     1     -34.739  15.496  -3.706  1.00 20.00     0.051 A 
ENDROOT
BRANCH   3   4
HETATM    4  C1  UNL     1     -33.818  15.014  -4.768  1.00 20.00     0.267 C 
HETATM    5  O9  UNL     1     -33.069  14.055  -4.642  1.00 20.00    -0.264 OA
BRANCH   4   6
HETATM    6  O10 UNL     1     -33.947  15.800  -5.875  1.00 20.00    -0.326 OA
HETATM    7  C8  UNL     1     -33.999  15.101  -7.123  1.00 20.00     0.213 C 
ENDBRANCH   4   6
ENDBRANCH   3   4
BRANCH   3   8
HETATM    8  C6  UNL     1     -36.055  14.701  -3.611  1.00 20.00     0.004 A 
HETATM    9  C2  UNL     1     -37.217  14.944  -4.535  1.00 20.00     0.006 A 
HETATM   10  C3  UNL     1     -36.445  13.657  -4.620  1.00 20.00     0.006 A 
ENDBRANCH   3   8
TORSDOF 3
ENDMDL
MODEL 6
REMARK VINA RESULT:      -3.7      1.808      3.457
REMARK  3 active torsions:
REMARK  status: ('A' for Active; 'I' for Inactive)
REMARK    1  A    between atoms: C1_1  and  C7_7 
REMARK    2  A    between atoms: C1_1  and  O10_10 
REMARK    3  A    between atoms: C6_6  and  C7_7 
ROOT
HETATM    1  C4  UNL     1     -36.620  15.191  -4.174  1.00 20.00     0.021 A 
HETATM    2  C5  UNL     1     -36.674  13.731  -4.511  1.00 20.00     0.021 A 
HETATM    3  C7  UNL     1     -35.451  14.543  -4.888  1.00 20.00     0.051 A 
ENDROOT
BRANCH   3   4
HETATM    4  C1  UNL     1     -34.229  14.312  -4.075  1.00 20.00     0.267 C 
HETATM    5  O9  UNL     1     -33.451  13.385  -4.257  1.00 20.00    -0.264 OA
BRANCH   4   6
HETATM    6  O10 UNL     1     -34.125  15.280  -3.121  1.00 20.00    -0.326 OA
HETATM    7  C8  UNL     1     -33.082  16.237  -3.328  1.00 20.00     0.213 C 
ENDBRANCH   4   6
ENDBRANCH   3   4
BRANCH   3   8
HETATM    8  C6  UNL     1     -35.166  14.874  -6.366  1.00 20.00     0.004 A 
HETATM    9  C2  UNL     1     -34.729  16.239  -6.822  1.00 20.00     0.006 A 
HETATM   10  C3  UNL     1     -33.775  15.080  -6.896  1.00 20.00     0.006 A 
ENDBRANCH   3   8
TORSDOF 3
ENDMDL
MODEL 7
REMARK VINA RESULT:      -3.7      1.595      2.891
REMARK  3 active torsions:
REMARK  status: ('A' for Active; 'I' for Inactive)
REMARK    1  A    between atoms: C1_1  and  C7_7 
REMARK    2  A    between atoms: C1_1  and  O10_10 
REMARK    3  A    between atoms: C6_6  and  C7_7 
ROOT
HETATM    1  C4  UNL     1     -33.319  16.284  -2.831  1.00 20.00     0.021 A 
HETATM    2  C5  UNL     1     -34.700  15.857  -2.435  1.00 20.00     0.021 A 
HETATM    3  C7  UNL     1     -34.326  15.917  -3.902  1.00 20.00     0.051 A 
ENDROOT
BRANCH   3   4
HETATM    4  C1  UNL     1     -34.117  14.614  -4.584  1.00 20.00     0.267 C 
HETATM    5  O9  UNL     1     -33.090  13.953  -4.500  1.00 20.00    -0.264 OA
BRANCH   4   6
HETATM    6  O10 UNL     1     -35.232  14.288  -5.298  1.00 20.00    -0.326 OA
HETATM    7  C8  UNL     1     -36.208  13.512  -4.595  1.00 20.00     0.213 C 
ENDBRANCH   4   6
ENDBRANCH   3   4
BRANCH   3   8
HETATM    8  C6  UNL     1     -34.924  17.009  -4.810  1.00 20.00     0.004 A 
HETATM    9  C2  UNL     1     -34.193  18.283  -5.136  1.00 20.00     0.006 A 
HETATM   10  C3  UNL     1     -34.434  17.258  -6.209  1.00 20.00     0.006 A 
ENDBRANCH   3   8
TORSDOF 3
ENDMDL
MODEL 8
REMARK VINA RESULT:      -3.7      1.971      2.796
REMARK  3 active torsions:
REMARK  status: ('A' for Active; 'I' for Inactive)
REMARK    1  A    between atoms: C1_1  and  C7_7 
REMARK    2  A    between atoms: C1_1  and  O10_10 
REMARK    3  A    between atoms: C6_6  and  C7_7 
ROOT
HETATM    1  C4  UNL     1     -33.503  14.629  -4.264  1.00 20.00     0.021 A 
HETATM    2  C5  UNL     1     -34.792  13.922  -3.975  1.00 20.00     0.021 A 
HETATM    3  C7  UNL     1     -34.677  15.410  -3.711  1.00 20.00     0.051 A 
ENDROOT
BRANCH   3   4
HETATM    4  C1  UNL     1     -35.381  16.306  -4.665  1.00 20.00     0.267 C 
HETATM    5  O9  UNL     1     -36.596  16.339  -4.804  1.00 20.00    -0.264 OA
BRANCH   4   6
HETATM    6  O10 UNL     1     -34.469  17.063  -5.338  1.00 20.00    -0.326 OA
HETATM    7  C8  UNL     1     -34.690  17.184  -6.747  1.00 20.00     0.213 C 
ENDBRANCH   4   6
ENDBRANCH   3   4
BRANCH   3   8
HETATM    8  C6  UNL     1     -34.643  15.939  -2.264  1.00 20.00     0.004 A 
HETATM    9  C2  UNL     1     -33.753  17.072  -1.836  1.00 20.00     0.006 A 
HETATM   10  C3  UNL     1     -35.244  17.260  -1.870  1.00 20.00     0.006 A 
ENDBRANCH   3   8
TORSDOF 3
ENDMDL
MODEL 9
REMARK VINA RESULT:      -3.6      1.976      2.641
REMARK  3 active torsions:
REMARK  status: ('A' for Active; 'I' for Inactive)
REMARK    1  A    between atoms: C1_1  and  C7_7 
REMARK    2  A    between atoms: C1_1  and  O10_10 
REMARK    3  A    between atoms: C6_6  and  C7_7 
ROOT
HETATM    1  C4  UNL     1     -35.574  14.469  -5.561  1.00 20.00     0.021 A 
HETATM    2  C5  UNL     1     -36.500  13.880  -4.540  1.00 20.00     0.021 A 
HETATM    3  C7  UNL     1     -35.740  15.151  -4.219  1.00 20.00     0.051 A 
ENDROOT
BRANCH   3   4
HETATM    4  C1  UNL     1     -36.531  16.409  -4.213  1.00 20.00     0.267 C 
HETATM    5  O9  UNL     1     -37.415  16.659  -3.404  1.00 20.00    -0.264 OA
BRANCH   4   6
HETATM    6  O10 UNL     1     -36.116  17.215  -5.231  1.00 20.00    -0.326 OA
HETATM    7  C8  UNL     1     -35.763  18.550  -4.855  1.00 20.00     0.213 C 
ENDBRANCH   4   6
ENDBRANCH   3   4
BRANCH   3   8
HETATM    8  C6  UNL     1     -34.593  15.129  -3.190  1.00 20.00     0.004 A 
HETATM    9  C2  UNL     1     -33.329  15.923  -3.368  1.00 20.00     0.006 A 
HETATM   10  C3  UNL     1     -34.299  16.287  -2.279  1.00 20.00     0.006 A 
ENDBRANCH   3   8
TORSDOF 3
ENDMDL
