MODEL 1
REMARK VINA RESULT:      -3.9      0.000      0.000
REMARK  3 active torsions:
REMARK  status: ('A' for Active; 'I' for Inactive)
REMARK    1  A    between atoms: C2_2  and  N9_9 
REMARK    2  A    between atoms: C6_6  and  N9_9 
REMARK    3  A    between atoms: C7_7  and  N9_9 
ROOT
HETATM    1  C1  UNL     1     -24.618  18.866   8.839  1.00 20.00     0.036 C 
HETATM    2  C2  UNL     1     -24.792  18.702  10.015  1.00 20.00     0.024 C 
HETATM    3  C3  UNL     1     -24.419  19.052   7.493  1.00 20.00     0.154 C 
HETATM    4  N8  UNL     1     -24.251  19.210   6.356  1.00 20.00    -0.182 NA
ENDROOT
BRANCH   2   5
HETATM    5  N9  UNL     1     -25.004  18.505  11.440  1.00 20.00    -0.342 N 
BRANCH   5   6
HETATM    6  C6  UNL     1     -24.265  17.438  12.082  1.00 20.00     0.128 C 
HETATM    7  C4  UNL     1     -22.852  17.837  12.332  1.00 20.00     0.027 C 
ENDBRANCH   5   6
BRANCH   5   8
HETATM    8  C7  UNL     1     -26.293  18.880  11.980  1.00 20.00     0.128 C 
HETATM    9  C5  UNL     1     -27.099  17.675  12.332  1.00 20.00     0.027 C 
ENDBRANCH   5   8
ENDBRANCH   2   5
TORSDOF 3
ENDMDL
MODEL 2
REMARK VINA RESULT:      -3.7     14.457     16.437
REMARK  3 active torsions:
REMARK  status: ('A' for Active; 'I' for Inactive)
REMARK    1  A    between atoms: C2_2  and  N9_9 
REMARK    2  A    between atoms: C6_6  and  N9_9 
REMARK    3  A    between atoms: C7_7  and  N9_9 
ROOT
HETATM    1  C1  UNL     1     -34.969  14.861  -3.308  1.00 20.00     0.036 C 
HETATM    2  C2  UNL     1     -34.541  15.781  -2.667  1.00 20.00     0.024 C 
HETATM    3  C3  UNL     1     -35.460  13.809  -4.040  1.00 20.00     0.154 C 
HETATM    4  N8  UNL     1     -35.874  12.920  -4.660  1.00 20.00    -0.182 NA
ENDROOT
BRANCH   2   5
HETATM    5  N9  UNL     1     -34.021  16.896  -1.892  1.00 20.00    -0.342 N 
BRANCH   5   6
HETATM    6  C6  UNL     1     -34.980  17.736  -1.207  1.00 20.00     0.128 C 
HETATM    7  C4  UNL     1     -35.409  17.124   0.081  1.00 20.00     0.027 C 
ENDBRANCH   5   6
BRANCH   5   8
HETATM    8  C7  UNL     1     -32.768  17.480  -2.322  1.00 20.00     0.128 C 
HETATM    9  C5  UNL     1     -32.088  18.180  -1.195  1.00 20.00     0.027 C 
ENDBRANCH   5   8
ENDBRANCH   2   5
TORSDOF 3
ENDMDL
MODEL 3
REMARK VINA RESULT:      -3.5     14.548     16.401
REMARK  3 active torsions:
REMARK  status: ('A' for Active; 'I' for Inactive)
REMARK    1  A    between atoms: C2_2  and  N9_9 
REMARK    2  A    between atoms: C6_6  and  N9_9 
REMARK    3  A    between atoms: C7_7  and  N9_9 
ROOT
HETATM    1  C1  UNL     1     -35.004  14.892  -3.347  1.00 20.00     0.036 C 
HETATM    2  C2  UNL     1     -34.615  15.855  -2.747  1.00 20.00     0.024 C 
HETATM    3  C3  UNL     1     -35.449  13.790  -4.035  1.00 20.00     0.154 C 
HETATM    4  N8  UNL     1     -35.825  12.859  -4.615  1.00 20.00    -0.182 NA
ENDROOT
BRANCH   2   5
HETATM    5  N9  UNL     1     -34.143  17.023  -2.020  1.00 20.00    -0.342 N 
BRANCH   5   6
HETATM    6  C6  UNL     1     -32.783  17.454  -2.263  1.00 20.00     0.128 C 
HETATM    7  C4  UNL     1     -32.227  18.175  -1.083  1.00 20.00     0.027 C 
ENDBRANCH   5   6
BRANCH   5   8
HETATM    8  C7  UNL     1     -34.734  17.287  -0.725  1.00 20.00     0.128 C 
HETATM    9  C5  UNL     1     -36.150  17.733  -0.863  1.00 20.00     0.027 C 
ENDBRANCH   5   8
ENDBRANCH   2   5
TORSDOF 3
ENDMDL
MODEL 4
REMARK VINA RESULT:      -3.5     14.639     16.646
REMARK  3 active torsions:
REMARK  status: ('A' for Active; 'I' for Inactive)
REMARK    1  A    between atoms: C2_2  and  N9_9 
REMARK    2  A    between atoms: C6_6  and  N9_9 
REMARK    3  A    between atoms: C7_7  and  N9_9 
ROOT
HETATM    1  C1  UNL     1     -34.971  14.798  -3.365  1.00 20.00     0.036 C 
HETATM    2  C2  UNL     1     -34.508  15.689  -2.707  1.00 20.00     0.024 C 
HETATM    3  C3  UNL     1     -35.500  13.779  -4.116  1.00 20.00     0.154 C 
HETATM    4  N8  UNL     1     -35.947  12.918  -4.752  1.00 20.00    -0.182 NA
ENDROOT
BRANCH   2   5
HETATM    5  N9  UNL     1     -33.947  16.768  -1.909  1.00 20.00    -0.342 N 
BRANCH   5   6
HETATM    6  C6  UNL     1     -34.817  17.405  -0.944  1.00 20.00     0.128 C 
HETATM    7  C4  UNL     1     -34.032  18.150   0.079  1.00 20.00     0.027 C 
ENDBRANCH   5   6
BRANCH   5   8
HETATM    8  C7  UNL     1     -32.875  17.544  -2.496  1.00 20.00     0.128 C 
HETATM    9  C5  UNL     1     -33.299  18.150  -3.791  1.00 20.00     0.027 C 
ENDBRANCH   5   8
ENDBRANCH   2   5
TORSDOF 3
ENDMDL
MODEL 5
REMARK VINA RESULT:      -3.4     15.682     17.659
REMARK  3 active torsions:
REMARK  status: ('A' for Active; 'I' for Inactive)
REMARK    1  A    between atoms: C2_2  and  N9_9 
REMARK    2  A    between atoms: C6_6  and  N9_9 
REMARK    3  A    between atoms: C7_7  and  N9_9 
ROOT
HETATM    1  C1  UNL     1     -36.437  15.052  -3.619  1.00 20.00     0.036 C 
HETATM    2  C2  UNL     1     -35.408  15.496  -3.190  1.00 20.00     0.024 C 
HETATM    3  C3  UNL     1     -37.615  14.546  -4.110  1.00 20.00     0.154 C 
HETATM    4  N8  UNL     1     -38.610  14.117  -4.524  1.00 20.00    -0.182 NA
ENDROOT
BRANCH   2   5
HETATM    5  N9  UNL     1     -34.160  16.033  -2.672  1.00 20.00    -0.342 N 
BRANCH   5   6
HETATM    6  C6  UNL     1     -34.244  17.161  -1.769  1.00 20.00     0.128 C 
HETATM    7  C4  UNL     1     -35.246  16.918  -0.694  1.00 20.00     0.027 C 
ENDBRANCH   5   6
BRANCH   5   8
HETATM    8  C7  UNL     1     -32.979  15.890  -3.496  1.00 20.00     0.128 C 
HETATM    9  C5  UNL     1     -33.054  14.657  -4.332  1.00 20.00     0.027 C 
ENDBRANCH   5   8
ENDBRANCH   2   5
TORSDOF 3
ENDMDL
MODEL 6
REMARK VINA RESULT:      -3.3     15.764     16.429
REMARK  3 active torsions:
REMARK  status: ('A' for Active; 'I' for Inactive)
REMARK    1  A    between atoms: C2_2  and  N9_9 
REMARK    2  A    between atoms: C6_6  and  N9_9 
REMARK    3  A    between atoms: C7_7  and  N9_9 
ROOT
HETATM    1  C1  UNL     1     -32.989   7.738   1.931  1.00 20.00     0.036 C 
HETATM    2  C2  UNL     1     -33.227   6.983   2.834  1.00 20.00     0.024 C 
HETATM    3  C3  UNL     1     -32.718   8.602   0.899  1.00 20.00     0.154 C 
HETATM    4  N8  UNL     1     -32.489   9.331   0.027  1.00 20.00    -0.182 NA
ENDROOT
BRANCH   2   5
HETATM    5  N9  UNL     1     -33.515   6.069   3.927  1.00 20.00    -0.342 N 
BRANCH   5   6
HETATM    6  C6  UNL     1     -33.981   4.743   3.582  1.00 20.00     0.128 C 
HETATM    7  C4  UNL     1     -33.276   4.222   2.377  1.00 20.00     0.027 C 
ENDBRANCH   5   6
BRANCH   5   8
HETATM    8  C7  UNL     1     -33.936   6.647   5.186  1.00 20.00     0.128 C 
HETATM    9  C5  UNL     1     -34.672   5.650   6.015  1.00 20.00     0.027 C 
ENDBRANCH   5   8
ENDBRANCH   2   5
TORSDOF 3
ENDMDL
MODEL 7
REMARK VINA RESULT:      -3.3     14.667     16.756
REMARK  3 active torsions:
REMARK  status: ('A' for Active; 'I' for Inactive)
REMARK    1  A    between atoms: C2_2  and  N9_9 
REMARK    2  A    between atoms: C6_6  and  N9_9 
REMARK    3  A    between atoms: C7_7  and  N9_9 
ROOT
HETATM    1  C1  UNL     1     -33.224  17.092  -2.194  1.00 20.00     0.036 C 
HETATM    2  C2  UNL     1     -34.004  16.284  -2.616  1.00 20.00     0.024 C 
HETATM    3  C3  UNL     1     -32.331  18.017  -1.712  1.00 20.00     0.154 C 
HETATM    4  N8  UNL     1     -31.577  18.799  -1.304  1.00 20.00    -0.182 NA
ENDROOT
BRANCH   2   5
HETATM    5  N9  UNL     1     -34.951  15.305  -3.127  1.00 20.00    -0.342 N 
BRANCH   5   6
HETATM    6  C6  UNL     1     -34.412  14.162  -3.832  1.00 20.00     0.128 C 
HETATM    7  C4  UNL     1     -33.118  14.497  -4.492  1.00 20.00     0.027 C 
ENDBRANCH   5   6
BRANCH   5   8
HETATM    8  C7  UNL     1     -36.273  15.777  -3.477  1.00 20.00     0.128 C 
HETATM    9  C5  UNL     1     -37.047  14.723  -4.194  1.00 20.00     0.027 C 
ENDBRANCH   5   8
ENDBRANCH   2   5
TORSDOF 3
ENDMDL
MODEL 8
REMARK VINA RESULT:      -3.2     23.396     24.366
REMARK  3 active torsions:
REMARK  status: ('A' for Active; 'I' for Inactive)
REMARK    1  A    between atoms: C2_2  and  N9_9 
REMARK    2  A    between atoms: C6_6  and  N9_9 
REMARK    3  A    between atoms: C7_7  and  N9_9 
ROOT
HETATM    1  C1  UNL     1     -42.271   4.665  -1.706  1.00 20.00     0.036 C 
HETATM    2  C2  UNL     1     -42.156   5.625  -0.994  1.00 20.00     0.024 C 
HETATM    3  C3  UNL     1     -42.404   3.567  -2.519  1.00 20.00     0.154 C 
HETATM    4  N8  UNL     1     -42.515   2.639  -3.206  1.00 20.00    -0.182 NA
ENDROOT
BRANCH   2   5
HETATM    5  N9  UNL     1     -42.017   6.788  -0.133  1.00 20.00    -0.342 N 
BRANCH   5   6
HETATM    6  C6  UNL     1     -43.012   6.972   0.903  1.00 20.00     0.128 C 
HETATM    7  C4  UNL     1     -43.292   5.693   1.614  1.00 20.00     0.027 C 
ENDBRANCH   5   6
BRANCH   5   8
HETATM    8  C7  UNL     1     -41.369   7.956  -0.688  1.00 20.00     0.128 C 
HETATM    9  C5  UNL     1     -41.537   9.139   0.205  1.00 20.00     0.027 C 
ENDBRANCH   5   8
ENDBRANCH   2   5
TORSDOF 3
ENDMDL
MODEL 9
REMARK VINA RESULT:      -3.1     15.785     18.014
REMARK  3 active torsions:
REMARK  status: ('A' for Active; 'I' for Inactive)
REMARK    1  A    between atoms: C2_2  and  N9_9 
REMARK    2  A    between atoms: C6_6  and  N9_9 
REMARK    3  A    between atoms: C7_7  and  N9_9 
ROOT
HETATM    1  C1  UNL     1     -35.145  16.185  -1.946  1.00 20.00     0.036 C 
HETATM    2  C2  UNL     1     -35.109  15.593  -2.990  1.00 20.00     0.024 C 
HETATM    3  C3  UNL     1     -35.187  16.861  -0.752  1.00 20.00     0.154 C 
HETATM    4  N8  UNL     1     -35.223  17.433   0.257  1.00 20.00    -0.182 NA
ENDROOT
BRANCH   2   5
HETATM    5  N9  UNL     1     -35.064  14.876  -4.254  1.00 20.00    -0.342 N 
BRANCH   5   6
HETATM    6  C6  UNL     1     -36.040  13.827  -4.460  1.00 20.00     0.128 C 
HETATM    7  C4  UNL     1     -37.429  14.358  -4.362  1.00 20.00     0.027 C 
ENDBRANCH   5   6
BRANCH   5   8
HETATM    8  C7  UNL     1     -33.781  14.769  -4.915  1.00 20.00     0.128 C 
HETATM    9  C5  UNL     1     -33.913  14.994  -6.383  1.00 20.00     0.027 C 
ENDBRANCH   5   8
ENDBRANCH   2   5
TORSDOF 3
ENDMDL
