MODEL 1
REMARK VINA RESULT:      -4.9      0.000      0.000
REMARK  2 active torsions:
REMARK  status: ('A' for Active; 'I' for Inactive)
REMARK    1  A    between atoms: C3_3  and  C8_8 
REMARK    2  A    between atoms: C8_8  and  C10_10 
ROOT
HETATM    1  C1  UNL     1     -34.521  15.933  -2.288  1.00 20.00    -0.026 C 
HETATM    2  C2  UNL     1     -35.688  16.195  -2.894  1.00 20.00    -0.024 C 
HETATM    3  C4  UNL     1     -34.031  16.962  -4.293  1.00 20.00     0.018 C 
HETATM    4  C5  UNL     1     -33.675  14.606  -4.205  1.00 20.00     0.025 C 
HETATM    5  C6  UNL     1     -33.462  15.888  -3.362  1.00 20.00     0.010 C 
HETATM    6  C7  UNL     1     -35.411  16.294  -4.381  1.00 20.00     0.024 C 
HETATM    7  C8  UNL     1     -35.040  14.879  -4.921  1.00 20.00     0.020 C 
ENDROOT
BRANCH   7   8
HETATM    8  C3  UNL     1     -36.074  13.845  -4.556  1.00 20.00     0.241 C 
HETATM    9  O11 UNL     1     -35.842  12.641  -4.520  1.00 20.00    -0.306 OA
ENDBRANCH   7   8
BRANCH   7  10
HETATM   10  C10 UNL     1     -34.903  14.849  -6.445  1.00 20.00     0.013 C 
HETATM   11  C9  UNL     1     -36.058  15.520  -7.112  1.00 20.00     0.006 C 
ENDBRANCH   7  10
TORSDOF 2
ENDMDL
MODEL 2
REMARK VINA RESULT:      -4.7     17.160     18.904
REMARK  2 active torsions:
REMARK  status: ('A' for Active; 'I' for Inactive)
REMARK    1  A    between atoms: C3_3  and  C8_8 
REMARK    2  A    between atoms: C8_8  and  C10_10 
ROOT
HETATM    1  C1  UNL     1     -23.702  16.193  12.119  1.00 20.00    -0.026 C 
HETATM    2  C2  UNL     1     -24.509  16.057  11.057  1.00 20.00    -0.024 C 
HETATM    3  C4  UNL     1     -24.690  18.243  11.747  1.00 20.00     0.018 C 
HETATM    4  C5  UNL     1     -22.415  18.034  11.066  1.00 20.00     0.025 C 
HETATM    5  C6  UNL     1     -23.361  17.658  12.233  1.00 20.00     0.010 C 
HETATM    6  C7  UNL     1     -24.683  17.432  10.443  1.00 20.00     0.024 C 
HETATM    7  C8  UNL     1     -23.331  17.875   9.806  1.00 20.00     0.020 C 
ENDROOT
BRANCH   7   8
HETATM    8  C3  UNL     1     -22.789  16.841   8.853  1.00 20.00     0.241 C 
HETATM    9  O11 UNL     1     -21.593  16.601   8.725  1.00 20.00    -0.306 OA
ENDBRANCH   7   8
BRANCH   7  10
HETATM   10  C10 UNL     1     -23.453  19.182   9.018  1.00 20.00     0.013 C 
HETATM   11  C9  UNL     1     -24.366  19.032   7.847  1.00 20.00     0.006 C 
ENDBRANCH   7  10
TORSDOF 2
ENDMDL
MODEL 3
REMARK VINA RESULT:      -4.5      0.985      3.190
REMARK  2 active torsions:
REMARK  status: ('A' for Active; 'I' for Inactive)
REMARK    1  A    between atoms: C3_3  and  C8_8 
REMARK    2  A    between atoms: C8_8  and  C10_10 
ROOT
HETATM    1  C1  UNL     1     -36.487  16.026  -7.076  1.00 20.00    -0.026 C 
HETATM    2  C2  UNL     1     -35.687  14.950  -7.106  1.00 20.00    -0.024 C 
HETATM    3  C4  UNL     1     -34.504  16.623  -6.062  1.00 20.00     0.018 C 
HETATM    4  C5  UNL     1     -36.348  16.220  -4.607  1.00 20.00     0.025 C 
HETATM    5  C6  UNL     1     -36.004  16.907  -5.952  1.00 20.00     0.010 C 
HETATM    6  C7  UNL     1     -34.687  15.100  -5.978  1.00 20.00     0.024 C 
HETATM    7  C8  UNL     1     -35.433  14.950  -4.618  1.00 20.00     0.020 C 
ENDROOT
BRANCH   7   8
HETATM    8  C3  UNL     1     -36.244  13.681  -4.555  1.00 20.00     0.241 C 
HETATM    9  O11 UNL     1     -35.746  12.565  -4.449  1.00 20.00    -0.306 OA
ENDBRANCH   7   8
BRANCH   7  10
HETATM   10  C10 UNL     1     -34.477  14.924  -3.422  1.00 20.00     0.013 C 
HETATM   11  C9  UNL     1     -34.914  15.866  -2.351  1.00 20.00     0.006 C 
ENDBRANCH   7  10
TORSDOF 2
ENDMDL
MODEL 4
REMARK VINA RESULT:      -4.4      1.328      3.398
REMARK  2 active torsions:
REMARK  status: ('A' for Active; 'I' for Inactive)
REMARK    1  A    between atoms: C3_3  and  C8_8 
REMARK    2  A    between atoms: C8_8  and  C10_10 
ROOT
HETATM    1  C1  UNL     1     -35.592  14.748  -6.632  1.00 20.00    -0.026 C 
HETATM    2  C2  UNL     1     -34.605  15.648  -6.511  1.00 20.00    -0.024 C 
HETATM    3  C4  UNL     1     -36.264  16.290  -5.054  1.00 20.00     0.018 C 
HETATM    4  C5  UNL     1     -35.540  14.178  -4.218  1.00 20.00     0.025 C 
HETATM    5  C6  UNL     1     -36.393  14.794  -5.355  1.00 20.00     0.010 C 
HETATM    6  C7  UNL     1     -34.731  16.274  -5.136  1.00 20.00     0.024 C 
HETATM    7  C8  UNL     1     -34.370  15.206  -4.061  1.00 20.00     0.020 C 
ENDROOT
BRANCH   7   8
HETATM    8  C3  UNL     1     -33.031  14.566  -4.324  1.00 20.00     0.241 C 
HETATM    9  O11 UNL     1     -32.863  13.353  -4.391  1.00 20.00    -0.306 OA
ENDBRANCH   7   8
BRANCH   7  10
HETATM   10  C10 UNL     1     -34.310  15.792  -2.648  1.00 20.00     0.013 C 
HETATM   11  C9  UNL     1     -33.284  16.871  -2.546  1.00 20.00     0.006 C 
ENDBRANCH   7  10
TORSDOF 2
ENDMDL
MODEL 5
REMARK VINA RESULT:      -4.3      1.394      2.439
REMARK  2 active torsions:
REMARK  status: ('A' for Active; 'I' for Inactive)
REMARK    1  A    between atoms: C3_3  and  C8_8 
REMARK    2  A    between atoms: C8_8  and  C10_10 
ROOT
HETATM    1  C1  UNL     1     -33.414  16.710  -3.703  1.00 20.00    -0.026 C 
HETATM    2  C2  UNL     1     -33.339  15.375  -3.813  1.00 20.00    -0.024 C 
HETATM    3  C4  UNL     1     -34.993  15.821  -2.277  1.00 20.00     0.018 C 
HETATM    4  C5  UNL     1     -35.819  16.753  -4.310  1.00 20.00     0.025 C 
HETATM    5  C6  UNL     1     -34.792  17.037  -3.185  1.00 20.00     0.010 C 
HETATM    6  C7  UNL     1     -34.683  14.813  -3.395  1.00 20.00     0.024 C 
HETATM    7  C8  UNL     1     -35.747  15.198  -4.467  1.00 20.00     0.020 C 
ENDROOT
BRANCH   7   8
HETATM    8  C3  UNL     1     -35.320  14.800  -5.856  1.00 20.00     0.241 C 
HETATM    9  O11 UNL     1     -35.896  13.945  -6.521  1.00 20.00    -0.306 OA
ENDBRANCH   7   8
BRANCH   7  10
HETATM   10  C10 UNL     1     -37.103  14.534  -4.213  1.00 20.00     0.013 C 
HETATM   11  C9  UNL     1     -38.219  15.522  -4.285  1.00 20.00     0.006 C 
ENDBRANCH   7  10
TORSDOF 2
ENDMDL
MODEL 6
REMARK VINA RESULT:      -4.3      1.593      2.532
REMARK  2 active torsions:
REMARK  status: ('A' for Active; 'I' for Inactive)
REMARK    1  A    between atoms: C3_3  and  C8_8 
REMARK    2  A    between atoms: C8_8  and  C10_10 
ROOT
HETATM    1  C1  UNL     1     -33.787  17.742  -3.386  1.00 20.00    -0.026 C 
HETATM    2  C2  UNL     1     -33.105  16.656  -2.994  1.00 20.00    -0.024 C 
HETATM    3  C4  UNL     1     -35.256  16.400  -2.221  1.00 20.00     0.018 C 
HETATM    4  C5  UNL     1     -35.486  16.398  -4.594  1.00 20.00     0.025 C 
HETATM    5  C6  UNL     1     -35.248  17.366  -3.409  1.00 20.00     0.010 C 
HETATM    6  C7  UNL     1     -34.113  15.543  -2.784  1.00 20.00     0.024 C 
HETATM    7  C8  UNL     1     -34.692  15.118  -4.167  1.00 20.00     0.020 C 
ENDROOT
BRANCH   7   8
HETATM    8  C3  UNL     1     -33.606  14.785  -5.157  1.00 20.00     0.241 C 
HETATM    9  O11 UNL     1     -33.812  14.605  -6.353  1.00 20.00    -0.306 OA
ENDBRANCH   7   8
BRANCH   7  10
HETATM   10  C10 UNL     1     -35.597  13.887  -4.072  1.00 20.00     0.013 C 
HETATM   11  C9  UNL     1     -36.980  14.187  -4.548  1.00 20.00     0.006 C 
ENDBRANCH   7  10
TORSDOF 2
ENDMDL
MODEL 7
REMARK VINA RESULT:      -4.2      1.999      2.812
REMARK  2 active torsions:
REMARK  status: ('A' for Active; 'I' for Inactive)
REMARK    1  A    between atoms: C3_3  and  C8_8 
REMARK    2  A    between atoms: C8_8  and  C10_10 
ROOT
HETATM    1  C1  UNL     1     -34.363  15.957  -2.521  1.00 20.00    -0.026 C 
HETATM    2  C2  UNL     1     -33.307  15.976  -3.348  1.00 20.00    -0.024 C 
HETATM    3  C4  UNL     1     -34.508  14.081  -3.855  1.00 20.00     0.018 C 
HETATM    4  C5  UNL     1     -35.989  15.870  -4.393  1.00 20.00     0.025 C 
HETATM    5  C6  UNL     1     -35.422  15.103  -3.173  1.00 20.00     0.010 C 
HETATM    6  C7  UNL     1     -33.675  15.156  -4.569  1.00 20.00     0.024 C 
HETATM    7  C8  UNL     1     -34.771  15.917  -5.375  1.00 20.00     0.020 C 
ENDROOT
BRANCH   7   8
HETATM    8  C3  UNL     1     -34.364  17.333  -5.687  1.00 20.00     0.241 C 
HETATM    9  O11 UNL     1     -35.030  18.314  -5.371  1.00 20.00    -0.306 OA
ENDBRANCH   7   8
BRANCH   7  10
HETATM   10  C10 UNL     1     -35.089  15.243  -6.713  1.00 20.00     0.013 C 
HETATM   11  C9  UNL     1     -33.925  15.300  -7.645  1.00 20.00     0.006 C 
ENDBRANCH   7  10
TORSDOF 2
ENDMDL
MODEL 8
REMARK VINA RESULT:      -4.1      2.081      3.819
REMARK  2 active torsions:
REMARK  status: ('A' for Active; 'I' for Inactive)
REMARK    1  A    between atoms: C3_3  and  C8_8 
REMARK    2  A    between atoms: C8_8  and  C10_10 
ROOT
HETATM    1  C1  UNL     1     -33.982  14.996  -5.777  1.00 20.00    -0.026 C 
HETATM    2  C2  UNL     1     -35.255  15.360  -5.561  1.00 20.00    -0.024 C 
HETATM    3  C4  UNL     1     -34.679  13.931  -3.854  1.00 20.00     0.018 C 
HETATM    4  C5  UNL     1     -33.239  15.808  -3.553  1.00 20.00     0.025 C 
HETATM    5  C6  UNL     1     -33.415  14.557  -4.450  1.00 20.00     0.010 C 
HETATM    6  C7  UNL     1     -35.527  15.192  -4.080  1.00 20.00     0.024 C 
HETATM    7  C8  UNL     1     -34.714  16.262  -3.292  1.00 20.00     0.020 C 
ENDROOT
BRANCH   7   8
HETATM    8  C3  UNL     1     -34.964  17.656  -3.808  1.00 20.00     0.241 C 
HETATM    9  O11 UNL     1     -34.105  18.339  -4.355  1.00 20.00    -0.306 OA
ENDBRANCH   7   8
BRANCH   7  10
HETATM   10  C10 UNL     1     -35.052  16.276  -1.799  1.00 20.00     0.013 C 
HETATM   11  C9  UNL     1     -34.301  17.344  -1.077  1.00 20.00     0.006 C 
ENDBRANCH   7  10
TORSDOF 2
ENDMDL
MODEL 9
REMARK VINA RESULT:      -4.1     11.121     12.484
REMARK  2 active torsions:
REMARK  status: ('A' for Active; 'I' for Inactive)
REMARK    1  A    between atoms: C3_3  and  C8_8 
REMARK    2  A    between atoms: C8_8  and  C10_10 
ROOT
HETATM    1  C1  UNL     1     -41.623   7.981   0.664  1.00 20.00    -0.026 C 
HETATM    2  C2  UNL     1     -42.961   7.890   0.660  1.00 20.00    -0.024 C 
HETATM    3  C4  UNL     1     -42.293   7.908  -1.541  1.00 20.00     0.018 C 
HETATM    4  C5  UNL     1     -41.349   5.903  -0.662  1.00 20.00     0.025 C 
HETATM    5  C6  UNL     1     -41.136   7.437  -0.655  1.00 20.00     0.010 C 
HETATM    6  C7  UNL     1     -43.365   7.255  -0.656  1.00 20.00     0.024 C 
HETATM    7  C8  UNL     1     -42.908   5.765  -0.658  1.00 20.00     0.020 C 
ENDROOT
BRANCH   7   8
HETATM    8  C3  UNL     1     -43.396   5.021   0.558  1.00 20.00     0.241 C 
HETATM    9  O11 UNL     1     -42.654   4.627   1.452  1.00 20.00    -0.306 OA
ENDBRANCH   7   8
BRANCH   7  10
HETATM   10  C10 UNL     1     -43.417   4.996  -1.881  1.00 20.00     0.013 C 
HETATM   11  C9  UNL     1     -42.461   3.928  -2.294  1.00 20.00     0.006 C 
ENDBRANCH   7  10
TORSDOF 2
ENDMDL
