MODEL 1
REMARK VINA RESULT:      -4.3      0.000      0.000
REMARK  0 active torsions:
REMARK  status: ('A' for Active; 'I' for Inactive)
ROOT
HETATM    1  C1  UNL     1     -33.446  17.004  -2.348  1.00 20.00    -0.056 A 
HETATM    2  C2  UNL     1     -35.458  16.009  -2.929  1.00 20.00     0.087 A 
HETATM    3  C3  UNL     1     -32.494  17.791  -1.830  1.00 20.00     0.017 C 
HETATM    4  C4  UNL     1     -33.164  15.845  -3.291  1.00 20.00     0.158 A 
HETATM    5  C5  UNL     1     -35.039  14.282  -4.343  1.00 20.00     0.144 A 
HETATM    6  C6  UNL     1     -36.563  14.418  -4.075  1.00 20.00     0.141 A 
HETATM    7  C7  UNL     1     -34.960  17.114  -2.104  1.00 20.00     0.035 A 
HETATM    8  C8  UNL     1     -35.520  18.447  -2.605  1.00 20.00     0.028 C 
HETATM    9  C9  UNL     1     -35.316  16.883  -0.633  1.00 20.00     0.028 C 
HETATM   10  N10 UNL     1     -34.503  15.358  -3.541  1.00 20.00    -0.365 N 
HETATM   11  N11 UNL     1     -36.674  15.572  -3.154  1.00 20.00    -0.377 N 
HETATM   12  H26 UNL     1     -37.488  16.002  -2.732  1.00 20.00     0.160 HD
ENDROOT
TORSDOF 0
ENDMDL
MODEL 2
REMARK VINA RESULT:      -4.2      2.430      3.674
REMARK  0 active torsions:
REMARK  status: ('A' for Active; 'I' for Inactive)
ROOT
HETATM    1  C1  UNL     1     -34.439  16.156  -3.524  1.00 20.00    -0.056 A 
HETATM    2  C2  UNL     1     -34.387  15.440  -5.729  1.00 20.00     0.087 A 
HETATM    3  C3  UNL     1     -34.385  16.236  -2.189  1.00 20.00     0.017 C 
HETATM    4  C4  UNL     1     -34.796  17.326  -4.427  1.00 20.00     0.158 A 
HETATM    5  C5  UNL     1     -34.926  17.185  -7.079  1.00 20.00     0.144 A 
HETATM    6  C6  UNL     1     -34.642  15.908  -7.916  1.00 20.00     0.141 A 
HETATM    7  C7  UNL     1     -34.165  14.908  -4.380  1.00 20.00     0.035 A 
HETATM    8  C8  UNL     1     -35.161  13.785  -4.081  1.00 20.00     0.028 C 
HETATM    9  C9  UNL     1     -32.722  14.423  -4.229  1.00 20.00     0.028 C 
HETATM   10  N10 UNL     1     -34.715  16.706  -5.731  1.00 20.00    -0.365 N 
HETATM   11  N11 UNL     1     -34.314  14.873  -6.909  1.00 20.00    -0.377 N 
HETATM   12  H26 UNL     1     -34.068  13.897  -7.024  1.00 20.00     0.160 HD
ENDROOT
TORSDOF 0
ENDMDL
MODEL 3
REMARK VINA RESULT:      -4.1      2.294      4.056
REMARK  0 active torsions:
REMARK  status: ('A' for Active; 'I' for Inactive)
ROOT
HETATM    1  C1  UNL     1     -35.556  14.866  -4.720  1.00 20.00    -0.056 A 
HETATM    2  C2  UNL     1     -34.241  16.776  -4.746  1.00 20.00     0.087 A 
HETATM    3  C3  UNL     1     -36.086  13.664  -4.461  1.00 20.00     0.017 C 
HETATM    4  C4  UNL     1     -36.113  15.829  -5.755  1.00 20.00     0.158 A 
HETATM    5  C5  UNL     1     -35.068  18.213  -6.297  1.00 20.00     0.144 A 
HETATM    6  C6  UNL     1     -33.818  18.815  -5.598  1.00 20.00     0.141 A 
HETATM    7  C7  UNL     1     -34.321  15.488  -4.047  1.00 20.00     0.035 A 
HETATM    8  C8  UNL     1     -33.058  14.663  -4.307  1.00 20.00     0.028 C 
HETATM    9  C9  UNL     1     -34.541  15.707  -2.549  1.00 20.00     0.028 C 
HETATM   10  N10 UNL     1     -35.188  16.934  -5.634  1.00 20.00    -0.365 N 
HETATM   11  N11 UNL     1     -33.399  17.774  -4.632  1.00 20.00    -0.377 N 
HETATM   12  H26 UNL     1     -32.628  17.757  -3.976  1.00 20.00     0.160 HD
ENDROOT
TORSDOF 0
ENDMDL
MODEL 4
REMARK VINA RESULT:      -4.0      1.781      2.818
REMARK  0 active torsions:
REMARK  status: ('A' for Active; 'I' for Inactive)
ROOT
HETATM    1  C1  UNL     1     -34.820  14.693  -4.124  1.00 20.00    -0.056 A 
HETATM    2  C2  UNL     1     -36.750  15.884  -3.639  1.00 20.00     0.087 A 
HETATM    3  C3  UNL     1     -33.553  14.286  -4.262  1.00 20.00     0.017 C 
HETATM    4  C4  UNL     1     -36.023  13.888  -4.591  1.00 20.00     0.158 A 
HETATM    5  C5  UNL     1     -38.547  14.686  -4.342  1.00 20.00     0.144 A 
HETATM    6  C6  UNL     1     -38.996  16.026  -3.696  1.00 20.00     0.141 A 
HETATM    7  C7  UNL     1     -35.296  16.012  -3.492  1.00 20.00     0.035 A 
HETATM    8  C8  UNL     1     -34.787  17.229  -4.267  1.00 20.00     0.028 C 
HETATM    9  C9  UNL     1     -34.916  16.101  -2.012  1.00 20.00     0.028 C 
HETATM   10  N10 UNL     1     -37.109  14.767  -4.216  1.00 20.00    -0.365 N 
HETATM   11  N11 UNL     1     -37.731  16.685  -3.298  1.00 20.00    -0.377 N 
HETATM   12  H26 UNL     1     -37.567  17.576  -2.846  1.00 20.00     0.160 HD
ENDROOT
TORSDOF 0
ENDMDL
MODEL 5
REMARK VINA RESULT:      -3.9      1.792      2.990
REMARK  0 active torsions:
REMARK  status: ('A' for Active; 'I' for Inactive)
ROOT
HETATM    1  C1  UNL     1     -35.178  16.085  -2.857  1.00 20.00    -0.056 A 
HETATM    2  C2  UNL     1     -34.422  15.974  -5.047  1.00 20.00     0.087 A 
HETATM    3  C3  UNL     1     -35.340  16.364  -1.558  1.00 20.00     0.017 C 
HETATM    4  C4  UNL     1     -36.082  15.147  -3.640  1.00 20.00     0.158 A 
HETATM    5  C5  UNL     1     -35.768  14.568  -6.216  1.00 20.00     0.144 A 
HETATM    6  C6  UNL     1     -34.649  15.143  -7.126  1.00 20.00     0.141 A 
HETATM    7  C7  UNL     1     -34.081  16.637  -3.783  1.00 20.00     0.035 A 
HETATM    8  C8  UNL     1     -32.684  16.216  -3.322  1.00 20.00     0.028 C 
HETATM    9  C9  UNL     1     -34.178  18.157  -3.935  1.00 20.00     0.028 C 
HETATM   10  N10 UNL     1     -35.472  15.200  -4.950  1.00 20.00    -0.365 N 
HETATM   11  N11 UNL     1     -33.864  16.025  -6.232  1.00 20.00    -0.377 N 
HETATM   12  H26 UNL     1     -33.046  16.593  -6.419  1.00 20.00     0.160 HD
ENDROOT
TORSDOF 0
ENDMDL
MODEL 6
REMARK VINA RESULT:      -3.8      1.454      3.346
REMARK  0 active torsions:
REMARK  status: ('A' for Active; 'I' for Inactive)
ROOT
HETATM    1  C1  UNL     1     -34.057  15.231  -3.823  1.00 20.00    -0.056 A 
HETATM    2  C2  UNL     1     -36.070  16.273  -3.333  1.00 20.00     0.087 A 
HETATM    3  C3  UNL     1     -33.082  14.492  -4.367  1.00 20.00     0.017 C 
HETATM    4  C4  UNL     1     -33.872  16.095  -2.585  1.00 20.00     0.158 A 
HETATM    5  C5  UNL     1     -35.798  17.557  -1.480  1.00 20.00     0.144 A 
HETATM    6  C6  UNL     1     -37.255  17.655  -2.010  1.00 20.00     0.141 A 
HETATM    7  C7  UNL     1     -35.507  15.348  -4.323  1.00 20.00     0.035 A 
HETATM    8  C8  UNL     1     -36.235  14.003  -4.270  1.00 20.00     0.028 C 
HETATM    9  C9  UNL     1     -35.576  15.960  -5.723  1.00 20.00     0.028 C 
HETATM   10  N10 UNL     1     -35.199  16.651  -2.434  1.00 20.00    -0.365 N 
HETATM   11  N11 UNL     1     -37.275  16.773  -3.199  1.00 20.00    -0.377 N 
HETATM   12  H26 UNL     1     -38.026  16.547  -3.839  1.00 20.00     0.160 HD
ENDROOT
TORSDOF 0
ENDMDL
MODEL 7
REMARK VINA RESULT:      -3.8      1.883      4.165
REMARK  0 active torsions:
REMARK  status: ('A' for Active; 'I' for Inactive)
ROOT
HETATM    1  C1  UNL     1     -35.374  14.772  -4.332  1.00 20.00    -0.056 A 
HETATM    2  C2  UNL     1     -34.186  16.736  -4.662  1.00 20.00     0.087 A 
HETATM    3  C3  UNL     1     -36.116  13.669  -4.485  1.00 20.00     0.017 C 
HETATM    4  C4  UNL     1     -34.807  15.231  -2.998  1.00 20.00     0.158 A 
HETATM    5  C5  UNL     1     -33.344  17.427  -2.669  1.00 20.00     0.144 A 
HETATM    6  C6  UNL     1     -32.945  18.408  -3.805  1.00 20.00     0.141 A 
HETATM    7  C7  UNL     1     -34.963  15.762  -5.435  1.00 20.00     0.035 A 
HETATM    8  C8  UNL     1     -36.180  16.437  -6.072  1.00 20.00     0.028 C 
HETATM    9  C9  UNL     1     -34.082  15.097  -6.494  1.00 20.00     0.028 C 
HETATM   10  N10 UNL     1     -34.116  16.440  -3.390  1.00 20.00    -0.365 N 
HETATM   11  N11 UNL     1     -33.562  17.832  -5.022  1.00 20.00    -0.377 N 
HETATM   12  H26 UNL     1     -33.552  18.155  -5.982  1.00 20.00     0.160 HD
ENDROOT
TORSDOF 0
ENDMDL
MODEL 8
REMARK VINA RESULT:      -3.8      2.241      4.157
REMARK  0 active torsions:
REMARK  status: ('A' for Active; 'I' for Inactive)
ROOT
HETATM    1  C1  UNL     1     -34.626  16.204  -5.312  1.00 20.00    -0.056 A 
HETATM    2  C2  UNL     1     -33.421  16.938  -3.471  1.00 20.00     0.087 A 
HETATM    3  C3  UNL     1     -35.295  15.473  -6.211  1.00 20.00     0.017 C 
HETATM    4  C4  UNL     1     -34.367  17.695  -5.459  1.00 20.00     0.158 A 
HETATM    5  C5  UNL     1     -33.027  19.163  -3.693  1.00 20.00     0.144 A 
HETATM    6  C6  UNL     1     -32.413  18.624  -2.372  1.00 20.00     0.141 A 
HETATM    7  C7  UNL     1     -34.006  15.700  -3.998  1.00 20.00     0.035 A 
HETATM    8  C8  UNL     1     -32.912  14.660  -4.250  1.00 20.00     0.028 C 
HETATM    9  C9  UNL     1     -35.070  15.162  -3.038  1.00 20.00     0.028 C 
HETATM   10  N10 UNL     1     -33.622  17.969  -4.250  1.00 20.00    -0.365 N 
HETATM   11  N11 UNL     1     -32.745  17.181  -2.374  1.00 20.00    -0.377 N 
HETATM   12  H26 UNL     1     -32.533  16.455  -1.700  1.00 20.00     0.160 HD
ENDROOT
TORSDOF 0
ENDMDL
MODEL 9
REMARK VINA RESULT:      -3.8      1.705      3.837
REMARK  0 active torsions:
REMARK  status: ('A' for Active; 'I' for Inactive)
ROOT
HETATM    1  C1  UNL     1     -35.086  15.729  -5.733  1.00 20.00    -0.056 A 
HETATM    2  C2  UNL     1     -35.259  15.918  -3.428  1.00 20.00     0.087 A 
HETATM    3  C3  UNL     1     -34.876  15.298  -6.983  1.00 20.00     0.017 C 
HETATM    4  C4  UNL     1     -35.574  17.128  -5.392  1.00 20.00     0.158 A 
HETATM    5  C5  UNL     1     -35.982  18.009  -2.917  1.00 20.00     0.144 A 
HETATM    6  C6  UNL     1     -35.765  17.170  -1.627  1.00 20.00     0.141 A 
HETATM    7  C7  UNL     1     -34.879  14.924  -4.438  1.00 20.00     0.035 A 
HETATM    8  C8  UNL     1     -33.417  14.511  -4.255  1.00 20.00     0.028 C 
HETATM    9  C9  UNL     1     -35.810  13.712  -4.370  1.00 20.00     0.028 C 
HETATM   10  N10 UNL     1     -35.620  17.062  -3.948  1.00 20.00    -0.365 N 
HETATM   11  N11 UNL     1     -35.297  15.854  -2.119  1.00 20.00    -0.377 N 
HETATM   12  H26 UNL     1     -35.039  15.016  -1.612  1.00 20.00     0.160 HD
ENDROOT
TORSDOF 0
ENDMDL
