MODEL 1
REMARK VINA RESULT:      -4.5      0.000      0.000
REMARK  0 active torsions:
REMARK  status: ('A' for Active; 'I' for Inactive)
ROOT
HETATM    1  C1  UNL     1     -24.386  18.922   7.754  1.00 20.00     0.089 C 
HETATM    2  C2  UNL     1     -24.473  18.412  10.107  1.00 20.00     0.017 C 
HETATM    3  C3  UNL     1     -25.021  18.971   9.020  1.00 20.00     0.118 C 
HETATM    4  C4  UNL     1     -23.147  17.692  10.068  1.00 20.00     0.059 C 
HETATM    5  C5  UNL     1     -22.734  17.670  11.542  1.00 20.00     0.026 C 
HETATM    6  C6  UNL     1     -24.055  17.677  12.315  1.00 20.00     0.122 C 
HETATM    7  C7  UNL     1     -26.248  18.812  11.865  1.00 20.00     0.149 C 
HETATM    8  N8  UNL     1     -23.870  18.885   6.715  1.00 20.00    -0.192 NA
HETATM    9  N9  UNL     1     -24.947  18.381  11.406  1.00 20.00    -0.388 N 
ENDROOT
TORSDOF 0
ENDMDL
MODEL 2
REMARK VINA RESULT:      -4.4     16.127     17.967
REMARK  0 active torsions:
REMARK  status: ('A' for Active; 'I' for Inactive)
ROOT
HETATM    1  C1  UNL     1     -37.065  14.101  -4.379  1.00 20.00     0.089 C 
HETATM    2  C2  UNL     1     -34.969  15.085  -3.714  1.00 20.00     0.017 C 
HETATM    3  C3  UNL     1     -35.650  14.167  -4.414  1.00 20.00     0.118 C 
HETATM    4  C4  UNL     1     -35.651  16.111  -2.843  1.00 20.00     0.059 C 
HETATM    5  C5  UNL     1     -34.518  16.576  -1.925  1.00 20.00     0.026 C 
HETATM    6  C6  UNL     1     -33.245  16.384  -2.751  1.00 20.00     0.122 C 
HETATM    7  C7  UNL     1     -32.581  14.622  -4.412  1.00 20.00     0.149 C 
HETATM    8  N8  UNL     1     -38.224  14.042  -4.354  1.00 20.00    -0.192 NA
HETATM    9  N9  UNL     1     -33.602  15.277  -3.626  1.00 20.00    -0.388 N 
ENDROOT
TORSDOF 0
ENDMDL
MODEL 3
REMARK VINA RESULT:      -4.0     16.287     18.125
REMARK  0 active torsions:
REMARK  status: ('A' for Active; 'I' for Inactive)
ROOT
HETATM    1  C1  UNL     1     -35.825  13.917  -4.798  1.00 20.00     0.089 C 
HETATM    2  C2  UNL     1     -34.681  16.008  -4.447  1.00 20.00     0.017 C 
HETATM    3  C3  UNL     1     -35.406  15.200  -5.231  1.00 20.00     0.118 C 
HETATM    4  C4  UNL     1     -34.258  15.619  -3.051  1.00 20.00     0.059 C 
HETATM    5  C5  UNL     1     -33.109  16.589  -2.767  1.00 20.00     0.026 C 
HETATM    6  C6  UNL     1     -33.433  17.829  -3.603  1.00 20.00     0.122 C 
HETATM    7  C7  UNL     1     -34.477  18.090  -5.870  1.00 20.00     0.149 C 
HETATM    8  N8  UNL     1     -36.170  12.866  -4.448  1.00 20.00    -0.192 NA
HETATM    9  N9  UNL     1     -34.185  17.270  -4.716  1.00 20.00    -0.388 N 
ENDROOT
TORSDOF 0
ENDMDL
MODEL 4
REMARK VINA RESULT:      -4.0     14.465     15.984
REMARK  0 active torsions:
REMARK  status: ('A' for Active; 'I' for Inactive)
ROOT
HETATM    1  C1  UNL     1     -33.653  14.904  -4.046  1.00 20.00     0.089 C 
HETATM    2  C2  UNL     1     -33.754  16.630  -2.369  1.00 20.00     0.017 C 
HETATM    3  C3  UNL     1     -33.083  15.991  -3.336  1.00 20.00     0.118 C 
HETATM    4  C4  UNL     1     -35.156  16.247  -1.963  1.00 20.00     0.059 C 
HETATM    5  C5  UNL     1     -35.293  16.891  -0.581  1.00 20.00     0.026 C 
HETATM    6  C6  UNL     1     -34.364  18.107  -0.626  1.00 20.00     0.122 C 
HETATM    7  C7  UNL     1     -32.137  18.468  -1.727  1.00 20.00     0.149 C 
HETATM    8  N8  UNL     1     -34.114  14.013  -4.630  1.00 20.00    -0.192 NA
HETATM    9  N9  UNL     1     -33.345  17.689  -1.578  1.00 20.00    -0.388 N 
ENDROOT
TORSDOF 0
ENDMDL
MODEL 5
REMARK VINA RESULT:      -4.0     16.281     16.651
REMARK  0 active torsions:
REMARK  status: ('A' for Active; 'I' for Inactive)
ROOT
HETATM    1  C1  UNL     1     -32.394   7.594   1.884  1.00 20.00     0.089 C 
HETATM    2  C2  UNL     1     -33.512   6.371   3.631  1.00 20.00     0.017 C 
HETATM    3  C3  UNL     1     -32.833   7.451   3.224  1.00 20.00     0.118 C 
HETATM    4  C4  UNL     1     -33.861   5.232   2.704  1.00 20.00     0.059 C 
HETATM    5  C5  UNL     1     -34.172   4.091   3.675  1.00 20.00     0.026 C 
HETATM    6  C6  UNL     1     -34.684   4.787   4.939  1.00 20.00     0.122 C 
HETATM    7  C7  UNL     1     -34.024   6.943   6.043  1.00 20.00     0.149 C 
HETATM    8  N8  UNL     1     -32.032   7.717   0.788  1.00 20.00    -0.192 NA
HETATM    9  N9  UNL     1     -33.997   6.069   4.892  1.00 20.00    -0.388 N 
ENDROOT
TORSDOF 0
ENDMDL
MODEL 6
REMARK VINA RESULT:      -4.0     16.165     17.622
REMARK  0 active torsions:
REMARK  status: ('A' for Active; 'I' for Inactive)
ROOT
HETATM    1  C1  UNL     1     -36.165  13.900  -4.296  1.00 20.00     0.089 C 
HETATM    2  C2  UNL     1     -35.581  15.935  -3.146  1.00 20.00     0.017 C 
HETATM    3  C3  UNL     1     -36.488  15.180  -3.780  1.00 20.00     0.118 C 
HETATM    4  C4  UNL     1     -34.157  15.485  -2.932  1.00 20.00     0.059 C 
HETATM    5  C5  UNL     1     -33.432  16.798  -2.632  1.00 20.00     0.026 C 
HETATM    6  C6  UNL     1     -34.498  17.693  -1.995  1.00 20.00     0.122 C 
HETATM    7  C7  UNL     1     -36.956  17.940  -2.443  1.00 20.00     0.149 C 
HETATM    8  N8  UNL     1     -35.905  12.852  -4.721  1.00 20.00    -0.192 NA
HETATM    9  N9  UNL     1     -35.725  17.198  -2.600  1.00 20.00    -0.388 N 
ENDROOT
TORSDOF 0
ENDMDL
MODEL 7
REMARK VINA RESULT:      -4.0     13.471     15.385
REMARK  0 active torsions:
REMARK  status: ('A' for Active; 'I' for Inactive)
ROOT
HETATM    1  C1  UNL     1     -31.851  18.313  -0.637  1.00 20.00     0.089 C 
HETATM    2  C2  UNL     1     -33.896  17.403  -1.527  1.00 20.00     0.017 C 
HETATM    3  C3  UNL     1     -33.261  18.170  -0.631  1.00 20.00     0.118 C 
HETATM    4  C4  UNL     1     -33.165  16.638  -2.604  1.00 20.00     0.059 C 
HETATM    5  C5  UNL     1     -34.197  15.591  -3.030  1.00 20.00     0.026 C 
HETATM    6  C6  UNL     1     -35.552  16.248  -2.757  1.00 20.00     0.122 C 
HETATM    7  C7  UNL     1     -36.325  17.788  -0.932  1.00 20.00     0.149 C 
HETATM    8  N8  UNL     1     -30.697  18.434  -0.637  1.00 20.00    -0.192 NA
HETATM    9  N9  UNL     1     -35.249  17.146  -1.653  1.00 20.00    -0.388 N 
ENDROOT
TORSDOF 0
ENDMDL
MODEL 8
REMARK VINA RESULT:      -3.9     16.456     18.077
REMARK  0 active torsions:
REMARK  status: ('A' for Active; 'I' for Inactive)
ROOT
HETATM    1  C1  UNL     1     -37.542  14.865  -4.162  1.00 20.00     0.089 C 
HETATM    2  C2  UNL     1     -35.409  15.873  -3.675  1.00 20.00     0.017 C 
HETATM    3  C3  UNL     1     -36.733  15.983  -3.836  1.00 20.00     0.118 C 
HETATM    4  C4  UNL     1     -34.679  14.560  -3.824  1.00 20.00     0.059 C 
HETATM    5  C5  UNL     1     -33.228  15.004  -4.028  1.00 20.00     0.026 C 
HETATM    6  C6  UNL     1     -33.123  16.339  -3.286  1.00 20.00     0.122 C 
HETATM    7  C7  UNL     1     -34.758  18.222  -2.996  1.00 20.00     0.149 C 
HETATM    8  N8  UNL     1     -38.208  13.953  -4.428  1.00 20.00    -0.192 NA
HETATM    9  N9  UNL     1     -34.482  16.855  -3.373  1.00 20.00    -0.388 N 
ENDROOT
TORSDOF 0
ENDMDL
MODEL 9
REMARK VINA RESULT:      -3.9     14.577     16.058
REMARK  0 active torsions:
REMARK  status: ('A' for Active; 'I' for Inactive)
ROOT
HETATM    1  C1  UNL     1     -34.782  14.689  -3.793  1.00 20.00     0.089 C 
HETATM    2  C2  UNL     1     -34.292  16.404  -2.174  1.00 20.00     0.017 C 
HETATM    3  C3  UNL     1     -35.117  15.465  -2.655  1.00 20.00     0.118 C 
HETATM    4  C4  UNL     1     -32.952  16.706  -2.800  1.00 20.00     0.059 C 
HETATM    5  C5  UNL     1     -32.626  18.094  -2.242  1.00 20.00     0.026 C 
HETATM    6  C6  UNL     1     -33.338  18.144  -0.888  1.00 20.00     0.122 C 
HETATM    7  C7  UNL     1     -35.534  17.203  -0.119  1.00 20.00     0.149 C 
HETATM    8  N8  UNL     1     -34.513  14.051  -4.724  1.00 20.00    -0.192 NA
HETATM    9  N9  UNL     1     -34.468  17.250  -1.094  1.00 20.00    -0.388 N 
ENDROOT
TORSDOF 0
ENDMDL
