MODEL 1
REMARK VINA RESULT:      -4.8      0.000      0.000
REMARK  3 active torsions:
REMARK  status: ('A' for Active; 'I' for Inactive)
REMARK    1  A    between atoms: C1_1  and  C2_2 
REMARK    2  A    between atoms: C4_4  and  C9_9 
REMARK    3  A    between atoms: C5_5  and  C9_9 
ROOT
HETATM    1  C2  UNL     1     -33.314  16.334  -2.873  1.00 20.00    -0.004 C 
HETATM    2  C4  UNL     1     -34.331  15.485  -3.091  1.00 20.00    -0.015 C 
ENDROOT
BRANCH   2   3
HETATM    3  C9  UNL     1     -34.290  14.387  -4.120  1.00 20.00     0.073 C 
HETATM    4  C8  UNL     1     -33.815  14.909  -5.470  1.00 20.00     0.022 C 
BRANCH   3   5
HETATM    5  C5  UNL     1     -35.684  13.778  -4.260  1.00 20.00     0.130 C 
HETATM    6  C7  UNL     1     -36.850  14.705  -4.029  1.00 20.00     0.091 C 
HETATM    7  O10 UNL     1     -35.868  12.586  -4.509  1.00 20.00    -0.298 OA
ENDBRANCH   3   5
ENDBRANCH   2   3
BRANCH   1   8
HETATM    8  C1  UNL     1     -33.362  17.386  -1.882  1.00 20.00    -0.005 C 
HETATM    9  C3  UNL     1     -32.272  18.041  -1.455  1.00 20.00    -0.031 C 
HETATM   10  C6  UNL     1     -32.308  19.129  -0.433  1.00 20.00     0.036 C 
ENDBRANCH   1   8
TORSDOF 3
ENDMDL
MODEL 2
REMARK VINA RESULT:      -4.8      0.871      1.038
REMARK  3 active torsions:
REMARK  status: ('A' for Active; 'I' for Inactive)
REMARK    1  A    between atoms: C1_1  and  C2_2 
REMARK    2  A    between atoms: C4_4  and  C9_9 
REMARK    3  A    between atoms: C5_5  and  C9_9 
ROOT
HETATM    1  C2  UNL     1     -33.382  16.353  -2.848  1.00 20.00    -0.004 C 
HETATM    2  C4  UNL     1     -34.372  15.473  -3.064  1.00 20.00    -0.015 C 
ENDROOT
BRANCH   2   3
HETATM    3  C9  UNL     1     -34.310  14.394  -4.112  1.00 20.00     0.073 C 
HETATM    4  C8  UNL     1     -33.833  14.947  -5.450  1.00 20.00     0.022 C 
BRANCH   3   5
HETATM    5  C5  UNL     1     -35.695  13.769  -4.273  1.00 20.00     0.130 C 
HETATM    6  C7  UNL     1     -36.874  14.695  -4.107  1.00 20.00     0.091 C 
HETATM    7  O10 UNL     1     -35.863  12.569  -4.488  1.00 20.00    -0.298 OA
ENDBRANCH   3   5
ENDBRANCH   2   3
BRANCH   1   8
HETATM    8  C1  UNL     1     -33.450  17.386  -1.838  1.00 20.00    -0.005 C 
HETATM    9  C3  UNL     1     -34.410  17.436  -0.904  1.00 20.00    -0.031 C 
HETATM   10  C6  UNL     1     -34.492  18.497   0.143  1.00 20.00     0.036 C 
ENDBRANCH   1   8
TORSDOF 3
ENDMDL
MODEL 3
REMARK VINA RESULT:      -4.5      1.812      2.015
REMARK  3 active torsions:
REMARK  status: ('A' for Active; 'I' for Inactive)
REMARK    1  A    between atoms: C1_1  and  C2_2 
REMARK    2  A    between atoms: C4_4  and  C9_9 
REMARK    3  A    between atoms: C5_5  and  C9_9 
ROOT
HETATM    1  C2  UNL     1     -34.346  16.196  -2.179  1.00 20.00    -0.004 C 
HETATM    2  C4  UNL     1     -35.208  15.440  -2.877  1.00 20.00    -0.015 C 
ENDROOT
BRANCH   2   3
HETATM    3  C9  UNL     1     -34.781  14.320  -3.788  1.00 20.00     0.073 C 
HETATM    4  C8  UNL     1     -33.518  14.683  -4.560  1.00 20.00     0.022 C 
BRANCH   3   5
HETATM    5  C5  UNL     1     -35.914  14.007  -4.765  1.00 20.00     0.130 C 
HETATM    6  C7  UNL     1     -35.747  14.516  -6.175  1.00 20.00     0.091 C 
HETATM    7  O10 UNL     1     -36.935  13.408  -4.429  1.00 20.00    -0.298 OA
ENDBRANCH   3   5
ENDBRANCH   2   3
BRANCH   1   8
HETATM    8  C1  UNL     1     -34.765  17.269  -1.306  1.00 20.00    -0.005 C 
HETATM    9  C3  UNL     1     -35.330  17.061  -0.107  1.00 20.00    -0.031 C 
HETATM   10  C6  UNL     1     -35.768  18.161   0.804  1.00 20.00     0.036 C 
ENDBRANCH   1   8
TORSDOF 3
ENDMDL
MODEL 4
REMARK VINA RESULT:      -4.5     11.118     11.998
REMARK  3 active torsions:
REMARK  status: ('A' for Active; 'I' for Inactive)
REMARK    1  A    between atoms: C1_1  and  C2_2 
REMARK    2  A    between atoms: C4_4  and  C9_9 
REMARK    3  A    between atoms: C5_5  and  C9_9 
ROOT
HETATM    1  C2  UNL     1     -32.775   7.173   3.278  1.00 20.00    -0.004 C 
HETATM    2  C4  UNL     1     -34.019   6.787   3.603  1.00 20.00    -0.015 C 
ENDROOT
BRANCH   2   3
HETATM    3  C9  UNL     1     -34.464   6.523   5.017  1.00 20.00     0.073 C 
HETATM    4  C8  UNL     1     -33.472   7.090   6.026  1.00 20.00     0.022 C 
BRANCH   3   5
HETATM    5  C5  UNL     1     -34.610   5.016   5.224  1.00 20.00     0.130 C 
HETATM    6  C7  UNL     1     -34.381   4.145   4.016  1.00 20.00     0.091 C 
HETATM    7  O10 UNL     1     -34.936   4.522   6.304  1.00 20.00    -0.298 OA
ENDBRANCH   3   5
ENDBRANCH   2   3
BRANCH   1   8
HETATM    8  C1  UNL     1     -32.356   7.425   1.918  1.00 20.00    -0.005 C 
HETATM    9  C3  UNL     1     -32.899   8.380   1.148  1.00 20.00    -0.031 C 
HETATM   10  C6  UNL     1     -32.476   8.650  -0.258  1.00 20.00     0.036 C 
ENDBRANCH   1   8
TORSDOF 3
ENDMDL
MODEL 5
REMARK VINA RESULT:      -4.3     11.021     11.891
REMARK  3 active torsions:
REMARK  status: ('A' for Active; 'I' for Inactive)
REMARK    1  A    between atoms: C1_1  and  C2_2 
REMARK    2  A    between atoms: C4_4  and  C9_9 
REMARK    3  A    between atoms: C5_5  and  C9_9 
ROOT
HETATM    1  C2  UNL     1     -32.396   6.585   2.655  1.00 20.00    -0.004 C 
HETATM    2  C4  UNL     1     -33.466   6.506   3.461  1.00 20.00    -0.015 C 
ENDROOT
BRANCH   2   3
HETATM    3  C9  UNL     1     -33.699   5.371   4.423  1.00 20.00     0.073 C 
HETATM    4  C8  UNL     1     -34.582   4.293   3.805  1.00 20.00     0.022 C 
BRANCH   3   5
HETATM    5  C5  UNL     1     -34.354   5.914   5.692  1.00 20.00     0.130 C 
HETATM    6  C7  UNL     1     -33.852   7.245   6.192  1.00 20.00     0.091 C 
HETATM    7  O10 UNL     1     -35.221   5.296   6.310  1.00 20.00    -0.298 OA
ENDBRANCH   3   5
ENDBRANCH   2   3
BRANCH   1   8
HETATM    8  C1  UNL     1     -32.180   7.679   1.735  1.00 20.00    -0.005 C 
HETATM    9  C3  UNL     1     -33.169   8.260   1.041  1.00 20.00    -0.031 C 
HETATM   10  C6  UNL     1     -32.960   9.391   0.088  1.00 20.00     0.036 C 
ENDBRANCH   1   8
TORSDOF 3
ENDMDL
MODEL 6
REMARK VINA RESULT:      -4.3      1.417      1.821
REMARK  3 active torsions:
REMARK  status: ('A' for Active; 'I' for Inactive)
REMARK    1  A    between atoms: C1_1  and  C2_2 
REMARK    2  A    between atoms: C4_4  and  C9_9 
REMARK    3  A    between atoms: C5_5  and  C9_9 
ROOT
HETATM    1  C2  UNL     1     -35.026  15.525  -2.735  1.00 20.00    -0.004 C 
HETATM    2  C4  UNL     1     -35.092  15.528  -4.075  1.00 20.00    -0.015 C 
ENDROOT
BRANCH   2   3
HETATM    3  C9  UNL     1     -35.865  14.510  -4.871  1.00 20.00     0.073 C 
HETATM    4  C8  UNL     1     -35.545  14.610  -6.358  1.00 20.00     0.022 C 
BRANCH   3   5
HETATM    5  C5  UNL     1     -37.361  14.728  -4.647  1.00 20.00     0.130 C 
HETATM    6  C7  UNL     1     -37.866  16.140  -4.802  1.00 20.00     0.091 C 
HETATM    7  O10 UNL     1     -38.124  13.819  -4.318  1.00 20.00    -0.298 OA
ENDBRANCH   3   5
ENDBRANCH   2   3
BRANCH   1   8
HETATM    8  C1  UNL     1     -34.281  16.506  -1.978  1.00 20.00    -0.005 C 
HETATM    9  C3  UNL     1     -33.116  17.023  -2.395  1.00 20.00    -0.031 C 
HETATM   10  C6  UNL     1     -32.337  18.037  -1.623  1.00 20.00     0.036 C 
ENDBRANCH   1   8
TORSDOF 3
ENDMDL
MODEL 7
REMARK VINA RESULT:      -4.2     10.929     13.869
REMARK  3 active torsions:
REMARK  status: ('A' for Active; 'I' for Inactive)
REMARK    1  A    between atoms: C1_1  and  C2_2 
REMARK    2  A    between atoms: C4_4  and  C9_9 
REMARK    3  A    between atoms: C5_5  and  C9_9 
ROOT
HETATM    1  C2  UNL     1     -42.798   4.708  -1.447  1.00 20.00    -0.004 C 
HETATM    2  C4  UNL     1     -41.672   5.399  -1.208  1.00 20.00    -0.015 C 
ENDROOT
BRANCH   2   3
HETATM    3  C9  UNL     1     -41.556   6.454  -0.141  1.00 20.00     0.073 C 
HETATM    4  C8  UNL     1     -42.573   6.232   0.972  1.00 20.00     0.022 C 
BRANCH   3   5
HETATM    5  C5  UNL     1     -41.768   7.831  -0.770  1.00 20.00     0.130 C 
HETATM    6  C7  UNL     1     -41.493   9.023   0.111  1.00 20.00     0.091 C 
HETATM    7  O10 UNL     1     -42.180   7.980  -1.920  1.00 20.00    -0.298 OA
ENDBRANCH   3   5
ENDBRANCH   2   3
BRANCH   1   8
HETATM    8  C1  UNL     1     -42.900   3.695  -2.474  1.00 20.00    -0.005 C 
HETATM    9  C3  UNL     1     -41.835   3.183  -3.107  1.00 20.00    -0.031 C 
HETATM   10  C6  UNL     1     -41.927   2.137  -4.170  1.00 20.00     0.036 C 
ENDBRANCH   1   8
TORSDOF 3
ENDMDL
MODEL 8
REMARK VINA RESULT:      -4.2     16.481     17.671
REMARK  3 active torsions:
REMARK  status: ('A' for Active; 'I' for Inactive)
REMARK    1  A    between atoms: C1_1  and  C2_2 
REMARK    2  A    between atoms: C4_4  and  C9_9 
REMARK    3  A    between atoms: C5_5  and  C9_9 
ROOT
HETATM    1  C2  UNL     1     -25.235  18.023  12.159  1.00 20.00    -0.004 C 
HETATM    2  C4  UNL     1     -24.698  17.260  11.194  1.00 20.00    -0.015 C 
ENDROOT
BRANCH   2   3
HETATM    3  C9  UNL     1     -23.218  17.025  11.048  1.00 20.00     0.073 C 
HETATM    4  C8  UNL     1     -22.422  17.876  12.030  1.00 20.00     0.022 C 
BRANCH   3   5
HETATM    5  C5  UNL     1     -22.796  17.354   9.617  1.00 20.00     0.130 C 
HETATM    6  C7  UNL     1     -23.140  18.733   9.113  1.00 20.00     0.091 C 
HETATM    7  O10 UNL     1     -22.239  16.537   8.883  1.00 20.00    -0.298 OA
ENDBRANCH   3   5
ENDBRANCH   2   3
BRANCH   1   8
HETATM    8  C1  UNL     1     -26.658  18.243  12.292  1.00 20.00    -0.005 C 
HETATM    9  C3  UNL     1     -27.359  19.027  11.461  1.00 20.00    -0.031 C 
HETATM   10  C6  UNL     1     -28.829  19.263  11.587  1.00 20.00     0.036 C 
ENDBRANCH   1   8
TORSDOF 3
ENDMDL
MODEL 9
REMARK VINA RESULT:      -4.2     13.474     16.484
REMARK  3 active torsions:
REMARK  status: ('A' for Active; 'I' for Inactive)
REMARK    1  A    between atoms: C1_1  and  C2_2 
REMARK    2  A    between atoms: C4_4  and  C9_9 
REMARK    3  A    between atoms: C5_5  and  C9_9 
ROOT
HETATM    1  C2  UNL     1     -24.435  18.918   7.828  1.00 20.00    -0.004 C 
HETATM    2  C4  UNL     1     -24.272  18.528   9.101  1.00 20.00    -0.015 C 
ENDROOT
BRANCH   2   3
HETATM    3  C9  UNL     1     -22.926  18.263   9.722  1.00 20.00     0.073 C 
HETATM    4  C8  UNL     1     -22.030  17.462   8.784  1.00 20.00     0.022 C 
BRANCH   3   5
HETATM    5  C5  UNL     1     -23.118  17.500  11.032  1.00 20.00     0.130 C 
HETATM    6  C7  UNL     1     -24.201  16.451  11.047  1.00 20.00     0.091 C 
HETATM    7  O10 UNL     1     -22.461  17.740  12.045  1.00 20.00    -0.298 OA
ENDBRANCH   3   5
ENDBRANCH   2   3
BRANCH   1   8
HETATM    8  C1  UNL     1     -25.732  19.170   7.239  1.00 20.00    -0.005 C 
HETATM    9  C3  UNL     1     -25.989  19.005   5.934  1.00 20.00    -0.031 C 
HETATM   10  C6  UNL     1     -27.323  19.263   5.313  1.00 20.00     0.036 C 
ENDBRANCH   1   8
TORSDOF 3
ENDMDL
