MODEL 1
REMARK VINA RESULT:      -4.5      0.000      0.000
REMARK  1 active torsions:
REMARK  status: ('A' for Active; 'I' for Inactive)
REMARK    1  A    between atoms: C3_3  and  C6_6 
ROOT
HETATM    1  C1  UNL     1     -32.582  15.148  -4.065  1.00 20.00    -0.029 C 
HETATM    2  C2  UNL     1     -33.279  16.199  -3.623  1.00 20.00    -0.021 C 
HETATM    3  C4  UNL     1     -33.475  14.062  -4.568  1.00 20.00     0.046 C 
HETATM    4  C5  UNL     1     -34.771  15.978  -3.734  1.00 20.00    -0.015 C 
HETATM    5  C6  UNL     1     -34.821  14.800  -4.774  1.00 20.00     0.046 C 
HETATM    6  C7  UNL     1     -35.482  17.258  -4.192  1.00 20.00     0.020 C 
HETATM    7  C8  UNL     1     -35.300  15.592  -2.338  1.00 20.00     0.020 C 
HETATM    8  C9  UNL     1     -34.925  15.257  -6.243  1.00 20.00     0.026 C 
ENDROOT
BRANCH   5   9
HETATM    9  C3  UNL     1     -35.981  13.870  -4.526  1.00 20.00     0.228 C 
HETATM   10  O10 UNL     1     -35.815  12.673  -4.311  1.00 20.00    -0.279 OA
HETATM   11 CL11 UNL     1     -37.507  14.699  -4.591  1.00 20.00    -0.043 Cl
ENDBRANCH   5   9
TORSDOF 1
ENDMDL
MODEL 2
REMARK VINA RESULT:      -4.5      1.158      2.764
REMARK  1 active torsions:
REMARK  status: ('A' for Active; 'I' for Inactive)
REMARK    1  A    between atoms: C3_3  and  C6_6 
ROOT
HETATM    1  C1  UNL     1     -35.432  17.484  -4.592  1.00 20.00    -0.029 C 
HETATM    2  C2  UNL     1     -34.872  17.074  -5.734  1.00 20.00    -0.021 C 
HETATM    3  C4  UNL     1     -36.066  16.353  -3.850  1.00 20.00     0.046 C 
HETATM    4  C5  UNL     1     -35.061  15.591  -5.960  1.00 20.00    -0.015 C 
HETATM    5  C6  UNL     1     -35.415  15.111  -4.505  1.00 20.00     0.046 C 
HETATM    6  C7  UNL     1     -33.791  14.959  -6.544  1.00 20.00     0.020 C 
HETATM    7  C8  UNL     1     -36.213  15.406  -6.968  1.00 20.00     0.020 C 
HETATM    8  C9  UNL     1     -34.194  14.681  -3.666  1.00 20.00     0.026 C 
ENDROOT
BRANCH   5   9
HETATM    9  C3  UNL     1     -36.372  13.946  -4.506  1.00 20.00     0.228 C 
HETATM   10  O10 UNL     1     -35.984  12.793  -4.670  1.00 20.00    -0.279 OA
HETATM   11 CL11 UNL     1     -38.016  14.450  -4.258  1.00 20.00    -0.043 Cl
ENDBRANCH   5   9
TORSDOF 1
ENDMDL
MODEL 3
REMARK VINA RESULT:      -4.5      2.085      3.067
REMARK  1 active torsions:
REMARK  status: ('A' for Active; 'I' for Inactive)
REMARK    1  A    between atoms: C3_3  and  C6_6 
ROOT
HETATM    1  C1  UNL     1     -36.170  13.633  -4.562  1.00 20.00    -0.029 C 
HETATM    2  C2  UNL     1     -34.996  13.622  -3.925  1.00 20.00    -0.021 C 
HETATM    3  C4  UNL     1     -36.419  14.940  -5.240  1.00 20.00     0.046 C 
HETATM    4  C5  UNL     1     -34.268  14.942  -4.050  1.00 20.00    -0.015 C 
HETATM    5  C6  UNL     1     -35.007  15.572  -5.286  1.00 20.00     0.046 C 
HETATM    6  C7  UNL     1     -32.764  14.721  -4.255  1.00 20.00     0.020 C 
HETATM    7  C8  UNL     1     -34.478  15.726  -2.739  1.00 20.00     0.020 C 
HETATM    8  C9  UNL     1     -34.354  15.249  -6.645  1.00 20.00     0.026 C 
ENDROOT
BRANCH   5   9
HETATM    9  C3  UNL     1     -35.092  17.074  -5.193  1.00 20.00     0.228 C 
HETATM   10  O10 UNL     1     -34.122  17.791  -5.422  1.00 20.00    -0.279 OA
HETATM   11 CL11 UNL     1     -36.679  17.613  -4.736  1.00 20.00    -0.043 Cl
ENDBRANCH   5   9
TORSDOF 1
ENDMDL
MODEL 4
REMARK VINA RESULT:      -4.4      2.215      3.386
REMARK  1 active torsions:
REMARK  status: ('A' for Active; 'I' for Inactive)
REMARK    1  A    between atoms: C3_3  and  C6_6 
ROOT
HETATM    1  C1  UNL     1     -36.348  13.896  -4.573  1.00 20.00    -0.029 C 
HETATM    2  C2  UNL     1     -36.612  15.101  -5.085  1.00 20.00    -0.021 C 
HETATM    3  C4  UNL     1     -35.021  13.865  -3.887  1.00 20.00     0.046 C 
HETATM    4  C5  UNL     1     -35.484  16.080  -4.847  1.00 20.00    -0.015 C 
HETATM    5  C6  UNL     1     -34.714  15.367  -3.677  1.00 20.00     0.046 C 
HETATM    6  C7  UNL     1     -36.030  17.469  -4.493  1.00 20.00     0.020 C 
HETATM    7  C8  UNL     1     -34.665  16.188  -6.149  1.00 20.00     0.020 C 
HETATM    8  C9  UNL     1     -35.180  15.783  -2.266  1.00 20.00     0.026 C 
ENDROOT
BRANCH   5   9
HETATM    9  C3  UNL     1     -33.229  15.620  -3.734  1.00 20.00     0.228 C 
HETATM   10  O10 UNL     1     -32.450  14.791  -4.193  1.00 20.00    -0.279 OA
HETATM   11 CL11 UNL     1     -32.806  17.176  -3.085  1.00 20.00    -0.043 Cl
ENDBRANCH   5   9
TORSDOF 1
ENDMDL
MODEL 5
REMARK VINA RESULT:      -4.4      1.792      2.444
REMARK  1 active torsions:
REMARK  status: ('A' for Active; 'I' for Inactive)
REMARK    1  A    between atoms: C3_3  and  C6_6 
ROOT
HETATM    1  C1  UNL     1     -33.945  15.920  -2.659  1.00 20.00    -0.029 C 
HETATM    2  C2  UNL     1     -35.251  15.641  -2.621  1.00 20.00    -0.021 C 
HETATM    3  C4  UNL     1     -33.423  15.935  -4.058  1.00 20.00     0.046 C 
HETATM    4  C5  UNL     1     -35.820  15.395  -4.000  1.00 20.00    -0.015 C 
HETATM    5  C6  UNL     1     -34.715  16.058  -4.900  1.00 20.00     0.046 C 
HETATM    6  C7  UNL     1     -37.212  16.024  -4.138  1.00 20.00     0.020 C 
HETATM    7  C8  UNL     1     -35.945  13.871  -4.198  1.00 20.00     0.020 C 
HETATM    8  C9  UNL     1     -34.969  17.546  -5.219  1.00 20.00     0.026 C 
ENDROOT
BRANCH   5   9
HETATM    9  C3  UNL     1     -34.559  15.353  -6.223  1.00 20.00     0.228 C 
HETATM   10  O10 UNL     1     -33.605  14.616  -6.453  1.00 20.00    -0.279 OA
HETATM   11 CL11 UNL     1     -35.858  15.722  -7.317  1.00 20.00    -0.043 Cl
ENDBRANCH   5   9
TORSDOF 1
ENDMDL
MODEL 6
REMARK VINA RESULT:      -4.4      1.666      2.552
REMARK  1 active torsions:
REMARK  status: ('A' for Active; 'I' for Inactive)
REMARK    1  A    between atoms: C3_3  and  C6_6 
ROOT
HETATM    1  C1  UNL     1     -33.940  15.902  -2.669  1.00 20.00    -0.029 C 
HETATM    2  C2  UNL     1     -33.394  15.961  -3.888  1.00 20.00    -0.021 C 
HETATM    3  C4  UNL     1     -35.424  15.747  -2.735  1.00 20.00     0.046 C 
HETATM    4  C5  UNL     1     -34.435  15.880  -4.982  1.00 20.00    -0.015 C 
HETATM    5  C6  UNL     1     -35.650  15.272  -4.191  1.00 20.00     0.046 C 
HETATM    6  C7  UNL     1     -33.939  15.012  -6.146  1.00 20.00     0.020 C 
HETATM    7  C8  UNL     1     -34.689  17.308  -5.504  1.00 20.00     0.020 C 
HETATM    8  C9  UNL     1     -35.714  13.731  -4.215  1.00 20.00     0.026 C 
ENDROOT
BRANCH   5   9
HETATM    9  C3  UNL     1     -36.974  15.768  -4.714  1.00 20.00     0.228 C 
HETATM   10  O10 UNL     1     -37.452  15.348  -5.764  1.00 20.00    -0.279 OA
HETATM   11 CL11 UNL     1     -37.685  16.959  -3.668  1.00 20.00    -0.043 Cl
ENDBRANCH   5   9
TORSDOF 1
ENDMDL
MODEL 7
REMARK VINA RESULT:      -4.3      1.966      3.421
REMARK  1 active torsions:
REMARK  status: ('A' for Active; 'I' for Inactive)
REMARK    1  A    between atoms: C3_3  and  C6_6 
ROOT
HETATM    1  C1  UNL     1     -38.183  15.831  -4.959  1.00 20.00    -0.029 C 
HETATM    2  C2  UNL     1     -37.281  16.464  -5.715  1.00 20.00    -0.021 C 
HETATM    3  C4  UNL     1     -37.574  14.695  -4.205  1.00 20.00     0.046 C 
HETATM    4  C5  UNL     1     -35.910  15.835  -5.610  1.00 20.00    -0.015 C 
HETATM    5  C6  UNL     1     -36.061  15.013  -4.279  1.00 20.00     0.046 C 
HETATM    6  C7  UNL     1     -34.816  16.910  -5.571  1.00 20.00     0.020 C 
HETATM    7  C8  UNL     1     -35.693  14.955  -6.858  1.00 20.00     0.020 C 
HETATM    8  C9  UNL     1     -35.646  15.784  -3.009  1.00 20.00     0.026 C 
ENDROOT
BRANCH   5   9
HETATM    9  C3  UNL     1     -35.249  13.743  -4.298  1.00 20.00     0.228 C 
HETATM   10  O10 UNL     1     -35.778  12.641  -4.411  1.00 20.00    -0.279 OA
HETATM   11 CL11 UNL     1     -33.547  14.053  -4.142  1.00 20.00    -0.043 Cl
ENDBRANCH   5   9
TORSDOF 1
ENDMDL
MODEL 8
REMARK VINA RESULT:      -4.3      1.941      2.687
REMARK  1 active torsions:
REMARK  status: ('A' for Active; 'I' for Inactive)
REMARK    1  A    between atoms: C3_3  and  C6_6 
ROOT
HETATM    1  C1  UNL     1     -33.891  17.938  -4.717  1.00 20.00    -0.029 C 
HETATM    2  C2  UNL     1     -33.847  17.098  -3.679  1.00 20.00    -0.021 C 
HETATM    3  C4  UNL     1     -34.460  17.286  -5.934  1.00 20.00     0.046 C 
HETATM    4  C5  UNL     1     -34.362  15.722  -4.040  1.00 20.00    -0.015 C 
HETATM    5  C6  UNL     1     -35.170  16.041  -5.350  1.00 20.00     0.046 C 
HETATM    6  C7  UNL     1     -35.206  15.137  -2.900  1.00 20.00     0.020 C 
HETATM    7  C8  UNL     1     -33.144  14.805  -4.273  1.00 20.00     0.020 C 
HETATM    8  C9  UNL     1     -36.657  16.376  -5.110  1.00 20.00     0.026 C 
ENDROOT
BRANCH   5   9
HETATM    9  C3  UNL     1     -35.138  14.898  -6.332  1.00 20.00     0.228 C 
HETATM   10  O10 UNL     1     -35.883  13.929  -6.219  1.00 20.00    -0.279 OA
HETATM   11 CL11 UNL     1     -33.952  15.141  -7.578  1.00 20.00    -0.043 Cl
ENDBRANCH   5   9
TORSDOF 1
ENDMDL
MODEL 9
REMARK VINA RESULT:      -4.2      1.554      2.442
REMARK  1 active torsions:
REMARK  status: ('A' for Active; 'I' for Inactive)
REMARK    1  A    between atoms: C3_3  and  C6_6 
ROOT
HETATM    1  C1  UNL     1     -34.112  18.174  -4.935  1.00 20.00    -0.029 C 
HETATM    2  C2  UNL     1     -33.846  17.667  -3.727  1.00 20.00    -0.021 C 
HETATM    3  C4  UNL     1     -34.790  17.176  -5.815  1.00 20.00     0.046 C 
HETATM    4  C5  UNL     1     -34.282  16.225  -3.606  1.00 20.00    -0.015 C 
HETATM    5  C6  UNL     1     -35.296  16.120  -4.803  1.00 20.00     0.046 C 
HETATM    6  C7  UNL     1     -34.899  15.952  -2.228  1.00 20.00     0.020 C 
HETATM    7  C8  UNL     1     -33.034  15.334  -3.773  1.00 20.00     0.020 C 
HETATM    8  C9  UNL     1     -36.756  16.442  -4.426  1.00 20.00     0.026 C 
ENDROOT
BRANCH   5   9
HETATM    9  C3  UNL     1     -35.303  14.746  -5.425  1.00 20.00     0.228 C 
HETATM   10  O10 UNL     1     -34.742  14.518  -6.493  1.00 20.00    -0.279 OA
HETATM   11 CL11 UNL     1     -36.178  13.597  -4.460  1.00 20.00    -0.043 Cl
ENDBRANCH   5   9
TORSDOF 1
ENDMDL
