MODEL 1
REMARK VINA RESULT:      -4.2      0.000      0.000
REMARK  2 active torsions:
REMARK  status: ('A' for Active; 'I' for Inactive)
REMARK    1  A    between atoms: C3_3  and  C5_5 
REMARK    2  A    between atoms: C3_3  and  O8_8 
ROOT
HETATM    1  C1  UNL     1     -35.167  15.071  -5.910  1.00 20.00    -0.005 C 
HETATM    2  C2  UNL     1     -33.833  15.012  -5.940  1.00 20.00     0.042 C 
HETATM    3  C4  UNL     1     -34.679  15.055  -3.507  1.00 20.00     0.097 C 
HETATM    4  C5  UNL     1     -35.788  14.933  -4.556  1.00 20.00     0.118 C 
HETATM    5  S9  UNL     1     -33.100  14.788  -4.390  1.00 20.00    -0.141 SA
ENDROOT
BRANCH   4   6
HETATM    6  C3  UNL     1     -36.450  13.590  -4.508  1.00 20.00     0.267 C 
HETATM    7  O7  UNL     1     -35.844  12.528  -4.479  1.00 20.00    -0.265 OA
BRANCH   6   8
HETATM    8  O8  UNL     1     -37.805  13.750  -4.504  1.00 20.00    -0.326 OA
HETATM    9  C6  UNL     1     -38.267  15.066  -4.181  1.00 20.00     0.213 C 
ENDBRANCH   6   8
ENDBRANCH   4   6
TORSDOF 2
ENDMDL
MODEL 2
REMARK VINA RESULT:      -4.2     11.532     12.442
REMARK  2 active torsions:
REMARK  status: ('A' for Active; 'I' for Inactive)
REMARK    1  A    between atoms: C3_3  and  C5_5 
REMARK    2  A    between atoms: C3_3  and  O8_8 
ROOT
HETATM    1  C1  UNL     1     -33.678   7.138   4.918  1.00 20.00    -0.005 C 
HETATM    2  C2  UNL     1     -33.839   6.506   6.084  1.00 20.00     0.042 C 
HETATM    3  C4  UNL     1     -35.166   5.317   4.222  1.00 20.00     0.097 C 
HETATM    4  C5  UNL     1     -34.264   6.451   3.725  1.00 20.00     0.118 C 
HETATM    5  S9  UNL     1     -34.700   5.012   5.964  1.00 20.00    -0.141 SA
ENDROOT
BRANCH   4   6
HETATM    6  C3  UNL     1     -33.120   5.931   2.909  1.00 20.00     0.267 C 
HETATM    7  O7  UNL     1     -33.030   4.778   2.512  1.00 20.00    -0.265 OA
BRANCH   6   8
HETATM    8  O8  UNL     1     -32.222   6.935   2.693  1.00 20.00    -0.326 OA
HETATM    9  C6  UNL     1     -32.476   7.749   1.543  1.00 20.00     0.213 C 
ENDBRANCH   6   8
ENDBRANCH   4   6
TORSDOF 2
ENDMDL
MODEL 3
REMARK VINA RESULT:      -3.8      1.345      1.910
REMARK  2 active torsions:
REMARK  status: ('A' for Active; 'I' for Inactive)
REMARK    1  A    between atoms: C3_3  and  C5_5 
REMARK    2  A    between atoms: C3_3  and  O8_8 
ROOT
HETATM    1  C1  UNL     1     -34.075  14.702  -3.783  1.00 20.00    -0.005 C 
HETATM    2  C2  UNL     1     -34.112  15.834  -3.074  1.00 20.00     0.042 C 
HETATM    3  C4  UNL     1     -35.208  16.178  -5.380  1.00 20.00     0.097 C 
HETATM    4  C5  UNL     1     -34.827  14.726  -5.076  1.00 20.00     0.118 C 
HETATM    5  S9  UNL     1     -35.032  17.099  -3.810  1.00 20.00    -0.141 SA
ENDROOT
BRANCH   4   6
HETATM    6  C3  UNL     1     -36.038  13.862  -4.898  1.00 20.00     0.267 C 
HETATM    7  O7  UNL     1     -36.004  12.708  -4.494  1.00 20.00    -0.265 OA
BRANCH   6   8
HETATM    8  O8  UNL     1     -37.153  14.562  -5.257  1.00 20.00    -0.326 OA
HETATM    9  C6  UNL     1     -38.193  14.605  -4.274  1.00 20.00     0.213 C 
ENDBRANCH   6   8
ENDBRANCH   4   6
TORSDOF 2
ENDMDL
MODEL 4
REMARK VINA RESULT:      -3.7      1.746      2.568
REMARK  2 active torsions:
REMARK  status: ('A' for Active; 'I' for Inactive)
REMARK    1  A    between atoms: C3_3  and  C5_5 
REMARK    2  A    between atoms: C3_3  and  O8_8 
ROOT
HETATM    1  C1  UNL     1     -35.721  15.610  -3.078  1.00 20.00    -0.005 C 
HETATM    2  C2  UNL     1     -35.491  16.892  -3.379  1.00 20.00     0.042 C 
HETATM    3  C4  UNL     1     -33.412  15.458  -3.889  1.00 20.00     0.097 C 
HETATM    4  C5  UNL     1     -34.648  14.650  -3.485  1.00 20.00     0.118 C 
HETATM    5  S9  UNL     1     -33.985  17.170  -4.182  1.00 20.00    -0.141 SA
ENDROOT
BRANCH   4   6
HETATM    6  C3  UNL     1     -35.185  13.849  -4.631  1.00 20.00     0.267 C 
HETATM    7  O7  UNL     1     -35.944  12.897  -4.507  1.00 20.00    -0.265 OA
BRANCH   6   8
HETATM    8  O8  UNL     1     -34.695  14.346  -5.803  1.00 20.00    -0.326 OA
HETATM    9  C6  UNL     1     -35.681  14.759  -6.754  1.00 20.00     0.213 C 
ENDBRANCH   6   8
ENDBRANCH   4   6
TORSDOF 2
ENDMDL
MODEL 5
REMARK VINA RESULT:      -3.6      2.675      3.603
REMARK  2 active torsions:
REMARK  status: ('A' for Active; 'I' for Inactive)
REMARK    1  A    between atoms: C3_3  and  C5_5 
REMARK    2  A    between atoms: C3_3  and  O8_8 
ROOT
HETATM    1  C1  UNL     1     -33.529  14.744  -4.899  1.00 20.00    -0.005 C 
HETATM    2  C2  UNL     1     -34.150  15.018  -6.051  1.00 20.00     0.042 C 
HETATM    3  C4  UNL     1     -35.846  14.238  -4.275  1.00 20.00     0.097 C 
HETATM    4  C5  UNL     1     -34.425  14.440  -3.740  1.00 20.00     0.118 C 
HETATM    5  S9  UNL     1     -35.875  14.962  -5.954  1.00 20.00    -0.141 SA
ENDROOT
BRANCH   4   6
HETATM    6  C3  UNL     1     -34.347  15.607  -2.804  1.00 20.00     0.267 C 
HETATM    7  O7  UNL     1     -35.258  15.956  -2.066  1.00 20.00    -0.265 OA
BRANCH   6   8
HETATM    8  O8  UNL     1     -33.122  16.197  -2.914  1.00 20.00    -0.326 OA
HETATM    9  C6  UNL     1     -32.965  17.423  -2.191  1.00 20.00     0.213 C 
ENDBRANCH   6   8
ENDBRANCH   4   6
TORSDOF 2
ENDMDL
MODEL 6
REMARK VINA RESULT:      -3.5     19.123     19.986
REMARK  2 active torsions:
REMARK  status: ('A' for Active; 'I' for Inactive)
REMARK    1  A    between atoms: C3_3  and  C5_5 
REMARK    2  A    between atoms: C3_3  and  O8_8 
ROOT
HETATM    1  C1  UNL     1     -23.870  16.262  11.728  1.00 20.00    -0.005 C 
HETATM    2  C2  UNL     1     -25.120  15.958  12.088  1.00 20.00     0.042 C 
HETATM    3  C4  UNL     1     -24.739  18.503  12.214  1.00 20.00     0.097 C 
HETATM    4  C5  UNL     1     -23.573  17.723  11.599  1.00 20.00     0.118 C 
HETATM    5  S9  UNL     1     -26.139  17.333  12.332  1.00 20.00    -0.141 SA
ENDROOT
BRANCH   4   6
HETATM    6  C3  UNL     1     -23.421  18.015  10.138  1.00 20.00     0.267 C 
HETATM    7  O7  UNL     1     -24.031  18.896   9.548  1.00 20.00    -0.265 OA
BRANCH   6   8
HETATM    8  O8  UNL     1     -22.512  17.155   9.594  1.00 20.00    -0.326 OA
HETATM    9  C6  UNL     1     -22.189  17.393   8.220  1.00 20.00     0.213 C 
ENDBRANCH   6   8
ENDBRANCH   4   6
TORSDOF 2
ENDMDL
MODEL 7
REMARK VINA RESULT:      -3.5      2.673      3.252
REMARK  2 active torsions:
REMARK  status: ('A' for Active; 'I' for Inactive)
REMARK    1  A    between atoms: C3_3  and  C5_5 
REMARK    2  A    between atoms: C3_3  and  O8_8 
ROOT
HETATM    1  C1  UNL     1     -33.563  14.742  -5.010  1.00 20.00    -0.005 C 
HETATM    2  C2  UNL     1     -34.255  15.050  -6.111  1.00 20.00     0.042 C 
HETATM    3  C4  UNL     1     -35.850  14.387  -4.199  1.00 20.00     0.097 C 
HETATM    4  C5  UNL     1     -34.381  14.501  -3.781  1.00 20.00     0.118 C 
HETATM    5  S9  UNL     1     -35.967  15.104  -5.878  1.00 20.00    -0.141 SA
ENDROOT
BRANCH   4   6
HETATM    6  C3  UNL     1     -34.155  15.665  -2.865  1.00 20.00     0.267 C 
HETATM    7  O7  UNL     1     -33.131  16.333  -2.846  1.00 20.00    -0.265 OA
BRANCH   6   8
HETATM    8  O8  UNL     1     -35.254  15.845  -2.078  1.00 20.00    -0.326 OA
HETATM    9  C6  UNL     1     -35.166  16.920  -1.137  1.00 20.00     0.213 C 
ENDBRANCH   6   8
ENDBRANCH   4   6
TORSDOF 2
ENDMDL
MODEL 8
REMARK VINA RESULT:      -3.5      2.015      2.512
REMARK  2 active torsions:
REMARK  status: ('A' for Active; 'I' for Inactive)
REMARK    1  A    between atoms: C3_3  and  C5_5 
REMARK    2  A    between atoms: C3_3  and  O8_8 
ROOT
HETATM    1  C1  UNL     1     -34.360  16.643  -4.621  1.00 20.00    -0.005 C 
HETATM    2  C2  UNL     1     -33.514  17.498  -4.040  1.00 20.00     0.042 C 
HETATM    3  C4  UNL     1     -34.542  15.914  -2.287  1.00 20.00     0.097 C 
HETATM    4  C5  UNL     1     -34.896  15.563  -3.734  1.00 20.00     0.118 C 
HETATM    5  S9  UNL     1     -33.216  17.171  -2.369  1.00 20.00    -0.141 SA
ENDROOT
BRANCH   4   6
HETATM    6  C3  UNL     1     -34.256  14.280  -4.165  1.00 20.00     0.267 C 
HETATM    7  O7  UNL     1     -33.074  14.169  -4.461  1.00 20.00    -0.265 OA
BRANCH   6   8
HETATM    8  O8  UNL     1     -35.189  13.285  -4.173  1.00 20.00    -0.326 OA
HETATM    9  C6  UNL     1     -36.495  13.672  -4.611  1.00 20.00     0.213 C 
ENDBRANCH   6   8
ENDBRANCH   4   6
TORSDOF 2
ENDMDL
MODEL 9
REMARK VINA RESULT:      -3.4      2.686      3.658
REMARK  2 active torsions:
REMARK  status: ('A' for Active; 'I' for Inactive)
REMARK    1  A    between atoms: C3_3  and  C5_5 
REMARK    2  A    between atoms: C3_3  and  O8_8 
ROOT
HETATM    1  C1  UNL     1     -34.860  15.859  -2.291  1.00 20.00    -0.005 C 
HETATM    2  C2  UNL     1     -35.564  16.995  -2.273  1.00 20.00     0.042 C 
HETATM    3  C4  UNL     1     -33.393  17.299  -3.627  1.00 20.00     0.097 C 
HETATM    4  C5  UNL     1     -33.660  15.858  -3.183  1.00 20.00     0.118 C 
HETATM    5  S9  UNL     1     -34.929  18.234  -3.297  1.00 20.00    -0.141 SA
ENDROOT
BRANCH   4   6
HETATM    6  C3  UNL     1     -33.976  14.970  -4.347  1.00 20.00     0.267 C 
HETATM    7  O7  UNL     1     -34.079  13.753  -4.273  1.00 20.00    -0.265 OA
BRANCH   6   8
HETATM    8  O8  UNL     1     -34.123  15.728  -5.471  1.00 20.00    -0.326 OA
HETATM    9  C6  UNL     1     -33.983  15.023  -6.710  1.00 20.00     0.213 C 
ENDBRANCH   6   8
ENDBRANCH   4   6
TORSDOF 2
ENDMDL
