MODEL 1
REMARK VINA RESULT:      -5.3      0.000      0.000
REMARK  1 active torsions:
REMARK  status: ('A' for Active; 'I' for Inactive)
REMARK    1  A    between atoms: C6_6  and  C7_7 
ROOT
HETATM    1  C1  UNL     1     -25.877  19.260   9.355  1.00 20.00    -0.003 C 
HETATM    2  C2  UNL     1     -24.574  19.012   8.746  1.00 20.00     0.015 C 
HETATM    3  C3  UNL     1     -24.060  17.015  10.038  1.00 20.00     0.011 C 
HETATM    4  C4  UNL     1     -26.289  19.260  10.639  1.00 20.00    -0.026 C 
HETATM    5  C5  UNL     1     -23.815  17.459  11.282  1.00 20.00    -0.021 C 
HETATM    6  C6  UNL     1     -23.762  17.964   8.986  1.00 20.00     0.009 C 
HETATM    7  C8  UNL     1     -25.538  19.071  11.942  1.00 20.00     0.035 C 
HETATM    8  C9  UNL     1     -24.946  17.668  12.258  1.00 20.00     0.007 C 
HETATM    9  C11 UNL     1     -26.017  16.576  12.307  1.00 20.00     0.014 C 
ENDROOT
BRANCH   6  10
HETATM   10  C7  UNL     1     -22.528  17.838   8.207  1.00 20.00     0.155 C 
HETATM   11  C10 UNL     1     -21.295  17.337   8.913  1.00 20.00     0.096 C 
HETATM   12  O12 UNL     1     -22.508  18.143   7.014  1.00 20.00    -0.293 OA
ENDBRANCH   6  10
TORSDOF 1
ENDMDL
MODEL 2
REMARK VINA RESULT:      -5.1     13.647     15.173
REMARK  1 active torsions:
REMARK  status: ('A' for Active; 'I' for Inactive)
REMARK    1  A    between atoms: C6_6  and  C7_7 
ROOT
HETATM    1  C1  UNL     1     -35.318  17.629  -0.875  1.00 20.00    -0.003 C 
HETATM    2  C2  UNL     1     -34.011  17.850  -0.265  1.00 20.00     0.015 C 
HETATM    3  C3  UNL     1     -32.758  17.908  -2.350  1.00 20.00     0.011 C 
HETATM    4  C4  UNL     1     -35.733  16.784  -1.841  1.00 20.00    -0.026 C 
HETATM    5  C5  UNL     1     -32.757  16.639  -2.791  1.00 20.00    -0.021 C 
HETATM    6  C6  UNL     1     -32.846  18.051  -0.913  1.00 20.00     0.009 C 
HETATM    7  C8  UNL     1     -35.011  15.697  -2.612  1.00 20.00     0.035 C 
HETATM    8  C9  UNL     1     -33.903  16.113  -3.619  1.00 20.00     0.007 C 
HETATM    9  C11 UNL     1     -34.428  17.036  -4.721  1.00 20.00     0.014 C 
ENDROOT
BRANCH   6  10
HETATM   10  C7  UNL     1     -31.647  18.348  -0.126  1.00 20.00     0.155 C 
HETATM   11  C10 UNL     1     -31.812  18.577   1.354  1.00 20.00     0.096 C 
HETATM   12  O12 UNL     1     -30.544  18.416  -0.670  1.00 20.00    -0.293 OA
ENDBRANCH   6  10
TORSDOF 1
ENDMDL
MODEL 3
REMARK VINA RESULT:      -5.1     14.900     16.261
REMARK  1 active torsions:
REMARK  status: ('A' for Active; 'I' for Inactive)
REMARK    1  A    between atoms: C6_6  and  C7_7 
ROOT
HETATM    1  C1  UNL     1     -35.212  16.640  -1.039  1.00 20.00    -0.003 C 
HETATM    2  C2  UNL     1     -35.207  15.871  -2.280  1.00 20.00     0.015 C 
HETATM    3  C3  UNL     1     -32.906  16.376  -2.889  1.00 20.00     0.011 C 
HETATM    4  C4  UNL     1     -34.779  17.883  -0.745  1.00 20.00    -0.026 C 
HETATM    5  C5  UNL     1     -32.918  17.671  -3.250  1.00 20.00    -0.021 C 
HETATM    6  C6  UNL     1     -34.156  15.677  -3.100  1.00 20.00     0.009 C 
HETATM    7  C8  UNL     1     -34.185  18.977  -1.609  1.00 20.00     0.035 C 
HETATM    8  C9  UNL     1     -32.769  18.757  -2.214  1.00 20.00     0.007 C 
HETATM    9  C11 UNL     1     -31.701  18.536  -1.142  1.00 20.00     0.014 C 
ENDROOT
BRANCH   6  10
HETATM   10  C7  UNL     1     -34.321  14.794  -4.258  1.00 20.00     0.155 C 
HETATM   11  C10 UNL     1     -34.430  15.428  -5.619  1.00 20.00     0.096 C 
HETATM   12  O12 UNL     1     -34.377  13.573  -4.109  1.00 20.00    -0.293 OA
ENDBRANCH   6  10
TORSDOF 1
ENDMDL
MODEL 4
REMARK VINA RESULT:      -5.1     17.528     18.962
REMARK  1 active torsions:
REMARK  status: ('A' for Active; 'I' for Inactive)
REMARK    1  A    between atoms: C6_6  and  C7_7 
ROOT
HETATM    1  C1  UNL     1     -34.853  14.975  -6.233  1.00 20.00    -0.003 C 
HETATM    2  C2  UNL     1     -36.195  14.743  -5.707  1.00 20.00     0.015 C 
HETATM    3  C3  UNL     1     -35.970  16.204  -3.774  1.00 20.00     0.011 C 
HETATM    4  C4  UNL     1     -33.642  14.995  -5.642  1.00 20.00    -0.026 C 
HETATM    5  C5  UNL     1     -35.126  15.561  -2.948  1.00 20.00    -0.021 C 
HETATM    6  C6  UNL     1     -36.750  15.341  -4.635  1.00 20.00     0.009 C 
HETATM    7  C8  UNL     1     -33.207  14.717  -4.217  1.00 20.00     0.035 C 
HETATM    8  C9  UNL     1     -33.634  15.716  -3.104  1.00 20.00     0.007 C 
HETATM    9  C11 UNL     1     -33.118  17.134  -3.359  1.00 20.00     0.014 C 
ENDROOT
BRANCH   6  10
HETATM   10  C7  UNL     1     -38.149  15.046  -4.312  1.00 20.00     0.155 C 
HETATM   11  C10 UNL     1     -39.031  16.189  -3.886  1.00 20.00     0.096 C 
HETATM   12  O12 UNL     1     -38.576  13.893  -4.382  1.00 20.00    -0.293 OA
ENDBRANCH   6  10
TORSDOF 1
ENDMDL
MODEL 5
REMARK VINA RESULT:      -5.0     16.321     17.763
REMARK  1 active torsions:
REMARK  status: ('A' for Active; 'I' for Inactive)
REMARK    1  A    between atoms: C6_6  and  C7_7 
ROOT
HETATM    1  C1  UNL     1     -33.131  15.708  -3.555  1.00 20.00    -0.003 C 
HETATM    2  C2  UNL     1     -34.231  14.781  -3.801  1.00 20.00     0.015 C 
HETATM    3  C3  UNL     1     -35.984  16.468  -3.863  1.00 20.00     0.011 C 
HETATM    4  C4  UNL     1     -32.993  16.739  -2.698  1.00 20.00    -0.026 C 
HETATM    5  C5  UNL     1     -36.116  16.879  -2.590  1.00 20.00    -0.021 C 
HETATM    6  C6  UNL     1     -35.522  15.105  -4.015  1.00 20.00     0.009 C 
HETATM    7  C8  UNL     1     -33.905  17.283  -1.615  1.00 20.00     0.035 C 
HETATM    8  C9  UNL     1     -35.232  17.971  -2.041  1.00 20.00     0.007 C 
HETATM    9  C11 UNL     1     -35.001  19.182  -2.947  1.00 20.00     0.014 C 
ENDROOT
BRANCH   6  10
HETATM   10  C7  UNL     1     -36.471  14.036  -4.337  1.00 20.00     0.155 C 
HETATM   11  C10 UNL     1     -37.937  14.378  -4.364  1.00 20.00     0.096 C 
HETATM   12  O12 UNL     1     -36.070  12.894  -4.568  1.00 20.00    -0.293 OA
ENDBRANCH   6  10
TORSDOF 1
ENDMDL
MODEL 6
REMARK VINA RESULT:      -4.9     15.134     16.574
REMARK  1 active torsions:
REMARK  status: ('A' for Active; 'I' for Inactive)
REMARK    1  A    between atoms: C6_6  and  C7_7 
ROOT
HETATM    1  C1  UNL     1     -35.921  16.180  -2.678  1.00 20.00    -0.003 C 
HETATM    2  C2  UNL     1     -34.900  16.844  -1.874  1.00 20.00     0.015 C 
HETATM    3  C3  UNL     1     -33.174  16.836  -3.588  1.00 20.00     0.011 C 
HETATM    4  C4  UNL     1     -35.879  15.092  -3.474  1.00 20.00    -0.026 C 
HETATM    5  C5  UNL     1     -32.793  15.551  -3.693  1.00 20.00    -0.021 C 
HETATM    6  C6  UNL     1     -33.672  17.216  -2.284  1.00 20.00     0.009 C 
HETATM    7  C8  UNL     1     -34.770  14.105  -3.779  1.00 20.00     0.035 C 
HETATM    8  C9  UNL     1     -33.542  14.601  -4.594  1.00 20.00     0.007 C 
HETATM    9  C11 UNL     1     -33.930  15.133  -5.975  1.00 20.00     0.014 C 
ENDROOT
BRANCH   6  10
HETATM   10  C7  UNL     1     -32.815  17.957  -1.354  1.00 20.00     0.155 C 
HETATM   11  C10 UNL     1     -33.306  18.150   0.057  1.00 20.00     0.096 C 
HETATM   12  O12 UNL     1     -31.733  18.410  -1.728  1.00 20.00    -0.293 OA
ENDBRANCH   6  10
TORSDOF 1
ENDMDL
MODEL 7
REMARK VINA RESULT:      -4.8     15.845     17.261
REMARK  1 active torsions:
REMARK  status: ('A' for Active; 'I' for Inactive)
REMARK    1  A    between atoms: C6_6  and  C7_7 
ROOT
HETATM    1  C1  UNL     1     -32.989  15.093  -4.184  1.00 20.00    -0.003 C 
HETATM    2  C2  UNL     1     -32.969  16.142  -3.169  1.00 20.00     0.015 C 
HETATM    3  C3  UNL     1     -35.300  15.907  -2.509  1.00 20.00     0.011 C 
HETATM    4  C4  UNL     1     -33.860  14.809  -5.173  1.00 20.00    -0.026 C 
HETATM    5  C5  UNL     1     -36.005  16.398  -3.543  1.00 20.00    -0.021 C 
HETATM    6  C6  UNL     1     -33.982  16.483  -2.347  1.00 20.00     0.009 C 
HETATM    7  C8  UNL     1     -35.116  15.514  -5.647  1.00 20.00     0.035 C 
HETATM    8  C9  UNL     1     -36.360  15.518  -4.715  1.00 20.00     0.007 C 
HETATM    9  C11 UNL     1     -36.851  14.107  -4.386  1.00 20.00     0.014 C 
ENDROOT
BRANCH   6  10
HETATM   10  C7  UNL     1     -33.743  17.505  -1.325  1.00 20.00     0.155 C 
HETATM   11  C10 UNL     1     -32.373  18.125  -1.252  1.00 20.00     0.096 C 
HETATM   12  O12 UNL     1     -34.641  17.832  -0.548  1.00 20.00    -0.293 OA
ENDBRANCH   6  10
TORSDOF 1
ENDMDL
MODEL 8
REMARK VINA RESULT:      -4.8     16.555     17.887
REMARK  1 active torsions:
REMARK  status: ('A' for Active; 'I' for Inactive)
REMARK    1  A    between atoms: C6_6  and  C7_7 
ROOT
HETATM    1  C1  UNL     1     -36.119  17.992  -4.285  1.00 20.00    -0.003 C 
HETATM    2  C2  UNL     1     -36.480  16.607  -4.571  1.00 20.00     0.015 C 
HETATM    3  C3  UNL     1     -35.262  15.631  -2.704  1.00 20.00     0.011 C 
HETATM    4  C4  UNL     1     -34.943  18.574  -3.974  1.00 20.00    -0.026 C 
HETATM    5  C5  UNL     1     -33.964  15.757  -3.032  1.00 20.00    -0.021 C 
HETATM    6  C6  UNL     1     -36.164  15.526  -3.832  1.00 20.00     0.009 C 
HETATM    7  C8  UNL     1     -33.536  18.018  -3.871  1.00 20.00     0.035 C 
HETATM    8  C9  UNL     1     -33.214  17.027  -2.718  1.00 20.00     0.007 C 
HETATM    9  C11 UNL     1     -33.453  17.637  -1.335  1.00 20.00     0.014 C 
ENDROOT
BRANCH   6  10
HETATM   10  C7  UNL     1     -36.696  14.221  -4.232  1.00 20.00     0.155 C 
HETATM   11  C10 UNL     1     -35.714  13.122  -4.539  1.00 20.00     0.096 C 
HETATM   12  O12 UNL     1     -37.912  14.043  -4.319  1.00 20.00    -0.293 OA
ENDBRANCH   6  10
TORSDOF 1
ENDMDL
MODEL 9
REMARK VINA RESULT:      -4.8     17.022     18.267
REMARK  1 active torsions:
REMARK  status: ('A' for Active; 'I' for Inactive)
REMARK    1  A    between atoms: C6_6  and  C7_7 
ROOT
HETATM    1  C1  UNL     1     -34.188  17.985  -5.088  1.00 20.00    -0.003 C 
HETATM    2  C2  UNL     1     -34.592  16.836  -5.892  1.00 20.00     0.015 C 
HETATM    3  C3  UNL     1     -35.694  15.632  -4.088  1.00 20.00     0.011 C 
HETATM    4  C4  UNL     1     -33.612  18.080  -3.873  1.00 20.00    -0.026 C 
HETATM    5  C5  UNL     1     -34.696  15.204  -3.295  1.00 20.00    -0.021 C 
HETATM    6  C6  UNL     1     -35.335  15.790  -5.481  1.00 20.00     0.009 C 
HETATM    7  C8  UNL     1     -33.103  17.025  -2.910  1.00 20.00     0.035 C 
HETATM    8  C9  UNL     1     -34.139  16.097  -2.214  1.00 20.00     0.007 C 
HETATM    9  C11 UNL     1     -35.157  16.875  -1.379  1.00 20.00     0.014 C 
ENDROOT
BRANCH   6  10
HETATM   10  C7  UNL     1     -35.719  14.771  -6.462  1.00 20.00     0.155 C 
HETATM   11  C10 UNL     1     -35.713  15.155  -7.918  1.00 20.00     0.096 C 
HETATM   12  O12 UNL     1     -36.042  13.641  -6.094  1.00 20.00    -0.293 OA
ENDBRANCH   6  10
TORSDOF 1
ENDMDL
