MODEL 1
REMARK VINA RESULT:      -4.9      0.000      0.000
REMARK  1 active torsions:
REMARK  status: ('A' for Active; 'I' for Inactive)
REMARK    1  A    between atoms: C2_2  and  C8_8 
ROOT
HETATM    1  C1  UNL     1     -33.750  15.561  -3.605  1.00 20.00     0.136 C 
HETATM    2  C3  UNL     1     -32.824  16.705  -3.256  1.00 20.00     0.079 C 
HETATM    3  C4  UNL     1     -33.471  17.734  -2.334  1.00 20.00     0.007 C 
HETATM    4  C5  UNL     1     -34.281  17.042  -1.244  1.00 20.00     0.002 C 
HETATM    5  C6  UNL     1     -35.472  16.283  -1.833  1.00 20.00     0.018 C 
HETATM    6  C7  UNL     1     -36.070  16.288  -4.361  1.00 20.00     0.030 A 
HETATM    7  C8  UNL     1     -36.296  14.899  -3.847  1.00 20.00     0.064 A 
HETATM    8  C9  UNL     1     -35.193  15.756  -3.236  1.00 20.00     0.031 A 
HETATM    9  O10 UNL     1     -33.350  14.549  -4.170  1.00 20.00    -0.297 OA
ENDROOT
BRANCH   7  10
HETATM   10  C2  UNL     1     -36.006  13.752  -4.715  1.00 20.00     0.236 C 
HETATM   11  O11 UNL     1     -36.031  12.589  -4.328  1.00 20.00    -0.306 OA
ENDBRANCH   7  10
TORSDOF 1
ENDMDL
MODEL 2
REMARK VINA RESULT:      -4.7      1.778      2.461
REMARK  1 active torsions:
REMARK  status: ('A' for Active; 'I' for Inactive)
REMARK    1  A    between atoms: C2_2  and  C8_8 
ROOT
HETATM    1  C1  UNL     1     -35.662  16.534  -3.741  1.00 20.00     0.136 C 
HETATM    2  C3  UNL     1     -35.969  17.030  -2.345  1.00 20.00     0.079 C 
HETATM    3  C4  UNL     1     -34.817  16.813  -1.370  1.00 20.00     0.007 C 
HETATM    4  C5  UNL     1     -33.485  17.151  -2.031  1.00 20.00     0.002 C 
HETATM    5  C6  UNL     1     -33.174  16.190  -3.180  1.00 20.00     0.018 C 
HETATM    6  C7  UNL     1     -34.690  14.182  -3.822  1.00 20.00     0.030 A 
HETATM    7  C8  UNL     1     -34.199  14.801  -5.095  1.00 20.00     0.064 A 
HETATM    8  C9  UNL     1     -34.433  15.681  -3.873  1.00 20.00     0.031 A 
HETATM    9  O10 UNL     1     -36.384  16.795  -4.698  1.00 20.00    -0.297 OA
ENDROOT
BRANCH   7  10
HETATM   10  C2  UNL     1     -35.080  14.839  -6.267  1.00 20.00     0.236 C 
HETATM   11  O11 UNL     1     -35.935  13.990  -6.498  1.00 20.00    -0.306 OA
ENDBRANCH   7  10
TORSDOF 1
ENDMDL
MODEL 3
REMARK VINA RESULT:      -4.7     16.856     17.699
REMARK  1 active torsions:
REMARK  status: ('A' for Active; 'I' for Inactive)
REMARK    1  A    between atoms: C2_2  and  C8_8 
ROOT
HETATM    1  C1  UNL     1     -24.236  18.686   9.500  1.00 20.00     0.136 C 
HETATM    2  C3  UNL     1     -25.534  18.945  10.233  1.00 20.00     0.079 C 
HETATM    3  C4  UNL     1     -25.563  18.326  11.627  1.00 20.00     0.007 C 
HETATM    4  C5  UNL     1     -24.227  18.531  12.332  1.00 20.00     0.002 C 
HETATM    5  C6  UNL     1     -23.102  17.776  11.623  1.00 20.00     0.018 C 
HETATM    6  C7  UNL     1     -23.475  16.257   9.550  1.00 20.00     0.030 A 
HETATM    7  C8  UNL     1     -22.200  17.011   9.332  1.00 20.00     0.064 A 
HETATM    8  C9  UNL     1     -23.331  17.661  10.121  1.00 20.00     0.031 A 
HETATM    9  O10 UNL     1     -23.953  19.262   8.455  1.00 20.00    -0.297 OA
ENDROOT
BRANCH   7  10
HETATM   10  C2  UNL     1     -21.840  17.446   7.977  1.00 20.00     0.236 C 
HETATM   11  O11 UNL     1     -21.590  16.668   7.062  1.00 20.00    -0.306 OA
ENDBRANCH   7  10
TORSDOF 1
ENDMDL
MODEL 4
REMARK VINA RESULT:      -4.6     15.692     17.446
REMARK  1 active torsions:
REMARK  status: ('A' for Active; 'I' for Inactive)
REMARK    1  A    between atoms: C2_2  and  C8_8 
ROOT
HETATM    1  C1  UNL     1     -22.681  18.294   9.916  1.00 20.00     0.136 C 
HETATM    2  C3  UNL     1     -22.093  18.120  11.299  1.00 20.00     0.079 C 
HETATM    3  C4  UNL     1     -23.045  17.425  12.267  1.00 20.00     0.007 C 
HETATM    4  C5  UNL     1     -23.753  16.263  11.580  1.00 20.00     0.002 C 
HETATM    5  C6  UNL     1     -24.670  16.753  10.458  1.00 20.00     0.018 C 
HETATM    6  C7  UNL     1     -25.036  19.263   9.897  1.00 20.00     0.030 A 
HETATM    7  C8  UNL     1     -24.961  18.517   8.600  1.00 20.00     0.064 A 
HETATM    8  C9  UNL     1     -24.154  18.026   9.796  1.00 20.00     0.031 A 
HETATM    9  O10 UNL     1     -22.001  18.652   8.960  1.00 20.00    -0.297 OA
ENDROOT
BRANCH   7  10
HETATM   10  C2  UNL     1     -24.330  19.152   7.437  1.00 20.00     0.236 C 
HETATM   11  O11 UNL     1     -24.650  18.909   6.278  1.00 20.00    -0.306 OA
ENDBRANCH   7  10
TORSDOF 1
ENDMDL
MODEL 5
REMARK VINA RESULT:      -4.5      1.533      2.244
REMARK  1 active torsions:
REMARK  status: ('A' for Active; 'I' for Inactive)
REMARK    1  A    between atoms: C2_2  and  C8_8 
ROOT
HETATM    1  C1  UNL     1     -34.394  16.260  -2.557  1.00 20.00     0.136 C 
HETATM    2  C3  UNL     1     -33.518  17.301  -1.897  1.00 20.00     0.079 C 
HETATM    3  C4  UNL     1     -32.709  18.119  -2.898  1.00 20.00     0.007 C 
HETATM    4  C5  UNL     1     -33.564  18.487  -4.105  1.00 20.00     0.002 C 
HETATM    5  C6  UNL     1     -33.973  17.245  -4.898  1.00 20.00     0.018 C 
HETATM    6  C7  UNL     1     -33.196  14.840  -4.299  1.00 20.00     0.030 A 
HETATM    7  C8  UNL     1     -34.632  14.758  -4.718  1.00 20.00     0.064 A 
HETATM    8  C9  UNL     1     -34.125  16.012  -4.014  1.00 20.00     0.031 A 
HETATM    9  O10 UNL     1     -35.254  15.645  -1.937  1.00 20.00    -0.297 OA
ENDROOT
BRANCH   7  10
HETATM   10  C2  UNL     1     -35.524  13.797  -4.059  1.00 20.00     0.236 C 
HETATM   11  O11 UNL     1     -35.821  12.710  -4.543  1.00 20.00    -0.306 OA
ENDBRANCH   7  10
TORSDOF 1
ENDMDL
MODEL 6
REMARK VINA RESULT:      -4.4      2.235      3.315
REMARK  1 active torsions:
REMARK  status: ('A' for Active; 'I' for Inactive)
REMARK    1  A    between atoms: C2_2  and  C8_8 
ROOT
HETATM    1  C1  UNL     1     -36.801  14.423  -4.231  1.00 20.00     0.136 C 
HETATM    2  C3  UNL     1     -35.416  13.825  -4.118  1.00 20.00     0.079 C 
HETATM    3  C4  UNL     1     -34.366  14.835  -3.665  1.00 20.00     0.007 C 
HETATM    4  C5  UNL     1     -34.917  15.716  -2.549  1.00 20.00     0.002 C 
HETATM    5  C6  UNL     1     -36.071  16.589  -3.046  1.00 20.00     0.018 C 
HETATM    6  C7  UNL     1     -36.887  16.622  -5.512  1.00 20.00     0.030 A 
HETATM    7  C8  UNL     1     -38.099  16.688  -4.635  1.00 20.00     0.064 A 
HETATM    8  C9  UNL     1     -36.870  15.922  -4.160  1.00 20.00     0.031 A 
HETATM    9  O10 UNL     1     -37.798  13.729  -4.390  1.00 20.00    -0.297 OA
ENDROOT
BRANCH   7  10
HETATM   10  C2  UNL     1     -39.331  16.009  -5.053  1.00 20.00     0.236 C 
HETATM   11  O11 UNL     1     -39.672  15.890  -6.225  1.00 20.00    -0.306 OA
ENDBRANCH   7  10
TORSDOF 1
ENDMDL
MODEL 7
REMARK VINA RESULT:      -4.4      1.380      1.517
REMARK  1 active torsions:
REMARK  status: ('A' for Active; 'I' for Inactive)
REMARK    1  A    between atoms: C2_2  and  C8_8 
ROOT
HETATM    1  C1  UNL     1     -34.405  16.439  -4.943  1.00 20.00     0.136 C 
HETATM    2  C3  UNL     1     -33.909  17.867  -4.985  1.00 20.00     0.079 C 
HETATM    3  C4  UNL     1     -33.674  18.457  -3.598  1.00 20.00     0.007 C 
HETATM    4  C5  UNL     1     -33.000  17.435  -2.690  1.00 20.00     0.002 C 
HETATM    5  C6  UNL     1     -33.912  16.237  -2.425  1.00 20.00     0.018 C 
HETATM    6  C7  UNL     1     -36.339  16.051  -3.332  1.00 20.00     0.030 A 
HETATM    7  C8  UNL     1     -35.710  14.697  -3.446  1.00 20.00     0.064 A 
HETATM    8  C9  UNL     1     -34.843  15.941  -3.595  1.00 20.00     0.031 A 
HETATM    9  O10 UNL     1     -34.463  15.740  -5.949  1.00 20.00    -0.297 OA
ENDROOT
BRANCH   7  10
HETATM   10  C2  UNL     1     -36.048  13.837  -4.586  1.00 20.00     0.236 C 
HETATM   11  O11 UNL     1     -35.865  12.625  -4.596  1.00 20.00    -0.306 OA
ENDBRANCH   7  10
TORSDOF 1
ENDMDL
MODEL 8
REMARK VINA RESULT:      -4.4      1.711      1.840
REMARK  1 active torsions:
REMARK  status: ('A' for Active; 'I' for Inactive)
REMARK    1  A    between atoms: C2_2  and  C8_8 
ROOT
HETATM    1  C1  UNL     1     -33.904  15.236  -4.443  1.00 20.00     0.136 C 
HETATM    2  C3  UNL     1     -32.988  15.896  -3.435  1.00 20.00     0.079 C 
HETATM    3  C4  UNL     1     -33.738  16.769  -2.433  1.00 20.00     0.007 C 
HETATM    4  C5  UNL     1     -35.017  16.080  -1.974  1.00 20.00     0.002 C 
HETATM    5  C6  UNL     1     -36.008  15.919  -3.128  1.00 20.00     0.018 C 
HETATM    6  C7  UNL     1     -35.578  16.820  -5.526  1.00 20.00     0.030 A 
HETATM    7  C8  UNL     1     -36.236  15.481  -5.659  1.00 20.00     0.064 A 
HETATM    8  C9  UNL     1     -35.315  15.751  -4.475  1.00 20.00     0.031 A 
HETATM    9  O10 UNL     1     -33.511  14.354  -5.198  1.00 20.00    -0.297 OA
ENDROOT
BRANCH   7  10
HETATM   10  C2  UNL     1     -35.853  14.594  -6.763  1.00 20.00     0.236 C 
HETATM   11  O11 UNL     1     -36.256  14.733  -7.913  1.00 20.00    -0.306 OA
ENDBRANCH   7  10
TORSDOF 1
ENDMDL
MODEL 9
REMARK VINA RESULT:      -4.4      3.195      5.139
REMARK  1 active torsions:
REMARK  status: ('A' for Active; 'I' for Inactive)
REMARK    1  A    between atoms: C2_2  and  C8_8 
ROOT
HETATM    1  C1  UNL     1     -34.349  17.635  -0.623  1.00 20.00     0.136 C 
HETATM    2  C3  UNL     1     -35.795  17.386  -0.989  1.00 20.00     0.079 C 
HETATM    3  C4  UNL     1     -35.963  16.791  -2.383  1.00 20.00     0.007 C 
HETATM    4  C5  UNL     1     -34.911  15.718  -2.637  1.00 20.00     0.002 C 
HETATM    5  C6  UNL     1     -33.502  16.314  -2.664  1.00 20.00     0.018 C 
HETATM    6  C7  UNL     1     -33.012  18.852  -2.416  1.00 20.00     0.030 A 
HETATM    7  C8  UNL     1     -31.961  18.114  -1.647  1.00 20.00     0.064 A 
HETATM    8  C9  UNL     1     -33.364  17.528  -1.753  1.00 20.00     0.031 A 
HETATM    9  O10 UNL     1     -34.006  17.924   0.518  1.00 20.00    -0.297 OA
ENDROOT
BRANCH   7  10
HETATM   10  C2  UNL     1     -31.443  18.685  -0.399  1.00 20.00     0.236 C 
HETATM   11  O11 UNL     1     -30.292  18.524  -0.008  1.00 20.00    -0.306 OA
ENDBRANCH   7  10
TORSDOF 1
ENDMDL
