MODEL 1
REMARK VINA RESULT:      -5.4      0.000      0.000
REMARK  1 active torsions:
REMARK  status: ('A' for Active; 'I' for Inactive)
REMARK    1  A    between atoms: C5_5  and  C9_9 
ROOT
HETATM    1  C1  UNL     1     -35.672  16.997  -5.063  1.00 20.00    -0.029 C 
HETATM    2  C2  UNL     1     -36.176  16.693  -3.850  1.00 20.00    -0.021 C 
HETATM    3  C3  UNL     1     -34.229  15.882  -2.570  1.00 20.00    -0.021 C 
HETATM    4  C4  UNL     1     -33.330  15.633  -3.536  1.00 20.00    -0.024 C 
HETATM    5  C6  UNL     1     -34.536  16.195  -5.677  1.00 20.00     0.036 C 
HETATM    6  C7  UNL     1     -35.611  15.522  -3.068  1.00 20.00     0.045 C 
HETATM    7  C8  UNL     1     -34.031  15.057  -4.750  1.00 20.00     0.026 C 
HETATM    8  C9  UNL     1     -35.215  14.392  -4.034  1.00 20.00     0.106 C 
ENDROOT
BRANCH   8   9
HETATM    9  C5  UNL     1     -36.319  13.863  -4.932  1.00 20.00     0.178 C 
HETATM   10  O10 UNL     1     -37.437  13.696  -4.370  1.00 20.00    -0.648 OA
HETATM   11  O11 UNL     1     -35.975  13.657  -6.130  1.00 20.00    -0.648 OA
ENDBRANCH   8   9
TORSDOF 1
ENDMDL
MODEL 2
REMARK VINA RESULT:      -5.3      0.924      2.552
REMARK  1 active torsions:
REMARK  status: ('A' for Active; 'I' for Inactive)
REMARK    1  A    between atoms: C5_5  and  C9_9 
ROOT
HETATM    1  C1  UNL     1     -34.646  15.489  -2.884  1.00 20.00    -0.029 C 
HETATM    2  C2  UNL     1     -33.932  14.914  -3.872  1.00 20.00    -0.021 C 
HETATM    3  C3  UNL     1     -34.289  16.388  -5.817  1.00 20.00    -0.021 C 
HETATM    4  C4  UNL     1     -35.359  17.108  -5.443  1.00 20.00    -0.024 C 
HETATM    5  C6  UNL     1     -35.956  16.210  -3.165  1.00 20.00     0.036 C 
HETATM    6  C7  UNL     1     -34.434  14.973  -5.302  1.00 20.00     0.045 C 
HETATM    7  C8  UNL     1     -36.324  16.228  -4.673  1.00 20.00     0.026 C 
HETATM    8  C9  UNL     1     -35.969  14.882  -5.321  1.00 20.00     0.106 C 
ENDROOT
BRANCH   8   9
HETATM    9  C5  UNL     1     -36.574  13.653  -4.666  1.00 20.00     0.178 C 
HETATM   10  O10 UNL     1     -35.795  12.666  -4.550  1.00 20.00    -0.648 OA
HETATM   11  O11 UNL     1     -37.783  13.777  -4.320  1.00 20.00    -0.648 OA
ENDBRANCH   8   9
TORSDOF 1
ENDMDL
MODEL 3
REMARK VINA RESULT:      -5.3      0.930      1.299
REMARK  1 active torsions:
REMARK  status: ('A' for Active; 'I' for Inactive)
REMARK    1  A    between atoms: C5_5  and  C9_9 
ROOT
HETATM    1  C1  UNL     1     -34.609  15.772  -6.102  1.00 20.00    -0.029 C 
HETATM    2  C2  UNL     1     -35.600  16.430  -5.468  1.00 20.00    -0.021 C 
HETATM    3  C3  UNL     1     -34.707  16.839  -3.206  1.00 20.00    -0.021 C 
HETATM    4  C4  UNL     1     -33.670  15.987  -3.144  1.00 20.00    -0.024 C 
HETATM    5  C6  UNL     1     -33.701  14.799  -5.367  1.00 20.00     0.036 C 
HETATM    6  C7  UNL     1     -35.833  16.200  -3.987  1.00 20.00     0.045 C 
HETATM    7  C8  UNL     1     -34.028  14.695  -3.853  1.00 20.00     0.026 C 
HETATM    8  C9  UNL     1     -35.547  14.730  -3.635  1.00 20.00     0.106 C 
ENDROOT
BRANCH   8   9
HETATM    9  C5  UNL     1     -36.350  13.692  -4.399  1.00 20.00     0.178 C 
HETATM   10  O10 UNL     1     -37.477  14.081  -4.814  1.00 20.00    -0.648 OA
HETATM   11  O11 UNL     1     -35.784  12.570  -4.521  1.00 20.00    -0.648 OA
ENDBRANCH   8   9
TORSDOF 1
ENDMDL
MODEL 4
REMARK VINA RESULT:      -4.8      1.404      1.955
REMARK  1 active torsions:
REMARK  status: ('A' for Active; 'I' for Inactive)
REMARK    1  A    between atoms: C5_5  and  C9_9 
ROOT
HETATM    1  C1  UNL     1     -35.645  17.214  -4.448  1.00 20.00    -0.029 C 
HETATM    2  C2  UNL     1     -36.165  16.503  -3.427  1.00 20.00    -0.021 C 
HETATM    3  C3  UNL     1     -34.537  16.789  -1.596  1.00 20.00    -0.021 C 
HETATM    4  C4  UNL     1     -33.452  17.247  -2.242  1.00 20.00    -0.024 C 
HETATM    5  C6  UNL     1     -34.143  17.313  -4.665  1.00 20.00     0.036 C 
HETATM    6  C7  UNL     1     -35.245  15.775  -2.466  1.00 20.00     0.045 C 
HETATM    7  C8  UNL     1     -33.326  16.555  -3.584  1.00 20.00     0.026 C 
HETATM    8  C9  UNL     1     -34.020  15.234  -3.224  1.00 20.00     0.106 C 
ENDROOT
BRANCH   8   9
HETATM    9  C5  UNL     1     -34.312  14.301  -4.386  1.00 20.00     0.178 C 
HETATM   10  O10 UNL     1     -33.573  14.453  -5.398  1.00 20.00    -0.648 OA
HETATM   11  O11 UNL     1     -35.261  13.490  -4.189  1.00 20.00    -0.648 OA
ENDBRANCH   8   9
TORSDOF 1
ENDMDL
MODEL 5
REMARK VINA RESULT:      -4.4      1.816      2.679
REMARK  1 active torsions:
REMARK  status: ('A' for Active; 'I' for Inactive)
REMARK    1  A    between atoms: C5_5  and  C9_9 
ROOT
HETATM    1  C1  UNL     1     -33.653  17.855  -4.232  1.00 20.00    -0.029 C 
HETATM    2  C2  UNL     1     -34.805  17.443  -4.796  1.00 20.00    -0.021 C 
HETATM    3  C3  UNL     1     -36.156  16.632  -2.898  1.00 20.00    -0.021 C 
HETATM    4  C4  UNL     1     -35.238  16.493  -1.927  1.00 20.00    -0.024 C 
HETATM    5  C6  UNL     1     -33.064  17.151  -3.019  1.00 20.00     0.036 C 
HETATM    6  C7  UNL     1     -35.542  16.246  -4.225  1.00 20.00     0.045 C 
HETATM    7  C8  UNL     1     -33.943  15.973  -2.519  1.00 20.00     0.026 C 
HETATM    8  C9  UNL     1     -34.531  15.206  -3.713  1.00 20.00     0.106 C 
ENDROOT
BRANCH   8   9
HETATM    9  C5  UNL     1     -33.526  14.693  -4.729  1.00 20.00     0.178 C 
HETATM   10  O10 UNL     1     -32.362  14.495  -4.284  1.00 20.00    -0.648 OA
HETATM   11  O11 UNL     1     -33.988  14.530  -5.894  1.00 20.00    -0.648 OA
ENDBRANCH   8   9
TORSDOF 1
ENDMDL
MODEL 6
REMARK VINA RESULT:      -4.4      1.148      1.473
REMARK  1 active torsions:
REMARK  status: ('A' for Active; 'I' for Inactive)
REMARK    1  A    between atoms: C5_5  and  C9_9 
ROOT
HETATM    1  C1  UNL     1     -35.222  16.344  -6.080  1.00 20.00    -0.029 C 
HETATM    2  C2  UNL     1     -35.323  17.056  -4.940  1.00 20.00    -0.021 C 
HETATM    3  C3  UNL     1     -33.708  15.989  -3.411  1.00 20.00    -0.021 C 
HETATM    4  C4  UNL     1     -33.473  14.812  -4.013  1.00 20.00    -0.024 C 
HETATM    5  C6  UNL     1     -34.940  14.850  -6.062  1.00 20.00     0.036 C 
HETATM    6  C7  UNL     1     -35.161  16.365  -3.599  1.00 20.00     0.045 C 
HETATM    7  C8  UNL     1     -34.756  14.287  -4.628  1.00 20.00     0.026 C 
HETATM    8  C9  UNL     1     -35.755  14.948  -3.667  1.00 20.00     0.106 C 
ENDROOT
BRANCH   8   9
HETATM    9  C5  UNL     1     -37.217  14.854  -4.064  1.00 20.00     0.178 C 
HETATM   10  O10 UNL     1     -37.888  15.911  -3.905  1.00 20.00    -0.648 OA
HETATM   11  O11 UNL     1     -37.574  13.725  -4.506  1.00 20.00    -0.648 OA
ENDBRANCH   8   9
TORSDOF 1
ENDMDL
MODEL 7
REMARK VINA RESULT:      -4.4     11.148     12.307
REMARK  1 active torsions:
REMARK  status: ('A' for Active; 'I' for Inactive)
REMARK    1  A    between atoms: C5_5  and  C9_9 
ROOT
HETATM    1  C1  UNL     1     -40.877   6.108  -0.794  1.00 20.00    -0.029 C 
HETATM    2  C2  UNL     1     -40.988   6.626   0.446  1.00 20.00    -0.021 C 
HETATM    3  C3  UNL     1     -42.829   5.346   1.475  1.00 20.00    -0.021 C 
HETATM    4  C4  UNL     1     -43.417   4.777   0.411  1.00 20.00    -0.024 C 
HETATM    5  C6  UNL     1     -42.093   5.615  -1.563  1.00 20.00     0.036 C 
HETATM    6  C7  UNL     1     -42.352   6.732   1.102  1.00 20.00     0.045 C 
HETATM    7  C8  UNL     1     -43.412   5.747  -0.755  1.00 20.00     0.026 C 
HETATM    8  C9  UNL     1     -43.417   7.059   0.041  1.00 20.00     0.106 C 
ENDROOT
BRANCH   8   9
HETATM    9  C5  UNL     1     -43.190   8.324  -0.767  1.00 20.00     0.178 C 
HETATM   10  O10 UNL     1     -43.408   8.220  -2.005  1.00 20.00    -0.648 OA
HETATM   11  O11 UNL     1     -42.810   9.323  -0.092  1.00 20.00    -0.648 OA
ENDBRANCH   8   9
TORSDOF 1
ENDMDL
MODEL 8
REMARK VINA RESULT:      -4.3      1.712      2.758
REMARK  1 active torsions:
REMARK  status: ('A' for Active; 'I' for Inactive)
REMARK    1  A    between atoms: C5_5  and  C9_9 
ROOT
HETATM    1  C1  UNL     1     -36.175  13.991  -4.237  1.00 20.00    -0.029 C 
HETATM    2  C2  UNL     1     -34.875  13.842  -3.916  1.00 20.00    -0.021 C 
HETATM    3  C3  UNL     1     -34.352  15.831  -2.555  1.00 20.00    -0.021 C 
HETATM    4  C4  UNL     1     -35.381  16.650  -2.831  1.00 20.00    -0.024 C 
HETATM    5  C6  UNL     1     -36.781  15.364  -4.485  1.00 20.00     0.036 C 
HETATM    6  C7  UNL     1     -33.978  15.060  -3.801  1.00 20.00     0.045 C 
HETATM    7  C8  UNL     1     -35.760  16.518  -4.292  1.00 20.00     0.026 C 
HETATM    8  C9  UNL     1     -34.388  16.111  -4.847  1.00 20.00     0.106 C 
ENDROOT
BRANCH   8   9
HETATM    9  C5  UNL     1     -34.369  15.654  -6.295  1.00 20.00     0.178 C 
HETATM   10  O10 UNL     1     -33.592  14.692  -6.547  1.00 20.00    -0.648 OA
HETATM   11  O11 UNL     1     -35.137  16.299  -7.064  1.00 20.00    -0.648 OA
ENDBRANCH   8   9
TORSDOF 1
ENDMDL
MODEL 9
REMARK VINA RESULT:      -4.2      2.708      3.588
REMARK  1 active torsions:
REMARK  status: ('A' for Active; 'I' for Inactive)
REMARK    1  A    between atoms: C5_5  and  C9_9 
ROOT
HETATM    1  C1  UNL     1     -34.976  17.572  -4.503  1.00 20.00    -0.029 C 
HETATM    2  C2  UNL     1     -33.672  17.479  -4.174  1.00 20.00    -0.021 C 
HETATM    3  C3  UNL     1     -33.262  15.053  -4.003  1.00 20.00    -0.021 C 
HETATM    4  C4  UNL     1     -34.506  14.553  -3.922  1.00 20.00    -0.024 C 
HETATM    5  C6  UNL     1     -36.002  16.580  -3.979  1.00 20.00     0.036 C 
HETATM    6  C7  UNL     1     -33.201  16.366  -3.256  1.00 20.00     0.045 C 
HETATM    7  C8  UNL     1     -35.373  15.475  -3.088  1.00 20.00     0.026 C 
HETATM    8  C9  UNL     1     -34.277  16.074  -2.196  1.00 20.00     0.106 C 
ENDROOT
BRANCH   8   9
HETATM    9  C5  UNL     1     -34.697  17.246  -1.328  1.00 20.00     0.178 C 
HETATM   10  O10 UNL     1     -35.912  17.258  -0.989  1.00 20.00    -0.648 OA
HETATM   11  O11 UNL     1     -33.771  18.062  -1.056  1.00 20.00    -0.648 OA
ENDBRANCH   8   9
TORSDOF 1
ENDMDL
