MODEL 1
REMARK VINA RESULT:      -5.2      0.000      0.000
REMARK  1 active torsions:
REMARK  status: ('A' for Active; 'I' for Inactive)
REMARK    1  A    between atoms: C9_9  and  O10_10 
ROOT
HETATM    1  C1  UNL     1     -41.205   9.757   0.416  1.00 20.00     0.012 C 
HETATM    2  C2  UNL     1     -41.360   8.749  -0.217  1.00 20.00    -0.112 C 
HETATM    3  C3  UNL     1     -42.460   4.774  -1.480  1.00 20.00     0.007 C 
HETATM    4  C4  UNL     1     -40.983   5.087  -1.202  1.00 20.00     0.009 C 
HETATM    5  C5  UNL     1     -43.046   7.199  -1.219  1.00 20.00     0.024 C 
HETATM    6  C6  UNL     1     -41.549   7.514  -0.993  1.00 20.00     0.071 C 
HETATM    7  C7  UNL     1     -43.203   5.796  -0.598  1.00 20.00     0.016 C 
HETATM    8  C8  UNL     1     -41.061   6.269  -0.214  1.00 20.00     0.030 C 
HETATM    9  C9  UNL     1     -42.294   5.908   0.627  1.00 20.00     0.127 C 
ENDROOT
BRANCH   9  10
HETATM   10  O10 UNL     1     -42.163   4.689   1.329  1.00 20.00    -0.395 OA
HETATM   11  H22 UNL     1     -42.914   4.630   1.946  1.00 20.00     0.210 HD
ENDBRANCH   9  10
TORSDOF 1
ENDMDL
MODEL 2
REMARK VINA RESULT:      -4.6     10.595     11.755
REMARK  1 active torsions:
REMARK  status: ('A' for Active; 'I' for Inactive)
REMARK    1  A    between atoms: C9_9  and  O10_10 
ROOT
HETATM    1  C1  UNL     1     -35.204  16.658  -0.982  1.00 20.00     0.012 C 
HETATM    2  C2  UNL     1     -34.895  16.438  -2.121  1.00 20.00    -0.112 C 
HETATM    3  C3  UNL     1     -34.701  14.877  -6.138  1.00 20.00     0.007 C 
HETATM    4  C4  UNL     1     -33.605  14.492  -5.133  1.00 20.00     0.009 C 
HETATM    5  C5  UNL     1     -35.653  16.522  -4.502  1.00 20.00     0.024 C 
HETATM    6  C6  UNL     1     -34.516  16.169  -3.516  1.00 20.00     0.071 C 
HETATM    7  C7  UNL     1     -35.908  15.188  -5.231  1.00 20.00     0.016 C 
HETATM    8  C8  UNL     1     -34.312  14.656  -3.772  1.00 20.00     0.030 C 
HETATM    9  C9  UNL     1     -35.739  14.186  -4.089  1.00 20.00     0.127 C 
ENDROOT
BRANCH   9  10
HETATM   10  O10 UNL     1     -35.809  12.842  -4.519  1.00 20.00    -0.395 OA
HETATM   11  H22 UNL     1     -36.733  12.668  -4.773  1.00 20.00     0.210 HD
ENDBRANCH   9  10
TORSDOF 1
ENDMDL
MODEL 3
REMARK VINA RESULT:      -4.6     11.620     12.821
REMARK  1 active torsions:
REMARK  status: ('A' for Active; 'I' for Inactive)
REMARK    1  A    between atoms: C9_9  and  O10_10 
ROOT
HETATM    1  C1  UNL     1     -32.513  17.836  -1.542  1.00 20.00     0.012 C 
HETATM    2  C2  UNL     1     -33.378  17.379  -2.238  1.00 20.00    -0.112 C 
HETATM    3  C3  UNL     1     -35.671  14.865  -4.889  1.00 20.00     0.007 C 
HETATM    4  C4  UNL     1     -35.119  16.198  -5.416  1.00 20.00     0.009 C 
HETATM    5  C5  UNL     1     -34.943  15.456  -2.563  1.00 20.00     0.024 C 
HETATM    6  C6  UNL     1     -34.437  16.819  -3.091  1.00 20.00     0.071 C 
HETATM    7  C7  UNL     1     -34.692  14.509  -3.754  1.00 20.00     0.016 C 
HETATM    8  C8  UNL     1     -33.906  16.454  -4.498  1.00 20.00     0.030 C 
HETATM    9  C9  UNL     1     -33.358  15.037  -4.281  1.00 20.00     0.127 C 
ENDROOT
BRANCH   9  10
HETATM   10  O10 UNL     1     -32.945  14.401  -5.472  1.00 20.00    -0.395 OA
HETATM   11  H22 UNL     1     -32.023  14.668  -5.638  1.00 20.00     0.210 HD
ENDBRANCH   9  10
TORSDOF 1
ENDMDL
MODEL 4
REMARK VINA RESULT:      -4.5     22.701     23.815
REMARK  1 active torsions:
REMARK  status: ('A' for Active; 'I' for Inactive)
REMARK    1  A    between atoms: C9_9  and  O10_10 
ROOT
HETATM    1  C1  UNL     1     -26.858  17.502  12.331  1.00 20.00     0.012 C 
HETATM    2  C2  UNL     1     -25.864  17.956  11.835  1.00 20.00    -0.112 C 
HETATM    3  C3  UNL     1     -22.441  18.659   9.305  1.00 20.00     0.007 C 
HETATM    4  C4  UNL     1     -22.219  18.156  10.739  1.00 20.00     0.009 C 
HETATM    5  C5  UNL     1     -24.886  18.970   9.769  1.00 20.00     0.024 C 
HETATM    6  C6  UNL     1     -24.646  18.514  11.226  1.00 20.00     0.071 C 
HETATM    7  C7  UNL     1     -23.855  18.145   8.973  1.00 20.00     0.016 C 
HETATM    8  C8  UNL     1     -23.546  17.438  11.061  1.00 20.00     0.030 C 
HETATM    9  C9  UNL     1     -23.909  16.806   9.710  1.00 20.00     0.127 C 
ENDROOT
BRANCH   9  10
HETATM   10  O10 UNL     1     -22.951  15.879   9.242  1.00 20.00    -0.395 OA
HETATM   11  H22 UNL     1     -22.090  16.334   9.234  1.00 20.00     0.210 HD
ENDBRANCH   9  10
TORSDOF 1
ENDMDL
MODEL 5
REMARK VINA RESULT:      -4.4     11.473     12.559
REMARK  1 active torsions:
REMARK  status: ('A' for Active; 'I' for Inactive)
REMARK    1  A    between atoms: C9_9  and  O10_10 
ROOT
HETATM    1  C1  UNL     1     -36.089  17.808  -0.655  1.00 20.00     0.012 C 
HETATM    2  C2  UNL     1     -35.463  16.983  -1.261  1.00 20.00    -0.112 C 
HETATM    3  C3  UNL     1     -33.420  14.770  -4.350  1.00 20.00     0.007 C 
HETATM    4  C4  UNL     1     -34.750  14.232  -3.802  1.00 20.00     0.009 C 
HETATM    5  C5  UNL     1     -33.386  16.550  -2.583  1.00 20.00     0.024 C 
HETATM    6  C6  UNL     1     -34.696  15.970  -2.003  1.00 20.00     0.071 C 
HETATM    7  C7  UNL     1     -33.528  16.286  -4.096  1.00 20.00     0.016 C 
HETATM    8  C8  UNL     1     -35.445  15.505  -3.276  1.00 20.00     0.030 C 
HETATM    9  C9  UNL     1     -35.018  16.558  -4.308  1.00 20.00     0.127 C 
ENDROOT
BRANCH   9  10
HETATM   10  O10 UNL     1     -35.449  16.271  -5.622  1.00 20.00    -0.395 OA
HETATM   11  H22 UNL     1     -36.121  15.569  -5.558  1.00 20.00     0.210 HD
ENDBRANCH   9  10
TORSDOF 1
ENDMDL
MODEL 6
REMARK VINA RESULT:      -4.3     11.077     12.370
REMARK  1 active torsions:
REMARK  status: ('A' for Active; 'I' for Inactive)
REMARK    1  A    between atoms: C9_9  and  O10_10 
ROOT
HETATM    1  C1  UNL     1     -33.001  17.866  -1.401  1.00 20.00     0.012 C 
HETATM    2  C2  UNL     1     -33.251  17.079  -2.272  1.00 20.00    -0.112 C 
HETATM    3  C3  UNL     1     -35.253  14.714  -5.273  1.00 20.00     0.007 C 
HETATM    4  C4  UNL     1     -34.808  14.040  -3.966  1.00 20.00     0.009 C 
HETATM    5  C5  UNL     1     -34.046  16.815  -4.628  1.00 20.00     0.024 C 
HETATM    6  C6  UNL     1     -33.558  16.114  -3.339  1.00 20.00     0.071 C 
HETATM    7  C7  UNL     1     -35.435  16.186  -4.860  1.00 20.00     0.016 C 
HETATM    8  C8  UNL     1     -34.765  15.218  -2.971  1.00 20.00     0.030 C 
HETATM    9  C9  UNL     1     -35.956  16.073  -3.427  1.00 20.00     0.127 C 
ENDROOT
BRANCH   9  10
HETATM   10  O10 UNL     1     -37.198  15.405  -3.343  1.00 20.00    -0.395 OA
HETATM   11  H22 UNL     1     -37.835  16.030  -2.954  1.00 20.00     0.210 HD
ENDBRANCH   9  10
TORSDOF 1
ENDMDL
MODEL 7
REMARK VINA RESULT:      -4.3     10.893     12.315
REMARK  1 active torsions:
REMARK  status: ('A' for Active; 'I' for Inactive)
REMARK    1  A    between atoms: C9_9  and  O10_10 
ROOT
HETATM    1  C1  UNL     1     -32.879  17.408  -2.108  1.00 20.00     0.012 C 
HETATM    2  C2  UNL     1     -33.584  16.525  -2.511  1.00 20.00    -0.112 C 
HETATM    3  C3  UNL     1     -36.034  13.975  -4.982  1.00 20.00     0.007 C 
HETATM    4  C4  UNL     1     -36.704  14.828  -3.895  1.00 20.00     0.009 C 
HETATM    5  C5  UNL     1     -33.768  14.628  -4.130  1.00 20.00     0.024 C 
HETATM    6  C6  UNL     1     -34.448  15.442  -3.005  1.00 20.00     0.071 C 
HETATM    7  C7  UNL     1     -34.755  14.769  -5.306  1.00 20.00     0.016 C 
HETATM    8  C8  UNL     1     -35.710  15.994  -3.712  1.00 20.00     0.030 C 
HETATM    9  C9  UNL     1     -35.207  16.220  -5.144  1.00 20.00     0.127 C 
ENDROOT
BRANCH   9  10
HETATM   10  O10 UNL     1     -36.227  16.584  -6.051  1.00 20.00    -0.395 OA
HETATM   11  H22 UNL     1     -36.212  17.555  -6.128  1.00 20.00     0.210 HD
ENDBRANCH   9  10
TORSDOF 1
ENDMDL
MODEL 8
REMARK VINA RESULT:      -4.2     10.964     11.985
REMARK  1 active torsions:
REMARK  status: ('A' for Active; 'I' for Inactive)
REMARK    1  A    between atoms: C9_9  and  O10_10 
ROOT
HETATM    1  C1  UNL     1     -35.123  16.731  -0.989  1.00 20.00     0.012 C 
HETATM    2  C2  UNL     1     -35.319  16.502  -2.150  1.00 20.00    -0.112 C 
HETATM    3  C3  UNL     1     -35.379  14.697  -6.068  1.00 20.00     0.007 C 
HETATM    4  C4  UNL     1     -34.534  15.960  -5.841  1.00 20.00     0.009 C 
HETATM    5  C5  UNL     1     -36.372  14.921  -3.777  1.00 20.00     0.024 C 
HETATM    6  C6  UNL     1     -35.560  16.221  -3.574  1.00 20.00     0.071 C 
HETATM    7  C7  UNL     1     -35.444  14.067  -4.664  1.00 20.00     0.016 C 
HETATM    8  C8  UNL     1     -34.243  15.910  -4.326  1.00 20.00     0.030 C 
HETATM    9  C9  UNL     1     -34.074  14.405  -4.077  1.00 20.00     0.127 C 
ENDROOT
BRANCH   9  10
HETATM   10  O10 UNL     1     -33.006  13.828  -4.801  1.00 20.00    -0.395 OA
HETATM   11  H22 UNL     1     -33.391  13.382  -5.576  1.00 20.00     0.210 HD
ENDBRANCH   9  10
TORSDOF 1
ENDMDL
MODEL 9
REMARK VINA RESULT:      -4.2     10.587     12.464
REMARK  1 active torsions:
REMARK  status: ('A' for Active; 'I' for Inactive)
REMARK    1  A    between atoms: C9_9  and  O10_10 
ROOT
HETATM    1  C1  UNL     1     -38.205  14.667  -4.345  1.00 20.00     0.012 C 
HETATM    2  C2  UNL     1     -37.045  14.672  -4.040  1.00 20.00    -0.112 C 
HETATM    3  C3  UNL     1     -32.917  15.777  -3.450  1.00 20.00     0.007 C 
HETATM    4  C4  UNL     1     -33.260  14.698  -4.487  1.00 20.00     0.009 C 
HETATM    5  C5  UNL     1     -35.295  15.802  -2.656  1.00 20.00     0.024 C 
HETATM    6  C6  UNL     1     -35.622  14.678  -3.665  1.00 20.00     0.071 C 
HETATM    7  C7  UNL     1     -34.207  16.616  -3.384  1.00 20.00     0.016 C 
HETATM    8  C8  UNL     1     -34.716  15.037  -4.868  1.00 20.00     0.030 C 
HETATM    9  C9  UNL     1     -34.713  16.572  -4.826  1.00 20.00     0.127 C 
ENDROOT
BRANCH   9  10
HETATM   10  O10 UNL     1     -33.817  17.162  -5.744  1.00 20.00    -0.395 OA
HETATM   11  H22 UNL     1     -33.408  16.439  -6.253  1.00 20.00     0.210 HD
ENDBRANCH   9  10
TORSDOF 1
ENDMDL
