MODEL 1
REMARK VINA RESULT:      -5.0      0.000      0.000
REMARK  1 active torsions:
REMARK  status: ('A' for Active; 'I' for Inactive)
REMARK    1  A    between atoms: C2_2  and  C3_3 
ROOT
HETATM    1  C1  UNL     1     -34.049  14.591  -3.895  1.00 20.00    -0.015 C 
HETATM    2  C2  UNL     1     -35.319  14.974  -4.118  1.00 20.00    -0.012 C 
HETATM    3  C4  UNL     1     -32.980  15.628  -3.610  1.00 20.00     0.033 C 
HETATM    4  C5  UNL     1     -34.486  17.199  -4.933  1.00 20.00     0.016 C 
HETATM    5  C6  UNL     1     -35.591  16.448  -4.101  1.00 20.00     0.030 C 
HETATM    6  C7  UNL     1     -33.614  17.037  -3.644  1.00 20.00    -0.002 C 
HETATM    7  C8  UNL     1     -34.976  17.199  -2.833  1.00 20.00    -0.036 C 
HETATM    8  C10 UNL     1     -35.458  18.651  -2.644  1.00 20.00     0.016 C 
HETATM    9  C11 UNL     1     -35.068  16.504  -1.468  1.00 20.00     0.016 C 
ENDROOT
BRANCH   2  10
HETATM   10  C3  UNL     1     -36.357  13.982  -4.374  1.00 20.00     0.151 C 
HETATM   11  C9  UNL     1     -37.800  14.430  -4.343  1.00 20.00     0.096 C 
HETATM   12  O12 UNL     1     -36.065  12.803  -4.604  1.00 20.00    -0.293 OA
ENDBRANCH   2  10
TORSDOF 1
ENDMDL
MODEL 2
REMARK VINA RESULT:      -4.8      1.331      2.931
REMARK  1 active torsions:
REMARK  status: ('A' for Active; 'I' for Inactive)
REMARK    1  A    between atoms: C2_2  and  C3_3 
ROOT
HETATM    1  C1  UNL     1     -36.373  16.852  -4.454  1.00 20.00    -0.015 C 
HETATM    2  C2  UNL     1     -36.456  15.546  -4.143  1.00 20.00    -0.012 C 
HETATM    3  C4  UNL     1     -35.041  17.571  -4.368  1.00 20.00     0.033 C 
HETATM    4  C5  UNL     1     -34.462  15.797  -2.636  1.00 20.00     0.016 C 
HETATM    5  C6  UNL     1     -35.193  14.881  -3.687  1.00 20.00     0.030 C 
HETATM    6  C7  UNL     1     -33.955  16.580  -3.891  1.00 20.00    -0.002 C 
HETATM    7  C8  UNL     1     -33.939  15.170  -4.631  1.00 20.00    -0.036 C 
HETATM    8  C10 UNL     1     -32.700  14.296  -4.348  1.00 20.00     0.016 C 
HETATM    9  C11 UNL     1     -34.162  15.169  -6.149  1.00 20.00     0.016 C 
ENDROOT
BRANCH   2  10
HETATM   10  C3  UNL     1     -37.730  14.842  -4.242  1.00 20.00     0.151 C 
HETATM   11  C9  UNL     1     -39.003  15.644  -4.109  1.00 20.00     0.096 C 
HETATM   12  O12 UNL     1     -37.767  13.620  -4.423  1.00 20.00    -0.293 OA
ENDBRANCH   2  10
TORSDOF 1
ENDMDL
MODEL 3
REMARK VINA RESULT:      -4.7      1.173      1.483
REMARK  1 active torsions:
REMARK  status: ('A' for Active; 'I' for Inactive)
REMARK    1  A    between atoms: C2_2  and  C3_3 
ROOT
HETATM    1  C1  UNL     1     -35.590  14.035  -4.040  1.00 20.00    -0.015 C 
HETATM    2  C2  UNL     1     -36.377  15.115  -4.203  1.00 20.00    -0.012 C 
HETATM    3  C4  UNL     1     -34.088  14.201  -3.918  1.00 20.00     0.033 C 
HETATM    4  C5  UNL     1     -34.452  16.337  -5.256  1.00 20.00     0.016 C 
HETATM    5  C6  UNL     1     -35.688  16.444  -4.289  1.00 20.00     0.030 C 
HETATM    6  C7  UNL     1     -33.728  15.701  -4.023  1.00 20.00    -0.002 C 
HETATM    7  C8  UNL     1     -34.612  16.684  -3.134  1.00 20.00    -0.036 C 
HETATM    8  C10 UNL     1     -34.084  18.129  -3.032  1.00 20.00     0.016 C 
HETATM    9  C11 UNL     1     -34.963  16.223  -1.713  1.00 20.00     0.016 C 
ENDROOT
BRANCH   2  10
HETATM   10  C3  UNL     1     -37.825  14.966  -4.301  1.00 20.00     0.151 C 
HETATM   11  C9  UNL     1     -38.678  16.211  -4.237  1.00 20.00     0.096 C 
HETATM   12  O12 UNL     1     -38.341  13.850  -4.428  1.00 20.00    -0.293 OA
ENDBRANCH   2  10
TORSDOF 1
ENDMDL
MODEL 4
REMARK VINA RESULT:      -4.7      1.224      2.061
REMARK  1 active torsions:
REMARK  status: ('A' for Active; 'I' for Inactive)
REMARK    1  A    between atoms: C2_2  and  C3_3 
ROOT
HETATM    1  C1  UNL     1     -35.555  15.124  -2.809  1.00 20.00    -0.015 C 
HETATM    2  C2  UNL     1     -35.110  15.075  -4.078  1.00 20.00    -0.012 C 
HETATM    3  C4  UNL     1     -35.010  16.166  -1.852  1.00 20.00     0.033 C 
HETATM    4  C5  UNL     1     -32.944  16.110  -3.339  1.00 20.00     0.016 C 
HETATM    5  C6  UNL     1     -34.049  16.064  -4.458  1.00 20.00     0.030 C 
HETATM    6  C7  UNL     1     -33.958  17.031  -2.582  1.00 20.00    -0.002 C 
HETATM    7  C8  UNL     1     -34.384  17.563  -4.022  1.00 20.00    -0.036 C 
HETATM    8  C10 UNL     1     -33.454  18.635  -4.625  1.00 20.00     0.016 C 
HETATM    9  C11 UNL     1     -35.826  18.059  -4.190  1.00 20.00     0.016 C 
ENDROOT
BRANCH   2  10
HETATM   10  C3  UNL     1     -35.642  14.089  -5.011  1.00 20.00     0.151 C 
HETATM   11  C9  UNL     1     -35.805  14.488  -6.459  1.00 20.00     0.096 C 
HETATM   12  O12 UNL     1     -35.959  12.958  -4.626  1.00 20.00    -0.293 OA
ENDBRANCH   2  10
TORSDOF 1
ENDMDL
MODEL 5
REMARK VINA RESULT:      -4.6      1.609      3.002
REMARK  1 active torsions:
REMARK  status: ('A' for Active; 'I' for Inactive)
REMARK    1  A    between atoms: C2_2  and  C3_3 
ROOT
HETATM    1  C1  UNL     1     -35.931  15.835  -2.960  1.00 20.00    -0.015 C 
HETATM    2  C2  UNL     1     -36.475  15.145  -3.980  1.00 20.00    -0.012 C 
HETATM    3  C4  UNL     1     -34.425  15.965  -2.849  1.00 20.00     0.033 C 
HETATM    4  C5  UNL     1     -34.374  13.779  -4.153  1.00 20.00     0.016 C 
HETATM    5  C6  UNL     1     -35.523  14.507  -4.946  1.00 20.00     0.030 C 
HETATM    6  C7  UNL     1     -33.758  15.211  -4.022  1.00 20.00    -0.002 C 
HETATM    7  C8  UNL     1     -34.378  15.492  -5.462  1.00 20.00    -0.036 C 
HETATM    8  C10 UNL     1     -33.550  14.957  -6.648  1.00 20.00     0.016 C 
HETATM    9  C11 UNL     1     -34.765  16.940  -5.791  1.00 20.00     0.016 C 
ENDROOT
BRANCH   2  10
HETATM   10  C3  UNL     1     -37.924  15.030  -4.105  1.00 20.00     0.151 C 
HETATM   11  C9  UNL     1     -38.760  16.273  -3.909  1.00 20.00     0.096 C 
HETATM   12  O12 UNL     1     -38.454  13.943  -4.358  1.00 20.00    -0.293 OA
ENDBRANCH   2  10
TORSDOF 1
ENDMDL
MODEL 6
REMARK VINA RESULT:      -4.6      1.317      2.647
REMARK  1 active torsions:
REMARK  status: ('A' for Active; 'I' for Inactive)
REMARK    1  A    between atoms: C2_2  and  C3_3 
ROOT
HETATM    1  C1  UNL     1     -36.161  16.439  -3.794  1.00 20.00    -0.015 C 
HETATM    2  C2  UNL     1     -35.193  15.584  -3.420  1.00 20.00    -0.012 C 
HETATM    3  C4  UNL     1     -36.287  17.790  -3.116  1.00 20.00     0.033 C 
HETATM    4  C5  UNL     1     -35.168  16.638  -1.140  1.00 20.00     0.016 C 
HETATM    5  C6  UNL     1     -34.299  16.026  -2.301  1.00 20.00     0.030 C 
HETATM    6  C7  UNL     1     -35.191  17.922  -2.034  1.00 20.00    -0.002 C 
HETATM    7  C8  UNL     1     -33.723  17.503  -2.487  1.00 20.00    -0.036 C 
HETATM    8  C10 UNL     1     -32.599  17.888  -1.503  1.00 20.00     0.016 C 
HETATM    9  C11 UNL     1     -33.270  17.931  -3.889  1.00 20.00     0.016 C 
ENDROOT
BRANCH   2  10
HETATM   10  C3  UNL     1     -35.053  14.290  -4.080  1.00 20.00     0.151 C 
HETATM   11  C9  UNL     1     -36.293  13.638  -4.646  1.00 20.00     0.096 C 
HETATM   12  O12 UNL     1     -33.950  13.739  -4.167  1.00 20.00    -0.293 OA
ENDBRANCH   2  10
TORSDOF 1
ENDMDL
MODEL 7
REMARK VINA RESULT:      -4.5      1.993      3.622
REMARK  1 active torsions:
REMARK  status: ('A' for Active; 'I' for Inactive)
REMARK    1  A    between atoms: C2_2  and  C3_3 
ROOT
HETATM    1  C1  UNL     1     -33.657  16.272  -2.722  1.00 20.00    -0.015 C 
HETATM    2  C2  UNL     1     -35.001  16.217  -2.753  1.00 20.00    -0.012 C 
HETATM    3  C4  UNL     1     -32.841  15.484  -3.729  1.00 20.00     0.033 C 
HETATM    4  C5  UNL     1     -34.867  13.944  -3.813  1.00 20.00     0.016 C 
HETATM    5  C6  UNL     1     -35.616  15.328  -3.791  1.00 20.00     0.030 C 
HETATM    6  C7  UNL     1     -33.795  14.704  -4.662  1.00 20.00    -0.002 C 
HETATM    7  C8  UNL     1     -35.014  15.541  -5.255  1.00 20.00    -0.036 C 
HETATM    8  C10 UNL     1     -35.798  14.844  -6.385  1.00 20.00     0.016 C 
HETATM    9  C11 UNL     1     -34.725  16.975  -5.715  1.00 20.00     0.016 C 
ENDROOT
BRANCH   2  10
HETATM   10  C3  UNL     1     -35.795  16.986  -1.800  1.00 20.00     0.151 C 
HETATM   11  C9  UNL     1     -35.325  17.050  -0.365  1.00 20.00     0.096 C 
HETATM   12  O12 UNL     1     -36.827  17.565  -2.156  1.00 20.00    -0.293 OA
ENDBRANCH   2  10
TORSDOF 1
ENDMDL
MODEL 8
REMARK VINA RESULT:      -4.5      1.850      2.696
REMARK  1 active torsions:
REMARK  status: ('A' for Active; 'I' for Inactive)
REMARK    1  A    between atoms: C2_2  and  C3_3 
ROOT
HETATM    1  C1  UNL     1     -36.541  14.296  -4.686  1.00 20.00    -0.015 C 
HETATM    2  C2  UNL     1     -36.309  15.570  -5.052  1.00 20.00    -0.012 C 
HETATM    3  C4  UNL     1     -35.422  13.457  -4.102  1.00 20.00     0.033 C 
HETATM    4  C5  UNL     1     -33.890  15.004  -5.422  1.00 20.00     0.016 C 
HETATM    5  C6  UNL     1     -34.908  16.075  -4.881  1.00 20.00     0.030 C 
HETATM    6  C7  UNL     1     -34.127  14.299  -4.046  1.00 20.00    -0.002 C 
HETATM    7  C8  UNL     1     -34.285  15.765  -3.444  1.00 20.00    -0.036 C 
HETATM    8  C10 UNL     1     -32.962  16.495  -3.141  1.00 20.00     0.016 C 
HETATM    9  C11 UNL     1     -35.189  15.927  -2.215  1.00 20.00     0.016 C 
ENDROOT
BRANCH   2  10
HETATM   10  C3  UNL     1     -37.385  16.391  -5.597  1.00 20.00     0.151 C 
HETATM   11  C9  UNL     1     -37.643  17.741  -4.970  1.00 20.00     0.096 C 
HETATM   12  O12 UNL     1     -38.071  15.990  -6.543  1.00 20.00    -0.293 OA
ENDBRANCH   2  10
TORSDOF 1
ENDMDL
MODEL 9
REMARK VINA RESULT:      -4.4      3.236      4.838
REMARK  1 active torsions:
REMARK  status: ('A' for Active; 'I' for Inactive)
REMARK    1  A    between atoms: C2_2  and  C3_3 
ROOT
HETATM    1  C1  UNL     1     -32.441  18.955  -2.931  1.00 20.00    -0.015 C 
HETATM    2  C2  UNL     1     -32.508  18.086  -1.906  1.00 20.00    -0.012 C 
HETATM    3  C4  UNL     1     -33.196  18.674  -4.215  1.00 20.00     0.033 C 
HETATM    4  C5  UNL     1     -32.981  16.231  -3.532  1.00 20.00     0.016 C 
HETATM    5  C6  UNL     1     -33.323  16.847  -2.125  1.00 20.00     0.030 C 
HETATM    6  C7  UNL     1     -33.948  17.330  -4.084  1.00 20.00    -0.002 C 
HETATM    7  C8  UNL     1     -34.771  17.131  -2.734  1.00 20.00    -0.036 C 
HETATM    8  C10 UNL     1     -35.727  15.922  -2.722  1.00 20.00     0.016 C 
HETATM    9  C11 UNL     1     -35.553  18.339  -2.203  1.00 20.00     0.016 C 
ENDROOT
BRANCH   2  10
HETATM   10  C3  UNL     1     -31.800  18.357  -0.659  1.00 20.00     0.151 C 
HETATM   11  C9  UNL     1     -32.616  18.604   0.588  1.00 20.00     0.096 C 
HETATM   12  O12 UNL     1     -30.565  18.391  -0.626  1.00 20.00    -0.293 OA
ENDBRANCH   2  10
TORSDOF 1
ENDMDL
