MODEL 1
REMARK VINA RESULT:      -4.9      0.000      0.000
REMARK  1 active torsions:
REMARK  status: ('A' for Active; 'I' for Inactive)
REMARK    1  A    between atoms: C2_2  and  C6_6 
ROOT
HETATM    1  C3  UNL     1     -35.884  14.333  -6.233  1.00 20.00     0.031 C 
HETATM    2  C4  UNL     1     -34.512  15.010  -6.300  1.00 20.00     0.032 C 
HETATM    3  C5  UNL     1     -36.288  15.325  -3.944  1.00 20.00     0.040 C 
HETATM    4  C6  UNL     1     -34.934  16.056  -4.042  1.00 20.00     0.042 C 
HETATM    5  C7  UNL     1     -36.202  14.029  -4.764  1.00 20.00     0.131 C 
HETATM    6  C8  UNL     1     -33.978  15.166  -4.868  1.00 20.00     0.139 C 
HETATM    7  N10 UNL     1     -35.077  13.234  -4.215  1.00 20.00    -0.192 NA
HETATM    8  N11 UNL     1     -33.956  13.810  -4.260  1.00 20.00    -0.192 NA
ENDROOT
BRANCH   4   9
HETATM    9  C2  UNL     1     -34.375  16.385  -2.690  1.00 20.00    -0.087 C 
HETATM   10  C1  UNL     1     -35.101  16.251  -1.571  1.00 20.00     0.014 C 
HETATM   11  C9  UNL     1     -32.956  16.871  -2.661  1.00 20.00     0.043 C 
ENDBRANCH   4   9
TORSDOF 1
ENDMDL
MODEL 2
REMARK VINA RESULT:      -4.7      1.574      2.428
REMARK  1 active torsions:
REMARK  status: ('A' for Active; 'I' for Inactive)
REMARK    1  A    between atoms: C2_2  and  C6_6 
ROOT
HETATM    1  C3  UNL     1     -35.933  13.939  -5.351  1.00 20.00     0.031 C 
HETATM    2  C4  UNL     1     -36.880  14.481  -4.276  1.00 20.00     0.032 C 
HETATM    3  C5  UNL     1     -33.938  14.804  -4.065  1.00 20.00     0.040 C 
HETATM    4  C6  UNL     1     -34.889  15.293  -2.954  1.00 20.00     0.042 C 
HETATM    5  C7  UNL     1     -34.693  14.838  -5.402  1.00 20.00     0.131 C 
HETATM    6  C8  UNL     1     -36.220  15.704  -3.622  1.00 20.00     0.139 C 
HETATM    7  N10 UNL     1     -35.156  16.231  -5.611  1.00 20.00    -0.192 NA
HETATM    8  N11 UNL     1     -35.920  16.672  -4.710  1.00 20.00    -0.192 NA
ENDROOT
BRANCH   4   9
HETATM    9  C2  UNL     1     -34.289  16.410  -2.153  1.00 20.00    -0.087 C 
HETATM   10  C1  UNL     1     -33.095  16.939  -2.459  1.00 20.00     0.014 C 
HETATM   11  C9  UNL     1     -35.100  16.900  -0.991  1.00 20.00     0.043 C 
ENDBRANCH   4   9
TORSDOF 1
ENDMDL
MODEL 3
REMARK VINA RESULT:      -4.6      1.614      2.215
REMARK  1 active torsions:
REMARK  status: ('A' for Active; 'I' for Inactive)
REMARK    1  A    between atoms: C2_2  and  C6_6 
ROOT
HETATM    1  C3  UNL     1     -35.925  14.027  -5.504  1.00 20.00     0.031 C 
HETATM    2  C4  UNL     1     -36.911  14.444  -4.409  1.00 20.00     0.032 C 
HETATM    3  C5  UNL     1     -33.992  14.904  -4.134  1.00 20.00     0.040 C 
HETATM    4  C6  UNL     1     -34.980  15.266  -3.006  1.00 20.00     0.042 C 
HETATM    5  C7  UNL     1     -34.733  14.990  -5.477  1.00 20.00     0.131 C 
HETATM    6  C8  UNL     1     -36.323  15.653  -3.665  1.00 20.00     0.139 C 
HETATM    7  N10 UNL     1     -35.267  16.368  -5.598  1.00 20.00    -0.192 NA
HETATM    8  N11 UNL     1     -36.063  16.706  -4.680  1.00 20.00    -0.192 NA
ENDROOT
BRANCH   4   9
HETATM    9  C2  UNL     1     -34.448  16.356  -2.123  1.00 20.00    -0.087 C 
HETATM   10  C1  UNL     1     -35.134  16.809  -1.064  1.00 20.00     0.014 C 
HETATM   11  C9  UNL     1     -33.103  16.908  -2.493  1.00 20.00     0.043 C 
ENDBRANCH   4   9
TORSDOF 1
ENDMDL
MODEL 4
REMARK VINA RESULT:      -4.4     17.965     18.704
REMARK  1 active torsions:
REMARK  status: ('A' for Active; 'I' for Inactive)
REMARK    1  A    between atoms: C2_2  and  C6_6 
ROOT
HETATM    1  C3  UNL     1     -25.713  16.835  12.273  1.00 20.00     0.031 C 
HETATM    2  C4  UNL     1     -24.682  15.850  11.715  1.00 20.00     0.032 C 
HETATM    3  C5  UNL     1     -25.295  18.405  10.338  1.00 20.00     0.040 C 
HETATM    4  C6  UNL     1     -24.304  17.383   9.746  1.00 20.00     0.042 C 
HETATM    5  C7  UNL     1     -25.297  18.254  11.867  1.00 20.00     0.131 C 
HETATM    6  C8  UNL     1     -23.631  16.644  10.925  1.00 20.00     0.139 C 
HETATM    7  N10 UNL     1     -23.905  18.464  12.332  1.00 20.00    -0.192 NA
HETATM    8  N11 UNL     1     -23.062  17.658  11.851  1.00 20.00    -0.192 NA
ENDROOT
BRANCH   4   9
HETATM    9  C2  UNL     1     -23.302  18.034   8.839  1.00 20.00    -0.087 C 
HETATM   10  C1  UNL     1     -23.495  19.260   8.334  1.00 20.00     0.014 C 
HETATM   11  C9  UNL     1     -22.071  17.233   8.532  1.00 20.00     0.043 C 
ENDBRANCH   4   9
TORSDOF 1
ENDMDL
MODEL 5
REMARK VINA RESULT:      -4.4      1.246      1.756
REMARK  1 active torsions:
REMARK  status: ('A' for Active; 'I' for Inactive)
REMARK    1  A    between atoms: C2_2  and  C6_6 
ROOT
HETATM    1  C3  UNL     1     -36.164  13.704  -4.800  1.00 20.00     0.031 C 
HETATM    2  C4  UNL     1     -35.977  14.751  -5.902  1.00 20.00     0.032 C 
HETATM    3  C5  UNL     1     -35.088  15.250  -3.115  1.00 20.00     0.040 C 
HETATM    4  C6  UNL     1     -34.959  16.326  -4.212  1.00 20.00     0.042 C 
HETATM    5  C7  UNL     1     -35.030  13.867  -3.780  1.00 20.00     0.131 C 
HETATM    6  C8  UNL     1     -34.744  15.600  -5.559  1.00 20.00     0.139 C 
HETATM    7  N10 UNL     1     -33.747  13.786  -4.519  1.00 20.00    -0.192 NA
HETATM    8  N11 UNL     1     -33.598  14.665  -5.411  1.00 20.00    -0.192 NA
ENDROOT
BRANCH   4   9
HETATM    9  C2  UNL     1     -33.861  17.303  -3.913  1.00 20.00    -0.087 C 
HETATM   10  C1  UNL     1     -33.669  18.403  -4.655  1.00 20.00     0.014 C 
HETATM   11  C9  UNL     1     -32.990  16.979  -2.736  1.00 20.00     0.043 C 
ENDBRANCH   4   9
TORSDOF 1
ENDMDL
MODEL 6
REMARK VINA RESULT:      -4.3      1.691      2.306
REMARK  1 active torsions:
REMARK  status: ('A' for Active; 'I' for Inactive)
REMARK    1  A    between atoms: C2_2  and  C6_6 
ROOT
HETATM    1  C3  UNL     1     -37.534  14.397  -4.462  1.00 20.00     0.031 C 
HETATM    2  C4  UNL     1     -37.211  15.880  -4.257  1.00 20.00     0.032 C 
HETATM    3  C5  UNL     1     -35.183  13.767  -3.785  1.00 20.00     0.040 C 
HETATM    4  C6  UNL     1     -34.880  15.255  -3.519  1.00 20.00     0.042 C 
HETATM    5  C7  UNL     1     -36.249  13.676  -4.887  1.00 20.00     0.131 C 
HETATM    6  C8  UNL     1     -35.712  16.090  -4.518  1.00 20.00     0.139 C 
HETATM    7  N10 UNL     1     -35.713  14.377  -6.078  1.00 20.00    -0.192 NA
HETATM    8  N11 UNL     1     -35.435  15.593  -5.891  1.00 20.00    -0.192 NA
ENDROOT
BRANCH   4   9
HETATM    9  C2  UNL     1     -33.413  15.555  -3.614  1.00 20.00    -0.087 C 
HETATM   10  C1  UNL     1     -32.562  14.735  -4.248  1.00 20.00     0.014 C 
HETATM   11  C9  UNL     1     -32.954  16.824  -2.961  1.00 20.00     0.043 C 
ENDBRANCH   4   9
TORSDOF 1
ENDMDL
MODEL 7
REMARK VINA RESULT:      -4.2      2.316      4.271
REMARK  1 active torsions:
REMARK  status: ('A' for Active; 'I' for Inactive)
REMARK    1  A    between atoms: C2_2  and  C6_6 
ROOT
HETATM    1  C3  UNL     1     -33.855  18.462  -1.104  1.00 20.00     0.031 C 
HETATM    2  C4  UNL     1     -32.627  18.034  -1.914  1.00 20.00     0.032 C 
HETATM    3  C5  UNL     1     -35.099  16.394  -1.852  1.00 20.00     0.040 C 
HETATM    4  C6  UNL     1     -33.840  15.934  -2.614  1.00 20.00     0.042 C 
HETATM    5  C7  UNL     1     -35.109  17.930  -1.808  1.00 20.00     0.131 C 
HETATM    6  C8  UNL     1     -33.103  17.199  -3.111  1.00 20.00     0.139 C 
HETATM    7  N10 UNL     1     -35.076  18.411  -3.210  1.00 20.00    -0.192 NA
HETATM    8  N11 UNL     1     -34.069  18.036  -3.871  1.00 20.00    -0.192 NA
ENDROOT
BRANCH   4   9
HETATM    9  C2  UNL     1     -34.175  14.996  -3.736  1.00 20.00    -0.087 C 
HETATM   10  C1  UNL     1     -33.236  14.521  -4.566  1.00 20.00     0.014 C 
HETATM   11  C9  UNL     1     -35.620  14.621  -3.874  1.00 20.00     0.043 C 
ENDBRANCH   4   9
TORSDOF 1
ENDMDL
MODEL 8
REMARK VINA RESULT:      -4.2      1.629      2.273
REMARK  1 active torsions:
REMARK  status: ('A' for Active; 'I' for Inactive)
REMARK    1  A    between atoms: C2_2  and  C6_6 
ROOT
HETATM    1  C3  UNL     1     -36.934  16.113  -7.144  1.00 20.00     0.031 C 
HETATM    2  C4  UNL     1     -35.659  15.371  -7.555  1.00 20.00     0.032 C 
HETATM    3  C5  UNL     1     -35.968  16.553  -4.851  1.00 20.00     0.040 C 
HETATM    4  C6  UNL     1     -34.661  15.861  -5.288  1.00 20.00     0.042 C 
HETATM    5  C7  UNL     1     -37.134  15.932  -5.634  1.00 20.00     0.131 C 
HETATM    6  C8  UNL     1     -35.032  14.751  -6.297  1.00 20.00     0.139 C 
HETATM    7  N10 UNL     1     -37.130  14.477  -5.352  1.00 20.00    -0.192 NA
HETATM    8  N11 UNL     1     -36.067  13.881  -5.678  1.00 20.00    -0.192 NA
ENDROOT
BRANCH   4   9
HETATM    9  C2  UNL     1     -33.890  15.328  -4.118  1.00 20.00    -0.087 C 
HETATM   10  C1  UNL     1     -32.774  14.601  -4.276  1.00 20.00     0.014 C 
HETATM   11  C9  UNL     1     -34.437  15.655  -2.761  1.00 20.00     0.043 C 
ENDBRANCH   4   9
TORSDOF 1
ENDMDL
MODEL 9
REMARK VINA RESULT:      -4.2     16.200     18.208
REMARK  1 active torsions:
REMARK  status: ('A' for Active; 'I' for Inactive)
REMARK    1  A    between atoms: C2_2  and  C6_6 
ROOT
HETATM    1  C3  UNL     1     -21.850  17.766  11.167  1.00 20.00     0.031 C 
HETATM    2  C4  UNL     1     -23.290  17.807  11.688  1.00 20.00     0.032 C 
HETATM    3  C5  UNL     1     -22.567  18.902   9.027  1.00 20.00     0.040 C 
HETATM    4  C6  UNL     1     -24.003  18.999   9.581  1.00 20.00     0.042 C 
HETATM    5  C7  UNL     1     -21.892  17.665   9.637  1.00 20.00     0.131 C 
HETATM    6  C8  UNL     1     -24.242  17.768  10.484  1.00 20.00     0.139 C 
HETATM    7  N10 UNL     1     -22.726  16.490   9.287  1.00 20.00    -0.192 NA
HETATM    8  N11 UNL     1     -23.913  16.545   9.707  1.00 20.00    -0.192 NA
ENDROOT
BRANCH   4   9
HETATM    9  C2  UNL     1     -25.021  19.103   8.484  1.00 20.00    -0.087 C 
HETATM   10  C1  UNL     1     -26.328  19.261   8.743  1.00 20.00     0.014 C 
HETATM   11  C9  UNL     1     -24.495  19.021   7.083  1.00 20.00     0.043 C 
ENDBRANCH   4   9
TORSDOF 1
ENDMDL
