MODEL 1
REMARK VINA RESULT:      -5.0      0.000      0.000
REMARK  2 active torsions:
REMARK  status: ('A' for Active; 'I' for Inactive)
REMARK    1  A    between atoms: C6_6  and  C9_9 
REMARK    2  A    between atoms: C9_9  and  N10_10 
ROOT
HETATM    1  C1  UNL     1     -34.597   4.617   4.380  1.00 20.00     0.006 C 
HETATM    2  C2  UNL     1     -34.072   4.389   3.167  1.00 20.00     0.004 C 
HETATM    3  C3  UNL     1     -34.266   5.818   5.125  1.00 20.00    -0.040 C 
HETATM    4  C4  UNL     1     -34.888   6.133   6.271  1.00 20.00     0.020 C 
HETATM    5  C7  UNL     1     -33.164   5.379   2.487  1.00 20.00     0.300 C 
HETATM    6  C8  UNL     1     -33.177   6.687   4.530  1.00 20.00     0.310 C 
HETATM    7  N10 UNL     1     -33.262   6.734   3.060  1.00 20.00     0.099 N 
ENDROOT
BRANCH   7   8
HETATM    8  C9  UNL     1     -32.235   7.610   2.500  1.00 20.00     0.299 C 
BRANCH   8   9
HETATM    9  C6  UNL     1     -32.597   7.934   1.087  1.00 20.00    -0.007 C 
HETATM   10  C5  UNL     1     -32.960   9.152   0.670  1.00 20.00     0.008 C 
ENDBRANCH   8   9
ENDBRANCH   7   8
TORSDOF 2
ENDMDL
MODEL 2
REMARK VINA RESULT:      -4.4     11.382     12.289
REMARK  2 active torsions:
REMARK  status: ('A' for Active; 'I' for Inactive)
REMARK    1  A    between atoms: C6_6  and  C9_9 
REMARK    2  A    between atoms: C9_9  and  N10_10 
ROOT
HETATM    1  C1  UNL     1     -34.927  15.785  -2.389  1.00 20.00     0.006 C 
HETATM    2  C2  UNL     1     -35.206  16.633  -1.387  1.00 20.00     0.004 C 
HETATM    3  C3  UNL     1     -33.719  15.933  -3.180  1.00 20.00    -0.040 C 
HETATM    4  C4  UNL     1     -33.353  15.015  -4.087  1.00 20.00     0.020 C 
HETATM    5  C7  UNL     1     -34.268  17.742  -0.991  1.00 20.00     0.300 C 
HETATM    6  C8  UNL     1     -32.907  17.185  -2.920  1.00 20.00     0.310 C 
HETATM    7  N10 UNL     1     -32.896  17.538  -1.489  1.00 20.00     0.099 N 
ENDROOT
BRANCH   7   8
HETATM    8  C9  UNL     1     -32.072  18.720  -1.244  1.00 20.00     0.299 C 
BRANCH   8   9
HETATM    9  C6  UNL     1     -30.991  18.360  -0.279  1.00 20.00    -0.007 C 
HETATM   10  C5  UNL     1     -31.160  18.312   1.048  1.00 20.00     0.008 C 
ENDBRANCH   8   9
ENDBRANCH   7   8
TORSDOF 2
ENDMDL
MODEL 3
REMARK VINA RESULT:      -4.2     15.699     16.106
REMARK  2 active torsions:
REMARK  status: ('A' for Active; 'I' for Inactive)
REMARK    1  A    between atoms: C6_6  and  C9_9 
REMARK    2  A    between atoms: C9_9  and  N10_10 
ROOT
HETATM    1  C1  UNL     1     -25.765  16.456  12.304  1.00 20.00     0.006 C 
HETATM    2  C2  UNL     1     -24.638  15.890  11.847  1.00 20.00     0.004 C 
HETATM    3  C3  UNL     1     -26.160  17.786  11.875  1.00 20.00    -0.040 C 
HETATM    4  C4  UNL     1     -27.350  18.310  12.206  1.00 20.00     0.020 C 
HETATM    5  C7  UNL     1     -23.754  16.566  10.833  1.00 20.00     0.300 C 
HETATM    6  C8  UNL     1     -25.147  18.541  11.039  1.00 20.00     0.310 C 
HETATM    7  N10 UNL     1     -24.441  17.648  10.104  1.00 20.00     0.099 N 
ENDROOT
BRANCH   7   8
HETATM    8  C9  UNL     1     -23.500  18.393   9.272  1.00 20.00     0.299 C 
BRANCH   8   9
HETATM    9  C6  UNL     1     -22.301  17.539   9.018  1.00 20.00    -0.007 C 
HETATM   10  C5  UNL     1     -21.737  17.383   7.815  1.00 20.00     0.008 C 
ENDBRANCH   8   9
ENDBRANCH   7   8
TORSDOF 2
ENDMDL
MODEL 4
REMARK VINA RESULT:      -4.1     15.794     16.811
REMARK  2 active torsions:
REMARK  status: ('A' for Active; 'I' for Inactive)
REMARK    1  A    between atoms: C6_6  and  C9_9 
REMARK    2  A    between atoms: C9_9  and  N10_10 
ROOT
HETATM    1  C1  UNL     1     -23.816  18.737   7.851  1.00 20.00     0.006 C 
HETATM    2  C2  UNL     1     -24.970  19.263   8.286  1.00 20.00     0.004 C 
HETATM    3  C3  UNL     1     -22.917  18.051   8.760  1.00 20.00    -0.040 C 
HETATM    4  C4  UNL     1     -21.832  17.396   8.321  1.00 20.00     0.020 C 
HETATM    5  C7  UNL     1     -25.426  19.128   9.715  1.00 20.00     0.300 C 
HETATM    6  C8  UNL     1     -23.278  18.125  10.230  1.00 20.00     0.310 C 
HETATM    7  N10 UNL     1     -24.734  18.044  10.436  1.00 20.00     0.099 N 
ENDROOT
BRANCH   7   8
HETATM    8  C9  UNL     1     -25.068  18.071  11.859  1.00 20.00     0.299 C 
BRANCH   8   9
HETATM    9  C6  UNL     1     -26.473  18.553  12.014  1.00 20.00    -0.007 C 
HETATM   10  C5  UNL     1     -27.505  17.759  12.317  1.00 20.00     0.008 C 
ENDBRANCH   8   9
ENDBRANCH   7   8
TORSDOF 2
ENDMDL
MODEL 5
REMARK VINA RESULT:      -4.1     15.986     17.036
REMARK  2 active torsions:
REMARK  status: ('A' for Active; 'I' for Inactive)
REMARK    1  A    between atoms: C6_6  and  C9_9 
REMARK    2  A    between atoms: C9_9  and  N10_10 
ROOT
HETATM    1  C1  UNL     1     -22.591  18.255   8.656  1.00 20.00     0.006 C 
HETATM    2  C2  UNL     1     -22.009  17.755   9.757  1.00 20.00     0.004 C 
HETATM    3  C3  UNL     1     -24.005  18.582   8.642  1.00 20.00    -0.040 C 
HETATM    4  C4  UNL     1     -24.574  19.214   7.604  1.00 20.00     0.020 C 
HETATM    5  C7  UNL     1     -22.764  17.557  11.045  1.00 20.00     0.300 C 
HETATM    6  C8  UNL     1     -24.795  18.162   9.865  1.00 20.00     0.310 C 
HETATM    7  N10 UNL     1     -24.013  18.336  11.102  1.00 20.00     0.099 N 
ENDROOT
BRANCH   7   8
HETATM    8  C9  UNL     1     -24.799  17.972  12.278  1.00 20.00     0.299 C 
BRANCH   8   9
HETATM    9  C6  UNL     1     -26.150  18.599  12.168  1.00 20.00    -0.007 C 
HETATM   10  C5  UNL     1     -27.299  17.932  12.332  1.00 20.00     0.008 C 
ENDBRANCH   8   9
ENDBRANCH   7   8
TORSDOF 2
ENDMDL
MODEL 6
REMARK VINA RESULT:      -4.0     11.095     11.776
REMARK  2 active torsions:
REMARK  status: ('A' for Active; 'I' for Inactive)
REMARK    1  A    between atoms: C6_6  and  C9_9 
REMARK    2  A    between atoms: C9_9  and  N10_10 
ROOT
HETATM    1  C1  UNL     1     -33.567  17.925  -0.952  1.00 20.00     0.006 C 
HETATM    2  C2  UNL     1     -32.730  17.795  -1.992  1.00 20.00     0.004 C 
HETATM    3  C3  UNL     1     -34.777  17.130  -0.861  1.00 20.00    -0.040 C 
HETATM    4  C4  UNL     1     -35.549  17.141   0.236  1.00 20.00     0.020 C 
HETATM    5  C7  UNL     1     -32.963  16.789  -3.088  1.00 20.00     0.300 C 
HETATM    6  C8  UNL     1     -35.113  16.293  -2.079  1.00 20.00     0.310 C 
HETATM    7  N10 UNL     1     -33.903  15.723  -2.696  1.00 20.00     0.099 N 
ENDROOT
BRANCH   7   8
HETATM    8  C9  UNL     1     -34.241  14.882  -3.842  1.00 20.00     0.299 C 
BRANCH   8   9
HETATM    9  C6  UNL     1     -35.710  14.613  -3.825  1.00 20.00    -0.007 C 
HETATM   10  C5  UNL     1     -36.306  13.672  -4.566  1.00 20.00     0.008 C 
ENDBRANCH   8   9
ENDBRANCH   7   8
TORSDOF 2
ENDMDL
MODEL 7
REMARK VINA RESULT:      -4.0     11.383     11.849
REMARK  2 active torsions:
REMARK  status: ('A' for Active; 'I' for Inactive)
REMARK    1  A    between atoms: C6_6  and  C9_9 
REMARK    2  A    between atoms: C9_9  and  N10_10 
ROOT
HETATM    1  C1  UNL     1     -33.413  16.205  -2.712  1.00 20.00     0.006 C 
HETATM    2  C2  UNL     1     -33.192  15.480  -3.818  1.00 20.00     0.004 C 
HETATM    3  C3  UNL     1     -34.755  16.376  -2.185  1.00 20.00    -0.040 C 
HETATM    4  C4  UNL     1     -34.981  16.973  -1.006  1.00 20.00     0.020 C 
HETATM    5  C7  UNL     1     -34.300  14.762  -4.542  1.00 20.00     0.300 C 
HETATM    6  C8  UNL     1     -35.879  15.843  -3.051  1.00 20.00     0.310 C 
HETATM    7  N10 UNL     1     -35.504  14.580  -3.711  1.00 20.00     0.099 N 
ENDROOT
BRANCH   7   8
HETATM    8  C9  UNL     1     -36.610  14.052  -4.506  1.00 20.00     0.299 C 
BRANCH   8   9
HETATM    9  C6  UNL     1     -37.715  15.057  -4.521  1.00 20.00    -0.007 C 
HETATM   10  C5  UNL     1     -38.989  14.768  -4.233  1.00 20.00     0.008 C 
ENDBRANCH   8   9
ENDBRANCH   7   8
TORSDOF 2
ENDMDL
MODEL 8
REMARK VINA RESULT:      -3.9      1.054      2.020
REMARK  2 active torsions:
REMARK  status: ('A' for Active; 'I' for Inactive)
REMARK    1  A    between atoms: C6_6  and  C9_9 
REMARK    2  A    between atoms: C9_9  and  N10_10 
ROOT
HETATM    1  C1  UNL     1     -34.038   6.524   5.768  1.00 20.00     0.006 C 
HETATM    2  C2  UNL     1     -33.115   7.484   5.613  1.00 20.00     0.004 C 
HETATM    3  C3  UNL     1     -34.521   5.759   4.633  1.00 20.00    -0.040 C 
HETATM    4  C4  UNL     1     -35.334   4.703   4.786  1.00 20.00     0.020 C 
HETATM    5  C7  UNL     1     -32.488   7.785   4.277  1.00 20.00     0.300 C 
HETATM    6  C8  UNL     1     -34.053   6.229   3.271  1.00 20.00     0.310 C 
HETATM    7  N10 UNL     1     -32.654   6.689   3.306  1.00 20.00     0.099 N 
ENDROOT
BRANCH   7   8
HETATM    8  C9  UNL     1     -32.199   7.097   1.979  1.00 20.00     0.299 C 
BRANCH   8   9
HETATM    9  C6  UNL     1     -32.893   8.365   1.601  1.00 20.00    -0.007 C 
HETATM   10  C5  UNL     1     -32.910   8.866   0.361  1.00 20.00     0.008 C 
ENDBRANCH   8   9
ENDBRANCH   7   8
TORSDOF 2
ENDMDL
MODEL 9
REMARK VINA RESULT:      -3.9     11.244     11.859
REMARK  2 active torsions:
REMARK  status: ('A' for Active; 'I' for Inactive)
REMARK    1  A    between atoms: C6_6  and  C9_9 
REMARK    2  A    between atoms: C9_9  and  N10_10 
ROOT
HETATM    1  C1  UNL     1     -33.782  14.461  -4.340  1.00 20.00     0.006 C 
HETATM    2  C2  UNL     1     -32.895  15.341  -3.853  1.00 20.00     0.004 C 
HETATM    3  C3  UNL     1     -35.180  14.515  -3.951  1.00 20.00    -0.040 C 
HETATM    4  C4  UNL     1     -36.106  13.739  -4.533  1.00 20.00     0.020 C 
HETATM    5  C7  UNL     1     -33.298  16.460  -2.930  1.00 20.00     0.300 C 
HETATM    6  C8  UNL     1     -35.523  15.496  -2.848  1.00 20.00     0.310 C 
HETATM    7  N10 UNL     1     -34.745  16.741  -2.968  1.00 20.00     0.099 N 
ENDROOT
BRANCH   7   8
HETATM    8  C9  UNL     1     -35.116  17.698  -1.928  1.00 20.00     0.299 C 
BRANCH   8   9
HETATM    9  C6  UNL     1     -35.227  16.974  -0.626  1.00 20.00    -0.007 C 
HETATM   10  C5  UNL     1     -35.816  17.482   0.462  1.00 20.00     0.008 C 
ENDBRANCH   8   9
ENDBRANCH   7   8
TORSDOF 2
ENDMDL
