MODEL 1
REMARK VINA RESULT:      -5.6      0.000      0.000
REMARK  0 active torsions:
REMARK  status: ('A' for Active; 'I' for Inactive)
ROOT
HETATM    1  C1  UNL     1     -33.383   5.998   6.368  1.00 20.00     0.012 A 
HETATM    2  C2  UNL     1     -33.139   5.101   2.617  1.00 20.00     0.006 A 
HETATM    3  C3  UNL     1     -35.223   4.802   5.378  1.00 20.00     0.101 C 
HETATM    4  C4  UNL     1     -34.698   5.971   6.133  1.00 20.00     0.016 A 
HETATM    5  C5  UNL     1     -34.083   5.400   3.526  1.00 20.00     0.035 A 
HETATM    6  C6  UNL     1     -32.638   7.512   1.783  1.00 20.00     0.015 A 
HETATM    7  C7  UNL     1     -33.895   7.000   5.485  1.00 20.00     0.017 A 
HETATM    8  C8  UNL     1     -32.193   6.201   2.362  1.00 20.00     0.015 A 
HETATM    9  C9  UNL     1     -33.916   6.857   3.985  1.00 20.00     0.048 A 
HETATM   10  C10 UNL     1     -32.653   7.326   3.278  1.00 20.00     0.004 A 
HETATM   11  N11 UNL     1     -34.956   4.533   4.133  1.00 20.00    -0.269 NA
ENDROOT
TORSDOF 0
ENDMDL
MODEL 2
REMARK VINA RESULT:      -5.2     15.713     16.734
REMARK  0 active torsions:
REMARK  status: ('A' for Active; 'I' for Inactive)
ROOT
HETATM    1  C1  UNL     1     -21.938  18.214   9.287  1.00 20.00     0.012 A 
HETATM    2  C2  UNL     1     -25.220  18.445  11.315  1.00 20.00     0.006 A 
HETATM    3  C3  UNL     1     -23.938  18.862   8.115  1.00 20.00     0.101 C 
HETATM    4  C4  UNL     1     -22.764  17.962   8.267  1.00 20.00     0.016 A 
HETATM    5  C5  UNL     1     -24.822  18.152  10.065  1.00 20.00     0.035 A 
HETATM    6  C6  UNL     1     -25.097  16.052  12.323  1.00 20.00     0.015 A 
HETATM    7  C7  UNL     1     -22.681  16.993   9.352  1.00 20.00     0.017 A 
HETATM    8  C8  UNL     1     -24.719  17.504  12.332  1.00 20.00     0.015 A 
HETATM    9  C9  UNL     1     -23.997  16.856  10.076  1.00 20.00     0.048 A 
HETATM   10  C10 UNL     1     -23.884  16.500  11.550  1.00 20.00     0.004 A 
HETATM   11  N11 UNL     1     -24.933  18.945   8.950  1.00 20.00    -0.269 NA
ENDROOT
TORSDOF 0
ENDMDL
MODEL 3
REMARK VINA RESULT:      -5.1     15.688     16.568
REMARK  0 active torsions:
REMARK  status: ('A' for Active; 'I' for Inactive)
ROOT
HETATM    1  C1  UNL     1     -24.842  15.924  11.613  1.00 20.00     0.012 A 
HETATM    2  C2  UNL     1     -24.037  18.406   8.763  1.00 20.00     0.006 A 
HETATM    3  C3  UNL     1     -25.831  18.116  11.721  1.00 20.00     0.101 C 
HETATM    4  C4  UNL     1     -25.007  17.038  12.332  1.00 20.00     0.016 A 
HETATM    5  C5  UNL     1     -24.321  18.432  10.076  1.00 20.00     0.035 A 
HETATM    6  C6  UNL     1     -21.451  18.206   8.936  1.00 20.00     0.015 A 
HETATM    7  C7  UNL     1     -23.675  16.721  11.835  1.00 20.00     0.017 A 
HETATM    8  C8  UNL     1     -22.778  17.711   8.442  1.00 20.00     0.015 A 
HETATM    9  C9  UNL     1     -23.183  17.765  10.864  1.00 20.00     0.048 A 
HETATM   10  C10 UNL     1     -22.241  17.246   9.788  1.00 20.00     0.004 A 
HETATM   11  N11 UNL     1     -25.505  18.801  10.664  1.00 20.00    -0.269 NA
ENDROOT
TORSDOF 0
ENDMDL
MODEL 4
REMARK VINA RESULT:      -4.9     15.753     16.363
REMARK  0 active torsions:
REMARK  status: ('A' for Active; 'I' for Inactive)
ROOT
HETATM    1  C1  UNL     1     -25.421  18.979  12.332  1.00 20.00     0.012 A 
HETATM    2  C2  UNL     1     -22.798  17.181  10.135  1.00 20.00     0.006 A 
HETATM    3  C3  UNL     1     -25.474  16.573  12.262  1.00 20.00     0.101 C 
HETATM    4  C4  UNL     1     -26.151  17.887  12.088  1.00 20.00     0.016 A 
HETATM    5  C5  UNL     1     -24.061  16.998  10.556  1.00 20.00     0.035 A 
HETATM    6  C6  UNL     1     -23.313  18.494   7.951  1.00 20.00     0.015 A 
HETATM    7  C7  UNL     1     -25.827  18.771  10.976  1.00 20.00     0.017 A 
HETATM    8  C8  UNL     1     -22.625  18.368   9.279  1.00 20.00     0.015 A 
HETATM    9  C9  UNL     1     -24.971  18.077   9.948  1.00 20.00     0.048 A 
HETATM   10  C10 UNL     1     -24.014  18.985   9.191  1.00 20.00     0.004 A 
HETATM   11  N11 UNL     1     -24.497  16.130  11.526  1.00 20.00    -0.269 NA
ENDROOT
TORSDOF 0
ENDMDL
MODEL 5
REMARK VINA RESULT:      -4.7      8.956      9.713
REMARK  0 active torsions:
REMARK  status: ('A' for Active; 'I' for Inactive)
ROOT
HETATM    1  C1  UNL     1     -42.110   5.212  -1.216  1.00 20.00     0.012 A 
HETATM    2  C2  UNL     1     -43.360   8.361   0.645  1.00 20.00     0.006 A 
HETATM    3  C3  UNL     1     -42.993   4.927   1.005  1.00 20.00     0.101 C 
HETATM    4  C4  UNL     1     -41.892   4.754   0.020  1.00 20.00     0.016 A 
HETATM    5  C5  UNL     1     -42.800   7.173   0.930  1.00 20.00     0.035 A 
HETATM    6  C6  UNL     1     -41.180   9.747   0.348  1.00 20.00     0.015 A 
HETATM    7  C7  UNL     1     -41.106   5.886  -0.452  1.00 20.00     0.017 A 
HETATM    8  C8  UNL     1     -42.499   9.243  -0.162  1.00 20.00     0.015 A 
HETATM    9  C9  UNL     1     -41.372   7.125   0.365  1.00 20.00     0.048 A 
HETATM   10  C10 UNL     1     -41.229   8.436  -0.393  1.00 20.00     0.004 A 
HETATM   11  N11 UNL     1     -43.417   6.069   1.462  1.00 20.00    -0.269 NA
ENDROOT
TORSDOF 0
ENDMDL
MODEL 6
REMARK VINA RESULT:      -4.6     11.910     12.939
REMARK  0 active torsions:
REMARK  status: ('A' for Active; 'I' for Inactive)
ROOT
HETATM    1  C1  UNL     1     -35.786  13.447  -4.401  1.00 20.00     0.012 A 
HETATM    2  C2  UNL     1     -33.354  16.379  -3.743  1.00 20.00     0.006 A 
HETATM    3  C3  UNL     1     -35.278  14.918  -6.237  1.00 20.00     0.101 C 
HETATM    4  C4  UNL     1     -36.270  14.260  -5.344  1.00 20.00     0.016 A 
HETATM    5  C5  UNL     1     -34.414  16.099  -4.520  1.00 20.00     0.035 A 
HETATM    6  C6  UNL     1     -34.630  17.349  -1.696  1.00 20.00     0.015 A 
HETATM    7  C7  UNL     1     -36.416  14.649  -3.948  1.00 20.00     0.017 A 
HETATM    8  C8  UNL     1     -33.660  16.377  -2.302  1.00 20.00     0.015 A 
HETATM    9  C9  UNL     1     -35.664  15.921  -3.645  1.00 20.00     0.048 A 
HETATM   10  C10 UNL     1     -35.140  16.032  -2.222  1.00 20.00     0.004 A 
HETATM   11  N11 UNL     1     -34.408  15.810  -5.862  1.00 20.00    -0.269 NA
ENDROOT
TORSDOF 0
ENDMDL
MODEL 7
REMARK VINA RESULT:      -4.5     11.838     12.884
REMARK  0 active torsions:
REMARK  status: ('A' for Active; 'I' for Inactive)
ROOT
HETATM    1  C1  UNL     1     -35.186  14.338  -5.215  1.00 20.00     0.012 A 
HETATM    2  C2  UNL     1     -35.051  17.789  -3.479  1.00 20.00     0.006 A 
HETATM    3  C3  UNL     1     -37.175  15.115  -4.104  1.00 20.00     0.101 C 
HETATM    4  C4  UNL     1     -36.122  14.083  -4.296  1.00 20.00     0.016 A 
HETATM    5  C5  UNL     1     -35.670  16.605  -3.330  1.00 20.00     0.035 A 
HETATM    6  C6  UNL     1     -32.942  17.297  -2.040  1.00 20.00     0.015 A 
HETATM    7  C7  UNL     1     -34.751  14.299  -3.852  1.00 20.00     0.017 A 
HETATM    8  C8  UNL     1     -33.587  17.714  -3.329  1.00 20.00     0.015 A 
HETATM    9  C9  UNL     1     -34.639  15.522  -2.979  1.00 20.00     0.048 A 
HETATM   10  C10 UNL     1     -33.302  16.244  -3.055  1.00 20.00     0.004 A 
HETATM   11  N11 UNL     1     -36.977  16.309  -3.624  1.00 20.00    -0.269 NA
ENDROOT
TORSDOF 0
ENDMDL
MODEL 8
REMARK VINA RESULT:      -4.5     11.958     12.700
REMARK  0 active torsions:
REMARK  status: ('A' for Active; 'I' for Inactive)
ROOT
HETATM    1  C1  UNL     1     -35.275  17.724  -2.005  1.00 20.00     0.012 A 
HETATM    2  C2  UNL     1     -34.439  15.613  -5.133  1.00 20.00     0.006 A 
HETATM    3  C3  UNL     1     -32.967  17.167  -2.399  1.00 20.00     0.101 C 
HETATM    4  C4  UNL     1     -34.165  17.164  -1.517  1.00 20.00     0.016 A 
HETATM    5  C5  UNL     1     -33.974  15.802  -3.886  1.00 20.00     0.035 A 
HETATM    6  C6  UNL     1     -36.108  13.685  -4.625  1.00 20.00     0.015 A 
HETATM    7  C7  UNL     1     -35.313  16.310  -1.792  1.00 20.00     0.017 A 
HETATM    8  C8  UNL     1     -35.798  15.046  -5.177  1.00 20.00     0.015 A 
HETATM    9  C9  UNL     1     -35.006  15.297  -2.866  1.00 20.00     0.048 A 
HETATM   10  C10 UNL     1     -36.197  14.884  -3.717  1.00 20.00     0.004 A 
HETATM   11  N11 UNL     1     -32.856  16.506  -3.515  1.00 20.00    -0.269 NA
ENDROOT
TORSDOF 0
ENDMDL
MODEL 9
REMARK VINA RESULT:      -4.4     15.628     16.662
REMARK  0 active torsions:
REMARK  status: ('A' for Active; 'I' for Inactive)
ROOT
HETATM    1  C1  UNL     1     -24.384  18.515   7.507  1.00 20.00     0.012 A 
HETATM    2  C2  UNL     1     -24.188  16.271  10.648  1.00 20.00     0.006 A 
HETATM    3  C3  UNL     1     -22.302  17.393   7.957  1.00 20.00     0.101 C 
HETATM    4  C4  UNL     1     -23.068  18.642   7.702  1.00 20.00     0.016 A 
HETATM    5  C5  UNL     1     -23.379  17.049   9.909  1.00 20.00     0.035 A 
HETATM    6  C6  UNL     1     -25.012  18.072  12.332  1.00 20.00     0.015 A 
HETATM    7  C7  UNL     1     -23.977  19.197   8.697  1.00 20.00     0.017 A 
HETATM    8  C8  UNL     1     -25.279  17.009  11.307  1.00 20.00     0.015 A 
HETATM    9  C9  UNL     1     -23.817  18.516  10.033  1.00 20.00     0.048 A 
HETATM   10  C10 UNL     1     -25.081  18.456  10.877  1.00 20.00     0.004 A 
HETATM   11  N11 UNL     1     -22.424  16.640   9.011  1.00 20.00    -0.269 NA
ENDROOT
TORSDOF 0
ENDMDL
