MODEL 1
REMARK VINA RESULT:      -4.1      0.000      0.000
REMARK  1 active torsions:
REMARK  status: ('A' for Active; 'I' for Inactive)
REMARK    1  A    between atoms: C1_1  and  C2_2 
ROOT
HETATM    1  C2  UNL     1     -24.199  16.999  10.214  1.00 20.00     0.084 A 
HETATM    2  C3  UNL     1     -24.008  18.480   9.992  1.00 20.00     0.018 A 
HETATM    3  C4  UNL     1     -22.801  17.591  10.233  1.00 20.00     0.048 A 
HETATM    4  C6  UNL     1     -24.305  19.083   8.661  1.00 20.00     0.012 C 
HETATM    5  C7  UNL     1     -21.858  17.248   9.117  1.00 20.00     0.034 C 
HETATM    6 CL9  UNL     1     -21.985  17.816  11.804  1.00 20.00    -0.118 Cl
ENDROOT
BRANCH   1   7
HETATM    7  C1  UNL     1     -24.845  16.539  11.450  1.00 20.00     0.129 C 
HETATM    8  C5  UNL     1     -25.810  17.492  12.104  1.00 20.00     0.091 C 
HETATM    9  O8  UNL     1     -24.612  15.429  11.926  1.00 20.00    -0.298 OA
ENDBRANCH   1   7
TORSDOF 1
ENDMDL
MODEL 2
REMARK VINA RESULT:      -4.0     18.089     19.041
REMARK  1 active torsions:
REMARK  status: ('A' for Active; 'I' for Inactive)
REMARK    1  A    between atoms: C1_1  and  C2_2 
ROOT
HETATM    1  C2  UNL     1     -35.364  14.634  -3.760  1.00 20.00     0.084 A 
HETATM    2  C3  UNL     1     -34.338  15.672  -4.143  1.00 20.00     0.018 A 
HETATM    3  C4  UNL     1     -35.460  16.037  -3.188  1.00 20.00     0.048 A 
HETATM    4  C6  UNL     1     -32.922  15.528  -3.698  1.00 20.00     0.012 C 
HETATM    5  C7  UNL     1     -35.195  16.238  -1.724  1.00 20.00     0.034 C 
HETATM    6 CL9  UNL     1     -36.693  17.147  -3.842  1.00 20.00    -0.118 Cl
ENDROOT
BRANCH   1   7
HETATM    7  C1  UNL     1     -36.315  14.160  -4.774  1.00 20.00     0.129 C 
HETATM    8  C5  UNL     1     -35.936  14.381  -6.213  1.00 20.00     0.091 C 
HETATM    9  O8  UNL     1     -37.369  13.607  -4.462  1.00 20.00    -0.298 OA
ENDBRANCH   1   7
TORSDOF 1
ENDMDL
MODEL 3
REMARK VINA RESULT:      -4.0     18.068     18.945
REMARK  1 active torsions:
REMARK  status: ('A' for Active; 'I' for Inactive)
REMARK    1  A    between atoms: C1_1  and  C2_2 
ROOT
HETATM    1  C2  UNL     1     -34.948  14.698  -4.818  1.00 20.00     0.084 A 
HETATM    2  C3  UNL     1     -35.207  16.181  -4.917  1.00 20.00     0.018 A 
HETATM    3  C4  UNL     1     -34.402  15.632  -3.753  1.00 20.00     0.048 A 
HETATM    4  C6  UNL     1     -34.587  16.979  -6.013  1.00 20.00     0.012 C 
HETATM    5  C7  UNL     1     -32.918  15.842  -3.672  1.00 20.00     0.034 C 
HETATM    6 CL9  UNL     1     -35.213  15.690  -2.165  1.00 20.00    -0.118 Cl
ENDROOT
BRANCH   1   7
HETATM    7  C1  UNL     1     -36.070  13.794  -4.532  1.00 20.00     0.129 C 
HETATM    8  C5  UNL     1     -37.435  14.420  -4.430  1.00 20.00     0.091 C 
HETATM    9  O8  UNL     1     -35.903  12.584  -4.385  1.00 20.00    -0.298 OA
ENDBRANCH   1   7
TORSDOF 1
ENDMDL
MODEL 4
REMARK VINA RESULT:      -3.9     17.642     18.612
REMARK  1 active torsions:
REMARK  status: ('A' for Active; 'I' for Inactive)
REMARK    1  A    between atoms: C1_1  and  C2_2 
ROOT
HETATM    1  C2  UNL     1     -35.457  15.657  -4.060  1.00 20.00     0.084 A 
HETATM    2  C3  UNL     1     -34.905  15.429  -2.673  1.00 20.00     0.018 A 
HETATM    3  C4  UNL     1     -33.965  15.791  -3.810  1.00 20.00     0.048 A 
HETATM    4  C6  UNL     1     -35.231  16.378  -1.571  1.00 20.00     0.012 C 
HETATM    5  C7  UNL     1     -33.341  17.153  -3.892  1.00 20.00     0.034 C 
HETATM    6 CL9  UNL     1     -32.882  14.482  -4.355  1.00 20.00    -0.118 Cl
ENDROOT
BRANCH   1   7
HETATM    7  C1  UNL     1     -36.001  14.517  -4.809  1.00 20.00     0.129 C 
HETATM    8  C5  UNL     1     -35.790  14.523  -6.299  1.00 20.00     0.091 C 
HETATM    9  O8  UNL     1     -36.598  13.600  -4.246  1.00 20.00    -0.298 OA
ENDBRANCH   1   7
TORSDOF 1
ENDMDL
MODEL 5
REMARK VINA RESULT:      -3.9      2.093      3.405
REMARK  1 active torsions:
REMARK  status: ('A' for Active; 'I' for Inactive)
REMARK    1  A    between atoms: C1_1  and  C2_2 
ROOT
HETATM    1  C2  UNL     1     -23.371  18.689   9.648  1.00 20.00     0.084 A 
HETATM    2  C3  UNL     1     -24.497  18.242   8.748  1.00 20.00     0.018 A 
HETATM    3  C4  UNL     1     -24.573  17.976  10.241  1.00 20.00     0.048 A 
HETATM    4  C6  UNL     1     -25.360  19.250   8.070  1.00 20.00     0.012 C 
HETATM    5  C7  UNL     1     -25.511  18.754  11.118  1.00 20.00     0.034 C 
HETATM    6 CL9  UNL     1     -24.405  16.267  10.726  1.00 20.00    -0.118 Cl
ENDROOT
BRANCH   1   7
HETATM    7  C1  UNL     1     -22.066  18.021   9.547  1.00 20.00     0.129 C 
HETATM    8  C5  UNL     1     -21.709  17.432   8.209  1.00 20.00     0.091 C 
HETATM    9  O8  UNL     1     -21.302  17.948  10.509  1.00 20.00    -0.298 OA
ENDBRANCH   1   7
TORSDOF 1
ENDMDL
MODEL 6
REMARK VINA RESULT:      -3.8     17.540     18.505
REMARK  1 active torsions:
REMARK  status: ('A' for Active; 'I' for Inactive)
REMARK    1  A    between atoms: C1_1  and  C2_2 
ROOT
HETATM    1  C2  UNL     1     -34.827  15.393  -3.519  1.00 20.00     0.084 A 
HETATM    2  C3  UNL     1     -33.496  16.103  -3.568  1.00 20.00     0.018 A 
HETATM    3  C4  UNL     1     -34.641  16.583  -4.444  1.00 20.00     0.048 A 
HETATM    4  C6  UNL     1     -33.014  16.876  -2.388  1.00 20.00     0.012 C 
HETATM    5  C7  UNL     1     -35.370  17.857  -4.134  1.00 20.00     0.034 C 
HETATM    6 CL9  UNL     1     -34.443  16.288  -6.193  1.00 20.00    -0.118 Cl
ENDROOT
BRANCH   1   7
HETATM    7  C1  UNL     1     -34.928  14.027  -4.051  1.00 20.00     0.129 C 
HETATM    8  C5  UNL     1     -36.279  13.595  -4.553  1.00 20.00     0.091 C 
HETATM    9  O8  UNL     1     -33.956  13.274  -4.086  1.00 20.00    -0.298 OA
ENDBRANCH   1   7
TORSDOF 1
ENDMDL
MODEL 7
REMARK VINA RESULT:      -3.8     18.682     19.580
REMARK  1 active torsions:
REMARK  status: ('A' for Active; 'I' for Inactive)
REMARK    1  A    between atoms: C1_1  and  C2_2 
ROOT
HETATM    1  C2  UNL     1     -35.507  15.145  -4.297  1.00 20.00     0.084 A 
HETATM    2  C3  UNL     1     -34.037  14.905  -4.540  1.00 20.00     0.018 A 
HETATM    3  C4  UNL     1     -34.841  15.732  -5.528  1.00 20.00     0.048 A 
HETATM    4  C6  UNL     1     -33.018  15.509  -3.634  1.00 20.00     0.012 C 
HETATM    5  C7  UNL     1     -34.667  17.221  -5.612  1.00 20.00     0.034 C 
HETATM    6 CL9  UNL     1     -35.133  14.964  -7.111  1.00 20.00    -0.118 Cl
ENDROOT
BRANCH   1   7
HETATM    7  C1  UNL     1     -36.443  14.017  -4.405  1.00 20.00     0.129 C 
HETATM    8  C5  UNL     1     -37.910  14.346  -4.340  1.00 20.00     0.091 C 
HETATM    9  O8  UNL     1     -36.046  12.861  -4.546  1.00 20.00    -0.298 OA
ENDBRANCH   1   7
TORSDOF 1
ENDMDL
MODEL 8
REMARK VINA RESULT:      -3.8     17.526     18.438
REMARK  1 active torsions:
REMARK  status: ('A' for Active; 'I' for Inactive)
REMARK    1  A    between atoms: C1_1  and  C2_2 
ROOT
HETATM    1  C2  UNL     1     -34.188  15.170  -3.756  1.00 20.00     0.084 A 
HETATM    2  C3  UNL     1     -35.604  14.982  -4.242  1.00 20.00     0.018 A 
HETATM    3  C4  UNL     1     -34.582  15.662  -5.137  1.00 20.00     0.048 A 
HETATM    4  C6  UNL     1     -36.127  13.614  -4.521  1.00 20.00     0.012 C 
HETATM    5  C7  UNL     1     -34.020  14.961  -6.339  1.00 20.00     0.034 C 
HETATM    6 CL9  UNL     1     -34.826  17.411  -5.387  1.00 20.00    -0.118 Cl
ENDROOT
BRANCH   1   7
HETATM    7  C1  UNL     1     -33.927  16.112  -2.660  1.00 20.00     0.129 C 
HETATM    8  C5  UNL     1     -35.040  16.324  -1.670  1.00 20.00     0.091 C 
HETATM    9  O8  UNL     1     -32.850  16.698  -2.555  1.00 20.00    -0.298 OA
ENDBRANCH   1   7
TORSDOF 1
ENDMDL
MODEL 9
REMARK VINA RESULT:      -3.7     17.501     18.441
REMARK  1 active torsions:
REMARK  status: ('A' for Active; 'I' for Inactive)
REMARK    1  A    between atoms: C1_1  and  C2_2 
ROOT
HETATM    1  C2  UNL     1     -35.187  16.062  -4.056  1.00 20.00     0.084 A 
HETATM    2  C3  UNL     1     -34.821  15.593  -2.669  1.00 20.00     0.018 A 
HETATM    3  C4  UNL     1     -33.729  16.013  -3.636  1.00 20.00     0.048 A 
HETATM    4  C6  UNL     1     -35.193  16.408  -1.478  1.00 20.00     0.012 C 
HETATM    5  C7  UNL     1     -32.989  17.306  -3.452  1.00 20.00     0.034 C 
HETATM    6 CL9  UNL     1     -32.702  14.692  -4.255  1.00 20.00    -0.118 Cl
ENDROOT
BRANCH   1   7
HETATM    7  C1  UNL     1     -35.734  15.095  -5.017  1.00 20.00     0.129 C 
HETATM    8  C5  UNL     1     -36.292  13.818  -4.450  1.00 20.00     0.091 C 
HETATM    9  O8  UNL     1     -35.738  15.320  -6.227  1.00 20.00    -0.298 OA
ENDBRANCH   1   7
TORSDOF 1
ENDMDL
