MODEL 1
REMARK VINA RESULT:      -4.3      0.000      0.000
REMARK  1 active torsions:
REMARK  status: ('A' for Active; 'I' for Inactive)
REMARK    1  A    between atoms: C1_1  and  C4_4 
ROOT
HETATM    1  C2  UNL     1     -34.347   5.249   3.025  1.00 20.00     0.016 C 
HETATM    2  C3  UNL     1     -32.836   5.129   2.760  1.00 20.00     0.022 C 
HETATM    3  C4  UNL     1     -34.054   6.545   3.823  1.00 20.00     0.090 C 
HETATM    4  C5  UNL     1     -32.716   6.643   3.037  1.00 20.00     0.094 C 
HETATM    5 CL8  UNL     1     -32.663   7.746   1.611  1.00 20.00    -0.124 Cl
ENDROOT
BRANCH   3   6
HETATM    6  C1  UNL     1     -33.958   6.431   5.352  1.00 20.00     0.224 C 
HETATM    7  O6  UNL     1     -33.286   7.215   6.017  1.00 20.00    -0.279 OA
HETATM    8 CL7  UNL     1     -34.890   5.101   5.969  1.00 20.00    -0.043 Cl
ENDBRANCH   3   6
TORSDOF 1
ENDMDL
MODEL 2
REMARK VINA RESULT:      -4.1     11.750     12.081
REMARK  1 active torsions:
REMARK  status: ('A' for Active; 'I' for Inactive)
REMARK    1  A    between atoms: C1_1  and  C4_4 
ROOT
HETATM    1  C2  UNL     1     -34.154  15.063  -5.492  1.00 20.00     0.016 C 
HETATM    2  C3  UNL     1     -33.221  14.463  -4.426  1.00 20.00     0.022 C 
HETATM    3  C4  UNL     1     -35.286  15.057  -4.436  1.00 20.00     0.090 C 
HETATM    4  C5  UNL     1     -34.175  15.020  -3.348  1.00 20.00     0.094 C 
HETATM    5 CL8  UNL     1     -33.722  16.580  -2.564  1.00 20.00    -0.124 Cl
ENDROOT
BRANCH   3   6
HETATM    6  C1  UNL     1     -36.276  13.882  -4.461  1.00 20.00     0.224 C 
HETATM    7  O6  UNL     1     -35.897  12.720  -4.580  1.00 20.00    -0.279 OA
HETATM    8 CL7  UNL     1     -37.923  14.411  -4.304  1.00 20.00    -0.043 Cl
ENDBRANCH   3   6
TORSDOF 1
ENDMDL
MODEL 3
REMARK VINA RESULT:      -4.0     16.033     16.617
REMARK  1 active torsions:
REMARK  status: ('A' for Active; 'I' for Inactive)
REMARK    1  A    between atoms: C1_1  and  C4_4 
ROOT
HETATM    1  C2  UNL     1     -22.290  18.437   9.128  1.00 20.00     0.016 C 
HETATM    2  C3  UNL     1     -22.827  17.045   9.500  1.00 20.00     0.022 C 
HETATM    3  C4  UNL     1     -23.758  18.914   8.993  1.00 20.00     0.090 C 
HETATM    4  C5  UNL     1     -24.155  17.718   9.905  1.00 20.00     0.094 C 
HETATM    5 CL8  UNL     1     -24.416  18.054  11.658  1.00 20.00    -0.124 Cl
ENDROOT
BRANCH   3   6
HETATM    6  C1  UNL     1     -24.368  18.949   7.584  1.00 20.00     0.224 C 
HETATM    7  O6  UNL     1     -23.684  18.771   6.579  1.00 20.00    -0.279 OA
HETATM    8 CL7  UNL     1     -26.076  19.263   7.618  1.00 20.00    -0.043 Cl
ENDBRANCH   3   6
TORSDOF 1
ENDMDL
MODEL 4
REMARK VINA RESULT:      -4.0     11.817     12.356
REMARK  1 active torsions:
REMARK  status: ('A' for Active; 'I' for Inactive)
REMARK    1  A    between atoms: C1_1  and  C4_4 
ROOT
HETATM    1  C2  UNL     1     -33.632  14.630  -4.162  1.00 20.00     0.016 C 
HETATM    2  C3  UNL     1     -34.076  15.600  -3.053  1.00 20.00     0.022 C 
HETATM    3  C4  UNL     1     -35.026  14.813  -4.813  1.00 20.00     0.090 C 
HETATM    4  C5  UNL     1     -35.140  16.150  -4.027  1.00 20.00     0.094 C 
HETATM    5 CL8  UNL     1     -34.748  17.674  -4.909  1.00 20.00    -0.124 Cl
ENDROOT
BRANCH   3   6
HETATM    6  C1  UNL     1     -36.090  13.743  -4.525  1.00 20.00     0.224 C 
HETATM    7  O6  UNL     1     -35.805  12.550  -4.457  1.00 20.00    -0.279 OA
HETATM    8 CL7  UNL     1     -37.672  14.431  -4.322  1.00 20.00    -0.043 Cl
ENDBRANCH   3   6
TORSDOF 1
ENDMDL
MODEL 5
REMARK VINA RESULT:      -3.9      2.216      3.608
REMARK  1 active torsions:
REMARK  status: ('A' for Active; 'I' for Inactive)
REMARK    1  A    between atoms: C1_1  and  C4_4 
ROOT
HETATM    1  C2  UNL     1     -34.450   4.265   4.321  1.00 20.00     0.016 C 
HETATM    2  C3  UNL     1     -35.511   5.378   4.360  1.00 20.00     0.022 C 
HETATM    3  C4  UNL     1     -33.403   5.343   3.943  1.00 20.00     0.090 C 
HETATM    4  C5  UNL     1     -34.368   6.395   4.562  1.00 20.00     0.094 C 
HETATM    5 CL8  UNL     1     -34.034   6.946   6.247  1.00 20.00    -0.124 Cl
ENDROOT
BRANCH   3   6
HETATM    6  C1  UNL     1     -33.056   5.506   2.455  1.00 20.00     0.224 C 
HETATM    7  O6  UNL     1     -33.131   4.567   1.668  1.00 20.00    -0.279 OA
HETATM    8 CL7  UNL     1     -32.566   7.128   2.072  1.00 20.00    -0.043 Cl
ENDBRANCH   3   6
TORSDOF 1
ENDMDL
MODEL 6
REMARK VINA RESULT:      -3.9     11.651     12.320
REMARK  1 active torsions:
REMARK  status: ('A' for Active; 'I' for Inactive)
REMARK    1  A    between atoms: C1_1  and  C4_4 
ROOT
HETATM    1  C2  UNL     1     -35.010  15.256  -2.948  1.00 20.00     0.016 C 
HETATM    2  C3  UNL     1     -34.246  16.181  -3.910  1.00 20.00     0.022 C 
HETATM    3  C4  UNL     1     -34.979  14.166  -4.048  1.00 20.00     0.090 C 
HETATM    4  C5  UNL     1     -33.768  14.922  -4.664  1.00 20.00     0.094 C 
HETATM    5 CL8  UNL     1     -32.116  14.304  -4.284  1.00 20.00    -0.124 Cl
ENDROOT
BRANCH   3   6
HETATM    6  C1  UNL     1     -36.227  14.012  -4.932  1.00 20.00     0.224 C 
HETATM    7  O6  UNL     1     -37.299  13.626  -4.473  1.00 20.00    -0.279 OA
HETATM    8 CL7  UNL     1     -35.914  14.440  -6.586  1.00 20.00    -0.043 Cl
ENDBRANCH   3   6
TORSDOF 1
ENDMDL
MODEL 7
REMARK VINA RESULT:      -3.8     16.343     16.741
REMARK  1 active torsions:
REMARK  status: ('A' for Active; 'I' for Inactive)
REMARK    1  A    between atoms: C1_1  and  C4_4 
ROOT
HETATM    1  C2  UNL     1     -22.654  17.012   9.340  1.00 20.00     0.016 C 
HETATM    2  C3  UNL     1     -22.291  18.457   8.957  1.00 20.00     0.022 C 
HETATM    3  C4  UNL     1     -23.874  17.573  10.112  1.00 20.00     0.090 C 
HETATM    4  C5  UNL     1     -23.762  18.845   9.224  1.00 20.00     0.094 C 
HETATM    5 CL8  UNL     1     -24.860  18.968   7.798  1.00 20.00    -0.124 Cl
ENDROOT
BRANCH   3   6
HETATM    6  C1  UNL     1     -23.727  17.767  11.629  1.00 20.00     0.224 C 
HETATM    7  O6  UNL     1     -22.714  17.419  12.230  1.00 20.00    -0.279 OA
HETATM    8 CL7  UNL     1     -25.130  18.512  12.332  1.00 20.00    -0.043 Cl
ENDBRANCH   3   6
TORSDOF 1
ENDMDL
MODEL 8
REMARK VINA RESULT:      -3.8      9.342     10.075
REMARK  1 active torsions:
REMARK  status: ('A' for Active; 'I' for Inactive)
REMARK    1  A    between atoms: C1_1  and  C4_4 
ROOT
HETATM    1  C2  UNL     1     -40.957   5.596  -0.951  1.00 20.00     0.016 C 
HETATM    2  C3  UNL     1     -42.358   5.042  -1.264  1.00 20.00     0.022 C 
HETATM    3  C4  UNL     1     -41.637   6.717  -0.128  1.00 20.00     0.090 C 
HETATM    4  C5  UNL     1     -42.877   5.786  -0.015  1.00 20.00     0.094 C 
HETATM    5 CL8  UNL     1     -43.069   4.829   1.502  1.00 20.00    -0.124 Cl
ENDROOT
BRANCH   3   6
HETATM    6  C1  UNL     1     -41.846   8.076  -0.814  1.00 20.00     0.224 C 
HETATM    7  O6  UNL     1     -42.284   8.162  -1.958  1.00 20.00    -0.279 OA
HETATM    8 CL7  UNL     1     -41.393   9.403   0.212  1.00 20.00    -0.043 Cl
ENDBRANCH   3   6
TORSDOF 1
ENDMDL
MODEL 9
REMARK VINA RESULT:      -3.8     15.992     16.744
REMARK  1 active torsions:
REMARK  status: ('A' for Active; 'I' for Inactive)
REMARK    1  A    between atoms: C1_1  and  C4_4 
ROOT
HETATM    1  C2  UNL     1     -23.927  16.427  10.232  1.00 20.00     0.016 C 
HETATM    2  C3  UNL     1     -24.154  16.371  11.752  1.00 20.00     0.022 C 
HETATM    3  C4  UNL     1     -23.800  17.966  10.356  1.00 20.00     0.090 C 
HETATM    4  C5  UNL     1     -23.461  17.746  11.858  1.00 20.00     0.094 C 
HETATM    5 CL8  UNL     1     -21.720  17.764  12.332  1.00 20.00    -0.124 Cl
ENDROOT
BRANCH   3   6
HETATM    6  C1  UNL     1     -25.045  18.810  10.040  1.00 20.00     0.224 C 
HETATM    7  O6  UNL     1     -25.821  19.171  10.920  1.00 20.00    -0.279 OA
HETATM    8 CL7  UNL     1     -25.185  19.158   8.344  1.00 20.00    -0.043 Cl
ENDBRANCH   3   6
TORSDOF 1
ENDMDL
