MODEL 1
REMARK VINA RESULT:      -4.5      0.000      0.000
REMARK  2 active torsions:
REMARK  status: ('A' for Active; 'I' for Inactive)
REMARK    1  A    between atoms: C1_1  and  N9_9 
REMARK    2  A    between atoms: C4_4  and  C8_8 
ROOT
HETATM    1  C2  UNL     1     -33.225  15.463  -3.746  1.00 20.00     0.031 C 
HETATM    2  C3  UNL     1     -35.529  15.451  -3.097  1.00 20.00     0.130 C 
HETATM    3  C4  UNL     1     -34.317  16.375  -3.172  1.00 20.00     0.005 C 
HETATM    4  C5  UNL     1     -33.982  14.576  -4.740  1.00 20.00     0.083 C 
HETATM    5  C6  UNL     1     -34.003  15.170  -6.146  1.00 20.00     0.032 C 
HETATM    6  N9  UNL     1     -35.327  14.498  -4.175  1.00 20.00    -0.355 N 
ENDROOT
BRANCH   3   7
HETATM    7  C8  UNL     1     -33.942  16.985  -1.833  1.00 20.00     0.002 C 
HETATM    8  C7  UNL     1     -35.098  17.002  -0.882  1.00 20.00     0.005 C 
ENDBRANCH   3   7
BRANCH   6   9
HETATM    9  C1  UNL     1     -36.272  13.570  -4.550  1.00 20.00     0.351 C 
HETATM   10  O10 UNL     1     -37.490  13.685  -4.472  1.00 20.00    -0.284 OA
ENDBRANCH   6   9
TORSDOF 2
ENDMDL
MODEL 2
REMARK VINA RESULT:      -4.4     16.199     17.593
REMARK  2 active torsions:
REMARK  status: ('A' for Active; 'I' for Inactive)
REMARK    1  A    between atoms: C1_1  and  N9_9 
REMARK    2  A    between atoms: C4_4  and  C8_8 
ROOT
HETATM    1  C2  UNL     1     -23.672  16.868  10.506  1.00 20.00     0.031 C 
HETATM    2  C3  UNL     1     -25.085  18.734  10.004  1.00 20.00     0.130 C 
HETATM    3  C4  UNL     1     -24.438  18.011  11.183  1.00 20.00     0.005 C 
HETATM    4  C5  UNL     1     -23.167  17.496   9.203  1.00 20.00     0.083 C 
HETATM    5  C6  UNL     1     -21.783  18.120   9.359  1.00 20.00     0.032 C 
HETATM    6  N9  UNL     1     -24.175  18.508   8.895  1.00 20.00    -0.355 N 
ENDROOT
BRANCH   3   7
HETATM    7  C8  UNL     1     -25.442  17.527  12.215  1.00 20.00     0.002 C 
HETATM    8  C7  UNL     1     -26.720  18.306  12.163  1.00 20.00     0.005 C 
ENDBRANCH   3   7
BRANCH   6   9
HETATM    9  C1  UNL     1     -24.312  19.117   7.669  1.00 20.00     0.351 C 
HETATM   10  O10 UNL     1     -23.792  18.775   6.613  1.00 20.00    -0.284 OA
ENDBRANCH   6   9
TORSDOF 2
ENDMDL
MODEL 3
REMARK VINA RESULT:      -4.4     17.848     18.568
REMARK  2 active torsions:
REMARK  status: ('A' for Active; 'I' for Inactive)
REMARK    1  A    between atoms: C1_1  and  N9_9 
REMARK    2  A    between atoms: C4_4  and  C8_8 
ROOT
HETATM    1  C2  UNL     1     -24.939  17.252  12.117  1.00 20.00     0.031 C 
HETATM    2  C3  UNL     1     -25.031  18.889  10.373  1.00 20.00     0.130 C 
HETATM    3  C4  UNL     1     -25.519  18.636  11.797  1.00 20.00     0.005 C 
HETATM    4  C5  UNL     1     -23.575  17.263  11.419  1.00 20.00     0.083 C 
HETATM    5  C6  UNL     1     -22.461  17.767  12.332  1.00 20.00     0.032 C 
HETATM    6  N9  UNL     1     -23.778  18.159  10.283  1.00 20.00    -0.355 N 
ENDROOT
BRANCH   3   7
HETATM    7  C8  UNL     1     -27.031  18.695  11.933  1.00 20.00     0.002 C 
HETATM    8  C7  UNL     1     -27.610  17.373  12.332  1.00 20.00     0.005 C 
ENDBRANCH   3   7
BRANCH   6   9
HETATM    9  C1  UNL     1     -22.931  18.242   9.201  1.00 20.00     0.351 C 
HETATM   10  O10 UNL     1     -22.256  19.209   8.865  1.00 20.00    -0.284 OA
ENDBRANCH   6   9
TORSDOF 2
ENDMDL
MODEL 4
REMARK VINA RESULT:      -4.2     16.155     17.590
REMARK  2 active torsions:
REMARK  status: ('A' for Active; 'I' for Inactive)
REMARK    1  A    between atoms: C1_1  and  N9_9 
REMARK    2  A    between atoms: C4_4  and  C8_8 
ROOT
HETATM    1  C2  UNL     1     -24.455  18.768   9.924  1.00 20.00     0.031 C 
HETATM    2  C3  UNL     1     -23.237  16.716   9.731  1.00 20.00     0.130 C 
HETATM    3  C4  UNL     1     -24.592  17.261  10.175  1.00 20.00     0.005 C 
HETATM    4  C5  UNL     1     -23.617  18.845   8.644  1.00 20.00     0.083 C 
HETATM    5  C6  UNL     1     -24.481  18.875   7.386  1.00 20.00     0.032 C 
HETATM    6  N9  UNL     1     -22.796  17.637   8.697  1.00 20.00    -0.355 N 
ENDROOT
BRANCH   3   7
HETATM    7  C8  UNL     1     -24.932  16.924  11.616  1.00 20.00     0.002 C 
HETATM    8  C7  UNL     1     -25.557  18.083  12.330  1.00 20.00     0.005 C 
ENDBRANCH   3   7
BRANCH   6   9
HETATM    9  C1  UNL     1     -21.677  17.426   7.925  1.00 20.00     0.351 C 
HETATM   10  O10 UNL     1     -21.600  16.750   6.905  1.00 20.00    -0.284 OA
ENDBRANCH   6   9
TORSDOF 2
ENDMDL
MODEL 5
REMARK VINA RESULT:      -4.2      1.060      1.152
REMARK  2 active torsions:
REMARK  status: ('A' for Active; 'I' for Inactive)
REMARK    1  A    between atoms: C1_1  and  N9_9 
REMARK    2  A    between atoms: C4_4  and  C8_8 
ROOT
HETATM    1  C2  UNL     1     -33.940  14.831  -4.207  1.00 20.00     0.031 C 
HETATM    2  C3  UNL     1     -35.700  16.144  -3.255  1.00 20.00     0.130 C 
HETATM    3  C4  UNL     1     -34.231  16.233  -3.659  1.00 20.00     0.005 C 
HETATM    4  C5  UNL     1     -35.242  14.443  -4.915  1.00 20.00     0.083 C 
HETATM    5  C6  UNL     1     -35.244  14.845  -6.387  1.00 20.00     0.032 C 
HETATM    6  N9  UNL     1     -36.269  15.165  -4.165  1.00 20.00    -0.355 N 
ENDROOT
BRANCH   3   7
HETATM    7  C8  UNL     1     -33.316  16.628  -2.513  1.00 20.00     0.002 C 
HETATM    8  C7  UNL     1     -34.044  17.393  -1.452  1.00 20.00     0.005 C 
ENDBRANCH   3   7
BRANCH   6   9
HETATM    9  C1  UNL     1     -37.616  14.893  -4.237  1.00 20.00     0.351 C 
HETATM   10  O10 UNL     1     -38.141  13.791  -4.355  1.00 20.00    -0.284 OA
ENDBRANCH   6   9
TORSDOF 2
ENDMDL
MODEL 6
REMARK VINA RESULT:      -4.1      1.142      1.432
REMARK  2 active torsions:
REMARK  status: ('A' for Active; 'I' for Inactive)
REMARK    1  A    between atoms: C1_1  and  N9_9 
REMARK    2  A    between atoms: C4_4  and  C8_8 
ROOT
HETATM    1  C2  UNL     1     -34.340  15.969  -2.395  1.00 20.00     0.031 C 
HETATM    2  C3  UNL     1     -36.497  15.945  -3.432  1.00 20.00     0.130 C 
HETATM    3  C4  UNL     1     -35.450  16.909  -2.880  1.00 20.00     0.005 C 
HETATM    4  C5  UNL     1     -34.342  14.842  -3.433  1.00 20.00     0.083 C 
HETATM    5  C6  UNL     1     -33.386  15.118  -4.590  1.00 20.00     0.032 C 
HETATM    6  N9  UNL     1     -35.730  14.798  -3.889  1.00 20.00    -0.355 N 
ENDROOT
BRANCH   3   7
HETATM    7  C8  UNL     1     -35.986  17.814  -1.784  1.00 20.00     0.002 C 
HETATM    8  C7  UNL     1     -35.608  17.328  -0.420  1.00 20.00     0.005 C 
ENDBRANCH   3   7
BRANCH   6   9
HETATM    9  C1  UNL     1     -36.282  13.753  -4.593  1.00 20.00     0.351 C 
HETATM   10  O10 UNL     1     -35.915  12.583  -4.585  1.00 20.00    -0.284 OA
ENDBRANCH   6   9
TORSDOF 2
ENDMDL
MODEL 7
REMARK VINA RESULT:      -4.1      3.527      5.294
REMARK  2 active torsions:
REMARK  status: ('A' for Active; 'I' for Inactive)
REMARK    1  A    between atoms: C1_1  and  N9_9 
REMARK    2  A    between atoms: C4_4  and  C8_8 
ROOT
HETATM    1  C2  UNL     1     -34.879  16.644  -1.272  1.00 20.00     0.031 C 
HETATM    2  C3  UNL     1     -32.883  16.986  -2.549  1.00 20.00     0.130 C 
HETATM    3  C4  UNL     1     -34.337  16.546  -2.703  1.00 20.00     0.005 C 
HETATM    4  C5  UNL     1     -34.168  17.875  -0.701  1.00 20.00     0.083 C 
HETATM    5  C6  UNL     1     -34.965  19.158  -0.921  1.00 20.00     0.032 C 
HETATM    6  N9  UNL     1     -32.899  17.907  -1.425  1.00 20.00    -0.355 N 
ENDROOT
BRANCH   3   7
HETATM    7  C8  UNL     1     -34.484  15.159  -3.304  1.00 20.00     0.002 C 
HETATM    8  C7  UNL     1     -33.338  14.812  -4.202  1.00 20.00     0.005 C 
ENDBRANCH   3   7
BRANCH   6   9
HETATM    9  C1  UNL     1     -31.806  18.649  -1.042  1.00 20.00     0.351 C 
HETATM   10  O10 UNL     1     -30.724  18.223  -0.654  1.00 20.00    -0.284 OA
ENDBRANCH   6   9
TORSDOF 2
ENDMDL
MODEL 8
REMARK VINA RESULT:      -4.0      1.551      2.143
REMARK  2 active torsions:
REMARK  status: ('A' for Active; 'I' for Inactive)
REMARK    1  A    between atoms: C1_1  and  N9_9 
REMARK    2  A    between atoms: C4_4  and  C8_8 
ROOT
HETATM    1  C2  UNL     1     -35.118  17.155  -4.021  1.00 20.00     0.031 C 
HETATM    2  C3  UNL     1     -34.544  14.921  -3.384  1.00 20.00     0.130 C 
HETATM    3  C4  UNL     1     -34.485  16.358  -2.874  1.00 20.00     0.005 C 
HETATM    4  C5  UNL     1     -36.222  16.228  -4.538  1.00 20.00     0.083 C 
HETATM    5  C6  UNL     1     -37.558  16.473  -3.842  1.00 20.00     0.032 C 
HETATM    6  N9  UNL     1     -35.710  14.890  -4.250  1.00 20.00    -0.355 N 
ENDROOT
BRANCH   3   7
HETATM    7  C8  UNL     1     -33.078  16.817  -2.533  1.00 20.00     0.002 C 
HETATM    8  C7  UNL     1     -33.069  17.820  -1.422  1.00 20.00     0.005 C 
ENDBRANCH   3   7
BRANCH   6   9
HETATM    9  C1  UNL     1     -36.210  13.734  -4.804  1.00 20.00     0.351 C 
HETATM   10  O10 UNL     1     -35.893  12.584  -4.521  1.00 20.00    -0.284 OA
ENDBRANCH   6   9
TORSDOF 2
ENDMDL
MODEL 9
REMARK VINA RESULT:      -3.9      1.715      2.592
REMARK  2 active torsions:
REMARK  status: ('A' for Active; 'I' for Inactive)
REMARK    1  A    between atoms: C1_1  and  N9_9 
REMARK    2  A    between atoms: C4_4  and  C8_8 
ROOT
HETATM    1  C2  UNL     1     -35.896  15.850  -3.406  1.00 20.00     0.031 C 
HETATM    2  C3  UNL     1     -33.575  15.722  -3.973  1.00 20.00     0.130 C 
HETATM    3  C4  UNL     1     -34.511  15.693  -2.768  1.00 20.00     0.005 C 
HETATM    4  C5  UNL     1     -35.782  15.063  -4.715  1.00 20.00     0.083 C 
HETATM    5  C6  UNL     1     -36.197  13.603  -4.552  1.00 20.00     0.032 C 
HETATM    6  N9  UNL     1     -34.367  15.177  -5.063  1.00 20.00    -0.355 N 
ENDROOT
BRANCH   3   7
HETATM    7  C8  UNL     1     -34.201  16.768  -1.741  1.00 20.00     0.002 C 
HETATM    8  C7  UNL     1     -32.920  17.481  -2.045  1.00 20.00     0.005 C 
ENDBRANCH   3   7
BRANCH   6   9
HETATM    9  C1  UNL     1     -33.848  14.892  -6.305  1.00 20.00     0.351 C 
HETATM   10  O10 UNL     1     -34.226  15.338  -7.382  1.00 20.00    -0.284 OA
ENDBRANCH   6   9
TORSDOF 2
ENDMDL
