MODEL 1
REMARK VINA RESULT:      -5.6      0.000      0.000
REMARK  1 active torsions:
REMARK  status: ('A' for Active; 'I' for Inactive)
REMARK    1  A    between atoms: C3_3  and  C7_7 
ROOT
HETATM    1  C1  UNL     1     -33.872   4.049   3.162  1.00 20.00    -0.029 C 
HETATM    2  C2  UNL     1     -34.678   4.323   4.197  1.00 20.00    -0.026 C 
HETATM    3  C4  UNL     1     -33.048   5.088   2.461  1.00 20.00     0.039 C 
HETATM    4  C5  UNL     1     -33.711   6.659   4.323  1.00 20.00     0.020 C 
HETATM    5  C6  UNL     1     -34.820   5.701   4.794  1.00 20.00     0.004 C 
HETATM    6  C7  UNL     1     -33.461   6.520   2.820  1.00 20.00     0.059 C 
HETATM    7  C9  UNL     1     -34.841   5.633   6.321  1.00 20.00     0.014 C 
ENDROOT
BRANCH   6   8
HETATM    8  C3  UNL     1     -32.389   7.472   2.386  1.00 20.00     0.127 C 
HETATM    9  C8  UNL     1     -32.562   8.116   1.037  1.00 20.00     0.091 C 
HETATM   10  O10 UNL     1     -31.416   7.714   3.097  1.00 20.00    -0.298 OA
ENDBRANCH   6   8
TORSDOF 1
ENDMDL
MODEL 2
REMARK VINA RESULT:      -5.3     11.268     12.010
REMARK  1 active torsions:
REMARK  status: ('A' for Active; 'I' for Inactive)
REMARK    1  A    between atoms: C3_3  and  C7_7 
ROOT
HETATM    1  C1  UNL     1     -32.926  16.238  -3.297  1.00 20.00    -0.029 C 
HETATM    2  C2  UNL     1     -33.555  16.759  -2.234  1.00 20.00    -0.026 C 
HETATM    3  C4  UNL     1     -33.534  15.191  -4.184  1.00 20.00     0.039 C 
HETATM    4  C5  UNL     1     -35.693  15.603  -2.943  1.00 20.00     0.020 C 
HETATM    5  C6  UNL     1     -34.958  16.377  -1.833  1.00 20.00     0.004 C 
HETATM    6  C7  UNL     1     -34.785  14.548  -3.577  1.00 20.00     0.059 C 
HETATM    7  C9  UNL     1     -35.765  17.611  -1.430  1.00 20.00     0.014 C 
ENDROOT
BRANCH   6   8
HETATM    8  C3  UNL     1     -35.529  13.802  -4.642  1.00 20.00     0.127 C 
HETATM    9  C8  UNL     1     -35.851  14.561  -5.900  1.00 20.00     0.091 C 
HETATM   10  O10 UNL     1     -35.859  12.627  -4.494  1.00 20.00    -0.298 OA
ENDBRANCH   6   8
TORSDOF 1
ENDMDL
MODEL 3
REMARK VINA RESULT:      -4.9     11.769     12.377
REMARK  1 active torsions:
REMARK  status: ('A' for Active; 'I' for Inactive)
REMARK    1  A    between atoms: C3_3  and  C7_7 
ROOT
HETATM    1  C1  UNL     1     -33.666  14.933  -4.864  1.00 20.00    -0.029 C 
HETATM    2  C2  UNL     1     -33.204  15.467  -3.724  1.00 20.00    -0.026 C 
HETATM    3  C4  UNL     1     -35.118  14.649  -5.112  1.00 20.00     0.039 C 
HETATM    4  C5  UNL     1     -35.581  15.928  -2.986  1.00 20.00     0.020 C 
HETATM    5  C6  UNL     1     -34.097  15.874  -2.579  1.00 20.00     0.004 C 
HETATM    6  C7  UNL     1     -35.966  14.718  -3.838  1.00 20.00     0.059 C 
HETATM    7  C9  UNL     1     -33.661  17.221  -2.001  1.00 20.00     0.014 C 
ENDROOT
BRANCH   6   8
HETATM    8  C3  UNL     1     -37.416  14.788  -4.206  1.00 20.00     0.127 C 
HETATM    9  C8  UNL     1     -38.018  16.161  -4.327  1.00 20.00     0.091 C 
HETATM   10  O10 UNL     1     -38.082  13.773  -4.401  1.00 20.00    -0.298 OA
ENDBRANCH   6   8
TORSDOF 1
ENDMDL
MODEL 4
REMARK VINA RESULT:      -4.9     11.482     12.132
REMARK  1 active torsions:
REMARK  status: ('A' for Active; 'I' for Inactive)
REMARK    1  A    between atoms: C3_3  and  C7_7 
ROOT
HETATM    1  C1  UNL     1     -32.902  17.086  -2.498  1.00 20.00    -0.029 C 
HETATM    2  C2  UNL     1     -33.773  17.359  -1.517  1.00 20.00    -0.026 C 
HETATM    3  C4  UNL     1     -33.154  16.058  -3.561  1.00 20.00     0.039 C 
HETATM    4  C5  UNL     1     -35.514  15.931  -2.673  1.00 20.00     0.020 C 
HETATM    5  C6  UNL     1     -35.118  16.689  -1.392  1.00 20.00     0.004 C 
HETATM    6  C7  UNL     1     -34.333  15.135  -3.232  1.00 20.00     0.059 C 
HETATM    7  C9  UNL     1     -36.202  17.704  -1.028  1.00 20.00     0.014 C 
ENDROOT
BRANCH   6   8
HETATM    8  C3  UNL     1     -34.748  14.397  -4.467  1.00 20.00     0.127 C 
HETATM    9  C8  UNL     1     -36.112  13.762  -4.450  1.00 20.00     0.091 C 
HETATM   10  O10 UNL     1     -34.010  14.313  -5.447  1.00 20.00    -0.298 OA
ENDBRANCH   6   8
TORSDOF 1
ENDMDL
MODEL 5
REMARK VINA RESULT:      -4.8     11.383     12.448
REMARK  1 active torsions:
REMARK  status: ('A' for Active; 'I' for Inactive)
REMARK    1  A    between atoms: C3_3  and  C7_7 
ROOT
HETATM    1  C1  UNL     1     -34.080  17.063  -4.924  1.00 20.00    -0.029 C 
HETATM    2  C2  UNL     1     -33.580  17.308  -3.705  1.00 20.00    -0.026 C 
HETATM    3  C4  UNL     1     -34.929  15.867  -5.243  1.00 20.00     0.039 C 
HETATM    4  C5  UNL     1     -34.999  15.439  -2.756  1.00 20.00     0.020 C 
HETATM    5  C6  UNL     1     -33.845  16.428  -2.509  1.00 20.00     0.004 C 
HETATM    6  C7  UNL     1     -34.894  14.801  -4.142  1.00 20.00     0.059 C 
HETATM    7  C9  UNL     1     -34.132  17.270  -1.266  1.00 20.00     0.014 C 
ENDROOT
BRANCH   6   8
HETATM    8  C3  UNL     1     -36.019  13.834  -4.350  1.00 20.00     0.127 C 
HETATM    9  C8  UNL     1     -37.411  14.405  -4.354  1.00 20.00     0.091 C 
HETATM   10  O10 UNL     1     -35.814  12.632  -4.510  1.00 20.00    -0.298 OA
ENDBRANCH   6   8
TORSDOF 1
ENDMDL
MODEL 6
REMARK VINA RESULT:      -4.7     11.464     12.360
REMARK  1 active torsions:
REMARK  status: ('A' for Active; 'I' for Inactive)
REMARK    1  A    between atoms: C3_3  and  C7_7 
ROOT
HETATM    1  C1  UNL     1     -35.212  16.308  -1.623  1.00 20.00    -0.029 C 
HETATM    2  C2  UNL     1     -34.390  17.338  -1.378  1.00 20.00    -0.026 C 
HETATM    3  C4  UNL     1     -35.060  15.396  -2.805  1.00 20.00     0.039 C 
HETATM    4  C5  UNL     1     -32.843  16.533  -3.212  1.00 20.00     0.020 C 
HETATM    5  C6  UNL     1     -33.202  17.674  -2.243  1.00 20.00     0.004 C 
HETATM    6  C7  UNL     1     -34.096  15.944  -3.862  1.00 20.00     0.059 C 
HETATM    7  C9  UNL     1     -31.988  18.036  -1.385  1.00 20.00     0.014 C 
ENDROOT
BRANCH   6   8
HETATM    8  C3  UNL     1     -33.718  14.847  -4.809  1.00 20.00     0.127 C 
HETATM    9  C8  UNL     1     -34.053  15.061  -6.260  1.00 20.00     0.091 C 
HETATM   10  O10 UNL     1     -33.162  13.822  -4.419  1.00 20.00    -0.298 OA
ENDBRANCH   6   8
TORSDOF 1
ENDMDL
MODEL 7
REMARK VINA RESULT:      -4.6     11.789     12.696
REMARK  1 active torsions:
REMARK  status: ('A' for Active; 'I' for Inactive)
REMARK    1  A    between atoms: C3_3  and  C7_7 
ROOT
HETATM    1  C1  UNL     1     -35.342  16.265  -1.950  1.00 20.00    -0.029 C 
HETATM    2  C2  UNL     1     -35.043  15.366  -2.898  1.00 20.00    -0.026 C 
HETATM    3  C4  UNL     1     -34.387  17.330  -1.494  1.00 20.00     0.039 C 
HETATM    4  C5  UNL     1     -32.923  16.642  -3.432  1.00 20.00     0.020 C 
HETATM    5  C6  UNL     1     -33.728  15.344  -3.635  1.00 20.00     0.004 C 
HETATM    6  C7  UNL     1     -32.951  17.087  -1.968  1.00 20.00     0.059 C 
HETATM    7  C9  UNL     1     -33.943  15.089  -5.127  1.00 20.00     0.014 C 
ENDROOT
BRANCH   6   8
HETATM    8  C3  UNL     1     -32.150  18.341  -1.796  1.00 20.00     0.127 C 
HETATM    9  C8  UNL     1     -31.386  18.484  -0.508  1.00 20.00     0.091 C 
HETATM   10  O10 UNL     1     -32.118  19.210  -2.665  1.00 20.00    -0.298 OA
ENDBRANCH   6   8
TORSDOF 1
ENDMDL
MODEL 8
REMARK VINA RESULT:      -4.4     11.605     12.395
REMARK  1 active torsions:
REMARK  status: ('A' for Active; 'I' for Inactive)
REMARK    1  A    between atoms: C3_3  and  C7_7 
ROOT
HETATM    1  C1  UNL     1     -34.452  16.346  -2.296  1.00 20.00    -0.029 C 
HETATM    2  C2  UNL     1     -33.395  16.017  -3.051  1.00 20.00    -0.026 C 
HETATM    3  C4  UNL     1     -35.863  15.970  -2.644  1.00 20.00     0.039 C 
HETATM    4  C5  UNL     1     -34.873  14.518  -4.456  1.00 20.00     0.020 C 
HETATM    5  C6  UNL     1     -33.502  15.203  -4.316  1.00 20.00     0.004 C 
HETATM    6  C7  UNL     1     -36.010  15.473  -4.086  1.00 20.00     0.059 C 
HETATM    7  C9  UNL     1     -32.384  14.162  -4.390  1.00 20.00     0.014 C 
ENDROOT
BRANCH   6   8
HETATM    8  C3  UNL     1     -37.332  14.787  -4.244  1.00 20.00     0.127 C 
HETATM    9  C8  UNL     1     -38.559  15.648  -4.126  1.00 20.00     0.091 C 
HETATM   10  O10 UNL     1     -37.409  13.579  -4.461  1.00 20.00    -0.298 OA
ENDBRANCH   6   8
TORSDOF 1
ENDMDL
MODEL 9
REMARK VINA RESULT:      -4.2     11.429     12.522
REMARK  1 active torsions:
REMARK  status: ('A' for Active; 'I' for Inactive)
REMARK    1  A    between atoms: C3_3  and  C7_7 
ROOT
HETATM    1  C1  UNL     1     -32.635  17.503  -2.308  1.00 20.00    -0.029 C 
HETATM    2  C2  UNL     1     -33.166  16.710  -3.250  1.00 20.00    -0.026 C 
HETATM    3  C4  UNL     1     -33.363  17.898  -1.057  1.00 20.00     0.039 C 
HETATM    4  C5  UNL     1     -35.112  16.200  -1.715  1.00 20.00     0.020 C 
HETATM    5  C6  UNL     1     -34.540  16.098  -3.140  1.00 20.00     0.004 C 
HETATM    6  C7  UNL     1     -34.862  17.585  -1.115  1.00 20.00     0.059 C 
HETATM    7  C9  UNL     1     -34.525  14.639  -3.597  1.00 20.00     0.014 C 
ENDROOT
BRANCH   6   8
HETATM    8  C3  UNL     1     -35.441  17.661   0.264  1.00 20.00     0.127 C 
HETATM    9  C8  UNL     1     -34.469  17.852   1.396  1.00 20.00     0.091 C 
HETATM   10  O10 UNL     1     -36.652  17.573   0.461  1.00 20.00    -0.298 OA
ENDBRANCH   6   8
TORSDOF 1
ENDMDL
