MODEL 1
REMARK VINA RESULT:      -5.3      0.000      0.000
REMARK  1 active torsions:
REMARK  status: ('A' for Active; 'I' for Inactive)
REMARK    1  A    between atoms: C1_1  and  C7_7 
ROOT
HETATM    1  C2  UNL     1     -35.356  17.841  -1.852  1.00 20.00     0.001 C 
HETATM    2  C3  UNL     1     -33.858  14.524  -4.374  1.00 20.00     0.014 C 
HETATM    3  C4  UNL     1     -33.897  17.449  -2.053  1.00 20.00     0.005 C 
HETATM    4  C5  UNL     1     -36.076  17.081  -2.957  1.00 20.00     0.006 C 
HETATM    5  C6  UNL     1     -33.072  15.624  -3.675  1.00 20.00     0.006 C 
HETATM    6  C7  UNL     1     -35.302  15.017  -4.300  1.00 20.00     0.076 C 
HETATM    7  C8  UNL     1     -33.951  15.983  -2.482  1.00 20.00    -0.010 C 
HETATM    8  C9  UNL     1     -35.398  15.711  -2.937  1.00 20.00     0.002 C 
ENDROOT
BRANCH   6   9
HETATM    9  C1  UNL     1     -36.269  13.879  -4.392  1.00 20.00     0.223 C 
HETATM   10  O10 UNL     1     -35.888  12.718  -4.513  1.00 20.00    -0.279 OA
HETATM   11 CL11 UNL     1     -37.919  14.413  -4.306  1.00 20.00    -0.043 Cl
ENDBRANCH   6   9
TORSDOF 1
ENDMDL
MODEL 2
REMARK VINA RESULT:      -5.3     11.518     12.103
REMARK  1 active torsions:
REMARK  status: ('A' for Active; 'I' for Inactive)
REMARK    1  A    between atoms: C1_1  and  C7_7 
ROOT
HETATM    1  C2  UNL     1     -34.499   6.402   6.348  1.00 20.00     0.001 C 
HETATM    2  C3  UNL     1     -33.303   5.066   2.300  1.00 20.00     0.014 C 
HETATM    3  C4  UNL     1     -34.901   5.095   5.676  1.00 20.00     0.005 C 
HETATM    4  C5  UNL     1     -33.365   6.912   5.471  1.00 20.00     0.006 C 
HETATM    5  C6  UNL     1     -34.027   4.287   3.389  1.00 20.00     0.006 C 
HETATM    6  C7  UNL     1     -32.773   6.296   3.036  1.00 20.00     0.076 C 
HETATM    7  C8  UNL     1     -34.748   5.373   4.180  1.00 20.00    -0.010 C 
HETATM    8  C9  UNL     1     -33.867   6.631   4.055  1.00 20.00     0.002 C 
ENDROOT
BRANCH   6   9
HETATM    9  C1  UNL     1     -32.549   7.436   2.094  1.00 20.00     0.223 C 
HETATM   10  O10 UNL     1     -31.813   8.376   2.382  1.00 20.00    -0.279 OA
HETATM   11 CL11 UNL     1     -33.434   7.244   0.611  1.00 20.00    -0.043 Cl
ENDBRANCH   6   9
TORSDOF 1
ENDMDL
MODEL 3
REMARK VINA RESULT:      -5.0      1.339      1.820
REMARK  1 active torsions:
REMARK  status: ('A' for Active; 'I' for Inactive)
REMARK    1  A    between atoms: C1_1  and  C7_7 
ROOT
HETATM    1  C2  UNL     1     -33.819  16.637  -2.210  1.00 20.00     0.001 C 
HETATM    2  C3  UNL     1     -35.671  14.624  -5.692  1.00 20.00     0.014 C 
HETATM    3  C4  UNL     1     -33.080  15.948  -3.350  1.00 20.00     0.005 C 
HETATM    4  C5  UNL     1     -35.241  16.760  -2.739  1.00 20.00     0.006 C 
HETATM    5  C6  UNL     1     -34.205  14.951  -5.444  1.00 20.00     0.006 C 
HETATM    6  C7  UNL     1     -36.402  15.451  -4.636  1.00 20.00     0.076 C 
HETATM    7  C8  UNL     1     -34.097  14.961  -3.924  1.00 20.00    -0.010 C 
HETATM    8  C9  UNL     1     -35.480  15.410  -3.413  1.00 20.00     0.002 C 
ENDROOT
BRANCH   6   9
HETATM    9  C1  UNL     1     -37.741  14.864  -4.319  1.00 20.00     0.223 C 
HETATM   10  O10 UNL     1     -37.945  13.654  -4.381  1.00 20.00    -0.279 OA
HETATM   11 CL11 UNL     1     -38.900  16.078  -3.875  1.00 20.00    -0.043 Cl
ENDBRANCH   6   9
TORSDOF 1
ENDMDL
MODEL 4
REMARK VINA RESULT:      -4.7      3.682      5.091
REMARK  1 active torsions:
REMARK  status: ('A' for Active; 'I' for Inactive)
REMARK    1  A    between atoms: C1_1  and  C7_7 
ROOT
HETATM    1  C2  UNL     1     -34.023  15.076  -3.797  1.00 20.00     0.001 C 
HETATM    2  C3  UNL     1     -34.854  18.350  -0.934  1.00 20.00     0.014 C 
HETATM    3  C4  UNL     1     -35.361  15.373  -3.131  1.00 20.00     0.005 C 
HETATM    4  C5  UNL     1     -33.209  16.333  -3.520  1.00 20.00     0.006 C 
HETATM    5  C6  UNL     1     -35.832  17.402  -1.613  1.00 20.00     0.006 C 
HETATM    6  C7  UNL     1     -33.560  18.150  -1.722  1.00 20.00     0.076 C 
HETATM    7  C8  UNL     1     -34.995  16.154  -1.869  1.00 20.00    -0.010 C 
HETATM    8  C9  UNL     1     -33.551  16.657  -2.067  1.00 20.00     0.002 C 
ENDROOT
BRANCH   6   9
HETATM    9  C1  UNL     1     -32.364  18.519  -0.903  1.00 20.00     0.223 C 
HETATM   10  O10 UNL     1     -31.304  18.853  -1.424  1.00 20.00    -0.279 OA
HETATM   11 CL11 UNL     1     -32.680  18.412   0.802  1.00 20.00    -0.043 Cl
ENDBRANCH   6   9
TORSDOF 1
ENDMDL
MODEL 5
REMARK VINA RESULT:      -4.6      1.581      1.764
REMARK  1 active torsions:
REMARK  status: ('A' for Active; 'I' for Inactive)
REMARK    1  A    between atoms: C1_1  and  C7_7 
ROOT
HETATM    1  C2  UNL     1     -33.947  17.085  -1.418  1.00 20.00     0.001 C 
HETATM    2  C3  UNL     1     -35.255  15.931  -5.487  1.00 20.00     0.014 C 
HETATM    3  C4  UNL     1     -33.418  17.652  -2.729  1.00 20.00     0.005 C 
HETATM    4  C5  UNL     1     -35.208  16.344  -1.842  1.00 20.00     0.006 C 
HETATM    5  C6  UNL     1     -34.345  17.075  -5.064  1.00 20.00     0.006 C 
HETATM    6  C7  UNL     1     -35.896  15.482  -4.175  1.00 20.00     0.076 C 
HETATM    7  C8  UNL     1     -33.726  16.571  -3.765  1.00 20.00    -0.010 C 
HETATM    8  C9  UNL     1     -34.784  15.645  -3.133  1.00 20.00     0.002 C 
ENDROOT
BRANCH   6   9
HETATM    9  C1  UNL     1     -36.353  14.060  -4.253  1.00 20.00     0.223 C 
HETATM   10  O10 UNL     1     -37.527  13.772  -4.470  1.00 20.00    -0.279 OA
HETATM   11 CL11 UNL     1     -35.050  12.938  -4.007  1.00 20.00    -0.043 Cl
ENDBRANCH   6   9
TORSDOF 1
ENDMDL
MODEL 6
REMARK VINA RESULT:      -4.6      1.211      1.219
REMARK  1 active torsions:
REMARK  status: ('A' for Active; 'I' for Inactive)
REMARK    1  A    between atoms: C1_1  and  C7_7 
ROOT
HETATM    1  C2  UNL     1     -36.272  17.391  -1.770  1.00 20.00     0.001 C 
HETATM    2  C3  UNL     1     -33.569  14.982  -4.319  1.00 20.00     0.014 C 
HETATM    3  C4  UNL     1     -34.776  17.192  -1.561  1.00 20.00     0.005 C 
HETATM    4  C5  UNL     1     -36.497  16.883  -3.188  1.00 20.00     0.006 C 
HETATM    5  C6  UNL     1     -33.218  15.927  -3.179  1.00 20.00     0.006 C 
HETATM    6  C7  UNL     1     -35.031  15.312  -4.617  1.00 20.00     0.076 C 
HETATM    7  C8  UNL     1     -34.458  15.888  -2.293  1.00 20.00    -0.010 C 
HETATM    8  C9  UNL     1     -35.640  15.619  -3.245  1.00 20.00     0.002 C 
ENDROOT
BRANCH   6   9
HETATM    9  C1  UNL     1     -35.726  14.158  -5.267  1.00 20.00     0.223 C 
HETATM   10  O10 UNL     1     -36.099  13.183  -4.620  1.00 20.00    -0.279 OA
HETATM   11 CL11 UNL     1     -35.918  14.388  -6.978  1.00 20.00    -0.043 Cl
ENDBRANCH   6   9
TORSDOF 1
ENDMDL
MODEL 7
REMARK VINA RESULT:      -4.5      1.850      2.431
REMARK  1 active torsions:
REMARK  status: ('A' for Active; 'I' for Inactive)
REMARK    1  A    between atoms: C1_1  and  C7_7 
ROOT
HETATM    1  C2  UNL     1     -34.548  17.764  -6.617  1.00 20.00     0.001 C 
HETATM    2  C3  UNL     1     -34.570  15.206  -3.003  1.00 20.00     0.014 C 
HETATM    3  C4  UNL     1     -34.068  18.164  -5.227  1.00 20.00     0.005 C 
HETATM    4  C5  UNL     1     -34.678  16.250  -6.519  1.00 20.00     0.006 C 
HETATM    5  C6  UNL     1     -33.936  16.575  -3.201  1.00 20.00     0.006 C 
HETATM    6  C7  UNL     1     -34.898  14.757  -4.426  1.00 20.00     0.076 C 
HETATM    7  C8  UNL     1     -34.802  17.213  -4.281  1.00 20.00    -0.010 C 
HETATM    8  C9  UNL     1     -35.315  16.044  -5.145  1.00 20.00     0.002 C 
ENDROOT
BRANCH   6   9
HETATM    9  C1  UNL     1     -36.007  13.753  -4.435  1.00 20.00     0.223 C 
HETATM   10  O10 UNL     1     -35.784  12.546  -4.476  1.00 20.00    -0.279 OA
HETATM   11 CL11 UNL     1     -37.572  14.505  -4.381  1.00 20.00    -0.043 Cl
ENDBRANCH   6   9
TORSDOF 1
ENDMDL
MODEL 8
REMARK VINA RESULT:      -4.4      2.984      4.416
REMARK  1 active torsions:
REMARK  status: ('A' for Active; 'I' for Inactive)
REMARK    1  A    between atoms: C1_1  and  C7_7 
ROOT
HETATM    1  C2  UNL     1     -33.283  14.750  -4.259  1.00 20.00     0.001 C 
HETATM    2  C3  UNL     1     -36.214  17.337  -2.180  1.00 20.00     0.014 C 
HETATM    3  C4  UNL     1     -34.781  14.813  -4.531  1.00 20.00     0.005 C 
HETATM    4  C5  UNL     1     -33.030  15.986  -3.406  1.00 20.00     0.006 C 
HETATM    5  C6  UNL     1     -36.411  16.469  -3.415  1.00 20.00     0.006 C 
HETATM    6  C7  UNL     1     -34.695  17.388  -2.021  1.00 20.00     0.076 C 
HETATM    7  C8  UNL     1     -35.381  15.359  -3.235  1.00 20.00    -0.010 C 
HETATM    8  C9  UNL     1     -34.219  15.996  -2.447  1.00 20.00     0.002 C 
ENDROOT
BRANCH   6   9
HETATM    9  C1  UNL     1     -34.308  17.679  -0.605  1.00 20.00     0.223 C 
HETATM   10  O10 UNL     1     -33.261  18.258  -0.329  1.00 20.00    -0.279 OA
HETATM   11 CL11 UNL     1     -35.494  17.109   0.528  1.00 20.00    -0.043 Cl
ENDBRANCH   6   9
TORSDOF 1
ENDMDL
MODEL 9
REMARK VINA RESULT:      -4.4      2.159      2.936
REMARK  1 active torsions:
REMARK  status: ('A' for Active; 'I' for Inactive)
REMARK    1  A    between atoms: C1_1  and  C7_7 
ROOT
HETATM    1  C2  UNL     1     -33.612  16.494  -2.393  1.00 20.00     0.001 C 
HETATM    2  C3  UNL     1     -36.255  14.413  -5.272  1.00 20.00     0.014 C 
HETATM    3  C4  UNL     1     -35.031  16.009  -2.125  1.00 20.00     0.005 C 
HETATM    4  C5  UNL     1     -33.244  15.795  -3.695  1.00 20.00     0.006 C 
HETATM    5  C6  UNL     1     -36.457  14.642  -3.780  1.00 20.00     0.006 C 
HETATM    6  C7  UNL     1     -34.781  14.755  -5.487  1.00 20.00     0.076 C 
HETATM    7  C8  UNL     1     -35.672  15.921  -3.510  1.00 20.00    -0.010 C 
HETATM    8  C9  UNL     1     -34.517  15.922  -4.530  1.00 20.00     0.002 C 
ENDROOT
BRANCH   6   9
HETATM    9  C1  UNL     1     -34.519  15.152  -6.905  1.00 20.00     0.223 C 
HETATM   10  O10 UNL     1     -33.434  14.947  -7.441  1.00 20.00    -0.279 OA
HETATM   11 CL11 UNL     1     -35.901  15.905  -7.640  1.00 20.00    -0.043 Cl
ENDBRANCH   6   9
TORSDOF 1
ENDMDL
