MODEL 1
REMARK VINA RESULT:      -4.8      0.000      0.000
REMARK  1 active torsions:
REMARK  status: ('A' for Active; 'I' for Inactive)
REMARK    1  A    between atoms: C3_3  and  C7_7 
ROOT
HETATM    1  C1  UNL     1     -34.213   6.261   5.504  1.00 20.00     0.218 C 
HETATM    2  C4  UNL     1     -34.396   4.773   5.274  1.00 20.00     0.103 C 
HETATM    3  C5  UNL     1     -34.556   4.376   3.815  1.00 20.00     0.012 C 
HETATM    4  C6  UNL     1     -33.463   5.021   2.977  1.00 20.00     0.029 C 
HETATM    5  C7  UNL     1     -33.588   6.531   3.086  1.00 20.00     0.106 C 
HETATM    6  N8  UNL     1     -33.687   6.990   4.460  1.00 20.00    -0.353 N 
HETATM    7  O9  UNL     1     -34.447   6.759   6.606  1.00 20.00    -0.274 OA
HETATM    8  H20 UNL     1     -33.344   7.917   4.667  1.00 20.00     0.163 HD
ENDROOT
BRANCH   5   9
HETATM    9  C3  UNL     1     -32.380   7.120   2.388  1.00 20.00    -0.012 C 
HETATM   10  C2  UNL     1     -32.450   7.963   1.352  1.00 20.00     0.009 C 
ENDBRANCH   5   9
TORSDOF 1
ENDMDL
MODEL 2
REMARK VINA RESULT:      -4.5     11.561     12.217
REMARK  1 active torsions:
REMARK  status: ('A' for Active; 'I' for Inactive)
REMARK    1  A    between atoms: C3_3  and  C7_7 
ROOT
HETATM    1  C1  UNL     1     -36.641  14.402  -4.040  1.00 20.00     0.218 C 
HETATM    2  C4  UNL     1     -35.260  13.779  -4.107  1.00 20.00     0.103 C 
HETATM    3  C5  UNL     1     -34.115  14.772  -3.992  1.00 20.00     0.012 C 
HETATM    4  C6  UNL     1     -34.343  15.693  -2.803  1.00 20.00     0.029 C 
HETATM    5  C7  UNL     1     -35.633  16.464  -3.019  1.00 20.00     0.106 C 
HETATM    6  N8  UNL     1     -36.748  15.605  -3.378  1.00 20.00    -0.353 N 
HETATM    7  O9  UNL     1     -37.622  13.804  -4.486  1.00 20.00    -0.274 OA
HETATM    8  H20 UNL     1     -37.675  15.914  -3.122  1.00 20.00     0.163 HD
ENDROOT
BRANCH   5   9
HETATM    9  C3  UNL     1     -35.907  17.225  -1.739  1.00 20.00    -0.012 C 
HETATM   10  C2  UNL     1     -35.273  16.998  -0.583  1.00 20.00     0.009 C 
ENDBRANCH   5   9
TORSDOF 1
ENDMDL
MODEL 3
REMARK VINA RESULT:      -4.3     12.332     12.921
REMARK  1 active torsions:
REMARK  status: ('A' for Active; 'I' for Inactive)
REMARK    1  A    between atoms: C3_3  and  C7_7 
ROOT
HETATM    1  C1  UNL     1     -34.424  14.997  -6.295  1.00 20.00     0.218 C 
HETATM    2  C4  UNL     1     -35.768  14.457  -5.846  1.00 20.00     0.103 C 
HETATM    3  C5  UNL     1     -35.785  13.913  -4.426  1.00 20.00     0.012 C 
HETATM    4  C6  UNL     1     -35.151  14.917  -3.476  1.00 20.00     0.029 C 
HETATM    5  C7  UNL     1     -33.707  15.142  -3.892  1.00 20.00     0.106 C 
HETATM    6  N8  UNL     1     -33.569  15.434  -5.308  1.00 20.00    -0.353 N 
HETATM    7  O9  UNL     1     -34.163  15.112  -7.494  1.00 20.00    -0.274 OA
HETATM    8  H20 UNL     1     -32.783  16.003  -5.591  1.00 20.00     0.163 HD
ENDROOT
BRANCH   5   9
HETATM    9  C3  UNL     1     -33.178  16.273  -3.036  1.00 20.00    -0.012 C 
HETATM   10  C2  UNL     1     -33.875  16.862  -2.058  1.00 20.00     0.009 C 
ENDBRANCH   5   9
TORSDOF 1
ENDMDL
MODEL 4
REMARK VINA RESULT:      -4.2     16.034     16.582
REMARK  1 active torsions:
REMARK  status: ('A' for Active; 'I' for Inactive)
REMARK    1  A    between atoms: C3_3  and  C7_7 
ROOT
HETATM    1  C1  UNL     1     -23.799  18.311   9.942  1.00 20.00     0.218 C 
HETATM    2  C4  UNL     1     -23.537  16.828  10.116  1.00 20.00     0.103 C 
HETATM    3  C5  UNL     1     -23.921  16.276  11.479  1.00 20.00     0.012 C 
HETATM    4  C6  UNL     1     -25.329  16.723  11.844  1.00 20.00     0.029 C 
HETATM    5  C7  UNL     1     -25.361  18.240  11.908  1.00 20.00     0.106 C 
HETATM    6  N8  UNL     1     -24.783  18.865  10.731  1.00 20.00    -0.353 N 
HETATM    7  O9  UNL     1     -23.212  18.954   9.070  1.00 20.00    -0.274 OA
HETATM    8  H20 UNL     1     -25.129  19.778  10.471  1.00 20.00     0.163 HD
ENDROOT
BRANCH   5   9
HETATM    9  C3  UNL     1     -26.810  18.638  12.094  1.00 20.00    -0.012 C 
HETATM   10  C2  UNL     1     -27.801  17.770  12.330  1.00 20.00     0.009 C 
ENDBRANCH   5   9
TORSDOF 1
ENDMDL
MODEL 5
REMARK VINA RESULT:      -4.2      1.784      2.306
REMARK  1 active torsions:
REMARK  status: ('A' for Active; 'I' for Inactive)
REMARK    1  A    between atoms: C3_3  and  C7_7 
ROOT
HETATM    1  C1  UNL     1     -34.101   4.787   3.838  1.00 20.00     0.218 C 
HETATM    2  C4  UNL     1     -34.578   5.721   4.933  1.00 20.00     0.103 C 
HETATM    3  C5  UNL     1     -33.685   6.930   5.164  1.00 20.00     0.012 C 
HETATM    4  C6  UNL     1     -33.374   7.607   3.838  1.00 20.00     0.029 C 
HETATM    5  C7  UNL     1     -32.637   6.623   2.946  1.00 20.00     0.106 C 
HETATM    6  N8  UNL     1     -33.304   5.336   2.858  1.00 20.00    -0.353 N 
HETATM    7  O9  UNL     1     -34.490   3.618   3.797  1.00 20.00    -0.274 OA
HETATM    8  H20 UNL     1     -33.173   4.800   2.011  1.00 20.00     0.163 HD
ENDROOT
BRANCH   5   9
HETATM    9  C3  UNL     1     -32.512   7.278   1.586  1.00 20.00    -0.012 C 
HETATM   10  C2  UNL     1     -32.839   8.550   1.334  1.00 20.00     0.009 C 
ENDBRANCH   5   9
TORSDOF 1
ENDMDL
MODEL 6
REMARK VINA RESULT:      -4.2     11.514     12.302
REMARK  1 active torsions:
REMARK  status: ('A' for Active; 'I' for Inactive)
REMARK    1  A    between atoms: C3_3  and  C7_7 
ROOT
HETATM    1  C1  UNL     1     -35.822  13.788  -4.287  1.00 20.00     0.218 C 
HETATM    2  C4  UNL     1     -36.919  14.746  -4.710  1.00 20.00     0.103 C 
HETATM    3  C5  UNL     1     -37.021  16.001  -3.859  1.00 20.00     0.012 C 
HETATM    4  C6  UNL     1     -35.648  16.635  -3.698  1.00 20.00     0.029 C 
HETATM    5  C7  UNL     1     -34.731  15.647  -2.997  1.00 20.00     0.106 C 
HETATM    6  N8  UNL     1     -34.754  14.329  -3.606  1.00 20.00    -0.353 N 
HETATM    7  O9  UNL     1     -35.861  12.603  -4.621  1.00 20.00    -0.274 OA
HETATM    8  H20 UNL     1     -33.920  13.764  -3.524  1.00 20.00     0.163 HD
ENDROOT
BRANCH   5   9
HETATM    9  C3  UNL     1     -33.342  16.248  -3.022  1.00 20.00    -0.012 C 
HETATM   10  C2  UNL     1     -32.956  17.276  -2.259  1.00 20.00     0.009 C 
ENDBRANCH   5   9
TORSDOF 1
ENDMDL
MODEL 7
REMARK VINA RESULT:      -4.2     15.642     16.683
REMARK  1 active torsions:
REMARK  status: ('A' for Active; 'I' for Inactive)
REMARK    1  A    between atoms: C3_3  and  C7_7 
ROOT
HETATM    1  C1  UNL     1     -23.956  18.329   8.178  1.00 20.00     0.218 C 
HETATM    2  C4  UNL     1     -22.473  18.024   8.266  1.00 20.00     0.103 C 
HETATM    3  C5  UNL     1     -21.894  18.115   9.668  1.00 20.00     0.012 C 
HETATM    4  C6  UNL     1     -22.765  17.338  10.643  1.00 20.00     0.029 C 
HETATM    5  C7  UNL     1     -24.156  17.948  10.652  1.00 20.00     0.106 C 
HETATM    6  N8  UNL     1     -24.701  18.125   9.318  1.00 20.00    -0.353 N 
HETATM    7  O9  UNL     1     -24.466  18.660   7.106  1.00 20.00    -0.274 OA
HETATM    8  H20 UNL     1     -25.706  18.096   9.218  1.00 20.00     0.163 HD
ENDROOT
BRANCH   5   9
HETATM    9  C3  UNL     1     -25.026  17.036  11.492  1.00 20.00    -0.012 C 
HETATM   10  C2  UNL     1     -24.709  15.774  11.802  1.00 20.00     0.009 C 
ENDBRANCH   5   9
TORSDOF 1
ENDMDL
MODEL 8
REMARK VINA RESULT:      -4.0     11.672     12.402
REMARK  1 active torsions:
REMARK  status: ('A' for Active; 'I' for Inactive)
REMARK    1  A    between atoms: C3_3  and  C7_7 
ROOT
HETATM    1  C1  UNL     1     -34.629  15.323  -3.066  1.00 20.00     0.218 C 
HETATM    2  C4  UNL     1     -33.253  15.903  -3.333  1.00 20.00     0.103 C 
HETATM    3  C5  UNL     1     -33.075  17.341  -2.871  1.00 20.00     0.012 C 
HETATM    4  C6  UNL     1     -33.565  17.492  -1.439  1.00 20.00     0.029 C 
HETATM    5  C7  UNL     1     -35.043  17.144  -1.387  1.00 20.00     0.106 C 
HETATM    6  N8  UNL     1     -35.346  15.878  -2.030  1.00 20.00    -0.353 N 
HETATM    7  O9  UNL     1     -35.031  14.346  -3.700  1.00 20.00    -0.274 OA
HETATM    8  H20 UNL     1     -36.147  15.363  -1.690  1.00 20.00     0.163 HD
ENDROOT
BRANCH   5   9
HETATM    9  C3  UNL     1     -35.436  17.134   0.076  1.00 20.00    -0.012 C 
HETATM   10  C2  UNL     1     -34.760  17.772   1.038  1.00 20.00     0.009 C 
ENDBRANCH   5   9
TORSDOF 1
ENDMDL
MODEL 9
REMARK VINA RESULT:      -4.0      9.449      9.888
REMARK  1 active torsions:
REMARK  status: ('A' for Active; 'I' for Inactive)
REMARK    1  A    between atoms: C3_3  and  C7_7 
ROOT
HETATM    1  C1  UNL     1     -42.495   4.992  -1.175  1.00 20.00     0.218 C 
HETATM    2  C4  UNL     1     -43.416   4.838   0.019  1.00 20.00     0.103 C 
HETATM    3  C5  UNL     1     -42.936   5.537   1.280  1.00 20.00     0.012 C 
HETATM    4  C6  UNL     1     -42.538   6.970   0.962  1.00 20.00     0.029 C 
HETATM    5  C7  UNL     1     -41.402   6.952  -0.046  1.00 20.00     0.106 C 
HETATM    6  N8  UNL     1     -41.680   6.102  -1.191  1.00 20.00    -0.353 N 
HETATM    7  O9  UNL     1     -42.550   4.199  -2.116  1.00 20.00    -0.274 OA
HETATM    8  H20 UNL     1     -41.239   6.343  -2.068  1.00 20.00     0.163 HD
ENDROOT
BRANCH   5   9
HETATM    9  C3  UNL     1     -41.167   8.388  -0.465  1.00 20.00    -0.012 C 
HETATM   10  C2  UNL     1     -41.488   9.449   0.285  1.00 20.00     0.009 C 
ENDBRANCH   5   9
TORSDOF 1
ENDMDL
