MODEL 1
REMARK VINA RESULT:      -3.6      0.000      0.000
REMARK  1 active torsions:
REMARK  status: ('A' for Active; 'I' for Inactive)
REMARK    1  A    between atoms: C3_3  and  N6_6 
ROOT
HETATM    1  C1  UNL     1     -23.116  18.066   8.234  1.00 20.00     0.216 C 
HETATM    2  C4  UNL     1     -25.176  19.002   8.662  1.00 20.00     0.158 C 
HETATM    3  C5  UNL     1     -24.856  19.090   7.188  1.00 20.00     0.198 C 
HETATM    4  N6  UNL     1     -24.100  18.218   9.190  1.00 20.00    -0.327 N 
HETATM    5  O7  UNL     1     -23.495  18.651   7.060  1.00 20.00    -0.325 OA
HETATM    6  S8  UNL     1     -21.628  17.335   8.293  1.00 20.00    -0.033 SA
ENDROOT
BRANCH   4   7
HETATM    7  C3  UNL     1     -24.095  17.768  10.479  1.00 20.00     0.083 C 
HETATM    8  C2  UNL     1     -24.326  16.494  10.804  1.00 20.00     0.030 C 
ENDBRANCH   4   7
TORSDOF 1
ENDMDL
MODEL 2
REMARK VINA RESULT:      -3.5      1.735      2.336
REMARK  1 active torsions:
REMARK  status: ('A' for Active; 'I' for Inactive)
REMARK    1  A    between atoms: C3_3  and  N6_6 
ROOT
HETATM    1  C1  UNL     1     -23.919  18.361   8.197  1.00 20.00     0.216 C 
HETATM    2  C4  UNL     1     -22.415  17.015   9.307  1.00 20.00     0.158 C 
HETATM    3  C5  UNL     1     -21.837  17.470   7.987  1.00 20.00     0.198 C 
HETATM    4  N6  UNL     1     -23.644  17.746   9.401  1.00 20.00    -0.327 N 
HETATM    5  O7  UNL     1     -22.908  18.142   7.305  1.00 20.00    -0.325 OA
HETATM    6  S8  UNL     1     -25.217  19.263   7.693  1.00 20.00    -0.033 SA
ENDROOT
BRANCH   4   7
HETATM    7  C3  UNL     1     -24.405  17.740  10.534  1.00 20.00     0.083 C 
HETATM    8  C2  UNL     1     -24.528  16.668  11.320  1.00 20.00     0.030 C 
ENDBRANCH   4   7
TORSDOF 1
ENDMDL
MODEL 3
REMARK VINA RESULT:      -3.4      2.453      3.481
REMARK  1 active torsions:
REMARK  status: ('A' for Active; 'I' for Inactive)
REMARK    1  A    between atoms: C3_3  and  N6_6 
ROOT
HETATM    1  C1  UNL     1     -24.121  18.464   9.736  1.00 20.00     0.216 C 
HETATM    2  C4  UNL     1     -22.744  17.800  11.458  1.00 20.00     0.158 C 
HETATM    3  C5  UNL     1     -24.193  17.644  11.855  1.00 20.00     0.198 C 
HETATM    4  N6  UNL     1     -22.817  18.172  10.076  1.00 20.00    -0.327 N 
HETATM    5  O7  UNL     1     -24.954  18.248  10.797  1.00 20.00    -0.325 OA
HETATM    6  S8  UNL     1     -24.793  19.016   8.322  1.00 20.00    -0.033 SA
ENDROOT
BRANCH   4   7
HETATM    7  C3  UNL     1     -21.704  18.256   9.290  1.00 20.00     0.083 C 
HETATM    8  C2  UNL     1     -21.336  17.288   8.447  1.00 20.00     0.030 C 
ENDBRANCH   4   7
TORSDOF 1
ENDMDL
MODEL 4
REMARK VINA RESULT:      -3.4      2.580      3.420
REMARK  1 active torsions:
REMARK  status: ('A' for Active; 'I' for Inactive)
REMARK    1  A    between atoms: C3_3  and  N6_6 
ROOT
HETATM    1  C1  UNL     1     -24.217  18.356  10.108  1.00 20.00     0.216 C 
HETATM    2  C4  UNL     1     -24.018  17.782  12.329  1.00 20.00     0.158 C 
HETATM    3  C5  UNL     1     -22.670  17.723  11.650  1.00 20.00     0.198 C 
HETATM    4  N6  UNL     1     -24.875  18.329  11.320  1.00 20.00    -0.327 N 
HETATM    5  O7  UNL     1     -22.931  17.917  10.251  1.00 20.00    -0.325 OA
HETATM    6  S8  UNL     1     -24.719  18.804   8.591  1.00 20.00    -0.033 SA
ENDROOT
BRANCH   4   7
HETATM    7  C3  UNL     1     -26.163  18.695  11.584  1.00 20.00     0.083 C 
HETATM    8  C2  UNL     1     -26.990  17.956  12.327  1.00 20.00     0.030 C 
ENDBRANCH   4   7
TORSDOF 1
ENDMDL
MODEL 5
REMARK VINA RESULT:      -3.4      2.266      2.919
REMARK  1 active torsions:
REMARK  status: ('A' for Active; 'I' for Inactive)
REMARK    1  A    between atoms: C3_3  and  N6_6 
ROOT
HETATM    1  C1  UNL     1     -23.780  18.137  10.649  1.00 20.00     0.216 C 
HETATM    2  C4  UNL     1     -24.219  19.049   8.580  1.00 20.00     0.158 C 
HETATM    3  C5  UNL     1     -25.393  19.263   9.508  1.00 20.00     0.198 C 
HETATM    4  N6  UNL     1     -23.221  18.477   9.434  1.00 20.00    -0.327 N 
HETATM    5  O7  UNL     1     -25.094  18.509  10.693  1.00 20.00    -0.325 OA
HETATM    6  S8  UNL     1     -23.142  17.382  11.982  1.00 20.00    -0.033 SA
ENDROOT
BRANCH   4   7
HETATM    7  C3  UNL     1     -21.938  18.277   9.014  1.00 20.00     0.083 C 
HETATM    8  C2  UNL     1     -21.612  17.387   8.075  1.00 20.00     0.030 C 
ENDBRANCH   4   7
TORSDOF 1
ENDMDL
MODEL 6
REMARK VINA RESULT:      -3.3      2.482      2.904
REMARK  1 active torsions:
REMARK  status: ('A' for Active; 'I' for Inactive)
REMARK    1  A    between atoms: C3_3  and  N6_6 
ROOT
HETATM    1  C1  UNL     1     -24.159  17.030  10.540  1.00 20.00     0.216 C 
HETATM    2  C4  UNL     1     -23.913  18.881   9.192  1.00 20.00     0.158 C 
HETATM    3  C5  UNL     1     -22.956  17.791   8.766  1.00 20.00     0.198 C 
HETATM    4  N6  UNL     1     -24.710  18.247  10.199  1.00 20.00    -0.327 N 
HETATM    5  O7  UNL     1     -23.061  16.768   9.769  1.00 20.00    -0.325 OA
HETATM    6  S8  UNL     1     -24.591  15.905  11.681  1.00 20.00    -0.033 SA
ENDROOT
BRANCH   4   7
HETATM    7  C3  UNL     1     -25.811  18.850  10.736  1.00 20.00     0.083 C 
HETATM    8  C2  UNL     1     -25.879  19.232  12.013  1.00 20.00     0.030 C 
ENDBRANCH   4   7
TORSDOF 1
ENDMDL
MODEL 7
REMARK VINA RESULT:      -3.3      1.956      3.105
REMARK  1 active torsions:
REMARK  status: ('A' for Active; 'I' for Inactive)
REMARK    1  A    between atoms: C3_3  and  N6_6 
ROOT
HETATM    1  C1  UNL     1     -22.735  17.953  10.131  1.00 20.00     0.216 C 
HETATM    2  C4  UNL     1     -24.910  18.318  10.796  1.00 20.00     0.158 C 
HETATM    3  C5  UNL     1     -24.094  17.774  11.946  1.00 20.00     0.198 C 
HETATM    4  N6  UNL     1     -23.935  18.530   9.768  1.00 20.00    -0.327 N 
HETATM    5  O7  UNL     1     -22.822  17.415  11.384  1.00 20.00    -0.325 OA
HETATM    6  S8  UNL     1     -21.293  17.812   9.324  1.00 20.00    -0.033 SA
ENDROOT
BRANCH   4   7
HETATM    7  C3  UNL     1     -24.240  19.170   8.602  1.00 20.00     0.083 C 
HETATM    8  C2  UNL     1     -25.335  18.896   7.889  1.00 20.00     0.030 C 
ENDBRANCH   4   7
TORSDOF 1
ENDMDL
MODEL 8
REMARK VINA RESULT:      -3.3     16.955     17.901
REMARK  1 active torsions:
REMARK  status: ('A' for Active; 'I' for Inactive)
REMARK    1  A    between atoms: C3_3  and  N6_6 
ROOT
HETATM    1  C1  UNL     1     -34.783  14.795  -5.922  1.00 20.00     0.216 C 
HETATM    2  C4  UNL     1     -35.477  14.378  -3.766  1.00 20.00     0.158 C 
HETATM    3  C5  UNL     1     -36.328  13.608  -4.750  1.00 20.00     0.198 C 
HETATM    4  N6  UNL     1     -34.459  14.958  -4.591  1.00 20.00    -0.327 N 
HETATM    5  O7  UNL     1     -35.936  14.075  -6.050  1.00 20.00    -0.325 OA
HETATM    6  S8  UNL     1     -34.036  15.318  -7.309  1.00 20.00    -0.033 SA
ENDROOT
BRANCH   4   7
HETATM    7  C3  UNL     1     -33.383  15.610  -4.062  1.00 20.00     0.083 C 
HETATM    8  C2  UNL     1     -33.436  16.281  -2.909  1.00 20.00     0.030 C 
ENDBRANCH   4   7
TORSDOF 1
ENDMDL
MODEL 9
REMARK VINA RESULT:      -3.2     17.630     18.597
REMARK  1 active torsions:
REMARK  status: ('A' for Active; 'I' for Inactive)
REMARK    1  A    between atoms: C3_3  and  N6_6 
ROOT
HETATM    1  C1  UNL     1     -35.691  14.587  -5.652  1.00 20.00     0.216 C 
HETATM    2  C4  UNL     1     -33.874  15.092  -6.975  1.00 20.00     0.158 C 
HETATM    3  C5  UNL     1     -35.158  15.293  -7.747  1.00 20.00     0.198 C 
HETATM    4  N6  UNL     1     -34.328  14.800  -5.648  1.00 20.00    -0.327 N 
HETATM    5  O7  UNL     1     -36.203  14.783  -6.904  1.00 20.00    -0.325 OA
HETATM    6  S8  UNL     1     -36.741  14.145  -4.446  1.00 20.00    -0.033 SA
ENDROOT
BRANCH   4   7
HETATM    7  C3  UNL     1     -33.467  14.708  -4.592  1.00 20.00     0.083 C 
HETATM    8  C2  UNL     1     -33.333  15.673  -3.679  1.00 20.00     0.030 C 
ENDBRANCH   4   7
TORSDOF 1
ENDMDL
