MODEL 1
REMARK VINA RESULT:      -4.6      0.000      0.000
REMARK  2 active torsions:
REMARK  status: ('A' for Active; 'I' for Inactive)
REMARK    1  A    between atoms: C5_5  and  C7_7 
REMARK    2  A    between atoms: C5_5  and  O11_11 
ROOT
HETATM    1  C1  UNL     1     -25.470  16.268  11.903  1.00 20.00     0.003 A 
HETATM    2  C2  UNL     1     -24.174  16.286  11.581  1.00 20.00    -0.007 A 
HETATM    3  C3  UNL     1     -25.976  17.604  12.070  1.00 20.00    -0.066 A 
HETATM    4  C4  UNL     1     -27.244  17.932  12.332  1.00 20.00     0.019 C 
HETATM    5  C6  UNL     1     -24.828  18.567  11.900  1.00 20.00     0.061 A 
HETATM    6  C7  UNL     1     -23.637  17.683  11.468  1.00 20.00     0.066 A 
HETATM    7  C8  UNL     1     -22.401  17.908  12.332  1.00 20.00     0.031 C 
ENDROOT
BRANCH   6   8
HETATM    8  C5  UNL     1     -23.300  17.893  10.017  1.00 20.00     0.271 C 
HETATM    9  O10 UNL     1     -23.635  18.876   9.371  1.00 20.00    -0.264 OA
BRANCH   8  10
HETATM   10  O11 UNL     1     -22.579  16.831   9.559  1.00 20.00    -0.326 OA
HETATM   11  C9  UNL     1     -21.531  17.150   8.637  1.00 20.00     0.213 C 
ENDBRANCH   8  10
ENDBRANCH   6   8
TORSDOF 2
ENDMDL
MODEL 2
REMARK VINA RESULT:      -4.6     23.033     24.233
REMARK  2 active torsions:
REMARK  status: ('A' for Active; 'I' for Inactive)
REMARK    1  A    between atoms: C5_5  and  C7_7 
REMARK    2  A    between atoms: C5_5  and  O11_11 
ROOT
HETATM    1  C1  UNL     1     -43.078   8.389  -0.415  1.00 20.00     0.003 A 
HETATM    2  C2  UNL     1     -43.417   7.097  -0.458  1.00 20.00    -0.007 A 
HETATM    3  C3  UNL     1     -41.809   8.565   0.238  1.00 20.00    -0.066 A 
HETATM    4  C4  UNL     1     -41.162   9.724   0.386  1.00 20.00     0.019 C 
HETATM    5  C6  UNL     1     -41.339   7.218   0.724  1.00 20.00     0.061 A 
HETATM    6  C7  UNL     1     -42.373   6.217   0.164  1.00 20.00     0.066 A 
HETATM    7  C8  UNL     1     -42.943   5.303   1.243  1.00 20.00     0.031 C 
ENDROOT
BRANCH   6   8
HETATM    8  C5  UNL     1     -41.790   5.396  -0.954  1.00 20.00     0.271 C 
HETATM    9  O10 UNL     1     -40.594   5.338  -1.209  1.00 20.00    -0.264 OA
BRANCH   8  10
HETATM   10  O11 UNL     1     -42.790   4.748  -1.614  1.00 20.00    -0.326 OA
HETATM   11  C9  UNL     1     -42.370   3.697  -2.490  1.00 20.00     0.213 C 
ENDBRANCH   8  10
ENDBRANCH   6   8
TORSDOF 2
ENDMDL
MODEL 3
REMARK VINA RESULT:      -4.6     17.758     18.339
REMARK  2 active torsions:
REMARK  status: ('A' for Active; 'I' for Inactive)
REMARK    1  A    between atoms: C5_5  and  C7_7 
REMARK    2  A    between atoms: C5_5  and  O11_11 
ROOT
HETATM    1  C1  UNL     1     -35.032  15.962  -2.072  1.00 20.00     0.003 A 
HETATM    2  C2  UNL     1     -34.965  15.199  -3.167  1.00 20.00    -0.007 A 
HETATM    3  C3  UNL     1     -33.942  16.899  -2.033  1.00 20.00    -0.066 A 
HETATM    4  C4  UNL     1     -33.756  17.841  -1.104  1.00 20.00     0.019 C 
HETATM    5  C6  UNL     1     -33.049  16.633  -3.217  1.00 20.00     0.061 A 
HETATM    6  C7  UNL     1     -33.794  15.556  -4.036  1.00 20.00     0.066 A 
HETATM    7  C8  UNL     1     -32.914  14.354  -4.357  1.00 20.00     0.031 C 
ENDROOT
BRANCH   6   8
HETATM    8  C5  UNL     1     -34.366  16.132  -5.303  1.00 20.00     0.271 C 
HETATM    9  O10 UNL     1     -34.770  17.283  -5.411  1.00 20.00    -0.264 OA
BRANCH   8  10
HETATM   10  O11 UNL     1     -34.359  15.182  -6.279  1.00 20.00    -0.326 OA
HETATM   11  C9  UNL     1     -35.630  14.906  -6.879  1.00 20.00     0.213 C 
ENDBRANCH   8  10
ENDBRANCH   6   8
TORSDOF 2
ENDMDL
MODEL 4
REMARK VINA RESULT:      -4.5     17.897     18.481
REMARK  2 active torsions:
REMARK  status: ('A' for Active; 'I' for Inactive)
REMARK    1  A    between atoms: C5_5  and  C7_7 
REMARK    2  A    between atoms: C5_5  and  O11_11 
ROOT
HETATM    1  C1  UNL     1     -34.843  16.482  -2.046  1.00 20.00     0.003 A 
HETATM    2  C2  UNL     1     -35.378  15.566  -2.858  1.00 20.00    -0.007 A 
HETATM    3  C3  UNL     1     -33.472  16.741  -2.396  1.00 20.00    -0.066 A 
HETATM    4  C4  UNL     1     -32.677  17.646  -1.820  1.00 20.00     0.019 C 
HETATM    5  C6  UNL     1     -33.091  15.814  -3.523  1.00 20.00     0.061 A 
HETATM    6  C7  UNL     1     -34.406  15.097  -3.901  1.00 20.00     0.066 A 
HETATM    7  C8  UNL     1     -34.256  13.580  -3.923  1.00 20.00     0.031 C 
ENDROOT
BRANCH   6   8
HETATM    8  C5  UNL     1     -34.933  15.584  -5.223  1.00 20.00     0.271 C 
HETATM    9  O10 UNL     1     -35.521  16.647  -5.376  1.00 20.00    -0.264 OA
BRANCH   8  10
HETATM   10  O11 UNL     1     -34.652  14.668  -6.191  1.00 20.00    -0.326 OA
HETATM   11  C9  UNL     1     -33.941  15.172  -7.327  1.00 20.00     0.213 C 
ENDBRANCH   8  10
ENDBRANCH   6   8
TORSDOF 2
ENDMDL
MODEL 5
REMARK VINA RESULT:      -4.5     18.574     19.305
REMARK  2 active torsions:
REMARK  status: ('A' for Active; 'I' for Inactive)
REMARK    1  A    between atoms: C5_5  and  C7_7 
REMARK    2  A    between atoms: C5_5  and  O11_11 
ROOT
HETATM    1  C1  UNL     1     -32.919  15.126  -3.793  1.00 20.00     0.003 A 
HETATM    2  C2  UNL     1     -33.628  14.419  -4.677  1.00 20.00    -0.007 A 
HETATM    3  C3  UNL     1     -33.665  16.264  -3.329  1.00 20.00    -0.066 A 
HETATM    4  C4  UNL     1     -33.264  17.134  -2.397  1.00 20.00     0.019 C 
HETATM    5  C6  UNL     1     -34.975  16.305  -4.074  1.00 20.00     0.061 A 
HETATM    6  C7  UNL     1     -34.991  15.004  -4.907  1.00 20.00     0.066 A 
HETATM    7  C8  UNL     1     -35.280  15.260  -6.382  1.00 20.00     0.031 C 
ENDROOT
BRANCH   6   8
HETATM    8  C5  UNL     1     -35.977  14.013  -4.351  1.00 20.00     0.271 C 
HETATM    9  O10 UNL     1     -35.918  12.806  -4.543  1.00 20.00    -0.264 OA
BRANCH   8  10
HETATM   10  O11 UNL     1     -36.920  14.670  -3.619  1.00 20.00    -0.326 OA
HETATM   11  C9  UNL     1     -38.242  14.664  -4.170  1.00 20.00     0.213 C 
ENDBRANCH   8  10
ENDBRANCH   6   8
TORSDOF 2
ENDMDL
MODEL 6
REMARK VINA RESULT:      -4.4     18.916     19.623
REMARK  2 active torsions:
REMARK  status: ('A' for Active; 'I' for Inactive)
REMARK    1  A    between atoms: C5_5  and  C7_7 
REMARK    2  A    between atoms: C5_5  and  O11_11 
ROOT
HETATM    1  C1  UNL     1     -33.925  15.546  -3.063  1.00 20.00     0.003 A 
HETATM    2  C2  UNL     1     -34.025  14.617  -4.018  1.00 20.00    -0.007 A 
HETATM    3  C3  UNL     1     -34.796  16.657  -3.335  1.00 20.00    -0.066 A 
HETATM    4  C4  UNL     1     -34.977  17.719  -2.544  1.00 20.00     0.019 C 
HETATM    5  C6  UNL     1     -35.467  16.416  -4.663  1.00 20.00     0.061 A 
HETATM    6  C7  UNL     1     -35.026  14.993  -5.072  1.00 20.00     0.066 A 
HETATM    7  C8  UNL     1     -34.441  14.946  -6.479  1.00 20.00     0.031 C 
ENDROOT
BRANCH   6   8
HETATM    8  C5  UNL     1     -36.160  14.013  -4.950  1.00 20.00     0.271 C 
HETATM    9  O10 UNL     1     -36.023  12.845  -4.612  1.00 20.00    -0.264 OA
BRANCH   8  10
HETATM   10  O11 UNL     1     -37.332  14.630  -5.270  1.00 20.00    -0.326 OA
HETATM   11  C9  UNL     1     -38.363  14.544  -4.281  1.00 20.00     0.213 C 
ENDBRANCH   8  10
ENDBRANCH   6   8
TORSDOF 2
ENDMDL
MODEL 7
REMARK VINA RESULT:      -4.3     17.504     18.138
REMARK  2 active torsions:
REMARK  status: ('A' for Active; 'I' for Inactive)
REMARK    1  A    between atoms: C5_5  and  C7_7 
REMARK    2  A    between atoms: C5_5  and  O11_11 
ROOT
HETATM    1  C1  UNL     1     -34.977  16.077  -1.940  1.00 20.00     0.003 A 
HETATM    2  C2  UNL     1     -34.989  15.339  -3.054  1.00 20.00    -0.007 A 
HETATM    3  C3  UNL     1     -33.856  16.978  -1.934  1.00 20.00    -0.066 A 
HETATM    4  C4  UNL     1     -33.594  17.891  -0.994  1.00 20.00     0.019 C 
HETATM    5  C6  UNL     1     -33.031  16.712  -3.167  1.00 20.00     0.061 A 
HETATM    6  C7  UNL     1     -33.851  15.680  -3.972  1.00 20.00     0.066 A 
HETATM    7  C8  UNL     1     -33.027  14.458  -4.364  1.00 20.00     0.031 C 
ENDROOT
BRANCH   6   8
HETATM    8  C5  UNL     1     -34.465  16.304  -5.195  1.00 20.00     0.271 C 
HETATM    9  O10 UNL     1     -35.114  15.686  -6.028  1.00 20.00    -0.264 OA
BRANCH   8  10
HETATM   10  O11 UNL     1     -34.182  17.637  -5.217  1.00 20.00    -0.326 OA
HETATM   11  C9  UNL     1     -35.306  18.501  -5.414  1.00 20.00     0.213 C 
ENDBRANCH   8  10
ENDBRANCH   6   8
TORSDOF 2
ENDMDL
MODEL 8
REMARK VINA RESULT:      -4.3     17.435     18.076
REMARK  2 active torsions:
REMARK  status: ('A' for Active; 'I' for Inactive)
REMARK    1  A    between atoms: C5_5  and  C7_7 
REMARK    2  A    between atoms: C5_5  and  O11_11 
ROOT
HETATM    1  C1  UNL     1     -33.306  16.963  -2.015  1.00 20.00     0.003 A 
HETATM    2  C2  UNL     1     -33.121  16.545  -3.270  1.00 20.00    -0.007 A 
HETATM    3  C3  UNL     1     -34.688  16.848  -1.633  1.00 20.00    -0.066 A 
HETATM    4  C4  UNL     1     -35.189  17.124  -0.426  1.00 20.00     0.019 C 
HETATM    5  C6  UNL     1     -35.468  16.365  -2.829  1.00 20.00     0.061 A 
HETATM    6  C7  UNL     1     -34.396  16.063  -3.900  1.00 20.00     0.066 A 
HETATM    7  C8  UNL     1     -34.690  16.749  -5.229  1.00 20.00     0.031 C 
ENDROOT
BRANCH   6   8
HETATM    8  C5  UNL     1     -34.233  14.581  -4.106  1.00 20.00     0.271 C 
HETATM    9  O10 UNL     1     -33.222  14.060  -4.557  1.00 20.00    -0.264 OA
BRANCH   8  10
HETATM   10  O11 UNL     1     -35.371  13.939  -3.717  1.00 20.00    -0.326 OA
HETATM   11  C9  UNL     1     -36.237  13.524  -4.778  1.00 20.00     0.213 C 
ENDBRANCH   8  10
ENDBRANCH   6   8
TORSDOF 2
ENDMDL
MODEL 9
REMARK VINA RESULT:      -4.3      1.685      2.441
REMARK  2 active torsions:
REMARK  status: ('A' for Active; 'I' for Inactive)
REMARK    1  A    between atoms: C5_5  and  C7_7 
REMARK    2  A    between atoms: C5_5  and  O11_11 
ROOT
HETATM    1  C1  UNL     1     -24.298  16.242  10.661  1.00 20.00     0.003 A 
HETATM    2  C2  UNL     1     -23.352  16.478   9.747  1.00 20.00    -0.007 A 
HETATM    3  C3  UNL     1     -24.667  17.454  11.342  1.00 20.00    -0.066 A 
HETATM    4  C4  UNL     1     -25.625  17.569  12.267  1.00 20.00     0.019 C 
HETATM    5  C6  UNL     1     -23.786  18.567  10.834  1.00 20.00     0.061 A 
HETATM    6  C7  UNL     1     -22.973  17.929   9.686  1.00 20.00     0.066 A 
HETATM    7  C8  UNL     1     -21.473  18.151   9.842  1.00 20.00     0.031 C 
ENDROOT
BRANCH   6   8
HETATM    8  C5  UNL     1     -23.434  18.432   8.345  1.00 20.00     0.271 C 
HETATM    9  O10 UNL     1     -22.911  18.126   7.282  1.00 20.00    -0.264 OA
BRANCH   8  10
HETATM   10  O11 UNL     1     -24.501  19.263   8.512  1.00 20.00    -0.326 OA
HETATM   11  C9  UNL     1     -25.503  19.190   7.492  1.00 20.00     0.213 C 
ENDBRANCH   8  10
ENDBRANCH   6   8
TORSDOF 2
ENDMDL
