MODEL 1
REMARK VINA RESULT:      -5.0      0.000      0.000
REMARK  2 active torsions:
REMARK  status: ('A' for Active; 'I' for Inactive)
REMARK    1  A    between atoms: C4_4  and  C6_6 
REMARK    2  A    between atoms: C7_7  and  C9_9 
ROOT
HETATM    1  C1  UNL     1     -32.843  15.409  -3.719  1.00 20.00    -0.003 C 
HETATM    2  C2  UNL     1     -33.867  14.571  -4.287  1.00 20.00     0.011 C 
HETATM    3  C3  UNL     1     -33.142  16.453  -2.936  1.00 20.00    -0.021 C 
HETATM    4  C4  UNL     1     -35.153  14.713  -3.933  1.00 20.00    -0.012 C 
HETATM    5  C8  UNL     1     -34.562  16.840  -2.595  1.00 20.00     0.016 C 
HETATM    6  C9  UNL     1     -35.632  15.751  -2.942  1.00 20.00     0.051 C 
HETATM    7  C10 UNL     1     -34.661  17.234  -1.116  1.00 20.00     0.015 C 
ENDROOT
BRANCH   4   8
HETATM    8  C6  UNL     1     -36.093  13.741  -4.505  1.00 20.00     0.266 C 
HETATM    9  O11 UNL     1     -35.868  12.538  -4.523  1.00 20.00    -0.302 OA
ENDBRANCH   4   8
BRANCH   6  10
HETATM   10  C7  UNL     1     -36.892  16.436  -3.399  1.00 20.00    -0.027 C 
HETATM   11  C5  UNL     1     -36.918  17.447  -4.275  1.00 20.00     0.007 C 
ENDBRANCH   6  10
TORSDOF 2
ENDMDL
MODEL 2
REMARK VINA RESULT:      -4.8     16.054     17.997
REMARK  2 active torsions:
REMARK  status: ('A' for Active; 'I' for Inactive)
REMARK    1  A    between atoms: C4_4  and  C6_6 
REMARK    2  A    between atoms: C7_7  and  C9_9 
ROOT
HETATM    1  C1  UNL     1     -25.666  18.846  11.625  1.00 20.00    -0.003 C 
HETATM    2  C2  UNL     1     -25.626  19.129  10.214  1.00 20.00     0.011 C 
HETATM    3  C3  UNL     1     -24.699  18.147  12.230  1.00 20.00    -0.021 C 
HETATM    4  C4  UNL     1     -24.544  18.832   9.479  1.00 20.00    -0.012 C 
HETATM    5  C8  UNL     1     -23.503  17.593  11.490  1.00 20.00     0.016 C 
HETATM    6  C9  UNL     1     -23.307  18.174  10.050  1.00 20.00     0.051 C 
HETATM    7  C10 UNL     1     -22.230  17.789  12.323  1.00 20.00     0.015 C 
ENDROOT
BRANCH   4   8
HETATM    8  C6  UNL     1     -24.581  19.251   8.072  1.00 20.00     0.266 C 
HETATM    9  O11 UNL     1     -25.423  18.840   7.284  1.00 20.00    -0.302 OA
ENDBRANCH   4   8
BRANCH   6  10
HETATM   10  C7  UNL     1     -22.776  17.086   9.155  1.00 20.00    -0.027 C 
HETATM   11  C5  UNL     1     -21.560  17.102   8.599  1.00 20.00     0.007 C 
ENDBRANCH   6  10
TORSDOF 2
ENDMDL
MODEL 3
REMARK VINA RESULT:      -4.5      1.828      2.647
REMARK  2 active torsions:
REMARK  status: ('A' for Active; 'I' for Inactive)
REMARK    1  A    between atoms: C4_4  and  C6_6 
REMARK    2  A    between atoms: C7_7  and  C9_9 
ROOT
HETATM    1  C1  UNL     1     -34.012  16.100  -2.689  1.00 20.00    -0.003 C 
HETATM    2  C2  UNL     1     -34.804  14.967  -3.088  1.00 20.00     0.011 C 
HETATM    3  C3  UNL     1     -33.707  17.082  -3.547  1.00 20.00    -0.021 C 
HETATM    4  C4  UNL     1     -35.395  14.922  -4.291  1.00 20.00    -0.012 C 
HETATM    5  C8  UNL     1     -34.156  17.077  -4.989  1.00 20.00     0.016 C 
HETATM    6  C9  UNL     1     -35.269  16.026  -5.319  1.00 20.00     0.051 C 
HETATM    7  C10 UNL     1     -34.609  18.482  -5.406  1.00 20.00     0.015 C 
ENDROOT
BRANCH   4   8
HETATM    8  C6  UNL     1     -36.254  13.761  -4.549  1.00 20.00     0.266 C 
HETATM    9  O11 UNL     1     -35.841  12.609  -4.492  1.00 20.00    -0.302 OA
ENDBRANCH   4   8
BRANCH   6  10
HETATM   10  C7  UNL     1     -35.036  15.490  -6.705  1.00 20.00    -0.027 C 
HETATM   11  C5  UNL     1     -33.839  15.114  -7.170  1.00 20.00     0.007 C 
ENDBRANCH   6  10
TORSDOF 2
ENDMDL
MODEL 4
REMARK VINA RESULT:      -4.5      3.220      5.043
REMARK  2 active torsions:
REMARK  status: ('A' for Active; 'I' for Inactive)
REMARK    1  A    between atoms: C4_4  and  C6_6 
REMARK    2  A    between atoms: C7_7  and  C9_9 
ROOT
HETATM    1  C1  UNL     1     -34.994  17.403   0.093  1.00 20.00    -0.003 C 
HETATM    2  C2  UNL     1     -33.778  18.170   0.155  1.00 20.00     0.011 C 
HETATM    3  C3  UNL     1     -35.365  16.763  -1.022  1.00 20.00    -0.021 C 
HETATM    4  C4  UNL     1     -32.894  18.151  -0.853  1.00 20.00    -0.012 C 
HETATM    5  C8  UNL     1     -34.553  16.799  -2.296  1.00 20.00     0.016 C 
HETATM    6  C9  UNL     1     -33.099  17.353  -2.123  1.00 20.00     0.051 C 
HETATM    7  C10 UNL     1     -34.521  15.408  -2.941  1.00 20.00     0.015 C 
ENDROOT
BRANCH   4   8
HETATM    8  C6  UNL     1     -31.648  18.896  -0.637  1.00 20.00     0.266 C 
HETATM    9  O11 UNL     1     -30.558  18.345  -0.545  1.00 20.00    -0.302 OA
ENDBRANCH   4   8
BRANCH   6  10
HETATM   10  C7  UNL     1     -32.727  18.136  -3.353  1.00 20.00    -0.027 C 
HETATM   11  C5  UNL     1     -33.592  18.871  -4.061  1.00 20.00     0.007 C 
ENDBRANCH   6  10
TORSDOF 2
ENDMDL
MODEL 5
REMARK VINA RESULT:      -4.5      1.704      3.032
REMARK  2 active torsions:
REMARK  status: ('A' for Active; 'I' for Inactive)
REMARK    1  A    between atoms: C4_4  and  C6_6 
REMARK    2  A    between atoms: C7_7  and  C9_9 
ROOT
HETATM    1  C1  UNL     1     -34.897  15.137  -6.851  1.00 20.00    -0.003 C 
HETATM    2  C2  UNL     1     -36.130  15.100  -6.109  1.00 20.00     0.011 C 
HETATM    3  C3  UNL     1     -33.707  15.110  -6.238  1.00 20.00    -0.021 C 
HETATM    4  C4  UNL     1     -36.137  14.886  -4.785  1.00 20.00    -0.012 C 
HETATM    5  C8  UNL     1     -33.561  15.048  -4.735  1.00 20.00     0.016 C 
HETATM    6  C9  UNL     1     -34.877  14.685  -3.970  1.00 20.00     0.051 C 
HETATM    7  C10 UNL     1     -32.436  14.077  -4.353  1.00 20.00     0.015 C 
ENDROOT
BRANCH   4   8
HETATM    8  C6  UNL     1     -37.457  14.775  -4.153  1.00 20.00     0.266 C 
HETATM    9  O11 UNL     1     -38.225  13.851  -4.389  1.00 20.00    -0.302 OA
ENDBRANCH   4   8
BRANCH   6  10
HETATM   10  C7  UNL     1     -34.912  15.446  -2.673  1.00 20.00    -0.027 C 
HETATM   11  C5  UNL     1     -34.292  16.615  -2.475  1.00 20.00     0.007 C 
ENDBRANCH   6  10
TORSDOF 2
ENDMDL
MODEL 6
REMARK VINA RESULT:      -4.5      1.092      1.230
REMARK  2 active torsions:
REMARK  status: ('A' for Active; 'I' for Inactive)
REMARK    1  A    between atoms: C4_4  and  C6_6 
REMARK    2  A    between atoms: C7_7  and  C9_9 
ROOT
HETATM    1  C1  UNL     1     -33.599  14.577  -4.162  1.00 20.00    -0.003 C 
HETATM    2  C2  UNL     1     -34.999  14.339  -4.399  1.00 20.00     0.011 C 
HETATM    3  C3  UNL     1     -33.169  15.684  -3.545  1.00 20.00    -0.021 C 
HETATM    4  C4  UNL     1     -35.937  15.143  -3.878  1.00 20.00    -0.012 C 
HETATM    5  C8  UNL     1     -34.105  16.767  -3.059  1.00 20.00     0.016 C 
HETATM    6  C9  UNL     1     -35.614  16.354  -3.029  1.00 20.00     0.051 C 
HETATM    7  C10 UNL     1     -33.661  17.268  -1.680  1.00 20.00     0.015 C 
ENDROOT
BRANCH   4   8
HETATM    8  C6  UNL     1     -37.332  14.747  -4.109  1.00 20.00     0.266 C 
HETATM    9  O11 UNL     1     -37.649  13.611  -4.437  1.00 20.00    -0.302 OA
ENDBRANCH   4   8
BRANCH   6  10
HETATM   10  C7  UNL     1     -36.453  17.548  -3.398  1.00 20.00    -0.027 C 
HETATM   11  C5  UNL     1     -36.156  18.390  -4.394  1.00 20.00     0.007 C 
ENDBRANCH   6  10
TORSDOF 2
ENDMDL
MODEL 7
REMARK VINA RESULT:      -4.4      3.388      5.026
REMARK  2 active torsions:
REMARK  status: ('A' for Active; 'I' for Inactive)
REMARK    1  A    between atoms: C4_4  and  C6_6 
REMARK    2  A    between atoms: C7_7  and  C9_9 
ROOT
HETATM    1  C1  UNL     1     -34.052  16.167  -2.459  1.00 20.00    -0.003 C 
HETATM    2  C2  UNL     1     -32.892  16.986  -2.222  1.00 20.00     0.011 C 
HETATM    3  C3  UNL     1     -35.165  16.298  -1.727  1.00 20.00    -0.021 C 
HETATM    4  C4  UNL     1     -32.932  18.013  -1.360  1.00 20.00    -0.012 C 
HETATM    5  C8  UNL     1     -35.292  17.296  -0.600  1.00 20.00     0.016 C 
HETATM    6  C9  UNL     1     -34.166  18.383  -0.566  1.00 20.00     0.051 C 
HETATM    7  C10 UNL     1     -36.674  17.960  -0.636  1.00 20.00     0.015 C 
ENDROOT
BRANCH   4   8
HETATM    8  C6  UNL     1     -31.718  18.834  -1.272  1.00 20.00     0.266 C 
HETATM    9  O11 UNL     1     -30.696  18.442  -0.723  1.00 20.00    -0.302 OA
ENDBRANCH   4   8
BRANCH   6  10
HETATM   10  C7  UNL     1     -33.845  18.706   0.868  1.00 20.00    -0.027 C 
HETATM   11  C5  UNL     1     -33.948  17.829   1.873  1.00 20.00     0.007 C 
ENDBRANCH   6  10
TORSDOF 2
ENDMDL
MODEL 8
REMARK VINA RESULT:      -4.3      1.028      1.567
REMARK  2 active torsions:
REMARK  status: ('A' for Active; 'I' for Inactive)
REMARK    1  A    between atoms: C4_4  and  C6_6 
REMARK    2  A    between atoms: C7_7  and  C9_9 
ROOT
HETATM    1  C1  UNL     1     -32.631  17.209  -2.304  1.00 20.00    -0.003 C 
HETATM    2  C2  UNL     1     -32.932  16.197  -3.283  1.00 20.00     0.011 C 
HETATM    3  C3  UNL     1     -33.575  17.705  -1.494  1.00 20.00    -0.021 C 
HETATM    4  C4  UNL     1     -34.135  15.605  -3.322  1.00 20.00    -0.012 C 
HETATM    5  C8  UNL     1     -35.017  17.258  -1.546  1.00 20.00     0.016 C 
HETATM    6  C9  UNL     1     -35.261  15.950  -2.372  1.00 20.00     0.051 C 
HETATM    7  C10 UNL     1     -35.573  17.102  -0.125  1.00 20.00     0.015 C 
ENDROOT
BRANCH   4   8
HETATM    8  C6  UNL     1     -34.294  14.523  -4.301  1.00 20.00     0.266 C 
HETATM    9  O11 UNL     1     -34.547  13.370  -3.974  1.00 20.00    -0.302 OA
ENDBRANCH   4   8
BRANCH   6  10
HETATM   10  C7  UNL     1     -36.586  16.061  -3.077  1.00 20.00    -0.027 C 
HETATM   11  C5  UNL     1     -36.992  17.150  -3.739  1.00 20.00     0.007 C 
ENDBRANCH   6  10
TORSDOF 2
ENDMDL
MODEL 9
REMARK VINA RESULT:      -4.3     15.907     17.831
REMARK  2 active torsions:
REMARK  status: ('A' for Active; 'I' for Inactive)
REMARK    1  A    between atoms: C4_4  and  C6_6 
REMARK    2  A    between atoms: C7_7  and  C9_9 
ROOT
HETATM    1  C1  UNL     1     -24.952  15.973  11.952  1.00 20.00    -0.003 C 
HETATM    2  C2  UNL     1     -25.904  17.040  12.118  1.00 20.00     0.011 C 
HETATM    3  C3  UNL     1     -23.946  16.059  11.072  1.00 20.00    -0.021 C 
HETATM    4  C4  UNL     1     -25.735  18.221  11.507  1.00 20.00    -0.012 C 
HETATM    5  C8  UNL     1     -23.737  17.263  10.184  1.00 20.00     0.016 C 
HETATM    6  C9  UNL     1     -24.566  18.526  10.596  1.00 20.00     0.051 C 
HETATM    7  C10 UNL     1     -22.244  17.608  10.106  1.00 20.00     0.015 C 
ENDROOT
BRANCH   4   8
HETATM    8  C6  UNL     1     -26.720  19.263  11.825  1.00 20.00     0.266 C 
HETATM    9  O11 UNL     1     -27.888  19.199  11.462  1.00 20.00    -0.302 OA
ENDBRANCH   4   8
BRANCH   6  10
HETATM   10  C7  UNL     1     -24.989  19.257   9.351  1.00 20.00    -0.027 C 
HETATM   11  C5  UNL     1     -25.125  18.677   8.153  1.00 20.00     0.007 C 
ENDBRANCH   6  10
TORSDOF 2
ENDMDL
