MODEL 1
REMARK VINA RESULT:      -5.7      0.000      0.000
REMARK  2 active torsions:
REMARK  status: ('A' for Active; 'I' for Inactive)
REMARK    1  A    between atoms: C3_3  and  C5_5 
REMARK    2  A    between atoms: C5_5  and  C9_9 
ROOT
HETATM    1  C1  UNL     1     -35.098  15.476  -2.790  1.00 20.00    -0.012 A 
HETATM    2  C2  UNL     1     -34.289  17.349  -1.313  1.00 20.00    -0.020 A 
HETATM    3  C3  UNL     1     -33.938  15.522  -3.460  1.00 20.00    -0.003 A 
HETATM    4  C4  UNL     1     -33.123  17.398  -1.981  1.00 20.00    -0.083 A 
HETATM    5  C6  UNL     1     -35.398  16.391  -1.639  1.00 20.00     0.055 A 
HETATM    6  C7  UNL     1     -32.825  16.476  -3.140  1.00 20.00     0.075 A 
HETATM    7  C8  UNL     1     -32.041  18.374  -1.620  1.00 20.00     0.043 C 
ENDROOT
BRANCH   3   8
HETATM    8  C5  UNL     1     -33.752  14.582  -4.568  1.00 20.00     0.261 C 
HETATM    9  O10 UNL     1     -33.204  13.494  -4.387  1.00 20.00    -0.283 OA
BRANCH   8  10
HETATM   10  C9  UNL     1     -34.254  15.004  -5.920  1.00 20.00     0.455 C 
HETATM   11  F11 UNL     1     -34.543  16.330  -5.973  1.00 20.00    -0.163 F 
HETATM   12  F12 UNL     1     -35.386  14.342  -6.267  1.00 20.00    -0.163 F 
HETATM   13  F13 UNL     1     -33.341  14.762  -6.895  1.00 20.00    -0.163 F 
ENDBRANCH   8  10
ENDBRANCH   3   8
TORSDOF 2
ENDMDL
MODEL 2
REMARK VINA RESULT:      -5.5      0.901      1.913
REMARK  2 active torsions:
REMARK  status: ('A' for Active; 'I' for Inactive)
REMARK    1  A    between atoms: C3_3  and  C5_5 
REMARK    2  A    between atoms: C5_5  and  C9_9 
ROOT
HETATM    1  C1  UNL     1     -33.092  16.102  -3.442  1.00 20.00    -0.012 A 
HETATM    2  C2  UNL     1     -33.641  17.546  -1.453  1.00 20.00    -0.020 A 
HETATM    3  C3  UNL     1     -34.275  15.488  -3.305  1.00 20.00    -0.003 A 
HETATM    4  C4  UNL     1     -34.829  16.934  -1.313  1.00 20.00    -0.083 A 
HETATM    5  C6  UNL     1     -32.647  17.203  -2.525  1.00 20.00     0.055 A 
HETATM    6  C7  UNL     1     -35.274  15.826  -2.238  1.00 20.00     0.075 A 
HETATM    7  C8  UNL     1     -35.793  17.311  -0.225  1.00 20.00     0.043 C 
ENDROOT
BRANCH   3   8
HETATM    8  C5  UNL     1     -34.608  14.426  -4.258  1.00 20.00     0.261 C 
HETATM    9  O10 UNL     1     -34.652  13.248  -3.899  1.00 20.00    -0.283 OA
BRANCH   8  10
HETATM   10  C9  UNL     1     -34.888  14.835  -5.676  1.00 20.00     0.455 C 
HETATM   11  F11 UNL     1     -35.355  16.107  -5.764  1.00 20.00    -0.163 F 
HETATM   12  F12 UNL     1     -35.816  14.035  -6.258  1.00 20.00    -0.163 F 
HETATM   13  F13 UNL     1     -33.774  14.773  -6.449  1.00 20.00    -0.163 F 
ENDBRANCH   8  10
ENDBRANCH   3   8
TORSDOF 2
ENDMDL
MODEL 3
REMARK VINA RESULT:      -5.5      0.876      2.201
REMARK  2 active torsions:
REMARK  status: ('A' for Active; 'I' for Inactive)
REMARK    1  A    between atoms: C3_3  and  C5_5 
REMARK    2  A    between atoms: C5_5  and  C9_9 
ROOT
HETATM    1  C1  UNL     1     -33.038  16.118  -3.420  1.00 20.00    -0.012 A 
HETATM    2  C2  UNL     1     -33.652  17.576  -1.460  1.00 20.00    -0.020 A 
HETATM    3  C3  UNL     1     -34.206  15.474  -3.289  1.00 20.00    -0.003 A 
HETATM    4  C4  UNL     1     -34.825  16.933  -1.325  1.00 20.00    -0.083 A 
HETATM    5  C6  UNL     1     -32.635  17.244  -2.513  1.00 20.00     0.055 A 
HETATM    6  C7  UNL     1     -35.228  15.800  -2.239  1.00 20.00     0.075 A 
HETATM    7  C8  UNL     1     -35.813  17.299  -0.256  1.00 20.00     0.043 C 
ENDROOT
BRANCH   3   8
HETATM    8  C5  UNL     1     -34.497  14.390  -4.230  1.00 20.00     0.261 C 
HETATM    9  O10 UNL     1     -34.404  13.211  -3.882  1.00 20.00    -0.283 OA
BRANCH   8  10
HETATM   10  C9  UNL     1     -34.907  14.777  -5.622  1.00 20.00     0.455 C 
HETATM   11  F11 UNL     1     -35.863  13.955  -6.126  1.00 20.00    -0.163 F 
HETATM   12  F12 UNL     1     -33.862  14.738  -6.486  1.00 20.00    -0.163 F 
HETATM   13  F13 UNL     1     -35.410  16.037  -5.668  1.00 20.00    -0.163 F 
ENDBRANCH   8  10
ENDBRANCH   3   8
TORSDOF 2
ENDMDL
MODEL 4
REMARK VINA RESULT:      -5.3     11.113     11.827
REMARK  2 active torsions:
REMARK  status: ('A' for Active; 'I' for Inactive)
REMARK    1  A    between atoms: C3_3  and  C5_5 
REMARK    2  A    between atoms: C5_5  and  C9_9 
ROOT
HETATM    1  C1  UNL     1     -33.089   5.376   2.317  1.00 20.00    -0.012 A 
HETATM    2  C2  UNL     1     -34.524   4.315   4.095  1.00 20.00    -0.020 A 
HETATM    3  C3  UNL     1     -32.999   6.481   3.070  1.00 20.00    -0.003 A 
HETATM    4  C4  UNL     1     -34.436   5.422   4.853  1.00 20.00    -0.083 A 
HETATM    5  C6  UNL     1     -33.866   4.168   2.754  1.00 20.00     0.055 A 
HETATM    6  C7  UNL     1     -33.653   6.636   4.411  1.00 20.00     0.075 A 
HETATM    7  C8  UNL     1     -35.110   5.525   6.190  1.00 20.00     0.043 C 
ENDROOT
BRANCH   3   8
HETATM    8  C5  UNL     1     -32.214   7.602   2.545  1.00 20.00     0.261 C 
HETATM    9  O10 UNL     1     -31.326   8.122   3.223  1.00 20.00    -0.283 OA
BRANCH   8  10
HETATM   10  C9  UNL     1     -32.538   8.080   1.158  1.00 20.00     0.455 C 
HETATM   11  F11 UNL     1     -33.683   7.532   0.677  1.00 20.00    -0.163 F 
HETATM   12  F12 UNL     1     -31.555   7.772   0.275  1.00 20.00    -0.163 F 
HETATM   13  F13 UNL     1     -32.700   9.427   1.114  1.00 20.00    -0.163 F 
ENDBRANCH   8  10
ENDBRANCH   3   8
TORSDOF 2
ENDMDL
MODEL 5
REMARK VINA RESULT:      -5.1      1.737      2.025
REMARK  2 active torsions:
REMARK  status: ('A' for Active; 'I' for Inactive)
REMARK    1  A    between atoms: C3_3  and  C5_5 
REMARK    2  A    between atoms: C5_5  and  C9_9 
ROOT
HETATM    1  C1  UNL     1     -35.156  16.412  -2.141  1.00 20.00    -0.012 A 
HETATM    2  C2  UNL     1     -34.013  17.709  -0.309  1.00 20.00    -0.020 A 
HETATM    3  C3  UNL     1     -34.106  16.644  -2.941  1.00 20.00    -0.003 A 
HETATM    4  C4  UNL     1     -32.958  17.944  -1.108  1.00 20.00    -0.083 A 
HETATM    5  C6  UNL     1     -35.221  16.923  -0.731  1.00 20.00     0.055 A 
HETATM    6  C7  UNL     1     -32.896  17.428  -2.527  1.00 20.00     0.075 A 
HETATM    7  C8  UNL     1     -31.770  18.735  -0.643  1.00 20.00     0.043 C 
ENDROOT
BRANCH   3   8
HETATM    8  C5  UNL     1     -34.149  16.098  -4.300  1.00 20.00     0.261 C 
HETATM    9  O10 UNL     1     -34.701  16.716  -5.212  1.00 20.00    -0.283 OA
BRANCH   8  10
HETATM   10  C9  UNL     1     -33.498  14.762  -4.526  1.00 20.00     0.455 C 
HETATM   11  F11 UNL     1     -32.219  14.728  -4.071  1.00 20.00    -0.163 F 
HETATM   12  F12 UNL     1     -33.455  14.439  -5.842  1.00 20.00    -0.163 F 
HETATM   13  F13 UNL     1     -34.165  13.762  -3.895  1.00 20.00    -0.163 F 
ENDBRANCH   8  10
ENDBRANCH   3   8
TORSDOF 2
ENDMDL
MODEL 6
REMARK VINA RESULT:      -4.8      1.819      2.683
REMARK  2 active torsions:
REMARK  status: ('A' for Active; 'I' for Inactive)
REMARK    1  A    between atoms: C3_3  and  C5_5 
REMARK    2  A    between atoms: C5_5  and  C9_9 
ROOT
HETATM    1  C1  UNL     1     -32.873  17.512  -2.874  1.00 20.00    -0.012 A 
HETATM    2  C2  UNL     1     -33.501  18.074  -0.501  1.00 20.00    -0.020 A 
HETATM    3  C3  UNL     1     -33.981  16.765  -2.976  1.00 20.00    -0.003 A 
HETATM    4  C4  UNL     1     -34.614  17.326  -0.599  1.00 20.00    -0.083 A 
HETATM    5  C6  UNL     1     -32.514  18.250  -1.618  1.00 20.00     0.055 A 
HETATM    6  C7  UNL     1     -34.973  16.584  -1.865  1.00 20.00     0.075 A 
HETATM    7  C8  UNL     1     -35.575  17.178   0.546  1.00 20.00     0.043 C 
ENDROOT
BRANCH   3   8
HETATM    8  C5  UNL     1     -34.233  16.088  -4.250  1.00 20.00     0.261 C 
HETATM    9  O10 UNL     1     -34.992  16.579  -5.087  1.00 20.00    -0.283 OA
BRANCH   8  10
HETATM   10  C9  UNL     1     -33.530  14.781  -4.486  1.00 20.00     0.455 C 
HETATM   11  F11 UNL     1     -33.438  14.475  -5.806  1.00 20.00    -0.163 F 
HETATM   12  F12 UNL     1     -34.174  13.747  -3.889  1.00 20.00    -0.163 F 
HETATM   13  F13 UNL     1     -32.264  14.793  -3.998  1.00 20.00    -0.163 F 
ENDBRANCH   8  10
ENDBRANCH   3   8
TORSDOF 2
ENDMDL
MODEL 7
REMARK VINA RESULT:      -4.8      2.765      3.702
REMARK  2 active torsions:
REMARK  status: ('A' for Active; 'I' for Inactive)
REMARK    1  A    between atoms: C3_3  and  C5_5 
REMARK    2  A    between atoms: C5_5  and  C9_9 
ROOT
HETATM    1  C1  UNL     1     -34.941  14.552  -4.718  1.00 20.00    -0.012 A 
HETATM    2  C2  UNL     1     -33.199  15.750  -3.349  1.00 20.00    -0.020 A 
HETATM    3  C3  UNL     1     -35.898  15.123  -3.973  1.00 20.00    -0.003 A 
HETATM    4  C4  UNL     1     -34.156  16.326  -2.600  1.00 20.00    -0.083 A 
HETATM    5  C6  UNL     1     -33.481  14.807  -4.482  1.00 20.00     0.055 A 
HETATM    6  C7  UNL     1     -35.625  16.067  -2.839  1.00 20.00     0.075 A 
HETATM    7  C8  UNL     1     -33.828  17.264  -1.475  1.00 20.00     0.043 C 
ENDROOT
BRANCH   3   8
HETATM    8  C5  UNL     1     -37.292  14.803  -4.292  1.00 20.00     0.261 C 
HETATM    9  O10 UNL     1     -37.672  13.633  -4.354  1.00 20.00    -0.283 OA
BRANCH   8  10
HETATM   10  C9  UNL     1     -38.225  15.955  -4.536  1.00 20.00     0.455 C 
HETATM   11  F11 UNL     1     -39.293  15.602  -5.296  1.00 20.00    -0.163 F 
HETATM   12  F12 UNL     1     -37.607  16.977  -5.179  1.00 20.00    -0.163 F 
HETATM   13  F13 UNL     1     -38.719  16.459  -3.376  1.00 20.00    -0.163 F 
ENDBRANCH   8  10
ENDBRANCH   3   8
TORSDOF 2
ENDMDL
MODEL 8
REMARK VINA RESULT:      -4.7      2.975      4.254
REMARK  2 active torsions:
REMARK  status: ('A' for Active; 'I' for Inactive)
REMARK    1  A    between atoms: C3_3  and  C5_5 
REMARK    2  A    between atoms: C5_5  and  C9_9 
ROOT
HETATM    1  C1  UNL     1     -31.930  18.168  -1.201  1.00 20.00    -0.012 A 
HETATM    2  C2  UNL     1     -31.706  18.439   1.293  1.00 20.00    -0.020 A 
HETATM    3  C3  UNL     1     -33.255  18.029  -1.052  1.00 20.00    -0.003 A 
HETATM    4  C4  UNL     1     -33.035  18.300   1.447  1.00 20.00    -0.083 A 
HETATM    5  C6  UNL     1     -31.010  18.389  -0.036  1.00 20.00     0.055 A 
HETATM    6  C7  UNL     1     -33.958  18.077   0.272  1.00 20.00     0.075 A 
HETATM    7  C8  UNL     1     -33.688  18.357   2.797  1.00 20.00     0.043 C 
ENDROOT
BRANCH   3   8
HETATM    8  C5  UNL     1     -34.058  17.817  -2.259  1.00 20.00     0.261 C 
HETATM    9  O10 UNL     1     -34.477  18.773  -2.914  1.00 20.00    -0.283 OA
BRANCH   8  10
HETATM   10  C9  UNL     1     -34.345  16.396  -2.655  1.00 20.00     0.455 C 
HETATM   11  F11 UNL     1     -35.044  15.726  -1.703  1.00 20.00    -0.163 F 
HETATM   12  F12 UNL     1     -33.205  15.693  -2.871  1.00 20.00    -0.163 F 
HETATM   13  F13 UNL     1     -35.074  16.328  -3.798  1.00 20.00    -0.163 F 
ENDBRANCH   8  10
ENDBRANCH   3   8
TORSDOF 2
ENDMDL
MODEL 9
REMARK VINA RESULT:      -4.7      2.538      3.434
REMARK  2 active torsions:
REMARK  status: ('A' for Active; 'I' for Inactive)
REMARK    1  A    between atoms: C3_3  and  C5_5 
REMARK    2  A    between atoms: C5_5  and  C9_9 
ROOT
HETATM    1  C1  UNL     1     -34.188  17.863  -0.863  1.00 20.00    -0.012 A 
HETATM    2  C2  UNL     1     -32.931  18.447   1.241  1.00 20.00    -0.020 A 
HETATM    3  C3  UNL     1     -33.027  17.845  -1.533  1.00 20.00    -0.003 A 
HETATM    4  C4  UNL     1     -31.765  18.429   0.572  1.00 20.00    -0.083 A 
HETATM    5  C6  UNL     1     -34.262  18.169   0.605  1.00 20.00     0.055 A 
HETATM    6  C7  UNL     1     -31.693  18.121  -0.905  1.00 20.00     0.075 A 
HETATM    7  C8  UNL     1     -30.456  18.713   1.250  1.00 20.00     0.043 C 
ENDROOT
BRANCH   3   8
HETATM    8  C5  UNL     1     -33.071  17.535  -2.965  1.00 20.00     0.261 C 
HETATM    9  O10 UNL     1     -32.776  18.387  -3.804  1.00 20.00    -0.283 OA
BRANCH   8  10
HETATM   10  C9  UNL     1     -33.489  16.145  -3.356  1.00 20.00     0.455 C 
HETATM   11  F11 UNL     1     -32.434  15.374  -3.727  1.00 20.00    -0.163 F 
HETATM   12  F12 UNL     1     -34.354  16.154  -4.400  1.00 20.00    -0.163 F 
HETATM   13  F13 UNL     1     -34.108  15.498  -2.336  1.00 20.00    -0.163 F 
ENDBRANCH   8  10
ENDBRANCH   3   8
TORSDOF 2
ENDMDL
