MODEL 1
REMARK VINA RESULT:      -4.5      0.000      0.000
REMARK  1 active torsions:
REMARK  status: ('A' for Active; 'I' for Inactive)
REMARK    1  A    between atoms: C1_1  and  C4_4 
ROOT
HETATM    1  C2  UNL     1     -33.585  14.764  -4.069  1.00 20.00     0.037 C 
HETATM    2  C3  UNL     1     -34.972  16.248  -4.742  1.00 20.00     0.037 C 
HETATM    3  C4  UNL     1     -34.825  14.728  -4.993  1.00 20.00     0.058 C 
HETATM    4  C5  UNL     1     -34.117  16.089  -3.455  1.00 20.00     0.035 C 
HETATM    5  C7  UNL     1     -33.041  17.163  -3.308  1.00 20.00     0.032 C 
HETATM    6 CL9  UNL     1     -35.049  15.914  -1.924  1.00 20.00    -0.120 Cl
ENDROOT
BRANCH   3   7
HETATM    7  C1  UNL     1     -35.993  13.820  -4.587  1.00 20.00     0.127 C 
HETATM    8  C6  UNL     1     -37.325  14.485  -4.370  1.00 20.00     0.091 C 
HETATM    9  O8  UNL     1     -35.848  12.607  -4.449  1.00 20.00    -0.298 OA
ENDBRANCH   3   7
TORSDOF 1
ENDMDL
MODEL 2
REMARK VINA RESULT:      -4.3     18.101     18.769
REMARK  1 active torsions:
REMARK  status: ('A' for Active; 'I' for Inactive)
REMARK    1  A    between atoms: C1_1  and  C4_4 
ROOT
HETATM    1  C2  UNL     1     -24.628  18.550  10.175  1.00 20.00     0.037 C 
HETATM    2  C3  UNL     1     -23.952  16.523  10.287  1.00 20.00     0.037 C 
HETATM    3  C4  UNL     1     -23.815  17.641   9.225  1.00 20.00     0.058 C 
HETATM    4  C5  UNL     1     -24.245  17.613  11.354  1.00 20.00     0.035 C 
HETATM    5  C7  UNL     1     -25.424  17.269  12.262  1.00 20.00     0.032 C 
HETATM    6 CL9  UNL     1     -22.827  18.140  12.332  1.00 20.00    -0.120 Cl
ENDROOT
BRANCH   3   7
HETATM    7  C1  UNL     1     -22.400  18.092   8.841  1.00 20.00     0.127 C 
HETATM    8  C6  UNL     1     -21.472  17.034   8.310  1.00 20.00     0.091 C 
HETATM    9  O8  UNL     1     -22.042  19.263   8.959  1.00 20.00    -0.298 OA
ENDBRANCH   3   7
TORSDOF 1
ENDMDL
MODEL 3
REMARK VINA RESULT:      -4.3      1.491      1.809
REMARK  1 active torsions:
REMARK  status: ('A' for Active; 'I' for Inactive)
REMARK    1  A    between atoms: C1_1  and  C4_4 
ROOT
HETATM    1  C2  UNL     1     -35.104  15.303  -2.751  1.00 20.00     0.037 C 
HETATM    2  C3  UNL     1     -33.669  14.836  -4.267  1.00 20.00     0.037 C 
HETATM    3  C4  UNL     1     -34.991  14.178  -3.807  1.00 20.00     0.058 C 
HETATM    4  C5  UNL     1     -34.131  16.162  -3.603  1.00 20.00     0.035 C 
HETATM    5  C7  UNL     1     -33.038  16.839  -2.778  1.00 20.00     0.032 C 
HETATM    6 CL9  UNL     1     -34.913  17.349  -4.710  1.00 20.00    -0.120 Cl
ENDROOT
BRANCH   3   7
HETATM    7  C1  UNL     1     -36.121  14.049  -4.836  1.00 20.00     0.127 C 
HETATM    8  C6  UNL     1     -35.783  14.395  -6.261  1.00 20.00     0.091 C 
HETATM    9  O8  UNL     1     -37.248  13.677  -4.513  1.00 20.00    -0.298 OA
ENDBRANCH   3   7
TORSDOF 1
ENDMDL
MODEL 4
REMARK VINA RESULT:      -4.2      1.441      1.669
REMARK  1 active torsions:
REMARK  status: ('A' for Active; 'I' for Inactive)
REMARK    1  A    between atoms: C1_1  and  C4_4 
ROOT
HETATM    1  C2  UNL     1     -35.074  15.412  -2.779  1.00 20.00     0.037 C 
HETATM    2  C3  UNL     1     -33.659  14.764  -4.248  1.00 20.00     0.037 C 
HETATM    3  C4  UNL     1     -35.029  14.227  -3.771  1.00 20.00     0.058 C 
HETATM    4  C5  UNL     1     -34.034  16.154  -3.664  1.00 20.00     0.035 C 
HETATM    5  C7  UNL     1     -32.905  16.798  -2.861  1.00 20.00     0.032 C 
HETATM    6 CL9  UNL     1     -34.720  17.330  -4.844  1.00 20.00    -0.120 Cl
ENDROOT
BRANCH   3   7
HETATM    7  C1  UNL     1     -36.154  14.119  -4.808  1.00 20.00     0.127 C 
HETATM    8  C6  UNL     1     -37.534  14.509  -4.354  1.00 20.00     0.091 C 
HETATM    9  O8  UNL     1     -35.938  13.734  -5.957  1.00 20.00    -0.298 OA
ENDBRANCH   3   7
TORSDOF 1
ENDMDL
MODEL 5
REMARK VINA RESULT:      -4.1      1.558      1.906
REMARK  1 active torsions:
REMARK  status: ('A' for Active; 'I' for Inactive)
REMARK    1  A    between atoms: C1_1  and  C4_4 
ROOT
HETATM    1  C2  UNL     1     -34.824  16.446  -4.500  1.00 20.00     0.037 C 
HETATM    2  C3  UNL     1     -34.993  15.136  -2.816  1.00 20.00     0.037 C 
HETATM    3  C4  UNL     1     -35.815  15.323  -4.113  1.00 20.00     0.058 C 
HETATM    4  C5  UNL     1     -33.793  15.837  -3.510  1.00 20.00     0.035 C 
HETATM    5  C7  UNL     1     -33.110  16.881  -2.628  1.00 20.00     0.032 C 
HETATM    6 CL9  UNL     1     -32.573  14.734  -4.245  1.00 20.00    -0.120 Cl
ENDROOT
BRANCH   3   7
HETATM    7  C1  UNL     1     -35.939  14.122  -5.060  1.00 20.00     0.127 C 
HETATM    8  C6  UNL     1     -35.837  14.407  -6.534  1.00 20.00     0.091 C 
HETATM    9  O8  UNL     1     -36.111  12.981  -4.635  1.00 20.00    -0.298 OA
ENDBRANCH   3   7
TORSDOF 1
ENDMDL
MODEL 6
REMARK VINA RESULT:      -4.0      1.153      1.286
REMARK  1 active torsions:
REMARK  status: ('A' for Active; 'I' for Inactive)
REMARK    1  A    between atoms: C1_1  and  C4_4 
ROOT
HETATM    1  C2  UNL     1     -34.728  14.294  -4.034  1.00 20.00     0.037 C 
HETATM    2  C3  UNL     1     -35.124  16.285  -4.713  1.00 20.00     0.037 C 
HETATM    3  C4  UNL     1     -35.822  14.921  -4.929  1.00 20.00     0.058 C 
HETATM    4  C5  UNL     1     -34.446  15.703  -3.442  1.00 20.00     0.035 C 
HETATM    5  C7  UNL     1     -32.957  16.033  -3.346  1.00 20.00     0.032 C 
HETATM    6 CL9  UNL     1     -35.276  16.070  -1.886  1.00 20.00    -0.120 Cl
ENDROOT
BRANCH   3   7
HETATM    7  C1  UNL     1     -37.281  14.786  -4.474  1.00 20.00     0.127 C 
HETATM    8  C6  UNL     1     -38.027  16.063  -4.201  1.00 20.00     0.091 C 
HETATM    9  O8  UNL     1     -37.816  13.686  -4.342  1.00 20.00    -0.298 OA
ENDBRANCH   3   7
TORSDOF 1
ENDMDL
MODEL 7
REMARK VINA RESULT:      -3.8     10.300     11.905
REMARK  1 active torsions:
REMARK  status: ('A' for Active; 'I' for Inactive)
REMARK    1  A    between atoms: C1_1  and  C4_4 
ROOT
HETATM    1  C2  UNL     1     -43.298   6.836  -1.507  1.00 20.00     0.037 C 
HETATM    2  C3  UNL     1     -41.196   6.700  -1.133  1.00 20.00     0.037 C 
HETATM    3  C4  UNL     1     -42.189   7.881  -1.244  1.00 20.00     0.058 C 
HETATM    4  C5  UNL     1     -42.396   5.755  -0.850  1.00 20.00     0.035 C 
HETATM    5  C7  UNL     1     -42.338   4.451  -1.642  1.00 20.00     0.032 C 
HETATM    6 CL9  UNL     1     -42.727   5.424   0.890  1.00 20.00    -0.120 Cl
ENDROOT
BRANCH   3   7
HETATM    7  C1  UNL     1     -42.347   8.799  -0.025  1.00 20.00     0.127 C 
HETATM    8  C6  UNL     1     -41.132   9.581   0.397  1.00 20.00     0.091 C 
HETATM    9  O8  UNL     1     -43.415   8.893   0.577  1.00 20.00    -0.298 OA
ENDBRANCH   3   7
TORSDOF 1
ENDMDL
MODEL 8
REMARK VINA RESULT:      -3.8      2.008      2.268
REMARK  1 active torsions:
REMARK  status: ('A' for Active; 'I' for Inactive)
REMARK    1  A    between atoms: C1_1  and  C4_4 
ROOT
HETATM    1  C2  UNL     1     -35.356  15.210  -3.120  1.00 20.00     0.037 C 
HETATM    2  C3  UNL     1     -33.307  15.738  -3.438  1.00 20.00     0.037 C 
HETATM    3  C4  UNL     1     -34.241  14.662  -4.040  1.00 20.00     0.058 C 
HETATM    4  C5  UNL     1     -34.562  16.541  -2.999  1.00 20.00     0.035 C 
HETATM    5  C7  UNL     1     -34.474  17.066  -1.568  1.00 20.00     0.032 C 
HETATM    6 CL9  UNL     1     -35.074  17.852  -4.123  1.00 20.00    -0.120 Cl
ENDROOT
BRANCH   3   7
HETATM    7  C1  UNL     1     -34.485  14.694  -5.555  1.00 20.00     0.127 C 
HETATM    8  C6  UNL     1     -35.915  14.796  -6.009  1.00 20.00     0.091 C 
HETATM    9  O8  UNL     1     -33.555  14.641  -6.359  1.00 20.00    -0.298 OA
ENDBRANCH   3   7
TORSDOF 1
ENDMDL
MODEL 9
REMARK VINA RESULT:      -3.7     10.177     11.519
REMARK  1 active torsions:
REMARK  status: ('A' for Active; 'I' for Inactive)
REMARK    1  A    between atoms: C1_1  and  C4_4 
ROOT
HETATM    1  C2  UNL     1     -40.918   7.020   0.678  1.00 20.00     0.037 C 
HETATM    2  C3  UNL     1     -41.513   7.641  -1.281  1.00 20.00     0.037 C 
HETATM    3  C4  UNL     1     -41.252   6.263  -0.628  1.00 20.00     0.058 C 
HETATM    4  C5  UNL     1     -41.709   8.243   0.137  1.00 20.00     0.035 C 
HETATM    5  C7  UNL     1     -40.980   9.571   0.336  1.00 20.00     0.032 C 
HETATM    6 CL9  UNL     1     -43.417   8.370   0.695  1.00 20.00    -0.120 Cl
ENDROOT
BRANCH   3   7
HETATM    7  C1  UNL     1     -42.410   5.257  -0.596  1.00 20.00     0.127 C 
HETATM    8  C6  UNL     1     -42.777   4.603  -1.900  1.00 20.00     0.091 C 
HETATM    9  O8  UNL     1     -43.009   4.996   0.447  1.00 20.00    -0.298 OA
ENDBRANCH   3   7
TORSDOF 1
ENDMDL
