MODEL 1
REMARK VINA RESULT:      -4.5      0.000      0.000
REMARK  3 active torsions:
REMARK  status: ('A' for Active; 'I' for Inactive)
REMARK    1  A    between atoms: C1_1  and  C8_8 
REMARK    2  A    between atoms: C8_8  and  C9_9 
REMARK    3  A    between atoms: C9_9  and  C10_10 
ROOT
HETATM    1  C8  UNL     1     -32.580  18.370  -1.996  1.00 20.00     0.055 C 
ENDROOT
BRANCH   1   2
HETATM    2  C1  UNL     1     -31.969  18.458  -0.637  1.00 20.00     0.006 C 
HETATM    3  C2  UNL     1     -32.819  18.724   0.565  1.00 20.00     0.056 C 
HETATM    4  C3  UNL     1     -31.860  18.278   1.641  1.00 20.00     0.027 C 
HETATM    5  C4  UNL     1     -30.504  18.544   1.012  1.00 20.00     0.149 C 
HETATM    6  N11 UNL     1     -30.690  18.347  -0.440  1.00 20.00    -0.298 NA
ENDBRANCH   1   2
BRANCH   1   7
HETATM    7  C9  UNL     1     -32.872  16.915  -2.374  1.00 20.00     0.014 C 
BRANCH   7   8
HETATM    8  C10 UNL     1     -34.368  16.569  -2.610  1.00 20.00    -0.051 C 
HETATM    9  C5  UNL     1     -35.162  16.608  -1.294  1.00 20.00     0.014 C 
HETATM   10  C6  UNL     1     -34.524  15.183  -3.256  1.00 20.00     0.014 C 
HETATM   11  C7  UNL     1     -34.959  17.623  -3.569  1.00 20.00     0.014 C 
ENDBRANCH   7   8
ENDBRANCH   1   7
TORSDOF 3
ENDMDL
MODEL 2
REMARK VINA RESULT:      -4.4      0.051      1.305
REMARK  3 active torsions:
REMARK  status: ('A' for Active; 'I' for Inactive)
REMARK    1  A    between atoms: C1_1  and  C8_8 
REMARK    2  A    between atoms: C8_8  and  C9_9 
REMARK    3  A    between atoms: C9_9  and  C10_10 
ROOT
HETATM    1  C8  UNL     1     -32.550  18.369  -1.990  1.00 20.00     0.055 C 
ENDROOT
BRANCH   1   2
HETATM    2  C1  UNL     1     -31.945  18.458  -0.628  1.00 20.00     0.006 C 
HETATM    3  C2  UNL     1     -32.802  18.719   0.571  1.00 20.00     0.056 C 
HETATM    4  C3  UNL     1     -31.846  18.275   1.651  1.00 20.00     0.027 C 
HETATM    5  C4  UNL     1     -30.489  18.547   1.027  1.00 20.00     0.149 C 
HETATM    6  N11 UNL     1     -30.667  18.351  -0.426  1.00 20.00    -0.298 NA
ENDBRANCH   1   2
BRANCH   1   7
HETATM    7  C9  UNL     1     -32.898  16.920  -2.344  1.00 20.00     0.014 C 
BRANCH   7   8
HETATM    8  C10 UNL     1     -34.406  16.626  -2.569  1.00 20.00    -0.051 C 
HETATM    9  C5  UNL     1     -35.036  17.654  -3.523  1.00 20.00     0.014 C 
HETATM   10  C6  UNL     1     -35.179  16.627  -1.240  1.00 20.00     0.014 C 
HETATM   11  C7  UNL     1     -34.532  15.227  -3.206  1.00 20.00     0.014 C 
ENDBRANCH   7   8
ENDBRANCH   1   7
TORSDOF 3
ENDMDL
MODEL 3
REMARK VINA RESULT:      -4.4      0.032      1.308
REMARK  3 active torsions:
REMARK  status: ('A' for Active; 'I' for Inactive)
REMARK    1  A    between atoms: C1_1  and  C8_8 
REMARK    2  A    between atoms: C8_8  and  C9_9 
REMARK    3  A    between atoms: C9_9  and  C10_10 
ROOT
HETATM    1  C8  UNL     1     -32.607  18.373  -1.976  1.00 20.00     0.055 C 
ENDROOT
BRANCH   1   2
HETATM    2  C1  UNL     1     -31.983  18.467  -0.623  1.00 20.00     0.006 C 
HETATM    3  C2  UNL     1     -32.820  18.747   0.585  1.00 20.00     0.056 C 
HETATM    4  C3  UNL     1     -31.854  18.301   1.655  1.00 20.00     0.027 C 
HETATM    5  C4  UNL     1     -30.502  18.553   1.011  1.00 20.00     0.149 C 
HETATM    6  N11 UNL     1     -30.703  18.348  -0.438  1.00 20.00    -0.298 NA
ENDBRANCH   1   2
BRANCH   1   7
HETATM    7  C9  UNL     1     -32.896  16.917  -2.349  1.00 20.00     0.014 C 
BRANCH   7   8
HETATM    8  C10 UNL     1     -34.385  16.576  -2.626  1.00 20.00    -0.051 C 
HETATM    9  C5  UNL     1     -34.530  15.175  -3.244  1.00 20.00     0.014 C 
HETATM   10  C6  UNL     1     -35.029  17.612  -3.563  1.00 20.00     0.014 C 
HETATM   11  C7  UNL     1     -35.141  16.597  -1.282  1.00 20.00     0.014 C 
ENDBRANCH   7   8
ENDBRANCH   1   7
TORSDOF 3
ENDMDL
MODEL 4
REMARK VINA RESULT:      -4.3      3.945      6.560
REMARK  3 active torsions:
REMARK  status: ('A' for Active; 'I' for Inactive)
REMARK    1  A    between atoms: C1_1  and  C8_8 
REMARK    2  A    between atoms: C8_8  and  C9_9 
REMARK    3  A    between atoms: C9_9  and  C10_10 
ROOT
HETATM    1  C8  UNL     1     -35.845  14.367  -3.993  1.00 20.00     0.055 C 
ENDROOT
BRANCH   1   2
HETATM    2  C1  UNL     1     -37.256  14.836  -4.118  1.00 20.00     0.006 C 
HETATM    3  C2  UNL     1     -37.602  16.277  -3.909  1.00 20.00     0.056 C 
HETATM    4  C3  UNL     1     -38.961  16.296  -4.565  1.00 20.00     0.027 C 
HETATM    5  C4  UNL     1     -39.450  14.873  -4.361  1.00 20.00     0.149 C 
HETATM    6  N11 UNL     1     -38.239  14.027  -4.374  1.00 20.00    -0.298 NA
ENDBRANCH   1   2
BRANCH   1   7
HETATM    7  C9  UNL     1     -35.043  15.277  -3.059  1.00 20.00     0.014 C 
BRANCH   7   8
HETATM    8  C10 UNL     1     -33.792  15.950  -3.685  1.00 20.00    -0.051 C 
HETATM    9  C5  UNL     1     -33.005  16.749  -2.634  1.00 20.00     0.014 C 
HETATM   10  C6  UNL     1     -34.181  16.883  -4.844  1.00 20.00     0.014 C 
HETATM   11  C7  UNL     1     -32.877  14.839  -4.240  1.00 20.00     0.014 C 
ENDBRANCH   7   8
ENDBRANCH   1   7
TORSDOF 3
ENDMDL
MODEL 5
REMARK VINA RESULT:      -4.1      3.111      5.999
REMARK  3 active torsions:
REMARK  status: ('A' for Active; 'I' for Inactive)
REMARK    1  A    between atoms: C1_1  and  C8_8 
REMARK    2  A    between atoms: C8_8  and  C9_9 
REMARK    3  A    between atoms: C9_9  and  C10_10 
ROOT
HETATM    1  C8  UNL     1     -34.089  14.654  -3.847  1.00 20.00     0.055 C 
ENDROOT
BRANCH   1   2
HETATM    2  C1  UNL     1     -34.810  14.863  -5.137  1.00 20.00     0.006 C 
HETATM    3  C2  UNL     1     -36.271  15.191  -5.150  1.00 20.00     0.056 C 
HETATM    4  C3  UNL     1     -36.384  15.724  -6.557  1.00 20.00     0.027 C 
HETATM    5  C4  UNL     1     -35.287  14.972  -7.289  1.00 20.00     0.149 C 
HETATM    6  N11 UNL     1     -34.225  14.737  -6.289  1.00 20.00    -0.298 NA
ENDBRANCH   1   2
BRANCH   1   7
HETATM    7  C9  UNL     1     -33.204  15.857  -3.510  1.00 20.00     0.014 C 
BRANCH   7   8
HETATM    8  C10 UNL     1     -33.869  16.958  -2.639  1.00 20.00    -0.051 C 
HETATM    9  C5  UNL     1     -34.955  16.365  -1.727  1.00 20.00     0.014 C 
HETATM   10  C6  UNL     1     -34.487  18.062  -3.513  1.00 20.00     0.014 C 
HETATM   11  C7  UNL     1     -32.778  17.591  -1.752  1.00 20.00     0.014 C 
ENDBRANCH   7   8
ENDBRANCH   1   7
TORSDOF 3
ENDMDL
MODEL 6
REMARK VINA RESULT:      -4.1      1.204      1.964
REMARK  3 active torsions:
REMARK  status: ('A' for Active; 'I' for Inactive)
REMARK    1  A    between atoms: C1_1  and  C8_8 
REMARK    2  A    between atoms: C8_8  and  C9_9 
REMARK    3  A    between atoms: C9_9  and  C10_10 
ROOT
HETATM    1  C8  UNL     1     -33.481  18.054  -1.237  1.00 20.00     0.055 C 
ENDROOT
BRANCH   1   2
HETATM    2  C1  UNL     1     -32.549  18.268  -0.091  1.00 20.00     0.006 C 
HETATM    3  C2  UNL     1     -31.070  18.327  -0.313  1.00 20.00     0.056 C 
HETATM    4  C3  UNL     1     -30.659  18.980   0.984  1.00 20.00     0.027 C 
HETATM    5  C4  UNL     1     -31.740  18.522   1.947  1.00 20.00     0.149 C 
HETATM    6  N11 UNL     1     -32.965  18.375   1.134  1.00 20.00    -0.298 NA
ENDBRANCH   1   2
BRANCH   1   7
HETATM    7  C9  UNL     1     -32.851  17.147  -2.297  1.00 20.00     0.014 C 
BRANCH   7   8
HETATM    8  C10 UNL     1     -33.849  16.391  -3.216  1.00 20.00    -0.051 C 
HETATM    9  C5  UNL     1     -33.170  15.202  -3.916  1.00 20.00     0.014 C 
HETATM   10  C6  UNL     1     -34.449  17.328  -4.277  1.00 20.00     0.014 C 
HETATM   11  C7  UNL     1     -34.996  15.851  -2.338  1.00 20.00     0.014 C 
ENDBRANCH   7   8
ENDBRANCH   1   7
TORSDOF 3
ENDMDL
MODEL 7
REMARK VINA RESULT:      -4.0     10.638     14.068
REMARK  3 active torsions:
REMARK  status: ('A' for Active; 'I' for Inactive)
REMARK    1  A    between atoms: C1_1  and  C8_8 
REMARK    2  A    between atoms: C8_8  and  C9_9 
REMARK    3  A    between atoms: C9_9  and  C10_10 
ROOT
HETATM    1  C8  UNL     1     -24.825  18.942   9.339  1.00 20.00     0.055 C 
ENDROOT
BRANCH   1   2
HETATM    2  C1  UNL     1     -24.846  18.955   7.846  1.00 20.00     0.006 C 
HETATM    3  C2  UNL     1     -26.120  18.714   7.099  1.00 20.00     0.056 C 
HETATM    4  C3  UNL     1     -25.716  19.263   5.753  1.00 20.00     0.027 C 
HETATM    5  C4  UNL     1     -24.216  19.028   5.732  1.00 20.00     0.149 C 
HETATM    6  N11 UNL     1     -23.773  19.138   7.137  1.00 20.00    -0.298 NA
ENDBRANCH   1   2
BRANCH   1   7
HETATM    7  C9  UNL     1     -23.613  18.168   9.865  1.00 20.00     0.014 C 
BRANCH   7   8
HETATM    8  C10 UNL     1     -23.759  17.579  11.295  1.00 20.00    -0.051 C 
HETATM    9  C5  UNL     1     -24.656  18.467  12.173  1.00 20.00     0.014 C 
HETATM   10  C6  UNL     1     -22.389  17.415  11.973  1.00 20.00     0.014 C 
HETATM   11  C7  UNL     1     -24.415  16.188  11.176  1.00 20.00     0.014 C 
ENDBRANCH   7   8
ENDBRANCH   1   7
TORSDOF 3
ENDMDL
MODEL 8
REMARK VINA RESULT:      -4.0      2.533      4.341
REMARK  3 active torsions:
REMARK  status: ('A' for Active; 'I' for Inactive)
REMARK    1  A    between atoms: C1_1  and  C8_8 
REMARK    2  A    between atoms: C8_8  and  C9_9 
REMARK    3  A    between atoms: C9_9  and  C10_10 
ROOT
HETATM    1  C8  UNL     1     -34.268  14.572  -3.821  1.00 20.00     0.055 C 
ENDROOT
BRANCH   1   2
HETATM    2  C1  UNL     1     -34.162  15.751  -2.910  1.00 20.00     0.006 C 
HETATM    3  C2  UNL     1     -35.349  16.219  -2.128  1.00 20.00     0.056 C 
HETATM    4  C3  UNL     1     -34.640  17.066  -1.100  1.00 20.00     0.027 C 
HETATM    5  C4  UNL     1     -33.399  17.526  -1.844  1.00 20.00     0.149 C 
HETATM    6  N11 UNL     1     -33.066  16.435  -2.783  1.00 20.00    -0.298 NA
ENDBRANCH   1   2
BRANCH   1   7
HETATM    7  C9  UNL     1     -33.546  14.834  -5.145  1.00 20.00     0.014 C 
BRANCH   7   8
HETATM    8  C10 UNL     1     -34.434  15.372  -6.300  1.00 20.00    -0.051 C 
HETATM    9  C5  UNL     1     -33.795  15.090  -7.670  1.00 20.00     0.014 C 
HETATM   10  C6  UNL     1     -34.681  16.882  -6.157  1.00 20.00     0.014 C 
HETATM   11  C7  UNL     1     -35.794  14.647  -6.237  1.00 20.00     0.014 C 
ENDBRANCH   7   8
ENDBRANCH   1   7
TORSDOF 3
ENDMDL
MODEL 9
REMARK VINA RESULT:      -4.0      1.923      2.756
REMARK  3 active torsions:
REMARK  status: ('A' for Active; 'I' for Inactive)
REMARK    1  A    between atoms: C1_1  and  C8_8 
REMARK    2  A    between atoms: C8_8  and  C9_9 
REMARK    3  A    between atoms: C9_9  and  C10_10 
ROOT
HETATM    1  C8  UNL     1     -33.667  16.684  -2.371  1.00 20.00     0.055 C 
ENDROOT
BRANCH   1   2
HETATM    2  C1  UNL     1     -33.994  17.372  -1.087  1.00 20.00     0.006 C 
HETATM    3  C2  UNL     1     -35.297  17.118  -0.396  1.00 20.00     0.056 C 
HETATM    4  C3  UNL     1     -34.949  17.646   0.974  1.00 20.00     0.027 C 
HETATM    5  C4  UNL     1     -33.906  18.706   0.669  1.00 20.00     0.149 C 
HETATM    6  N11 UNL     1     -33.194  18.234  -0.536  1.00 20.00    -0.298 NA
ENDBRANCH   1   2
BRANCH   1   7
HETATM    7  C9  UNL     1     -34.708  15.611  -2.701  1.00 20.00     0.014 C 
BRANCH   7   8
HETATM    8  C10 UNL     1     -34.576  14.953  -4.101  1.00 20.00    -0.051 C 
HETATM    9  C5  UNL     1     -35.515  13.743  -4.238  1.00 20.00     0.014 C 
HETATM   10  C6  UNL     1     -33.130  14.506  -4.372  1.00 20.00     0.014 C 
HETATM   11  C7  UNL     1     -34.970  16.000  -5.162  1.00 20.00     0.014 C 
ENDBRANCH   7   8
ENDBRANCH   1   7
TORSDOF 3
ENDMDL
