MODEL 1
REMARK VINA RESULT:      -4.5      0.000      0.000
REMARK  6 active torsions:
REMARK  status: ('A' for Active; 'I' for Inactive)
REMARK    1  A    between atoms: C2_2  and  C5_5 
REMARK    2  A    between atoms: C5_5  and  C8_8 
REMARK    3  A    between atoms: C6_6  and  C8_8 
REMARK    4  A    between atoms: C7_7  and  C9_9 
REMARK    5  A    between atoms: C9_9  and  C10_10 
REMARK    6  A    between atoms: C10_10  and  N11_11 
ROOT
HETATM    1  C1  UNL     1     -32.977   5.134   1.927  1.00 20.00     0.308 A 
HETATM    2  C2  UNL     1     -33.996   5.493   2.983  1.00 20.00     0.251 A 
HETATM    3  N11 UNL     1     -32.610   5.936   3.091  1.00 20.00     0.097 N 
ENDROOT
BRANCH   2   4
HETATM    4  C5  UNL     1     -34.494   4.457   3.928  1.00 20.00     0.037 C 
BRANCH   4   5
HETATM    5  C8  UNL     1     -35.335   5.075   5.044  1.00 20.00     0.002 C 
BRANCH   5   6
HETATM    6  C6  UNL     1     -34.467   5.480   6.235  1.00 20.00    -0.004 C 
HETATM    7  C3  UNL     1     -34.021   6.930   6.133  1.00 20.00     0.005 C 
ENDBRANCH   5   6
ENDBRANCH   4   5
ENDBRANCH   2   4
BRANCH   3   8
HETATM    8  C10 UNL     1     -32.436   7.349   2.778  1.00 20.00     0.273 C 
BRANCH   8   9
HETATM    9  C9  UNL     1     -32.234   7.594   1.286  1.00 20.00     0.030 C 
BRANCH   9  10
HETATM   10  C7  UNL     1     -32.823   8.928   0.823  1.00 20.00    -0.003 C 
HETATM   11  C4  UNL     1     -33.518   8.791  -0.523  1.00 20.00     0.005 C 
ENDBRANCH   9  10
ENDBRANCH   8   9
ENDBRANCH   3   8
TORSDOF 6
ENDMDL
MODEL 2
REMARK VINA RESULT:      -4.2      0.895      4.821
REMARK  6 active torsions:
REMARK  status: ('A' for Active; 'I' for Inactive)
REMARK    1  A    between atoms: C2_2  and  C5_5 
REMARK    2  A    between atoms: C5_5  and  C8_8 
REMARK    3  A    between atoms: C6_6  and  C8_8 
REMARK    4  A    between atoms: C7_7  and  C9_9 
REMARK    5  A    between atoms: C9_9  and  C10_10 
REMARK    6  A    between atoms: C10_10  and  N11_11 
ROOT
HETATM    1  C1  UNL     1     -32.864   4.166   2.247  1.00 20.00     0.308 A 
HETATM    2  C2  UNL     1     -32.938   5.628   2.618  1.00 20.00     0.251 A 
HETATM    3  N11 UNL     1     -34.102   4.759   2.743  1.00 20.00     0.097 N 
ENDROOT
BRANCH   2   4
HETATM    4  C5  UNL     1     -32.932   6.672   1.557  1.00 20.00     0.037 C 
BRANCH   4   5
HETATM    5  C8  UNL     1     -32.522   8.034   2.114  1.00 20.00     0.002 C 
BRANCH   5   6
HETATM    6  C6  UNL     1     -32.879   9.161   1.145  1.00 20.00    -0.004 C 
HETATM    7  C3  UNL     1     -33.320   8.618  -0.205  1.00 20.00     0.005 C 
ENDBRANCH   5   6
ENDBRANCH   4   5
ENDBRANCH   2   4
BRANCH   3   8
HETATM    8  C10 UNL     1     -34.396   4.395   4.123  1.00 20.00     0.273 C 
BRANCH   8   9
HETATM    9  C9  UNL     1     -35.217   5.459   4.845  1.00 20.00     0.030 C 
BRANCH   9  10
HETATM   10  C7  UNL     1     -34.574   5.907   6.159  1.00 20.00    -0.003 C 
HETATM   11  C4  UNL     1     -33.648   7.095   5.946  1.00 20.00     0.005 C 
ENDBRANCH   9  10
ENDBRANCH   8   9
ENDBRANCH   3   8
TORSDOF 6
ENDMDL
MODEL 3
REMARK VINA RESULT:      -3.9     15.021     16.209
REMARK  6 active torsions:
REMARK  status: ('A' for Active; 'I' for Inactive)
REMARK    1  A    between atoms: C2_2  and  C5_5 
REMARK    2  A    between atoms: C5_5  and  C8_8 
REMARK    3  A    between atoms: C6_6  and  C8_8 
REMARK    4  A    between atoms: C7_7  and  C9_9 
REMARK    5  A    between atoms: C9_9  and  C10_10 
REMARK    6  A    between atoms: C10_10  and  N11_11 
ROOT
HETATM    1  C1  UNL     1     -23.088  18.024   8.276  1.00 20.00     0.308 A 
HETATM    2  C2  UNL     1     -23.735  17.751   9.613  1.00 20.00     0.251 A 
HETATM    3  N11 UNL     1     -23.866  19.050   8.964  1.00 20.00     0.097 N 
ENDROOT
BRANCH   2   4
HETATM    4  C5  UNL     1     -22.902  17.642  10.841  1.00 20.00     0.037 C 
BRANCH   4   5
HETATM    5  C8  UNL     1     -23.689  18.044  12.088  1.00 20.00     0.002 C 
BRANCH   5   6
HETATM    6  C6  UNL     1     -25.157  17.631  11.977  1.00 20.00    -0.004 C 
HETATM    7  C3  UNL     1     -26.084  18.830  12.099  1.00 20.00     0.005 C 
ENDBRANCH   5   6
ENDBRANCH   4   5
ENDBRANCH   2   4
BRANCH   3   8
HETATM    8  C10 UNL     1     -25.180  19.263   8.371  1.00 20.00     0.273 C 
BRANCH   8   9
HETATM    9  C9  UNL     1     -25.147  19.206   6.846  1.00 20.00     0.030 C 
BRANCH   9  10
HETATM   10  C7  UNL     1     -26.519  18.906   6.239  1.00 20.00    -0.003 C 
HETATM   11  C4  UNL     1     -26.426  18.690   4.736  1.00 20.00     0.005 C 
ENDBRANCH   9  10
ENDBRANCH   8   9
ENDBRANCH   3   8
TORSDOF 6
ENDMDL
MODEL 4
REMARK VINA RESULT:      -3.8     11.078     12.369
REMARK  6 active torsions:
REMARK  status: ('A' for Active; 'I' for Inactive)
REMARK    1  A    between atoms: C2_2  and  C5_5 
REMARK    2  A    between atoms: C5_5  and  C8_8 
REMARK    3  A    between atoms: C6_6  and  C8_8 
REMARK    4  A    between atoms: C7_7  and  C9_9 
REMARK    5  A    between atoms: C9_9  and  C10_10 
REMARK    6  A    between atoms: C10_10  and  N11_11 
ROOT
HETATM    1  C1  UNL     1     -36.229  17.937  -0.478  1.00 20.00     0.308 A 
HETATM    2  C2  UNL     1     -35.011  17.098  -0.783  1.00 20.00     0.251 A 
HETATM    3  N11 UNL     1     -34.997  18.543  -0.976  1.00 20.00     0.097 N 
ENDROOT
BRANCH   2   4
HETATM    4  C5  UNL     1     -34.989  16.214  -1.980  1.00 20.00     0.037 C 
BRANCH   4   5
HETATM    5  C8  UNL     1     -33.640  16.273  -2.695  1.00 20.00     0.002 C 
BRANCH   5   6
HETATM    6  C6  UNL     1     -33.578  15.271  -3.848  1.00 20.00    -0.004 C 
HETATM    7  C3  UNL     1     -34.755  14.308  -3.814  1.00 20.00     0.005 C 
ENDBRANCH   5   6
ENDBRANCH   4   5
ENDBRANCH   2   4
BRANCH   3   8
HETATM    8  C10 UNL     1     -34.252  19.250   0.059  1.00 20.00     0.273 C 
BRANCH   8   9
HETATM    9  C9  UNL     1     -33.467  18.303   0.961  1.00 20.00     0.030 C 
BRANCH   9  10
HETATM   10  C7  UNL     1     -31.956  18.535   0.885  1.00 20.00    -0.003 C 
HETATM   11  C4  UNL     1     -31.439  18.365  -0.535  1.00 20.00     0.005 C 
ENDBRANCH   9  10
ENDBRANCH   8   9
ENDBRANCH   3   8
TORSDOF 6
ENDMDL
MODEL 5
REMARK VINA RESULT:      -3.8     11.204     12.585
REMARK  6 active torsions:
REMARK  status: ('A' for Active; 'I' for Inactive)
REMARK    1  A    between atoms: C2_2  and  C5_5 
REMARK    2  A    between atoms: C5_5  and  C8_8 
REMARK    3  A    between atoms: C6_6  and  C8_8 
REMARK    4  A    between atoms: C7_7  and  C9_9 
REMARK    5  A    between atoms: C9_9  and  C10_10 
REMARK    6  A    between atoms: C10_10  and  N11_11 
ROOT
HETATM    1  C1  UNL     1     -32.586  19.104  -2.632  1.00 20.00     0.308 A 
HETATM    2  C2  UNL     1     -33.135  17.869  -1.959  1.00 20.00     0.251 A 
HETATM    3  N11 UNL     1     -31.847  18.429  -1.570  1.00 20.00     0.097 N 
ENDROOT
BRANCH   2   4
HETATM    4  C5  UNL     1     -33.164  16.569  -2.683  1.00 20.00     0.037 C 
BRANCH   4   5
HETATM    5  C8  UNL     1     -34.508  15.864  -2.514  1.00 20.00     0.002 C 
BRANCH   5   6
HETATM    6  C6  UNL     1     -34.701  14.775  -3.570  1.00 20.00    -0.004 C 
HETATM    7  C3  UNL     1     -33.436  14.560  -4.387  1.00 20.00     0.005 C 
ENDBRANCH   5   6
ENDBRANCH   4   5
ENDBRANCH   2   4
BRANCH   3   8
HETATM    8  C10 UNL     1     -31.895  19.144  -0.300  1.00 20.00     0.273 C 
BRANCH   8   9
HETATM    9  C9  UNL     1     -31.044  18.476   0.777  1.00 20.00     0.030 C 
BRANCH   9  10
HETATM   10  C7  UNL     1     -31.846  18.143   2.037  1.00 20.00    -0.003 C 
HETATM   11  C4  UNL     1     -33.342  18.253   1.788  1.00 20.00     0.005 C 
ENDBRANCH   9  10
ENDBRANCH   8   9
ENDBRANCH   3   8
TORSDOF 6
ENDMDL
MODEL 6
REMARK VINA RESULT:      -3.8     11.367     12.449
REMARK  6 active torsions:
REMARK  status: ('A' for Active; 'I' for Inactive)
REMARK    1  A    between atoms: C2_2  and  C5_5 
REMARK    2  A    between atoms: C5_5  and  C8_8 
REMARK    3  A    between atoms: C6_6  and  C8_8 
REMARK    4  A    between atoms: C7_7  and  C9_9 
REMARK    5  A    between atoms: C9_9  and  C10_10 
REMARK    6  A    between atoms: C10_10  and  N11_11 
ROOT
HETATM    1  C1  UNL     1     -34.099  15.025  -6.548  1.00 20.00     0.308 A 
HETATM    2  C2  UNL     1     -34.323  14.878  -5.061  1.00 20.00     0.251 A 
HETATM    3  N11 UNL     1     -34.842  16.029  -5.792  1.00 20.00     0.097 N 
ENDROOT
BRANCH   2   4
HETATM    4  C5  UNL     1     -33.197  15.080  -4.110  1.00 20.00     0.037 C 
BRANCH   4   5
HETATM    5  C8  UNL     1     -33.540  16.129  -3.053  1.00 20.00     0.002 C 
BRANCH   5   6
HETATM    6  C6  UNL     1     -34.827  15.770  -2.310  1.00 20.00    -0.004 C 
HETATM    7  C3  UNL     1     -35.184  16.823  -1.272  1.00 20.00     0.005 C 
ENDBRANCH   5   6
ENDBRANCH   4   5
ENDBRANCH   2   4
BRANCH   3   8
HETATM    8  C10 UNL     1     -36.281  15.961  -6.016  1.00 20.00     0.273 C 
BRANCH   8   9
HETATM    9  C9  UNL     1     -37.053  16.949  -5.148  1.00 20.00     0.030 C 
BRANCH   9  10
HETATM   10  C7  UNL     1     -37.952  16.254  -4.123  1.00 20.00    -0.003 C 
HETATM   11  C4  UNL     1     -37.934  14.744  -4.303  1.00 20.00     0.005 C 
ENDBRANCH   9  10
ENDBRANCH   8   9
ENDBRANCH   3   8
TORSDOF 6
ENDMDL
MODEL 7
REMARK VINA RESULT:      -3.8     10.948     12.294
REMARK  6 active torsions:
REMARK  status: ('A' for Active; 'I' for Inactive)
REMARK    1  A    between atoms: C2_2  and  C5_5 
REMARK    2  A    between atoms: C5_5  and  C8_8 
REMARK    3  A    between atoms: C6_6  and  C8_8 
REMARK    4  A    between atoms: C7_7  and  C9_9 
REMARK    5  A    between atoms: C9_9  and  C10_10 
REMARK    6  A    between atoms: C10_10  and  N11_11 
ROOT
HETATM    1  C1  UNL     1     -34.565  18.644  -1.969  1.00 20.00     0.308 A 
HETATM    2  C2  UNL     1     -33.104  18.310  -1.786  1.00 20.00     0.251 A 
HETATM    3  N11 UNL     1     -34.148  17.392  -1.344  1.00 20.00     0.097 N 
ENDROOT
BRANCH   2   4
HETATM    4  C5  UNL     1     -32.295  19.023  -0.760  1.00 20.00     0.037 C 
BRANCH   4   5
HETATM    5  C8  UNL     1     -31.019  18.253  -0.420  1.00 20.00     0.002 C 
BRANCH   5   6
HETATM    6  C6  UNL     1     -30.743  18.273   1.084  1.00 20.00    -0.004 C 
HETATM    7  C3  UNL     1     -32.033  18.296   1.888  1.00 20.00     0.005 C 
ENDBRANCH   5   6
ENDBRANCH   4   5
ENDBRANCH   2   4
BRANCH   3   8
HETATM    8  C10 UNL     1     -34.302  16.239  -2.222  1.00 20.00     0.273 C 
BRANCH   8   9
HETATM    9  C9  UNL     1     -33.184  16.139  -3.255  1.00 20.00     0.030 C 
BRANCH   9  10
HETATM   10  C7  UNL     1     -33.315  14.903  -4.148  1.00 20.00    -0.003 C 
HETATM   11  C4  UNL     1     -34.649  14.204  -3.934  1.00 20.00     0.005 C 
ENDBRANCH   9  10
ENDBRANCH   8   9
ENDBRANCH   3   8
TORSDOF 6
ENDMDL
MODEL 8
REMARK VINA RESULT:      -3.8     11.185     11.868
REMARK  6 active torsions:
REMARK  status: ('A' for Active; 'I' for Inactive)
REMARK    1  A    between atoms: C2_2  and  C5_5 
REMARK    2  A    between atoms: C5_5  and  C8_8 
REMARK    3  A    between atoms: C6_6  and  C8_8 
REMARK    4  A    between atoms: C7_7  and  C9_9 
REMARK    5  A    between atoms: C9_9  and  C10_10 
REMARK    6  A    between atoms: C10_10  and  N11_11 
ROOT
HETATM    1  C1  UNL     1     -33.137  14.340  -4.483  1.00 20.00     0.308 A 
HETATM    2  C2  UNL     1     -33.802  15.412  -3.651  1.00 20.00     0.251 A 
HETATM    3  N11 UNL     1     -33.952  15.382  -5.101  1.00 20.00     0.097 N 
ENDROOT
BRANCH   2   4
HETATM    4  C5  UNL     1     -32.989  16.496  -3.036  1.00 20.00     0.037 C 
BRANCH   4   5
HETATM    5  C8  UNL     1     -33.743  17.185  -1.900  1.00 20.00     0.002 C 
BRANCH   5   6
HETATM    6  C6  UNL     1     -35.085  16.505  -1.630  1.00 20.00    -0.004 C 
HETATM    7  C3  UNL     1     -36.016  17.404  -0.833  1.00 20.00     0.005 C 
ENDBRANCH   5   6
ENDBRANCH   4   5
ENDBRANCH   2   4
BRANCH   3   8
HETATM    8  C10 UNL     1     -35.261  14.902  -5.529  1.00 20.00     0.273 C 
BRANCH   8   9
HETATM    9  C9  UNL     1     -35.961  14.080  -4.451  1.00 20.00     0.030 C 
BRANCH   9  10
HETATM   10  C7  UNL     1     -37.427  14.480  -4.267  1.00 20.00    -0.003 C 
HETATM   11  C4  UNL     1     -37.602  15.989  -4.327  1.00 20.00     0.005 C 
ENDBRANCH   9  10
ENDBRANCH   8   9
ENDBRANCH   3   8
TORSDOF 6
ENDMDL
MODEL 9
REMARK VINA RESULT:      -3.7     11.046     12.408
REMARK  6 active torsions:
REMARK  status: ('A' for Active; 'I' for Inactive)
REMARK    1  A    between atoms: C2_2  and  C5_5 
REMARK    2  A    between atoms: C5_5  and  C8_8 
REMARK    3  A    between atoms: C6_6  and  C8_8 
REMARK    4  A    between atoms: C7_7  and  C9_9 
REMARK    5  A    between atoms: C9_9  and  C10_10 
REMARK    6  A    between atoms: C10_10  and  N11_11 
ROOT
HETATM    1  C1  UNL     1     -35.425  18.172  -1.209  1.00 20.00     0.308 A 
HETATM    2  C2  UNL     1     -34.448  17.034  -1.386  1.00 20.00     0.251 A 
HETATM    3  N11 UNL     1     -34.145  18.372  -1.882  1.00 20.00     0.097 N 
ENDROOT
BRANCH   2   4
HETATM    4  C5  UNL     1     -34.728  15.951  -2.368  1.00 20.00     0.037 C 
BRANCH   4   5
HETATM    5  C8  UNL     1     -33.547  15.734  -3.313  1.00 20.00     0.002 C 
BRANCH   5   6
HETATM    6  C6  UNL     1     -33.815  14.581  -4.281  1.00 20.00    -0.004 C 
HETATM    7  C3  UNL     1     -35.182  13.959  -4.042  1.00 20.00     0.005 C 
ENDBRANCH   5   6
ENDBRANCH   4   5
ENDBRANCH   2   4
BRANCH   3   8
HETATM    8  C10 UNL     1     -33.172  19.079  -1.059  1.00 20.00     0.273 C 
BRANCH   8   9
HETATM    9  C9  UNL     1     -31.782  18.456  -1.134  1.00 20.00     0.030 C 
BRANCH   9  10
HETATM   10  C7  UNL     1     -31.111  18.348   0.237  1.00 20.00    -0.003 C 
HETATM   11  C4  UNL     1     -32.133  18.414   1.362  1.00 20.00     0.005 C 
ENDBRANCH   9  10
ENDBRANCH   8   9
ENDBRANCH   3   8
TORSDOF 6
ENDMDL
