MODEL 1
REMARK VINA RESULT:      -4.3      0.000      0.000
REMARK  1 active torsions:
REMARK  status: ('A' for Active; 'I' for Inactive)
REMARK    1  A    between atoms: C7_7  and  N11_11 
ROOT
HETATM    1  C1  UNL     1     -34.319  17.012  -4.704  1.00 20.00     0.164 C 
HETATM    2  C2  UNL     1     -33.297  14.849  -4.156  1.00 20.00     0.013 C 
HETATM    3  C3  UNL     1     -33.654  16.606  -2.384  1.00 20.00     0.013 C 
HETATM    4  C4  UNL     1     -34.689  14.272  -3.849  1.00 20.00     0.008 C 
HETATM    5  C5  UNL     1     -35.031  15.990  -2.087  1.00 20.00     0.008 C 
HETATM    6  C6  UNL     1     -33.255  16.349  -3.842  1.00 20.00     0.058 C 
HETATM    7  C7  UNL     1     -35.722  16.455  -4.500  1.00 20.00     0.295 C 
HETATM    8  C8  UNL     1     -35.637  15.394  -3.374  1.00 20.00     0.026 C 
HETATM    9  O12 UNL     1     -34.060  17.917  -5.493  1.00 20.00    -0.295 OA
ENDROOT
BRANCH   7  10
HETATM   10  N11 UNL     1     -36.607  17.571  -4.194  1.00 20.00     0.092 N 
HETATM   11  C9  UNL     1     -37.744  17.122  -3.386  1.00 20.00     0.310 C 
HETATM   12  C10 UNL     1     -37.080  18.208  -5.424  1.00 20.00     0.310 C 
ENDBRANCH   7  10
TORSDOF 1
ENDMDL
MODEL 2
REMARK VINA RESULT:      -4.3      2.226      3.185
REMARK  1 active torsions:
REMARK  status: ('A' for Active; 'I' for Inactive)
REMARK    1  A    between atoms: C7_7  and  N11_11 
ROOT
HETATM    1  C1  UNL     1     -37.195  14.486  -4.381  1.00 20.00     0.164 C 
HETATM    2  C2  UNL     1     -34.886  13.830  -3.871  1.00 20.00     0.013 C 
HETATM    3  C3  UNL     1     -35.516  14.716  -6.146  1.00 20.00     0.013 C 
HETATM    4  C4  UNL     1     -34.583  15.265  -3.409  1.00 20.00     0.008 C 
HETATM    5  C5  UNL     1     -35.182  16.135  -5.657  1.00 20.00     0.008 C 
HETATM    6  C6  UNL     1     -35.954  13.833  -4.971  1.00 20.00     0.058 C 
HETATM    7  C7  UNL     1     -36.964  15.893  -3.846  1.00 20.00     0.295 C 
HETATM    8  C8  UNL     1     -35.492  16.267  -4.151  1.00 20.00     0.026 C 
HETATM    9  O12 UNL     1     -38.285  13.920  -4.343  1.00 20.00    -0.295 OA
ENDROOT
BRANCH   7  10
HETATM   10  N11 UNL     1     -37.940  16.776  -4.470  1.00 20.00     0.092 N 
HETATM   11  C9  UNL     1     -37.413  18.139  -4.570  1.00 20.00     0.310 C 
HETATM   12  C10 UNL     1     -39.196  16.773  -3.719  1.00 20.00     0.310 C 
ENDBRANCH   7  10
TORSDOF 1
ENDMDL
MODEL 3
REMARK VINA RESULT:      -4.2      2.073      3.033
REMARK  1 active torsions:
REMARK  status: ('A' for Active; 'I' for Inactive)
REMARK    1  A    between atoms: C7_7  and  N11_11 
ROOT
HETATM    1  C1  UNL     1     -34.673  14.983  -3.946  1.00 20.00     0.164 C 
HETATM    2  C2  UNL     1     -35.239  16.306  -1.958  1.00 20.00     0.013 C 
HETATM    3  C3  UNL     1     -33.086  16.695  -3.212  1.00 20.00     0.013 C 
HETATM    4  C4  UNL     1     -35.934  17.347  -2.851  1.00 20.00     0.008 C 
HETATM    5  C5  UNL     1     -33.807  17.746  -4.072  1.00 20.00     0.008 C 
HETATM    6  C6  UNL     1     -34.079  15.640  -2.709  1.00 20.00     0.058 C 
HETATM    7  C7  UNL     1     -35.431  15.939  -4.857  1.00 20.00     0.295 C 
HETATM    8  C8  UNL     1     -35.290  17.359  -4.254  1.00 20.00     0.026 C 
HETATM    9  O12 UNL     1     -34.547  13.784  -4.181  1.00 20.00    -0.295 OA
ENDROOT
BRANCH   7  10
HETATM   10  N11 UNL     1     -34.880  15.811  -6.200  1.00 20.00     0.092 N 
HETATM   11  C9  UNL     1     -34.912  17.099  -6.896  1.00 20.00     0.310 C 
HETATM   12  C10 UNL     1     -35.615  14.803  -6.965  1.00 20.00     0.310 C 
ENDBRANCH   7  10
TORSDOF 1
ENDMDL
MODEL 4
REMARK VINA RESULT:      -4.1      1.760      2.950
REMARK  1 active torsions:
REMARK  status: ('A' for Active; 'I' for Inactive)
REMARK    1  A    between atoms: C7_7  and  N11_11 
ROOT
HETATM    1  C1  UNL     1     -35.613  16.935  -4.337  1.00 20.00     0.164 C 
HETATM    2  C2  UNL     1     -34.410  16.560  -2.230  1.00 20.00     0.013 C 
HETATM    3  C3  UNL     1     -35.723  14.708  -3.327  1.00 20.00     0.013 C 
HETATM    4  C4  UNL     1     -33.163  16.130  -3.022  1.00 20.00     0.008 C 
HETATM    5  C5  UNL     1     -34.452  14.292  -4.085  1.00 20.00     0.008 C 
HETATM    6  C6  UNL     1     -35.687  16.207  -3.002  1.00 20.00     0.058 C 
HETATM    7  C7  UNL     1     -34.374  16.606  -5.159  1.00 20.00     0.295 C 
HETATM    8  C8  UNL     1     -33.578  15.528  -4.381  1.00 20.00     0.026 C 
HETATM    9  O12 UNL     1     -36.482  17.719  -4.709  1.00 20.00    -0.295 OA
ENDROOT
BRANCH   7  10
HETATM   10  N11 UNL     1     -34.813  16.178  -6.480  1.00 20.00     0.092 N 
HETATM   11  C9  UNL     1     -33.917  15.150  -7.014  1.00 20.00     0.310 C 
HETATM   12  C10 UNL     1     -34.880  17.317  -7.397  1.00 20.00     0.310 C 
ENDBRANCH   7  10
TORSDOF 1
ENDMDL
MODEL 5
REMARK VINA RESULT:      -4.1      2.334      3.867
REMARK  1 active torsions:
REMARK  status: ('A' for Active; 'I' for Inactive)
REMARK    1  A    between atoms: C7_7  and  N11_11 
ROOT
HETATM    1  C1  UNL     1     -34.866  16.571  -1.751  1.00 20.00     0.164 C 
HETATM    2  C2  UNL     1     -34.722  14.814  -3.459  1.00 20.00     0.013 C 
HETATM    3  C3  UNL     1     -35.646  17.094  -4.012  1.00 20.00     0.013 C 
HETATM    4  C4  UNL     1     -33.315  15.304  -3.840  1.00 20.00     0.008 C 
HETATM    5  C5  UNL     1     -34.229  17.543  -4.406  1.00 20.00     0.008 C 
HETATM    6  C6  UNL     1     -35.581  15.981  -2.958  1.00 20.00     0.058 C 
HETATM    7  C7  UNL     1     -33.442  17.029  -2.033  1.00 20.00     0.295 C 
HETATM    8  C8  UNL     1     -33.178  16.812  -3.544  1.00 20.00     0.026 C 
HETATM    9  O12 UNL     1     -35.401  16.666  -0.649  1.00 20.00    -0.295 OA
ENDROOT
BRANCH   7  10
HETATM   10  N11 UNL     1     -33.324  18.417  -1.606  1.00 20.00     0.092 N 
HETATM   11  C9  UNL     1     -32.387  19.144  -2.466  1.00 20.00     0.310 C 
HETATM   12  C10 UNL     1     -32.892  18.493  -0.209  1.00 20.00     0.310 C 
ENDBRANCH   7  10
TORSDOF 1
ENDMDL
MODEL 6
REMARK VINA RESULT:      -4.1      1.807      2.786
REMARK  1 active torsions:
REMARK  status: ('A' for Active; 'I' for Inactive)
REMARK    1  A    between atoms: C7_7  and  N11_11 
ROOT
HETATM    1  C1  UNL     1     -33.816  15.444  -3.745  1.00 20.00     0.164 C 
HETATM    2  C2  UNL     1     -33.294  17.018  -1.935  1.00 20.00     0.013 C 
HETATM    3  C3  UNL     1     -34.072  17.838  -4.189  1.00 20.00     0.013 C 
HETATM    4  C4  UNL     1     -34.757  16.957  -1.465  1.00 20.00     0.008 C 
HETATM    5  C5  UNL     1     -35.521  17.787  -3.678  1.00 20.00     0.008 C 
HETATM    6  C6  UNL     1     -33.207  16.808  -3.452  1.00 20.00     0.058 C 
HETATM    7  C7  UNL     1     -35.250  15.284  -3.257  1.00 20.00     0.295 C 
HETATM    8  C8  UNL     1     -35.687  16.643  -2.656  1.00 20.00     0.026 C 
HETATM    9  O12 UNL     1     -33.197  14.557  -4.326  1.00 20.00    -0.295 OA
ENDROOT
BRANCH   7  10
HETATM   10  N11 UNL     1     -36.061  14.849  -4.386  1.00 20.00     0.092 N 
HETATM   11  C9  UNL     1     -37.451  15.279  -4.219  1.00 20.00     0.310 C 
HETATM   12  C10 UNL     1     -35.996  13.395  -4.540  1.00 20.00     0.310 C 
ENDBRANCH   7  10
TORSDOF 1
ENDMDL
MODEL 7
REMARK VINA RESULT:      -4.1      1.900      2.471
REMARK  1 active torsions:
REMARK  status: ('A' for Active; 'I' for Inactive)
REMARK    1  A    between atoms: C7_7  and  N11_11 
ROOT
HETATM    1  C1  UNL     1     -34.064  15.123  -5.738  1.00 20.00     0.164 C 
HETATM    2  C2  UNL     1     -35.012  14.059  -3.739  1.00 20.00     0.013 C 
HETATM    3  C3  UNL     1     -33.088  15.680  -3.563  1.00 20.00     0.013 C 
HETATM    4  C4  UNL     1     -35.998  15.230  -3.587  1.00 20.00     0.008 C 
HETATM    5  C5  UNL     1     -34.101  16.824  -3.392  1.00 20.00     0.008 C 
HETATM    6  C6  UNL     1     -33.703  14.537  -4.381  1.00 20.00     0.058 C 
HETATM    7  C7  UNL     1     -35.082  16.253  -5.679  1.00 20.00     0.295 C 
HETATM    8  C8  UNL     1     -35.390  16.518  -4.184  1.00 20.00     0.026 C 
HETATM    9  O12 UNL     1     -33.571  14.712  -6.785  1.00 20.00    -0.295 OA
ENDROOT
BRANCH   7  10
HETATM   10  N11 UNL     1     -34.519  17.401  -6.378  1.00 20.00     0.092 N 
HETATM   11  C9  UNL     1     -35.066  18.650  -5.843  1.00 20.00     0.310 C 
HETATM   12  C10 UNL     1     -34.779  17.308  -7.815  1.00 20.00     0.310 C 
ENDBRANCH   7  10
TORSDOF 1
ENDMDL
MODEL 8
REMARK VINA RESULT:      -4.0      1.637      2.474
REMARK  1 active torsions:
REMARK  status: ('A' for Active; 'I' for Inactive)
REMARK    1  A    between atoms: C7_7  and  N11_11 
ROOT
HETATM    1  C1  UNL     1     -34.973  17.241  -4.879  1.00 20.00     0.164 C 
HETATM    2  C2  UNL     1     -33.232  17.833  -3.254  1.00 20.00     0.013 C 
HETATM    3  C3  UNL     1     -35.604  17.397  -2.520  1.00 20.00     0.013 C 
HETATM    4  C4  UNL     1     -32.910  16.342  -3.060  1.00 20.00     0.008 C 
HETATM    5  C5  UNL     1     -35.241  15.917  -2.315  1.00 20.00     0.008 C 
HETATM    6  C6  UNL     1     -34.714  18.023  -3.600  1.00 20.00     0.058 C 
HETATM    7  C7  UNL     1     -34.624  15.761  -4.787  1.00 20.00     0.295 C 
HETATM    8  C8  UNL     1     -34.165  15.486  -3.333  1.00 20.00     0.026 C 
HETATM    9  O12 UNL     1     -35.426  17.766  -5.893  1.00 20.00    -0.295 OA
ENDROOT
BRANCH   7  10
HETATM   10  N11 UNL     1     -35.797  14.997  -5.190  1.00 20.00     0.092 N 
HETATM   11  C9  UNL     1     -35.898  13.759  -4.415  1.00 20.00     0.310 C 
HETATM   12  C10 UNL     1     -35.750  14.697  -6.622  1.00 20.00     0.310 C 
ENDBRANCH   7  10
TORSDOF 1
ENDMDL
MODEL 9
REMARK VINA RESULT:      -3.9      1.701      2.848
REMARK  1 active torsions:
REMARK  status: ('A' for Active; 'I' for Inactive)
REMARK    1  A    between atoms: C7_7  and  N11_11 
ROOT
HETATM    1  C1  UNL     1     -35.439  16.481  -5.303  1.00 20.00     0.164 C 
HETATM    2  C2  UNL     1     -36.072  14.115  -5.470  1.00 20.00     0.013 C 
HETATM    3  C3  UNL     1     -33.758  14.892  -6.103  1.00 20.00     0.013 C 
HETATM    4  C4  UNL     1     -35.588  13.887  -4.028  1.00 20.00     0.008 C 
HETATM    5  C5  UNL     1     -33.303  14.631  -4.658  1.00 20.00     0.008 C 
HETATM    6  C6  UNL     1     -35.255  15.225  -6.142  1.00 20.00     0.058 C 
HETATM    7  C7  UNL     1     -35.035  16.320  -3.843  1.00 20.00     0.295 C 
HETATM    8  C8  UNL     1     -34.467  14.888  -3.678  1.00 20.00     0.026 C 
HETATM    9  O12 UNL     1     -35.876  17.529  -5.771  1.00 20.00    -0.295 OA
ENDROOT
BRANCH   7  10
HETATM   10  N11 UNL     1     -34.083  17.375  -3.522  1.00 20.00     0.092 N 
HETATM   11  C9  UNL     1     -33.160  16.935  -2.473  1.00 20.00     0.310 C 
HETATM   12  C10 UNL     1     -34.781  18.592  -3.106  1.00 20.00     0.310 C 
ENDBRANCH   7  10
TORSDOF 1
ENDMDL
