MODEL 1
REMARK VINA RESULT:      -4.1      0.000      0.000
REMARK  2 active torsions:
REMARK  status: ('A' for Active; 'I' for Inactive)
REMARK    1  A    between atoms: C2_2  and  C3_3 
REMARK    2  A    between atoms: C4_4  and  C5_5 
ROOT
HETATM    1  C1  UNL     1     -36.545  14.443  -4.017  1.00 20.00     0.087 C 
HETATM    2  C2  UNL     1     -35.551  15.247  -3.396  1.00 20.00     0.093 C 
HETATM    3  N8  UNL     1     -37.360  13.789  -4.522  1.00 20.00    -0.192 NA
ENDROOT
BRANCH   2   4
HETATM    4  C3  UNL     1     -34.245  14.993  -3.559  1.00 20.00     0.012 C 
HETATM    5  C4  UNL     1     -33.219  15.992  -3.360  1.00 20.00     0.017 C 
BRANCH   5   6
HETATM    6  C5  UNL     1     -33.250  16.889  -2.367  1.00 20.00     0.084 C 
HETATM    7  N9  UNL     1     -32.504  18.018  -2.249  1.00 20.00    -0.398 N 
HETATM    8  C6  UNL     1     -32.563  19.082  -3.247  1.00 20.00     0.148 C 
HETATM    9  C7  UNL     1     -31.799  18.346  -1.012  1.00 20.00     0.148 C 
ENDBRANCH   5   6
ENDBRANCH   2   4
TORSDOF 2
ENDMDL
MODEL 2
REMARK VINA RESULT:      -4.0      1.390      1.756
REMARK  2 active torsions:
REMARK  status: ('A' for Active; 'I' for Inactive)
REMARK    1  A    between atoms: C2_2  and  C3_3 
REMARK    2  A    between atoms: C4_4  and  C5_5 
ROOT
HETATM    1  C1  UNL     1     -36.210  13.832  -4.311  1.00 20.00     0.087 C 
HETATM    2  C2  UNL     1     -34.828  14.005  -4.027  1.00 20.00     0.093 C 
HETATM    3  N8  UNL     1     -37.338  13.687  -4.540  1.00 20.00    -0.192 NA
ENDROOT
BRANCH   2   4
HETATM    4  C3  UNL     1     -34.083  14.898  -4.694  1.00 20.00     0.012 C 
HETATM    5  C4  UNL     1     -33.688  16.170  -4.131  1.00 20.00     0.017 C 
BRANCH   5   6
HETATM    6  C5  UNL     1     -33.304  16.320  -2.857  1.00 20.00     0.084 C 
HETATM    7  N9  UNL     1     -33.944  17.010  -1.878  1.00 20.00    -0.398 N 
HETATM    8  C6  UNL     1     -35.299  16.666  -1.458  1.00 20.00     0.148 C 
HETATM    9  C7  UNL     1     -33.238  17.963  -1.024  1.00 20.00     0.148 C 
ENDBRANCH   5   6
ENDBRANCH   2   4
TORSDOF 2
ENDMDL
MODEL 3
REMARK VINA RESULT:      -4.0      1.984      2.336
REMARK  2 active torsions:
REMARK  status: ('A' for Active; 'I' for Inactive)
REMARK    1  A    between atoms: C2_2  and  C3_3 
REMARK    2  A    between atoms: C4_4  and  C5_5 
ROOT
HETATM    1  C1  UNL     1     -35.648  13.876  -4.159  1.00 20.00     0.087 C 
HETATM    2  C2  UNL     1     -35.358  15.142  -3.583  1.00 20.00     0.093 C 
HETATM    3  N8  UNL     1     -35.889  12.842  -4.630  1.00 20.00    -0.192 NA
ENDROOT
BRANCH   2   4
HETATM    4  C3  UNL     1     -34.155  15.412  -3.055  1.00 20.00     0.012 C 
HETATM    5  C4  UNL     1     -33.845  16.664  -2.403  1.00 20.00     0.017 C 
BRANCH   5   6
HETATM    6  C5  UNL     1     -34.700  17.300  -1.593  1.00 20.00     0.084 C 
HETATM    7  N9  UNL     1     -34.537  17.578  -0.274  1.00 20.00    -0.398 N 
HETATM    8  C6  UNL     1     -33.430  18.402   0.204  1.00 20.00     0.148 C 
HETATM    9  C7  UNL     1     -35.581  17.287   0.707  1.00 20.00     0.148 C 
ENDBRANCH   5   6
ENDBRANCH   2   4
TORSDOF 2
ENDMDL
MODEL 4
REMARK VINA RESULT:      -4.0     11.171     12.216
REMARK  2 active torsions:
REMARK  status: ('A' for Active; 'I' for Inactive)
REMARK    1  A    between atoms: C2_2  and  C3_3 
REMARK    2  A    between atoms: C4_4  and  C5_5 
ROOT
HETATM    1  C1  UNL     1     -32.781   8.342   1.142  1.00 20.00     0.087 C 
HETATM    2  C2  UNL     1     -32.656   7.376   2.177  1.00 20.00     0.093 C 
HETATM    3  N8  UNL     1     -32.883   9.134   0.300  1.00 20.00    -0.192 NA
ENDROOT
BRANCH   2   4
HETATM    4  C3  UNL     1     -32.851   6.071   1.943  1.00 20.00     0.012 C 
HETATM    5  C4  UNL     1     -33.373   5.162   2.939  1.00 20.00     0.017 C 
BRANCH   5   6
HETATM    6  C5  UNL     1     -34.360   5.487   3.783  1.00 20.00     0.084 C 
HETATM    7  N9  UNL     1     -34.246   5.849   5.087  1.00 20.00    -0.398 N 
HETATM    8  C6  UNL     1     -33.476   7.023   5.492  1.00 20.00     0.148 C 
HETATM    9  C7  UNL     1     -35.077   5.246   6.126  1.00 20.00     0.148 C 
ENDBRANCH   5   6
ENDBRANCH   2   4
TORSDOF 2
ENDMDL
MODEL 5
REMARK VINA RESULT:      -3.9      1.252      1.808
REMARK  2 active torsions:
REMARK  status: ('A' for Active; 'I' for Inactive)
REMARK    1  A    between atoms: C2_2  and  C3_3 
REMARK    2  A    between atoms: C4_4  and  C5_5 
ROOT
HETATM    1  C1  UNL     1     -35.859  13.959  -4.224  1.00 20.00     0.087 C 
HETATM    2  C2  UNL     1     -35.860  15.300  -3.754  1.00 20.00     0.093 C 
HETATM    3  N8  UNL     1     -35.861  12.865  -4.611  1.00 20.00    -0.192 NA
ENDROOT
BRANCH   2   4
HETATM    4  C3  UNL     1     -35.202  15.651  -2.640  1.00 20.00     0.012 C 
HETATM    5  C4  UNL     1     -33.804  16.021  -2.635  1.00 20.00     0.017 C 
BRANCH   5   6
HETATM    6  C5  UNL     1     -33.242  16.772  -3.589  1.00 20.00     0.084 C 
HETATM    7  N9  UNL     1     -33.167  18.127  -3.637  1.00 20.00    -0.398 N 
HETATM    8  C6  UNL     1     -32.489  18.895  -2.596  1.00 20.00     0.148 C 
HETATM    9  C7  UNL     1     -33.533  18.874  -4.839  1.00 20.00     0.148 C 
ENDBRANCH   5   6
ENDBRANCH   2   4
TORSDOF 2
ENDMDL
MODEL 6
REMARK VINA RESULT:      -3.9      2.127      2.678
REMARK  2 active torsions:
REMARK  status: ('A' for Active; 'I' for Inactive)
REMARK    1  A    between atoms: C2_2  and  C3_3 
REMARK    2  A    between atoms: C4_4  and  C5_5 
ROOT
HETATM    1  C1  UNL     1     -36.776  14.131  -4.521  1.00 20.00     0.087 C 
HETATM    2  C2  UNL     1     -35.398  14.408  -4.730  1.00 20.00     0.093 C 
HETATM    3  N8  UNL     1     -37.903  13.905  -4.356  1.00 20.00    -0.192 NA
ENDROOT
BRANCH   2   4
HETATM    4  C3  UNL     1     -34.527  14.431  -3.711  1.00 20.00     0.012 C 
HETATM    5  C4  UNL     1     -33.948  15.652  -3.198  1.00 20.00     0.017 C 
BRANCH   5   6
HETATM    6  C5  UNL     1     -34.641  16.788  -3.053  1.00 20.00     0.084 C 
HETATM    7  N9  UNL     1     -35.609  17.054  -2.138  1.00 20.00    -0.398 N 
HETATM    8  C6  UNL     1     -35.343  17.001  -0.703  1.00 20.00     0.148 C 
HETATM    9  C7  UNL     1     -36.889  17.644  -2.525  1.00 20.00     0.148 C 
ENDBRANCH   5   6
ENDBRANCH   2   4
TORSDOF 2
ENDMDL
MODEL 7
REMARK VINA RESULT:      -3.8     10.479     11.595
REMARK  2 active torsions:
REMARK  status: ('A' for Active; 'I' for Inactive)
REMARK    1  A    between atoms: C2_2  and  C3_3 
REMARK    2  A    between atoms: C4_4  and  C5_5 
ROOT
HETATM    1  C1  UNL     1     -33.241   8.695   0.251  1.00 20.00     0.087 C 
HETATM    2  C2  UNL     1     -32.715   8.573   1.566  1.00 20.00     0.093 C 
HETATM    3  N8  UNL     1     -33.673   8.798  -0.821  1.00 20.00    -0.192 NA
ENDROOT
BRANCH   2   4
HETATM    4  C3  UNL     1     -32.108   7.450   1.975  1.00 20.00     0.012 C 
HETATM    5  C4  UNL     1     -32.501   6.731   3.166  1.00 20.00     0.017 C 
BRANCH   5   6
HETATM    6  C5  UNL     1     -33.778   6.555   3.527  1.00 20.00     0.084 C 
HETATM    7  N9  UNL     1     -34.243   6.081   4.712  1.00 20.00    -0.398 N 
HETATM    8  C6  UNL     1     -33.951   6.755   5.974  1.00 20.00     0.148 C 
HETATM    9  C7  UNL     1     -35.256   5.030   4.774  1.00 20.00     0.148 C 
ENDBRANCH   5   6
ENDBRANCH   2   4
TORSDOF 2
ENDMDL
MODEL 8
REMARK VINA RESULT:      -3.8      1.651      5.284
REMARK  2 active torsions:
REMARK  status: ('A' for Active; 'I' for Inactive)
REMARK    1  A    between atoms: C2_2  and  C3_3 
REMARK    2  A    between atoms: C4_4  and  C5_5 
ROOT
HETATM    1  C1  UNL     1     -31.700  18.151  -0.948  1.00 20.00     0.087 C 
HETATM    2  C2  UNL     1     -32.922  17.767  -1.564  1.00 20.00     0.093 C 
HETATM    3  N8  UNL     1     -30.705  18.469  -0.443  1.00 20.00    -0.192 NA
ENDROOT
BRANCH   2   4
HETATM    4  C3  UNL     1     -32.943  16.954  -2.630  1.00 20.00     0.012 C 
HETATM    5  C4  UNL     1     -33.932  15.915  -2.809  1.00 20.00     0.017 C 
BRANCH   5   6
HETATM    6  C5  UNL     1     -35.225  16.074  -2.502  1.00 20.00     0.084 C 
HETATM    7  N9  UNL     1     -36.290  15.978  -3.339  1.00 20.00    -0.398 N 
HETATM    8  C6  UNL     1     -36.586  14.746  -4.065  1.00 20.00     0.148 C 
HETATM    9  C7  UNL     1     -37.334  17.000  -3.372  1.00 20.00     0.148 C 
ENDBRANCH   5   6
ENDBRANCH   2   4
TORSDOF 2
ENDMDL
MODEL 9
REMARK VINA RESULT:      -3.7      1.716      5.166
REMARK  2 active torsions:
REMARK  status: ('A' for Active; 'I' for Inactive)
REMARK    1  A    between atoms: C2_2  and  C3_3 
REMARK    2  A    between atoms: C4_4  and  C5_5 
ROOT
HETATM    1  C1  UNL     1     -31.760  18.161  -1.162  1.00 20.00     0.087 C 
HETATM    2  C2  UNL     1     -32.922  17.762  -1.876  1.00 20.00     0.093 C 
HETATM    3  N8  UNL     1     -30.808  18.488  -0.583  1.00 20.00    -0.192 NA
ENDROOT
BRANCH   2   4
HETATM    4  C3  UNL     1     -34.041  17.391  -1.238  1.00 20.00     0.012 C 
HETATM    5  C4  UNL     1     -35.053  16.555  -1.845  1.00 20.00     0.017 C 
BRANCH   5   6
HETATM    6  C5  UNL     1     -34.765  15.506  -2.625  1.00 20.00     0.084 C 
HETATM    7  N9  UNL     1     -35.132  15.313  -3.918  1.00 20.00    -0.398 N 
HETATM    8  C6  UNL     1     -34.734  16.241  -4.974  1.00 20.00     0.148 C 
HETATM    9  C7  UNL     1     -35.724  14.055  -4.369  1.00 20.00     0.148 C 
ENDBRANCH   5   6
ENDBRANCH   2   4
TORSDOF 2
ENDMDL
