MODEL 1
REMARK VINA RESULT:      -5.0      0.000      0.000
REMARK  0 active torsions:
REMARK  status: ('A' for Active; 'I' for Inactive)
ROOT
HETATM    1  C1  UNL     1     -33.605   5.056   2.364  1.00 20.00     0.031 A 
HETATM    2  C2  UNL     1     -34.706   4.676   4.520  1.00 20.00    -0.014 A 
HETATM    3  C3  UNL     1     -33.588   7.120   5.477  1.00 20.00    -0.013 A 
HETATM    4  C4  UNL     1     -32.828   5.873   1.631  1.00 20.00     0.117 A 
HETATM    5  C5  UNL     1     -32.546   7.440   3.269  1.00 20.00     0.128 A 
HETATM    6  C6  UNL     1     -33.926   5.430   3.728  1.00 20.00    -0.027 A 
HETATM    7  C7  UNL     1     -33.379   6.674   4.234  1.00 20.00    -0.012 A 
HETATM    8  C8  UNL     1     -35.057   5.055   5.933  1.00 20.00     0.032 A 
HETATM    9  C9  UNL     1     -34.418   6.353   6.465  1.00 20.00     0.032 A 
HETATM   10  N10 UNL     1     -32.284   7.071   2.051  1.00 20.00    -0.272 NA
ENDROOT
TORSDOF 0
ENDMDL
MODEL 2
REMARK VINA RESULT:      -5.0     16.232     16.671
REMARK  0 active torsions:
REMARK  status: ('A' for Active; 'I' for Inactive)
ROOT
HETATM    1  C1  UNL     1     -25.490  19.244   8.499  1.00 20.00     0.031 A 
HETATM    2  C2  UNL     1     -25.743  18.976  10.922  1.00 20.00    -0.014 A 
HETATM    3  C3  UNL     1     -23.160  17.766  11.018  1.00 20.00    -0.013 A 
HETATM    4  C4  UNL     1     -24.695  19.066   7.429  1.00 20.00     0.117 A 
HETATM    5  C5  UNL     1     -22.975  18.106   8.586  1.00 20.00     0.128 A 
HETATM    6  C6  UNL     1     -25.015  18.820   9.803  1.00 20.00    -0.027 A 
HETATM    7  C7  UNL     1     -23.702  18.213   9.880  1.00 20.00    -0.012 A 
HETATM    8  C8  UNL     1     -25.261  18.551  12.283  1.00 20.00     0.032 A 
HETATM    9  C9  UNL     1     -23.886  17.858  12.329  1.00 20.00     0.032 A 
HETATM   10  N10 UNL     1     -23.434  18.502   7.437  1.00 20.00    -0.272 NA
ENDROOT
TORSDOF 0
ENDMDL
MODEL 3
REMARK VINA RESULT:      -5.0     16.414     16.822
REMARK  0 active torsions:
REMARK  status: ('A' for Active; 'I' for Inactive)
ROOT
HETATM    1  C1  UNL     1     -21.961  17.437   9.615  1.00 20.00     0.031 A 
HETATM    2  C2  UNL     1     -23.342  17.739  11.616  1.00 20.00    -0.014 A 
HETATM    3  C3  UNL     1     -25.358  18.942   9.995  1.00 20.00    -0.013 A 
HETATM    4  C4  UNL     1     -21.868  17.597   8.283  1.00 20.00     0.117 A 
HETATM    5  C5  UNL     1     -23.920  18.568   8.031  1.00 20.00     0.128 A 
HETATM    6  C6  UNL     1     -23.166  17.878  10.292  1.00 20.00    -0.027 A 
HETATM    7  C7  UNL     1     -24.210  18.481   9.488  1.00 20.00    -0.012 A 
HETATM    8  C8  UNL     1     -24.590  18.182  12.332  1.00 20.00     0.032 A 
HETATM    9  C9  UNL     1     -25.661  18.871  11.464  1.00 20.00     0.032 A 
HETATM   10  N10 UNL     1     -22.827  18.156   7.462  1.00 20.00    -0.272 NA
ENDROOT
TORSDOF 0
ENDMDL
MODEL 4
REMARK VINA RESULT:      -4.9      0.609      2.105
REMARK  0 active torsions:
REMARK  status: ('A' for Active; 'I' for Inactive)
ROOT
HETATM    1  C1  UNL     1     -32.529   7.509   3.306  1.00 20.00     0.031 A 
HETATM    2  C2  UNL     1     -33.575   7.111   5.486  1.00 20.00    -0.014 A 
HETATM    3  C3  UNL     1     -34.681   4.686   4.469  1.00 20.00    -0.013 A 
HETATM    4  C4  UNL     1     -32.329   7.048   2.058  1.00 20.00     0.117 A 
HETATM    5  C5  UNL     1     -33.566   5.145   2.322  1.00 20.00     0.128 A 
HETATM    6  C6  UNL     1     -33.341   6.727   4.220  1.00 20.00    -0.027 A 
HETATM    7  C7  UNL     1     -33.904   5.485   3.731  1.00 20.00    -0.012 A 
HETATM    8  C8  UNL     1     -34.406   6.308   6.450  1.00 20.00     0.032 A 
HETATM    9  C9  UNL     1     -35.039   5.020   5.889  1.00 20.00     0.032 A 
HETATM   10  N10 UNL     1     -32.831   5.872   1.535  1.00 20.00    -0.272 NA
ENDROOT
TORSDOF 0
ENDMDL
MODEL 5
REMARK VINA RESULT:      -4.9      1.639      3.489
REMARK  0 active torsions:
REMARK  status: ('A' for Active; 'I' for Inactive)
ROOT
HETATM    1  C1  UNL     1     -34.783   4.648   4.627  1.00 20.00     0.031 A 
HETATM    2  C2  UNL     1     -33.655   5.106   2.500  1.00 20.00    -0.014 A 
HETATM    3  C3  UNL     1     -32.636   7.530   3.607  1.00 20.00    -0.013 A 
HETATM    4  C4  UNL     1     -35.013   5.064   5.885  1.00 20.00     0.117 A 
HETATM    5  C5  UNL     1     -33.772   6.975   5.719  1.00 20.00     0.128 A 
HETATM    6  C6  UNL     1     -33.945   5.459   3.763  1.00 20.00    -0.027 A 
HETATM    7  C7  UNL     1     -33.405   6.689   4.307  1.00 20.00    -0.012 A 
HETATM    8  C8  UNL     1     -32.781   5.930   1.594  1.00 20.00     0.032 A 
HETATM    9  C9  UNL     1     -32.265   7.261   2.177  1.00 20.00     0.032 A 
HETATM   10  N10 UNL     1     -34.524   6.219   6.463  1.00 20.00    -0.272 NA
ENDROOT
TORSDOF 0
ENDMDL
MODEL 6
REMARK VINA RESULT:      -4.8     11.575     12.174
REMARK  0 active torsions:
REMARK  status: ('A' for Active; 'I' for Inactive)
ROOT
HETATM    1  C1  UNL     1     -35.544  14.775  -3.160  1.00 20.00     0.031 A 
HETATM    2  C2  UNL     1     -35.290  16.567  -1.507  1.00 20.00    -0.014 A 
HETATM    3  C3  UNL     1     -32.651  17.041  -2.484  1.00 20.00    -0.013 A 
HETATM    4  C4  UNL     1     -34.978  14.099  -4.175  1.00 20.00     0.117 A 
HETATM    5  C5  UNL     1     -33.004  15.249  -4.136  1.00 20.00     0.128 A 
HETATM    6  C6  UNL     1     -34.790  15.836  -2.517  1.00 20.00    -0.027 A 
HETATM    7  C7  UNL     1     -33.451  16.103  -3.003  1.00 20.00    -0.012 A 
HETATM    8  C8  UNL     1     -34.525  17.676  -0.836  1.00 20.00     0.032 A 
HETATM    9  C9  UNL     1     -33.084  17.904  -1.334  1.00 20.00     0.032 A 
HETATM   10  N10 UNL     1     -33.713  14.310  -4.688  1.00 20.00    -0.272 NA
ENDROOT
TORSDOF 0
ENDMDL
MODEL 7
REMARK VINA RESULT:      -4.8      1.713      4.037
REMARK  0 active torsions:
REMARK  status: ('A' for Active; 'I' for Inactive)
ROOT
HETATM    1  C1  UNL     1     -33.935   6.688   5.864  1.00 20.00     0.031 A 
HETATM    2  C2  UNL     1     -32.608   7.604   4.019  1.00 20.00    -0.014 A 
HETATM    3  C3  UNL     1     -33.457   5.429   2.379  1.00 20.00    -0.013 A 
HETATM    4  C4  UNL     1     -34.771   5.715   6.267  1.00 20.00     0.117 A 
HETATM    5  C5  UNL     1     -34.791   4.597   4.275  1.00 20.00     0.128 A 
HETATM    6  C6  UNL     1     -33.434   6.662   4.502  1.00 20.00    -0.027 A 
HETATM    7  C7  UNL     1     -33.861   5.573   3.646  1.00 20.00    -0.012 A 
HETATM    8  C8  UNL     1     -32.088   7.597   2.606  1.00 20.00     0.032 A 
HETATM    9  C9  UNL     1     -32.511   6.400   1.734  1.00 20.00     0.032 A 
HETATM   10  N10 UNL     1     -35.220   4.658   5.500  1.00 20.00    -0.272 NA
ENDROOT
TORSDOF 0
ENDMDL
MODEL 8
REMARK VINA RESULT:      -4.7     11.566     12.228
REMARK  0 active torsions:
REMARK  status: ('A' for Active; 'I' for Inactive)
ROOT
HETATM    1  C1  UNL     1     -32.793  15.412  -4.039  1.00 20.00     0.031 A 
HETATM    2  C2  UNL     1     -32.764  17.158  -2.319  1.00 20.00    -0.014 A 
HETATM    3  C3  UNL     1     -35.420  16.422  -1.582  1.00 20.00    -0.013 A 
HETATM    4  C4  UNL     1     -33.492  14.418  -4.614  1.00 20.00     0.117 A 
HETATM    5  C5  UNL     1     -35.351  14.669  -3.310  1.00 20.00     0.128 A 
HETATM    6  C6  UNL     1     -33.402  16.161  -2.955  1.00 20.00    -0.027 A 
HETATM    7  C7  UNL     1     -34.746  15.798  -2.554  1.00 20.00    -0.012 A 
HETATM    8  C8  UNL     1     -33.377  17.938  -1.187  1.00 20.00     0.032 A 
HETATM    9  C9  UNL     1     -34.827  17.570  -0.817  1.00 20.00     0.032 A 
HETATM   10  N10 UNL     1     -34.770  14.020  -4.274  1.00 20.00    -0.272 NA
ENDROOT
TORSDOF 0
ENDMDL
MODEL 9
REMARK VINA RESULT:      -4.7     11.751     12.476
REMARK  0 active torsions:
REMARK  status: ('A' for Active; 'I' for Inactive)
ROOT
HETATM    1  C1  UNL     1     -35.344  16.827  -1.158  1.00 20.00     0.031 A 
HETATM    2  C2  UNL     1     -35.463  15.088  -2.880  1.00 20.00    -0.014 A 
HETATM    3  C3  UNL     1     -32.827  15.790  -3.716  1.00 20.00    -0.013 A 
HETATM    4  C4  UNL     1     -34.596  17.787  -0.584  1.00 20.00     0.117 A 
HETATM    5  C5  UNL     1     -32.779  17.492  -1.937  1.00 20.00     0.128 A 
HETATM    6  C6  UNL     1     -34.786  16.071  -2.264  1.00 20.00    -0.027 A 
HETATM    7  C7  UNL     1     -33.444  16.401  -2.699  1.00 20.00    -0.012 A 
HETATM    8  C8  UNL     1     -34.896  14.288  -4.021  1.00 20.00     0.032 A 
HETATM    9  C9  UNL     1     -33.489  14.695  -4.502  1.00 20.00     0.032 A 
HETATM   10  N10 UNL     1     -33.313  18.143  -0.947  1.00 20.00    -0.272 NA
ENDROOT
TORSDOF 0
ENDMDL
