MODEL 1
REMARK VINA RESULT:      -4.6      0.000      0.000
REMARK  1 active torsions:
REMARK  status: ('A' for Active; 'I' for Inactive)
REMARK    1  A    between atoms: C1_1  and  C5_5 
ROOT
HETATM    1  C2  UNL     1     -35.034  15.573  -2.475  1.00 20.00     0.026 C 
HETATM    2  C3  UNL     1     -34.984  16.374  -4.444  1.00 20.00     0.026 C 
HETATM    3  C4  UNL     1     -33.665  14.794  -3.905  1.00 20.00     0.026 C 
HETATM    4  C5  UNL     1     -35.206  14.949  -3.881  1.00 20.00     0.022 C 
HETATM    5  C6  UNL     1     -33.877  16.251  -3.318  1.00 20.00    -0.041 C 
HETATM    6  C8  UNL     1     -32.866  17.240  -2.889  1.00 20.00     0.015 C 
ENDROOT
BRANCH   4   7
HETATM    7  C1  UNL     1     -36.226  13.954  -4.311  1.00 20.00     0.131 C 
HETATM    8  C7  UNL     1     -37.647  14.440  -4.403  1.00 20.00     0.091 C 
HETATM    9  O9  UNL     1     -35.922  12.793  -4.579  1.00 20.00    -0.298 OA
ENDBRANCH   4   7
TORSDOF 1
ENDMDL
MODEL 2
REMARK VINA RESULT:      -4.6      0.013      1.227
REMARK  1 active torsions:
REMARK  status: ('A' for Active; 'I' for Inactive)
REMARK    1  A    between atoms: C1_1  and  C5_5 
ROOT
HETATM    1  C2  UNL     1     -33.665  14.793  -3.895  1.00 20.00     0.026 C 
HETATM    2  C3  UNL     1     -35.034  15.574  -2.468  1.00 20.00     0.026 C 
HETATM    3  C4  UNL     1     -34.973  16.381  -4.435  1.00 20.00     0.026 C 
HETATM    4  C5  UNL     1     -35.205  14.955  -3.876  1.00 20.00     0.022 C 
HETATM    5  C6  UNL     1     -33.871  16.248  -3.304  1.00 20.00    -0.041 C 
HETATM    6  C8  UNL     1     -32.856  17.232  -2.871  1.00 20.00     0.015 C 
ENDROOT
BRANCH   4   7
HETATM    7  C1  UNL     1     -36.224  13.963  -4.312  1.00 20.00     0.131 C 
HETATM    8  C7  UNL     1     -37.646  14.448  -4.400  1.00 20.00     0.091 C 
HETATM    9  O9  UNL     1     -35.919  12.804  -4.588  1.00 20.00    -0.298 OA
ENDBRANCH   4   7
TORSDOF 1
ENDMDL
MODEL 3
REMARK VINA RESULT:      -4.6      0.022      1.224
REMARK  1 active torsions:
REMARK  status: ('A' for Active; 'I' for Inactive)
REMARK    1  A    between atoms: C1_1  and  C5_5 
ROOT
HETATM    1  C2  UNL     1     -35.012  16.386  -4.425  1.00 20.00     0.026 C 
HETATM    2  C3  UNL     1     -33.681  14.811  -3.907  1.00 20.00     0.026 C 
HETATM    3  C4  UNL     1     -35.043  15.571  -2.461  1.00 20.00     0.026 C 
HETATM    4  C5  UNL     1     -35.222  14.956  -3.871  1.00 20.00     0.022 C 
HETATM    5  C6  UNL     1     -33.896  16.261  -3.309  1.00 20.00    -0.041 C 
HETATM    6  C8  UNL     1     -32.888  17.254  -2.880  1.00 20.00     0.015 C 
ENDROOT
BRANCH   4   7
HETATM    7  C1  UNL     1     -36.236  13.957  -4.304  1.00 20.00     0.131 C 
HETATM    8  C7  UNL     1     -37.659  14.437  -4.404  1.00 20.00     0.091 C 
HETATM    9  O9  UNL     1     -35.926  12.797  -4.570  1.00 20.00    -0.298 OA
ENDBRANCH   4   7
TORSDOF 1
ENDMDL
MODEL 4
REMARK VINA RESULT:      -4.4      0.947      1.619
REMARK  1 active torsions:
REMARK  status: ('A' for Active; 'I' for Inactive)
REMARK    1  A    between atoms: C1_1  and  C5_5 
ROOT
HETATM    1  C2  UNL     1     -34.585  16.624  -4.456  1.00 20.00     0.026 C 
HETATM    2  C3  UNL     1     -33.260  15.030  -3.984  1.00 20.00     0.026 C 
HETATM    3  C4  UNL     1     -34.955  15.402  -2.755  1.00 20.00     0.026 C 
HETATM    4  C5  UNL     1     -34.781  15.101  -4.263  1.00 20.00     0.022 C 
HETATM    5  C6  UNL     1     -33.720  16.306  -3.167  1.00 20.00    -0.041 C 
HETATM    6  C8  UNL     1     -32.915  17.223  -2.334  1.00 20.00     0.015 C 
ENDROOT
BRANCH   4   7
HETATM    7  C1  UNL     1     -35.591  14.179  -5.105  1.00 20.00     0.131 C 
HETATM    8  C7  UNL     1     -35.787  14.574  -6.544  1.00 20.00     0.091 C 
HETATM    9  O9  UNL     1     -36.075  13.145  -4.648  1.00 20.00    -0.298 OA
ENDBRANCH   4   7
TORSDOF 1
ENDMDL
MODEL 5
REMARK VINA RESULT:      -4.3     17.868     18.643
REMARK  1 active torsions:
REMARK  status: ('A' for Active; 'I' for Inactive)
REMARK    1  A    between atoms: C1_1  and  C5_5 
ROOT
HETATM    1  C2  UNL     1     -23.940  16.455  10.284  1.00 20.00     0.026 C 
HETATM    2  C3  UNL     1     -24.723  18.428  10.164  1.00 20.00     0.026 C 
HETATM    3  C4  UNL     1     -23.218  17.966  11.594  1.00 20.00     0.026 C 
HETATM    4  C5  UNL     1     -23.294  17.843  10.053  1.00 20.00     0.022 C 
HETATM    5  C6  UNL     1     -24.668  17.377  11.347  1.00 20.00    -0.041 C 
HETATM    6  C8  UNL     1     -25.711  17.022  12.332  1.00 20.00     0.015 C 
ENDROOT
BRANCH   4   7
HETATM    7  C1  UNL     1     -22.245  18.198   9.059  1.00 20.00     0.131 C 
HETATM    8  C7  UNL     1     -22.111  17.294   7.864  1.00 20.00     0.091 C 
HETATM    9  O9  UNL     1     -21.524  19.184   9.208  1.00 20.00    -0.298 OA
ENDBRANCH   4   7
TORSDOF 1
ENDMDL
MODEL 6
REMARK VINA RESULT:      -4.1     15.655     17.526
REMARK  1 active torsions:
REMARK  status: ('A' for Active; 'I' for Inactive)
REMARK    1  A    between atoms: C1_1  and  C5_5 
ROOT
HETATM    1  C2  UNL     1     -23.550  16.924   9.316  1.00 20.00     0.026 C 
HETATM    2  C3  UNL     1     -24.495  18.641  10.141  1.00 20.00     0.026 C 
HETATM    3  C4  UNL     1     -22.486  18.761   9.450  1.00 20.00     0.026 C 
HETATM    4  C5  UNL     1     -23.820  18.351   8.778  1.00 20.00     0.022 C 
HETATM    5  C6  UNL     1     -23.183  17.852  10.546  1.00 20.00    -0.041 C 
HETATM    6  C8  UNL     1     -22.697  17.473  11.889  1.00 20.00     0.015 C 
ENDROOT
BRANCH   4   7
HETATM    7  C1  UNL     1     -24.310  18.730   7.426  1.00 20.00     0.131 C 
HETATM    8  C7  UNL     1     -25.782  19.016   7.296  1.00 20.00     0.091 C 
HETATM    9  O9  UNL     1     -23.550  18.808   6.462  1.00 20.00    -0.298 OA
ENDBRANCH   4   7
TORSDOF 1
ENDMDL
MODEL 7
REMARK VINA RESULT:      -4.1     18.020     18.574
REMARK  1 active torsions:
REMARK  status: ('A' for Active; 'I' for Inactive)
REMARK    1  A    between atoms: C1_1  and  C5_5 
ROOT
HETATM    1  C2  UNL     1     -23.813  16.516  10.001  1.00 20.00     0.026 C 
HETATM    2  C3  UNL     1     -22.770  17.770  11.365  1.00 20.00     0.026 C 
HETATM    3  C4  UNL     1     -23.788  18.621   9.703  1.00 20.00     0.026 C 
HETATM    4  C5  UNL     1     -24.238  17.719  10.878  1.00 20.00     0.022 C 
HETATM    5  C6  UNL     1     -22.627  17.547   9.804  1.00 20.00    -0.041 C 
HETATM    6  C8  UNL     1     -21.403  17.417   8.986  1.00 20.00     0.015 C 
ENDROOT
BRANCH   4   7
HETATM    7  C1  UNL     1     -25.471  17.847  11.702  1.00 20.00     0.131 C 
HETATM    8  C7  UNL     1     -26.131  19.199  11.726  1.00 20.00     0.091 C 
HETATM    9  O9  UNL     1     -25.927  16.894  12.331  1.00 20.00    -0.298 OA
ENDBRANCH   4   7
TORSDOF 1
ENDMDL
MODEL 8
REMARK VINA RESULT:      -4.0      1.635      2.210
REMARK  1 active torsions:
REMARK  status: ('A' for Active; 'I' for Inactive)
REMARK    1  A    between atoms: C1_1  and  C5_5 
ROOT
HETATM    1  C2  UNL     1     -35.429  13.557  -4.249  1.00 20.00     0.026 C 
HETATM    2  C3  UNL     1     -35.310  15.360  -3.127  1.00 20.00     0.026 C 
HETATM    3  C4  UNL     1     -35.327  15.429  -5.253  1.00 20.00     0.026 C 
HETATM    4  C5  UNL     1     -36.297  14.839  -4.200  1.00 20.00     0.022 C 
HETATM    5  C6  UNL     1     -34.357  14.722  -4.219  1.00 20.00    -0.041 C 
HETATM    6  C8  UNL     1     -32.881  14.634  -4.235  1.00 20.00     0.015 C 
ENDROOT
BRANCH   4   7
HETATM    7  C1  UNL     1     -37.782  14.925  -4.183  1.00 20.00     0.131 C 
HETATM    8  C7  UNL     1     -38.378  16.288  -3.952  1.00 20.00     0.091 C 
HETATM    9  O9  UNL     1     -38.488  13.932  -4.349  1.00 20.00    -0.298 OA
ENDBRANCH   4   7
TORSDOF 1
ENDMDL
MODEL 9
REMARK VINA RESULT:      -3.9      2.508      4.280
REMARK  1 active torsions:
REMARK  status: ('A' for Active; 'I' for Inactive)
REMARK    1  A    between atoms: C1_1  and  C5_5 
ROOT
HETATM    1  C2  UNL     1     -34.748  16.649  -4.296  1.00 20.00     0.026 C 
HETATM    2  C3  UNL     1     -34.558  15.911  -2.311  1.00 20.00     0.026 C 
HETATM    3  C4  UNL     1     -33.104  15.402  -3.778  1.00 20.00     0.026 C 
HETATM    4  C5  UNL     1     -33.633  16.749  -3.227  1.00 20.00     0.022 C 
HETATM    5  C6  UNL     1     -34.672  15.179  -3.710  1.00 20.00    -0.041 C 
HETATM    6  C8  UNL     1     -35.461  13.985  -4.079  1.00 20.00     0.015 C 
ENDROOT
BRANCH   4   7
HETATM    7  C1  UNL     1     -32.841  17.953  -2.856  1.00 20.00     0.131 C 
HETATM    8  C7  UNL     1     -32.340  18.023  -1.439  1.00 20.00     0.091 C 
HETATM    9  O9  UNL     1     -32.606  18.846  -3.669  1.00 20.00    -0.298 OA
ENDBRANCH   4   7
TORSDOF 1
ENDMDL
