MODEL 1
REMARK VINA RESULT:      -5.1      0.000      0.000
REMARK  1 active torsions:
REMARK  status: ('A' for Active; 'I' for Inactive)
REMARK    1  A    between atoms: C3_3  and  C7_7 
ROOT
HETATM    1  C1  UNL     1     -35.986  16.686  -3.202  1.00 20.00    -0.020 C 
HETATM    2  C2  UNL     1     -36.777  16.792  -4.284  1.00 20.00    -0.086 C 
HETATM    3  C4  UNL     1     -36.619  15.897  -5.490  1.00 20.00     0.049 C 
HETATM    4  C5  UNL     1     -34.469  15.069  -4.430  1.00 20.00     0.023 C 
HETATM    5  C6  UNL     1     -34.851  15.703  -3.081  1.00 20.00     0.005 C 
HETATM    6  C7  UNL     1     -35.688  14.698  -5.274  1.00 20.00     0.091 C 
HETATM    7  C8  UNL     1     -37.879  17.807  -4.362  1.00 20.00     0.043 C 
HETATM    8  C9  UNL     1     -33.625  16.365  -2.449  1.00 20.00     0.014 C 
ENDROOT
BRANCH   6   9
HETATM    9  C3  UNL     1     -36.423  13.547  -4.648  1.00 20.00     0.177 C 
HETATM   10  O10 UNL     1     -37.654  13.741  -4.445  1.00 20.00    -0.648 OA
HETATM   11  O11 UNL     1     -35.712  12.532  -4.405  1.00 20.00    -0.648 OA
ENDBRANCH   6   9
TORSDOF 1
ENDMDL
MODEL 2
REMARK VINA RESULT:      -5.0      0.986      1.995
REMARK  1 active torsions:
REMARK  status: ('A' for Active; 'I' for Inactive)
REMARK    1  A    between atoms: C3_3  and  C7_7 
ROOT
HETATM    1  C1  UNL     1     -34.343  15.544  -2.879  1.00 20.00    -0.020 C 
HETATM    2  C2  UNL     1     -35.474  16.270  -2.901  1.00 20.00    -0.086 C 
HETATM    3  C4  UNL     1     -36.441  16.222  -4.060  1.00 20.00     0.049 C 
HETATM    4  C5  UNL     1     -34.684  14.881  -5.302  1.00 20.00     0.023 C 
HETATM    5  C6  UNL     1     -33.900  14.639  -4.000  1.00 20.00     0.005 C 
HETATM    6  C7  UNL     1     -36.178  15.092  -5.062  1.00 20.00     0.091 C 
HETATM    7  C8  UNL     1     -35.855  17.175  -1.767  1.00 20.00     0.043 C 
HETATM    8  C9  UNL     1     -32.400  14.789  -4.257  1.00 20.00     0.014 C 
ENDROOT
BRANCH   6   9
HETATM    9  C3  UNL     1     -36.818  13.809  -4.612  1.00 20.00     0.177 C 
HETATM   10  O10 UNL     1     -36.065  12.797  -4.629  1.00 20.00    -0.648 OA
HETATM   11  O11 UNL     1     -38.030  13.912  -4.274  1.00 20.00    -0.648 OA
ENDBRANCH   6   9
TORSDOF 1
ENDMDL
MODEL 3
REMARK VINA RESULT:      -4.7      1.321      3.394
REMARK  1 active torsions:
REMARK  status: ('A' for Active; 'I' for Inactive)
REMARK    1  A    between atoms: C3_3  and  C7_7 
ROOT
HETATM    1  C1  UNL     1     -34.152  15.478  -5.810  1.00 20.00    -0.020 C 
HETATM    2  C2  UNL     1     -33.773  14.952  -4.632  1.00 20.00    -0.086 C 
HETATM    3  C4  UNL     1     -34.724  14.816  -3.467  1.00 20.00     0.049 C 
HETATM    4  C5  UNL     1     -36.364  16.208  -4.810  1.00 20.00     0.023 C 
HETATM    5  C6  UNL     1     -35.533  16.011  -6.091  1.00 20.00     0.005 C 
HETATM    6  C7  UNL     1     -36.197  15.060  -3.816  1.00 20.00     0.091 C 
HETATM    7  C8  UNL     1     -32.376  14.459  -4.399  1.00 20.00     0.043 C 
HETATM    8  C9  UNL     1     -35.459  17.324  -6.873  1.00 20.00     0.014 C 
ENDROOT
BRANCH   6   9
HETATM    9  C3  UNL     1     -36.840  13.811  -4.351  1.00 20.00     0.177 C 
HETATM   10  O10 UNL     1     -36.052  12.849  -4.564  1.00 20.00    -0.648 OA
HETATM   11  O11 UNL     1     -38.089  13.888  -4.517  1.00 20.00    -0.648 OA
ENDBRANCH   6   9
TORSDOF 1
ENDMDL
MODEL 4
REMARK VINA RESULT:      -4.6      1.329      1.425
REMARK  1 active torsions:
REMARK  status: ('A' for Active; 'I' for Inactive)
REMARK    1  A    between atoms: C3_3  and  C7_7 
ROOT
HETATM    1  C1  UNL     1     -35.825  17.068  -3.766  1.00 20.00    -0.020 C 
HETATM    2  C2  UNL     1     -35.491  17.094  -5.068  1.00 20.00    -0.086 C 
HETATM    3  C4  UNL     1     -34.767  15.951  -5.739  1.00 20.00     0.049 C 
HETATM    4  C5  UNL     1     -34.453  14.964  -3.424  1.00 20.00     0.023 C 
HETATM    5  C6  UNL     1     -35.494  15.932  -2.834  1.00 20.00     0.005 C 
HETATM    6  C7  UNL     1     -34.694  14.668  -4.903  1.00 20.00     0.091 C 
HETATM    7  C8  UNL     1     -35.824  18.265  -5.946  1.00 20.00     0.043 C 
HETATM    8  C9  UNL     1     -35.010  16.461  -1.483  1.00 20.00     0.014 C 
ENDROOT
BRANCH   6   9
HETATM    9  C3  UNL     1     -35.937  13.841  -5.072  1.00 20.00     0.177 C 
HETATM   10  O10 UNL     1     -36.827  14.351  -5.806  1.00 20.00    -0.648 OA
HETATM   11  O11 UNL     1     -35.928  12.739  -4.455  1.00 20.00    -0.648 OA
ENDBRANCH   6   9
TORSDOF 1
ENDMDL
MODEL 5
REMARK VINA RESULT:      -4.5      1.432      3.089
REMARK  1 active torsions:
REMARK  status: ('A' for Active; 'I' for Inactive)
REMARK    1  A    between atoms: C3_3  and  C7_7 
ROOT
HETATM    1  C1  UNL     1     -34.309  16.968  -4.650  1.00 20.00    -0.020 C 
HETATM    2  C2  UNL     1     -34.048  16.607  -3.382  1.00 20.00    -0.086 C 
HETATM    3  C4  UNL     1     -34.900  15.609  -2.635  1.00 20.00     0.049 C 
HETATM    4  C5  UNL     1     -36.528  15.744  -4.575  1.00 20.00     0.023 C 
HETATM    5  C6  UNL     1     -35.478  16.454  -5.449  1.00 20.00     0.005 C 
HETATM    6  C7  UNL     1     -35.900  14.845  -3.511  1.00 20.00     0.091 C 
HETATM    7  C8  UNL     1     -32.882  17.170  -2.623  1.00 20.00     0.043 C 
HETATM    8  C9  UNL     1     -36.136  17.587  -6.239  1.00 20.00     0.014 C 
ENDROOT
BRANCH   6   9
HETATM    9  C3  UNL     1     -35.253  13.651  -4.156  1.00 20.00     0.177 C 
HETATM   10  O10 UNL     1     -33.994  13.615  -4.080  1.00 20.00    -0.648 OA
HETATM   11  O11 UNL     1     -36.056  12.838  -4.691  1.00 20.00    -0.648 OA
ENDBRANCH   6   9
TORSDOF 1
ENDMDL
MODEL 6
REMARK VINA RESULT:      -4.5      2.820      4.326
REMARK  1 active torsions:
REMARK  status: ('A' for Active; 'I' for Inactive)
REMARK    1  A    between atoms: C3_3  and  C7_7 
ROOT
HETATM    1  C1  UNL     1     -32.819  16.891  -2.900  1.00 20.00    -0.020 C 
HETATM    2  C2  UNL     1     -33.625  15.851  -3.176  1.00 20.00    -0.086 C 
HETATM    3  C4  UNL     1     -34.937  15.634  -2.461  1.00 20.00     0.049 C 
HETATM    4  C5  UNL     1     -34.237  17.495  -0.887  1.00 20.00     0.023 C 
HETATM    5  C6  UNL     1     -33.110  17.925  -1.843  1.00 20.00     0.005 C 
HETATM    6  C7  UNL     1     -35.402  16.823  -1.612  1.00 20.00     0.091 C 
HETATM    7  C8  UNL     1     -33.272  14.836  -4.223  1.00 20.00     0.043 C 
HETATM    8  C9  UNL     1     -31.847  18.258  -1.047  1.00 20.00     0.014 C 
ENDROOT
BRANCH   6   9
HETATM    9  C3  UNL     1     -36.144  17.827  -2.447  1.00 20.00     0.177 C 
HETATM   10  O10 UNL     1     -36.475  17.431  -3.599  1.00 20.00    -0.648 OA
HETATM   11  O11 UNL     1     -36.341  18.941  -1.886  1.00 20.00    -0.648 OA
ENDBRANCH   6   9
TORSDOF 1
ENDMDL
MODEL 7
REMARK VINA RESULT:      -4.4      1.548      3.032
REMARK  1 active torsions:
REMARK  status: ('A' for Active; 'I' for Inactive)
REMARK    1  A    between atoms: C3_3  and  C7_7 
ROOT
HETATM    1  C1  UNL     1     -36.224  16.550  -3.436  1.00 20.00    -0.020 C 
HETATM    2  C2  UNL     1     -35.159  15.800  -3.106  1.00 20.00    -0.086 C 
HETATM    3  C4  UNL     1     -34.996  14.375  -3.579  1.00 20.00     0.049 C 
HETATM    4  C5  UNL     1     -37.378  14.526  -4.435  1.00 20.00     0.023 C 
HETATM    5  C6  UNL     1     -37.374  16.057  -4.276  1.00 20.00     0.005 C 
HETATM    6  C7  UNL     1     -35.982  13.954  -4.675  1.00 20.00     0.091 C 
HETATM    7  C8  UNL     1     -34.053  16.335  -2.244  1.00 20.00     0.043 C 
HETATM    8  C9  UNL     1     -38.710  16.526  -3.696  1.00 20.00     0.014 C 
ENDROOT
BRANCH   6   9
HETATM    9  C3  UNL     1     -35.483  14.352  -6.035  1.00 20.00     0.177 C 
HETATM   10  O10 UNL     1     -36.362  14.396  -6.939  1.00 20.00    -0.648 OA
HETATM   11  O11 UNL     1     -34.245  14.591  -6.097  1.00 20.00    -0.648 OA
ENDBRANCH   6   9
TORSDOF 1
ENDMDL
MODEL 8
REMARK VINA RESULT:      -4.3      1.463      3.356
REMARK  1 active torsions:
REMARK  status: ('A' for Active; 'I' for Inactive)
REMARK    1  A    between atoms: C3_3  and  C7_7 
ROOT
HETATM    1  C1  UNL     1     -36.063  15.967  -7.062  1.00 20.00    -0.020 C 
HETATM    2  C2  UNL     1     -34.889  15.430  -6.688  1.00 20.00    -0.086 C 
HETATM    3  C4  UNL     1     -34.606  15.022  -5.262  1.00 20.00     0.049 C 
HETATM    4  C5  UNL     1     -36.775  16.179  -4.639  1.00 20.00     0.023 C 
HETATM    5  C6  UNL     1     -37.202  16.248  -6.116  1.00 20.00     0.005 C 
HETATM    6  C7  UNL     1     -35.838  15.007  -4.349  1.00 20.00     0.091 C 
HETATM    7  C8  UNL     1     -33.779  15.195  -7.669  1.00 20.00     0.043 C 
HETATM    8  C9  UNL     1     -37.833  17.609  -6.415  1.00 20.00     0.014 C 
ENDROOT
BRANCH   6   9
HETATM    9  C3  UNL     1     -36.581  13.706  -4.463  1.00 20.00     0.177 C 
HETATM   10  O10 UNL     1     -37.836  13.792  -4.361  1.00 20.00    -0.648 OA
HETATM   11  O11 UNL     1     -35.850  12.693  -4.646  1.00 20.00    -0.648 OA
ENDBRANCH   6   9
TORSDOF 1
ENDMDL
MODEL 9
REMARK VINA RESULT:      -4.3      3.331      4.487
REMARK  1 active torsions:
REMARK  status: ('A' for Active; 'I' for Inactive)
REMARK    1  A    between atoms: C3_3  and  C7_7 
ROOT
HETATM    1  C1  UNL     1     -35.330  15.889  -2.209  1.00 20.00    -0.020 C 
HETATM    2  C2  UNL     1     -34.818  16.739  -1.302  1.00 20.00    -0.086 C 
HETATM    3  C4  UNL     1     -33.511  17.463  -1.522  1.00 20.00     0.049 C 
HETATM    4  C5  UNL     1     -33.185  15.985  -3.557  1.00 20.00     0.023 C 
HETATM    5  C6  UNL     1     -34.658  15.542  -3.513  1.00 20.00     0.005 C 
HETATM    6  C7  UNL     1     -32.967  17.371  -2.953  1.00 20.00     0.091 C 
HETATM    7  C8  UNL     1     -35.518  17.029  -0.007  1.00 20.00     0.043 C 
HETATM    8  C9  UNL     1     -34.762  14.042  -3.794  1.00 20.00     0.014 C 
ENDROOT
BRANCH   6   9
HETATM    9  C3  UNL     1     -33.577  18.424  -3.833  1.00 20.00     0.177 C 
HETATM   10  O10 UNL     1     -33.287  18.336  -5.058  1.00 20.00    -0.648 OA
HETATM   11  O11 UNL     1     -34.304  19.263  -3.231  1.00 20.00    -0.648 OA
ENDBRANCH   6   9
TORSDOF 1
ENDMDL
