MODEL 1
REMARK VINA RESULT:      -4.3      0.000      0.000
REMARK  4 active torsions:
REMARK  status: ('A' for Active; 'I' for Inactive)
REMARK    1  A    between atoms: C1_1  and  C7_7 
REMARK    2  A    between atoms: C2_2  and  C9_9 
REMARK    3  A    between atoms: C4_4  and  C9_9 
REMARK    4  A    between atoms: C9_9  and  O10_10 
ROOT
HETATM    1  C1  UNL     1     -33.108  17.243  -2.076  1.00 20.00    -0.094 C 
HETATM    2  C2  UNL     1     -32.437  17.981  -1.408  1.00 20.00    -0.070 C 
ENDROOT
BRANCH   2   3
HETATM    3  C9  UNL     1     -31.614  18.876  -0.584  1.00 20.00     0.219 C 
BRANCH   3   4
HETATM    4  C4  UNL     1     -32.236  19.038   0.771  1.00 20.00     0.007 C 
HETATM    5  C3  UNL     1     -31.926  18.279   1.829  1.00 20.00     0.010 C 
ENDBRANCH   3   4
BRANCH   3   6
HETATM    6  O10 UNL     1     -30.314  18.319  -0.409  1.00 20.00    -0.380 OA
HETATM    7  H22 UNL     1     -29.742  19.041  -0.107  1.00 20.00     0.211 HD
ENDBRANCH   3   6
ENDBRANCH   2   3
BRANCH   1   8
HETATM    8  C7  UNL     1     -33.915  16.360  -2.878  1.00 20.00     0.020 A 
HETATM    9  C5  UNL     1     -33.937  16.607  -4.370  1.00 20.00     0.024 A 
HETATM   10  C6  UNL     1     -33.189  15.427  -3.822  1.00 20.00     0.024 A 
HETATM   11  C8  UNL     1     -35.174  15.866  -2.224  1.00 20.00     0.029 C 
ENDBRANCH   1   8
TORSDOF 4
ENDMDL
MODEL 2
REMARK VINA RESULT:      -4.3      2.446      5.233
REMARK  4 active torsions:
REMARK  status: ('A' for Active; 'I' for Inactive)
REMARK    1  A    between atoms: C1_1  and  C7_7 
REMARK    2  A    between atoms: C2_2  and  C9_9 
REMARK    3  A    between atoms: C4_4  and  C9_9 
REMARK    4  A    between atoms: C9_9  and  O10_10 
ROOT
HETATM    1  C1  UNL     1     -33.211  16.732  -2.516  1.00 20.00    -0.094 C 
HETATM    2  C2  UNL     1     -33.279  15.845  -3.323  1.00 20.00    -0.070 C 
ENDROOT
BRANCH   2   3
HETATM    3  C9  UNL     1     -33.374  14.762  -4.310  1.00 20.00     0.219 C 
BRANCH   3   4
HETATM    4  C4  UNL     1     -34.181  15.216  -5.490  1.00 20.00     0.007 C 
HETATM    5  C3  UNL     1     -33.821  15.012  -6.762  1.00 20.00     0.010 C 
ENDBRANCH   3   4
BRANCH   3   6
HETATM    6  O10 UNL     1     -32.074  14.411  -4.774  1.00 20.00    -0.380 OA
HETATM    7  H22 UNL     1     -31.504  15.178  -4.607  1.00 20.00     0.211 HD
ENDBRANCH   3   6
ENDBRANCH   2   3
BRANCH   1   8
HETATM    8  C7  UNL     1     -33.126  17.793  -1.547  1.00 20.00     0.020 A 
HETATM    9  C5  UNL     1     -31.746  18.172  -1.054  1.00 20.00     0.024 A 
HETATM   10  C6  UNL     1     -32.479  19.086  -1.993  1.00 20.00     0.024 A 
HETATM   11  C8  UNL     1     -34.270  17.872  -0.576  1.00 20.00     0.029 C 
ENDBRANCH   1   8
TORSDOF 4
ENDMDL
MODEL 3
REMARK VINA RESULT:      -4.3      0.537      1.408
REMARK  4 active torsions:
REMARK  status: ('A' for Active; 'I' for Inactive)
REMARK    1  A    between atoms: C1_1  and  C7_7 
REMARK    2  A    between atoms: C2_2  and  C9_9 
REMARK    3  A    between atoms: C4_4  and  C9_9 
REMARK    4  A    between atoms: C9_9  and  O10_10 
ROOT
HETATM    1  C1  UNL     1     -33.103  17.012  -2.294  1.00 20.00    -0.094 C 
HETATM    2  C2  UNL     1     -32.504  17.777  -1.589  1.00 20.00    -0.070 C 
ENDROOT
BRANCH   2   3
HETATM    3  C9  UNL     1     -31.762  18.707  -0.729  1.00 20.00     0.219 C 
BRANCH   3   4
HETATM    4  C4  UNL     1     -32.395  18.763   0.629  1.00 20.00     0.007 C 
HETATM    5  C3  UNL     1     -31.792  18.355   1.751  1.00 20.00     0.010 C 
ENDBRANCH   3   4
BRANCH   3   6
HETATM    6  O10 UNL     1     -30.419  18.258  -0.570  1.00 20.00    -0.380 OA
HETATM    7  H22 UNL     1     -29.895  19.036  -0.322  1.00 20.00     0.211 HD
ENDBRANCH   3   6
ENDBRANCH   2   3
BRANCH   1   8
HETATM    8  C7  UNL     1     -33.825  16.094  -3.137  1.00 20.00     0.020 A 
HETATM    9  C5  UNL     1     -35.128  15.542  -2.604  1.00 20.00     0.024 A 
HETATM   10  C6  UNL     1     -35.147  16.567  -3.700  1.00 20.00     0.024 A 
HETATM   11  C8  UNL     1     -32.973  15.197  -3.990  1.00 20.00     0.029 C 
ENDBRANCH   1   8
TORSDOF 4
ENDMDL
MODEL 4
REMARK VINA RESULT:      -4.2      2.676      5.265
REMARK  4 active torsions:
REMARK  status: ('A' for Active; 'I' for Inactive)
REMARK    1  A    between atoms: C1_1  and  C7_7 
REMARK    2  A    between atoms: C2_2  and  C9_9 
REMARK    3  A    between atoms: C4_4  and  C9_9 
REMARK    4  A    between atoms: C9_9  and  O10_10 
ROOT
HETATM    1  C1  UNL     1     -33.609  16.471  -2.596  1.00 20.00    -0.094 C 
HETATM    2  C2  UNL     1     -33.727  15.549  -3.356  1.00 20.00    -0.070 C 
ENDROOT
BRANCH   2   3
HETATM    3  C9  UNL     1     -33.883  14.424  -4.287  1.00 20.00     0.219 C 
BRANCH   3   4
HETATM    4  C4  UNL     1     -35.234  14.479  -4.934  1.00 20.00     0.007 C 
HETATM    5  C3  UNL     1     -36.284  13.754  -4.532  1.00 20.00     0.010 C 
ENDBRANCH   3   4
BRANCH   3   6
HETATM    6  O10 UNL     1     -32.899  14.504  -5.315  1.00 20.00    -0.380 OA
HETATM    7  H22 UNL     1     -33.202  13.925  -6.033  1.00 20.00     0.211 HD
ENDBRANCH   3   6
ENDBRANCH   2   3
BRANCH   1   8
HETATM    8  C7  UNL     1     -33.465  17.574  -1.682  1.00 20.00     0.020 A 
HETATM    9  C5  UNL     1     -32.058  18.025  -1.357  1.00 20.00     0.024 A 
HETATM   10  C6  UNL     1     -32.924  18.871  -2.244  1.00 20.00     0.024 A 
HETATM   11  C8  UNL     1     -34.501  17.651  -0.597  1.00 20.00     0.029 C 
ENDBRANCH   1   8
TORSDOF 4
ENDMDL
MODEL 5
REMARK VINA RESULT:      -4.2      3.677      6.103
REMARK  4 active torsions:
REMARK  status: ('A' for Active; 'I' for Inactive)
REMARK    1  A    between atoms: C1_1  and  C7_7 
REMARK    2  A    between atoms: C2_2  and  C9_9 
REMARK    3  A    between atoms: C4_4  and  C9_9 
REMARK    4  A    between atoms: C9_9  and  O10_10 
ROOT
HETATM    1  C1  UNL     1     -35.195  15.681  -3.000  1.00 20.00    -0.094 C 
HETATM    2  C2  UNL     1     -35.704  14.854  -3.706  1.00 20.00    -0.070 C 
ENDROOT
BRANCH   2   3
HETATM    3  C9  UNL     1     -36.326  13.850  -4.578  1.00 20.00     0.219 C 
BRANCH   3   4
HETATM    4  C4  UNL     1     -35.927  14.094  -6.003  1.00 20.00     0.007 C 
HETATM    5  C3  UNL     1     -35.942  15.298  -6.586  1.00 20.00     0.010 C 
ENDBRANCH   3   4
BRANCH   3   6
HETATM    6  O10 UNL     1     -35.881  12.546  -4.214  1.00 20.00    -0.380 OA
HETATM    7  H22 UNL     1     -34.930  12.618  -4.036  1.00 20.00     0.211 HD
ENDBRANCH   3   6
ENDBRANCH   2   3
BRANCH   1   8
HETATM    8  C7  UNL     1     -34.587  16.672  -2.150  1.00 20.00     0.020 A 
HETATM    9  C5  UNL     1     -33.096  16.884  -2.290  1.00 20.00     0.024 A 
HETATM   10  C6  UNL     1     -34.048  17.918  -2.816  1.00 20.00     0.024 A 
HETATM   11  C8  UNL     1     -35.195  16.807  -0.782  1.00 20.00     0.029 C 
ENDBRANCH   1   8
TORSDOF 4
ENDMDL
MODEL 6
REMARK VINA RESULT:      -4.2      2.495      5.281
REMARK  4 active torsions:
REMARK  status: ('A' for Active; 'I' for Inactive)
REMARK    1  A    between atoms: C1_1  and  C7_7 
REMARK    2  A    between atoms: C2_2  and  C9_9 
REMARK    3  A    between atoms: C4_4  and  C9_9 
REMARK    4  A    between atoms: C9_9  and  O10_10 
ROOT
HETATM    1  C1  UNL     1     -33.943  16.359  -2.503  1.00 20.00    -0.094 C 
HETATM    2  C2  UNL     1     -33.716  15.561  -3.372  1.00 20.00    -0.070 C 
ENDROOT
BRANCH   2   3
HETATM    3  C9  UNL     1     -33.449  14.581  -4.432  1.00 20.00     0.219 C 
BRANCH   3   4
HETATM    4  C4  UNL     1     -34.087  15.028  -5.712  1.00 20.00     0.007 C 
HETATM    5  C3  UNL     1     -35.332  14.703  -6.080  1.00 20.00     0.010 C 
ENDBRANCH   3   4
BRANCH   3   6
HETATM    6  O10 UNL     1     -32.046  14.472  -4.653  1.00 20.00    -0.380 OA
HETATM    7  H22 UNL     1     -31.705  13.867  -3.976  1.00 20.00     0.211 HD
ENDBRANCH   3   6
ENDBRANCH   2   3
BRANCH   1   8
HETATM    8  C7  UNL     1     -34.210  17.316  -1.461  1.00 20.00     0.020 A 
HETATM    9  C5  UNL     1     -35.530  18.053  -1.521  1.00 20.00     0.024 A 
HETATM   10  C6  UNL     1     -35.320  16.985  -0.487  1.00 20.00     0.024 A 
HETATM   11  C8  UNL     1     -33.010  18.055  -0.942  1.00 20.00     0.029 C 
ENDBRANCH   1   8
TORSDOF 4
ENDMDL
MODEL 7
REMARK VINA RESULT:      -4.2      2.740      5.361
REMARK  4 active torsions:
REMARK  status: ('A' for Active; 'I' for Inactive)
REMARK    1  A    between atoms: C1_1  and  C7_7 
REMARK    2  A    between atoms: C2_2  and  C9_9 
REMARK    3  A    between atoms: C4_4  and  C9_9 
REMARK    4  A    between atoms: C9_9  and  O10_10 
ROOT
HETATM    1  C1  UNL     1     -33.677  16.456  -2.558  1.00 20.00    -0.094 C 
HETATM    2  C2  UNL     1     -33.778  15.538  -3.326  1.00 20.00    -0.070 C 
ENDROOT
BRANCH   2   3
HETATM    3  C9  UNL     1     -33.911  14.414  -4.261  1.00 20.00     0.219 C 
BRANCH   3   4
HETATM    4  C4  UNL     1     -35.247  14.468  -4.938  1.00 20.00     0.007 C 
HETATM    5  C3  UNL     1     -36.289  13.700  -4.596  1.00 20.00     0.010 C 
ENDBRANCH   3   4
BRANCH   3   6
HETATM    6  O10 UNL     1     -32.904  14.495  -5.267  1.00 20.00    -0.380 OA
HETATM    7  H22 UNL     1     -32.301  15.206  -4.997  1.00 20.00     0.211 HD
ENDBRANCH   3   6
ENDBRANCH   2   3
BRANCH   1   8
HETATM    8  C7  UNL     1     -33.553  17.556  -1.638  1.00 20.00     0.020 A 
HETATM    9  C5  UNL     1     -34.677  18.570  -1.614  1.00 20.00     0.024 A 
HETATM   10  C6  UNL     1     -34.524  17.600  -0.478  1.00 20.00     0.024 A 
HETATM   11  C8  UNL     1     -32.153  18.048  -1.407  1.00 20.00     0.029 C 
ENDBRANCH   1   8
TORSDOF 4
ENDMDL
MODEL 8
REMARK VINA RESULT:      -4.0      2.555      3.270
REMARK  4 active torsions:
REMARK  status: ('A' for Active; 'I' for Inactive)
REMARK    1  A    between atoms: C1_1  and  C7_7 
REMARK    2  A    between atoms: C2_2  and  C9_9 
REMARK    3  A    between atoms: C4_4  and  C9_9 
REMARK    4  A    between atoms: C9_9  and  O10_10 
ROOT
HETATM    1  C1  UNL     1     -34.846  15.527  -2.809  1.00 20.00    -0.094 C 
HETATM    2  C2  UNL     1     -35.046  16.185  -1.826  1.00 20.00    -0.070 C 
ENDROOT
BRANCH   2   3
HETATM    3  C9  UNL     1     -35.282  16.986  -0.617  1.00 20.00     0.219 C 
BRANCH   3   4
HETATM    4  C4  UNL     1     -34.366  18.172  -0.605  1.00 20.00     0.007 C 
HETATM    5  C3  UNL     1     -33.058  18.108  -0.880  1.00 20.00     0.010 C 
ENDBRANCH   3   4
BRANCH   3   6
HETATM    6  O10 UNL     1     -36.624  17.465  -0.606  1.00 20.00    -0.380 OA
HETATM    7  H22 UNL     1     -36.627  18.265  -0.055  1.00 20.00     0.211 HD
ENDBRANCH   3   6
ENDBRANCH   2   3
BRANCH   1   8
HETATM    8  C7  UNL     1     -34.610  14.737  -3.990  1.00 20.00     0.020 A 
HETATM    9  C5  UNL     1     -34.022  15.445  -5.191  1.00 20.00     0.024 A 
HETATM   10  C6  UNL     1     -33.170  14.505  -4.390  1.00 20.00     0.024 A 
HETATM   11  C8  UNL     1     -35.599  13.633  -4.235  1.00 20.00     0.029 C 
ENDBRANCH   1   8
TORSDOF 4
ENDMDL
MODEL 9
REMARK VINA RESULT:      -4.0      2.651      3.548
REMARK  4 active torsions:
REMARK  status: ('A' for Active; 'I' for Inactive)
REMARK    1  A    between atoms: C1_1  and  C7_7 
REMARK    2  A    between atoms: C2_2  and  C9_9 
REMARK    3  A    between atoms: C4_4  and  C9_9 
REMARK    4  A    between atoms: C9_9  and  O10_10 
ROOT
HETATM    1  C1  UNL     1     -34.889  15.517  -2.852  1.00 20.00    -0.094 C 
HETATM    2  C2  UNL     1     -35.062  16.174  -1.861  1.00 20.00    -0.070 C 
ENDROOT
BRANCH   2   3
HETATM    3  C9  UNL     1     -35.284  16.977  -0.652  1.00 20.00     0.219 C 
BRANCH   3   4
HETATM    4  C4  UNL     1     -34.361  18.159  -0.649  1.00 20.00     0.007 C 
HETATM    5  C3  UNL     1     -33.050  18.083  -0.905  1.00 20.00     0.010 C 
ENDBRANCH   3   4
BRANCH   3   6
HETATM    6  O10 UNL     1     -36.623  17.464  -0.630  1.00 20.00    -0.380 OA
HETATM    7  H22 UNL     1     -36.718  18.046  -1.400  1.00 20.00     0.211 HD
ENDBRANCH   3   6
ENDBRANCH   2   3
BRANCH   1   8
HETATM    8  C7  UNL     1     -34.679  14.731  -4.040  1.00 20.00     0.020 A 
HETATM    9  C5  UNL     1     -35.698  13.656  -4.349  1.00 20.00     0.024 A 
HETATM   10  C6  UNL     1     -35.666  14.911  -5.172  1.00 20.00     0.024 A 
HETATM   11  C8  UNL     1     -33.242  14.465  -4.389  1.00 20.00     0.029 C 
ENDBRANCH   1   8
TORSDOF 4
ENDMDL
