MODEL 1
REMARK VINA RESULT:      -3.8      0.000      0.000
REMARK  0 active torsions:
REMARK  status: ('A' for Active; 'I' for Inactive)
ROOT
HETATM    1  C1  UNL     1     -23.125  18.078  10.878  1.00 20.00     0.080 A 
HETATM    2  C2  UNL     1     -22.433  17.180   8.545  1.00 20.00     0.019 A 
HETATM    3  C3  UNL     1     -24.590  18.578   9.082  1.00 20.00     0.128 A 
HETATM    4  C4  UNL     1     -22.272  18.166   9.671  1.00 20.00     0.053 A 
HETATM    5  C5  UNL     1     -23.203  18.472   8.525  1.00 20.00     0.015 A 
HETATM    6  C6  UNL     1     -25.608  18.344  11.374  1.00 20.00     0.150 C 
HETATM    7  N7  UNL     1     -24.438  18.328  10.513  1.00 20.00    -0.379 N 
HETATM    8  S8  UNL     1     -22.425  17.712  12.331  1.00 20.00    -0.065 SA
ENDROOT
TORSDOF 0
ENDMDL
MODEL 2
REMARK VINA RESULT:      -3.8      2.046      3.531
REMARK  0 active torsions:
REMARK  status: ('A' for Active; 'I' for Inactive)
ROOT
HETATM    1  C1  UNL     1     -23.896  18.299   9.988  1.00 20.00     0.080 A 
HETATM    2  C2  UNL     1     -25.020  16.799  11.781  1.00 20.00     0.019 A 
HETATM    3  C3  UNL     1     -22.538  17.656  11.823  1.00 20.00     0.128 A 
HETATM    4  C4  UNL     1     -24.815  18.144  11.138  1.00 20.00     0.053 A 
HETATM    5  C5  UNL     1     -23.956  17.725  12.305  1.00 20.00     0.015 A 
HETATM    6  C6  UNL     1     -21.389  18.052   9.617  1.00 20.00     0.150 C 
HETATM    7  N7  UNL     1     -22.605  18.025  10.411  1.00 20.00    -0.379 N 
HETATM    8  S8  UNL     1     -24.517  18.721   8.515  1.00 20.00    -0.065 SA
ENDROOT
TORSDOF 0
ENDMDL
MODEL 3
REMARK VINA RESULT:      -3.7      2.059      3.177
REMARK  0 active torsions:
REMARK  status: ('A' for Active; 'I' for Inactive)
ROOT
HETATM    1  C1  UNL     1     -25.159  18.318  11.192  1.00 20.00     0.080 A 
HETATM    2  C2  UNL     1     -24.692  15.841  11.805  1.00 20.00     0.019 A 
HETATM    3  C3  UNL     1     -23.178  17.370  10.300  1.00 20.00     0.128 A 
HETATM    4  C4  UNL     1     -24.720  17.300  12.173  1.00 20.00     0.053 A 
HETATM    5  C5  UNL     1     -23.465  16.687  11.603  1.00 20.00     0.015 A 
HETATM    6  C6  UNL     1     -24.295  19.187   8.960  1.00 20.00     0.150 C 
HETATM    7  N7  UNL     1     -24.256  18.343  10.143  1.00 20.00    -0.379 N 
HETATM    8  S8  UNL     1     -26.546  19.170  11.486  1.00 20.00    -0.065 SA
ENDROOT
TORSDOF 0
ENDMDL
MODEL 4
REMARK VINA RESULT:      -3.7     16.692     17.214
REMARK  0 active torsions:
REMARK  status: ('A' for Active; 'I' for Inactive)
ROOT
HETATM    1  C1  UNL     1     -33.806   5.560   3.629  1.00 20.00     0.080 A 
HETATM    2  C2  UNL     1     -34.409   4.759   6.021  1.00 20.00     0.019 A 
HETATM    3  C3  UNL     1     -33.625   7.175   5.355  1.00 20.00     0.128 A 
HETATM    4  C4  UNL     1     -34.823   5.189   4.640  1.00 20.00     0.053 A 
HETATM    5  C5  UNL     1     -34.702   6.208   5.745  1.00 20.00     0.015 A 
HETATM    6  C6  UNL     1     -32.077   7.412   3.382  1.00 20.00     0.150 C 
HETATM    7  N7  UNL     1     -33.148   6.701   4.058  1.00 20.00    -0.379 N 
HETATM    8  S8  UNL     1     -33.636   4.619   2.280  1.00 20.00    -0.065 SA
ENDROOT
TORSDOF 0
ENDMDL
MODEL 5
REMARK VINA RESULT:      -3.7      1.719      2.785
REMARK  0 active torsions:
REMARK  status: ('A' for Active; 'I' for Inactive)
ROOT
HETATM    1  C1  UNL     1     -23.452  17.713   9.829  1.00 20.00     0.080 A 
HETATM    2  C2  UNL     1     -22.835  18.000  12.332  1.00 20.00     0.019 A 
HETATM    3  C3  UNL     1     -25.176  18.500  11.252  1.00 20.00     0.128 A 
HETATM    4  C4  UNL     1     -23.180  17.122  11.159  1.00 20.00     0.053 A 
HETATM    5  C5  UNL     1     -24.270  17.630  12.070  1.00 20.00     0.015 A 
HETATM    6  C6  UNL     1     -25.233  19.245   8.847  1.00 20.00     0.150 C 
HETATM    7  N7  UNL     1     -24.600  18.483   9.910  1.00 20.00    -0.379 N 
HETATM    8  S8  UNL     1     -22.415  17.391   8.581  1.00 20.00    -0.065 SA
ENDROOT
TORSDOF 0
ENDMDL
MODEL 6
REMARK VINA RESULT:      -3.6      2.119      2.785
REMARK  0 active torsions:
REMARK  status: ('A' for Active; 'I' for Inactive)
ROOT
HETATM    1  C1  UNL     1     -24.491  18.342  10.113  1.00 20.00     0.080 A 
HETATM    2  C2  UNL     1     -22.407  17.682  11.510  1.00 20.00     0.019 A 
HETATM    3  C3  UNL     1     -24.901  17.602  12.328  1.00 20.00     0.128 A 
HETATM    4  C4  UNL     1     -23.408  17.382  10.427  1.00 20.00     0.053 A 
HETATM    5  C5  UNL     1     -23.660  16.918  11.840  1.00 20.00     0.015 A 
HETATM    6  C6  UNL     1     -26.520  19.263  11.346  1.00 20.00     0.150 C 
HETATM    7  N7  UNL     1     -25.331  18.438  11.210  1.00 20.00    -0.379 N 
HETATM    8  S8  UNL     1     -24.502  19.084   8.635  1.00 20.00    -0.065 SA
ENDROOT
TORSDOF 0
ENDMDL
MODEL 7
REMARK VINA RESULT:      -3.6      1.515      2.216
REMARK  0 active torsions:
REMARK  status: ('A' for Active; 'I' for Inactive)
ROOT
HETATM    1  C1  UNL     1     -22.875  18.260   9.652  1.00 20.00     0.080 A 
HETATM    2  C2  UNL     1     -24.841  18.620   7.999  1.00 20.00     0.019 A 
HETATM    3  C3  UNL     1     -25.038  18.417  10.609  1.00 20.00     0.128 A 
HETATM    4  C4  UNL     1     -23.651  19.146   8.756  1.00 20.00     0.053 A 
HETATM    5  C5  UNL     1     -25.032  19.239   9.356  1.00 20.00     0.015 A 
HETATM    6  C6  UNL     1     -23.340  17.000  11.815  1.00 20.00     0.150 C 
HETATM    7  N7  UNL     1     -23.687  17.870  10.704  1.00 20.00    -0.379 N 
HETATM    8  S8  UNL     1     -21.306  17.905   9.268  1.00 20.00    -0.065 SA
ENDROOT
TORSDOF 0
ENDMDL
MODEL 8
REMARK VINA RESULT:      -3.5     16.823     17.238
REMARK  0 active torsions:
REMARK  status: ('A' for Active; 'I' for Inactive)
ROOT
HETATM    1  C1  UNL     1     -33.503   6.394   3.844  1.00 20.00     0.080 A 
HETATM    2  C2  UNL     1     -33.956   3.841   3.761  1.00 20.00     0.019 A 
HETATM    3  C3  UNL     1     -34.844   5.507   5.586  1.00 20.00     0.128 A 
HETATM    4  C4  UNL     1     -34.216   5.236   3.258  1.00 20.00     0.053 A 
HETATM    5  C5  UNL     1     -35.061   4.662   4.367  1.00 20.00     0.015 A 
HETATM    6  C6  UNL     1     -33.442   7.529   6.122  1.00 20.00     0.150 C 
HETATM    7  N7  UNL     1     -33.890   6.530   5.167  1.00 20.00    -0.379 N 
HETATM    8  S8  UNL     1     -32.445   7.246   2.901  1.00 20.00    -0.065 SA
ENDROOT
TORSDOF 0
ENDMDL
MODEL 9
REMARK VINA RESULT:      -3.4     17.900     18.688
REMARK  0 active torsions:
REMARK  status: ('A' for Active; 'I' for Inactive)
ROOT
HETATM    1  C1  UNL     1     -34.648  15.454  -5.072  1.00 20.00     0.080 A 
HETATM    2  C2  UNL     1     -33.213  16.269  -3.070  1.00 20.00     0.019 A 
HETATM    3  C3  UNL     1     -35.836  16.166  -3.148  1.00 20.00     0.128 A 
HETATM    4  C4  UNL     1     -33.768  15.157  -3.919  1.00 20.00     0.053 A 
HETATM    5  C5  UNL     1     -34.517  15.619  -2.694  1.00 20.00     0.015 A 
HETATM    6  C6  UNL     1     -36.964  16.466  -5.380  1.00 20.00     0.150 C 
HETATM    7  N7  UNL     1     -35.822  16.018  -4.600  1.00 20.00    -0.379 N 
HETATM    8  S8  UNL     1     -34.116  15.105  -6.598  1.00 20.00    -0.065 SA
ENDROOT
TORSDOF 0
ENDMDL
