MODEL 1
REMARK VINA RESULT:      -5.1      0.000      0.000
REMARK  1 active torsions:
REMARK  status: ('A' for Active; 'I' for Inactive)
REMARK    1  A    between atoms: C1_1  and  C8_8 
ROOT
HETATM    1  C2  UNL     1     -33.787  17.988  -2.066  1.00 20.00     0.001 C 
HETATM    2  C3  UNL     1     -34.398  16.876  -1.230  1.00 20.00     0.001 C 
HETATM    3  C4  UNL     1     -33.228  17.242  -3.273  1.00 20.00     0.010 C 
HETATM    4  C5  UNL     1     -35.124  16.022  -2.264  1.00 20.00     0.010 C 
HETATM    5  C6  UNL     1     -33.628  14.780  -4.027  1.00 20.00     0.023 C 
HETATM    6  C7  UNL     1     -35.016  16.172  -4.870  1.00 20.00     0.023 C 
HETATM    7  C8  UNL     1     -34.819  14.643  -5.006  1.00 20.00     0.073 C 
HETATM    8  C9  UNL     1     -34.240  16.118  -3.520  1.00 20.00    -0.039 C 
ENDROOT
BRANCH   7   9
HETATM    9  C1  UNL     1     -35.984  13.734  -4.593  1.00 20.00     0.223 C 
HETATM   10  O10 UNL     1     -35.824  12.534  -4.386  1.00 20.00    -0.279 OA
HETATM   11 CL11 UNL     1     -37.481  14.605  -4.467  1.00 20.00    -0.043 Cl
ENDBRANCH   7   9
TORSDOF 1
ENDMDL
MODEL 2
REMARK VINA RESULT:      -5.0      1.143      1.143
REMARK  1 active torsions:
REMARK  status: ('A' for Active; 'I' for Inactive)
REMARK    1  A    between atoms: C1_1  and  C8_8 
ROOT
HETATM    1  C2  UNL     1     -33.269  17.374  -2.049  1.00 20.00     0.001 C 
HETATM    2  C3  UNL     1     -34.524  16.940  -1.312  1.00 20.00     0.001 C 
HETATM    3  C4  UNL     1     -33.066  16.258  -3.069  1.00 20.00     0.010 C 
HETATM    4  C5  UNL     1     -35.444  16.473  -2.436  1.00 20.00     0.010 C 
HETATM    5  C6  UNL     1     -34.688  14.343  -3.769  1.00 20.00     0.023 C 
HETATM    6  C7  UNL     1     -34.880  16.110  -4.960  1.00 20.00     0.023 C 
HETATM    7  C8  UNL     1     -35.579  14.729  -4.975  1.00 20.00     0.073 C 
HETATM    8  C9  UNL     1     -34.489  15.857  -3.473  1.00 20.00    -0.039 C 
ENDROOT
BRANCH   7   9
HETATM    9  C1  UNL     1     -37.100  14.696  -4.780  1.00 20.00     0.223 C 
HETATM   10  O10 UNL     1     -37.678  13.689  -4.380  1.00 20.00    -0.279 OA
HETATM   11 CL11 UNL     1     -37.844  16.212  -5.186  1.00 20.00    -0.043 Cl
ENDBRANCH   7   9
TORSDOF 1
ENDMDL
MODEL 3
REMARK VINA RESULT:      -4.9      1.421      1.911
REMARK  1 active torsions:
REMARK  status: ('A' for Active; 'I' for Inactive)
REMARK    1  A    between atoms: C1_1  and  C8_8 
ROOT
HETATM    1  C2  UNL     1     -32.921  18.111  -3.495  1.00 20.00     0.001 C 
HETATM    2  C3  UNL     1     -34.339  18.425  -3.941  1.00 20.00     0.001 C 
HETATM    3  C4  UNL     1     -33.076  16.773  -2.779  1.00 20.00     0.010 C 
HETATM    4  C5  UNL     1     -34.838  17.089  -4.481  1.00 20.00     0.010 C 
HETATM    5  C6  UNL     1     -35.109  15.142  -2.742  1.00 20.00     0.023 C 
HETATM    6  C7  UNL     1     -33.712  14.738  -4.311  1.00 20.00     0.023 C 
HETATM    7  C8  UNL     1     -35.036  14.075  -3.860  1.00 20.00     0.073 C 
HETATM    8  C9  UNL     1     -34.157  16.042  -3.583  1.00 20.00    -0.039 C 
ENDROOT
BRANCH   7   9
HETATM    9  C1  UNL     1     -36.188  14.019  -4.872  1.00 20.00     0.223 C 
HETATM   10  O10 UNL     1     -37.329  13.717  -4.535  1.00 20.00    -0.279 OA
HETATM   11 CL11 UNL     1     -35.668  14.428  -6.478  1.00 20.00    -0.043 Cl
ENDBRANCH   7   9
TORSDOF 1
ENDMDL
MODEL 4
REMARK VINA RESULT:      -4.8      1.351      1.351
REMARK  1 active torsions:
REMARK  status: ('A' for Active; 'I' for Inactive)
REMARK    1  A    between atoms: C1_1  and  C8_8 
ROOT
HETATM    1  C2  UNL     1     -33.825  17.422  -1.688  1.00 20.00     0.001 C 
HETATM    2  C3  UNL     1     -34.968  16.460  -1.414  1.00 20.00     0.001 C 
HETATM    3  C4  UNL     1     -33.032  16.711  -2.780  1.00 20.00     0.010 C 
HETATM    4  C5  UNL     1     -35.407  16.034  -2.811  1.00 20.00     0.010 C 
HETATM    5  C6  UNL     1     -33.685  14.634  -4.212  1.00 20.00     0.023 C 
HETATM    6  C7  UNL     1     -34.240  16.500  -5.101  1.00 20.00     0.023 C 
HETATM    7  C8  UNL     1     -34.383  15.022  -5.538  1.00 20.00     0.073 C 
HETATM    8  C9  UNL     1     -34.103  16.014  -3.627  1.00 20.00    -0.039 C 
ENDROOT
BRANCH   7   9
HETATM    9  C1  UNL     1     -35.799  14.485  -5.785  1.00 20.00     0.223 C 
HETATM   10  O10 UNL     1     -36.486  14.883  -6.721  1.00 20.00    -0.279 OA
HETATM   11 CL11 UNL     1     -36.260  13.293  -4.609  1.00 20.00    -0.043 Cl
ENDBRANCH   7   9
TORSDOF 1
ENDMDL
MODEL 5
REMARK VINA RESULT:      -4.8      1.183      1.765
REMARK  1 active torsions:
REMARK  status: ('A' for Active; 'I' for Inactive)
REMARK    1  A    between atoms: C1_1  and  C8_8 
ROOT
HETATM    1  C2  UNL     1     -32.894  18.172  -3.477  1.00 20.00     0.001 C 
HETATM    2  C3  UNL     1     -34.295  18.486  -3.973  1.00 20.00     0.001 C 
HETATM    3  C4  UNL     1     -33.075  16.838  -2.760  1.00 20.00     0.010 C 
HETATM    4  C5  UNL     1     -34.777  17.147  -4.523  1.00 20.00     0.010 C 
HETATM    5  C6  UNL     1     -35.110  15.210  -2.783  1.00 20.00     0.023 C 
HETATM    6  C7  UNL     1     -33.661  14.796  -4.301  1.00 20.00     0.023 C 
HETATM    7  C8  UNL     1     -35.000  14.136  -3.892  1.00 20.00     0.073 C 
HETATM    8  C9  UNL     1     -34.129  16.104  -3.596  1.00 20.00    -0.039 C 
ENDROOT
BRANCH   7   9
HETATM    9  C1  UNL     1     -36.117  14.077  -4.942  1.00 20.00     0.223 C 
HETATM   10  O10 UNL     1     -35.890  13.772  -6.110  1.00 20.00    -0.279 OA
HETATM   11 CL11 UNL     1     -37.668  14.480  -4.272  1.00 20.00    -0.043 Cl
ENDBRANCH   7   9
TORSDOF 1
ENDMDL
MODEL 6
REMARK VINA RESULT:      -4.5      2.840      4.333
REMARK  1 active torsions:
REMARK  status: ('A' for Active; 'I' for Inactive)
REMARK    1  A    between atoms: C1_1  and  C8_8 
ROOT
HETATM    1  C2  UNL     1     -36.261  13.735  -4.579  1.00 20.00     0.001 C 
HETATM    2  C3  UNL     1     -36.081  14.859  -5.585  1.00 20.00     0.001 C 
HETATM    3  C4  UNL     1     -34.954  13.765  -3.793  1.00 20.00     0.010 C 
HETATM    4  C5  UNL     1     -35.480  15.983  -4.746  1.00 20.00     0.010 C 
HETATM    5  C6  UNL     1     -33.076  15.572  -3.776  1.00 20.00     0.023 C 
HETATM    6  C7  UNL     1     -34.586  15.888  -2.294  1.00 20.00     0.023 C 
HETATM    7  C8  UNL     1     -33.289  16.641  -2.677  1.00 20.00     0.073 C 
HETATM    8  C9  UNL     1     -34.598  15.254  -3.717  1.00 20.00    -0.039 C 
ENDROOT
BRANCH   7   9
HETATM    9  C1  UNL     1     -33.418  18.104  -3.120  1.00 20.00     0.223 C 
HETATM   10  O10 UNL     1     -32.919  18.509  -4.166  1.00 20.00    -0.279 OA
HETATM   11 CL11 UNL     1     -34.328  19.054  -1.985  1.00 20.00    -0.043 Cl
ENDBRANCH   7   9
TORSDOF 1
ENDMDL
MODEL 7
REMARK VINA RESULT:      -4.3      1.841      2.386
REMARK  1 active torsions:
REMARK  status: ('A' for Active; 'I' for Inactive)
REMARK    1  A    between atoms: C1_1  and  C8_8 
ROOT
HETATM    1  C2  UNL     1     -33.738  17.931  -0.774  1.00 20.00     0.001 C 
HETATM    2  C3  UNL     1     -32.599  17.942  -1.779  1.00 20.00     0.001 C 
HETATM    3  C4  UNL     1     -34.962  17.668  -1.645  1.00 20.00     0.010 C 
HETATM    4  C5  UNL     1     -32.914  16.747  -2.674  1.00 20.00     0.010 C 
HETATM    5  C6  UNL     1     -35.088  16.910  -4.135  1.00 20.00     0.023 C 
HETATM    6  C7  UNL     1     -35.078  15.286  -2.742  1.00 20.00     0.023 C 
HETATM    7  C8  UNL     1     -35.154  15.371  -4.286  1.00 20.00     0.073 C 
HETATM    8  C9  UNL     1     -34.451  16.713  -2.729  1.00 20.00    -0.039 C 
ENDROOT
BRANCH   7   9
HETATM    9  C1  UNL     1     -34.046  14.684  -5.095  1.00 20.00     0.223 C 
HETATM   10  O10 UNL     1     -33.287  13.866  -4.584  1.00 20.00    -0.279 OA
HETATM   11 CL11 UNL     1     -34.026  15.206  -6.751  1.00 20.00    -0.043 Cl
ENDBRANCH   7   9
TORSDOF 1
ENDMDL
MODEL 8
REMARK VINA RESULT:      -4.2      1.473      1.582
REMARK  1 active torsions:
REMARK  status: ('A' for Active; 'I' for Inactive)
REMARK    1  A    between atoms: C1_1  and  C8_8 
ROOT
HETATM    1  C2  UNL     1     -33.728  18.226  -2.903  1.00 20.00     0.001 C 
HETATM    2  C3  UNL     1     -33.492  16.872  -2.255  1.00 20.00     0.001 C 
HETATM    3  C4  UNL     1     -34.068  17.861  -4.345  1.00 20.00     0.010 C 
HETATM    4  C5  UNL     1     -34.638  16.023  -2.796  1.00 20.00     0.010 C 
HETATM    5  C6  UNL     1     -34.627  15.533  -5.375  1.00 20.00     0.023 C 
HETATM    6  C7  UNL     1     -36.347  16.602  -4.685  1.00 20.00     0.023 C 
HETATM    7  C8  UNL     1     -36.144  15.228  -5.367  1.00 20.00     0.073 C 
HETATM    8  C9  UNL     1     -34.859  16.554  -4.223  1.00 20.00    -0.039 C 
ENDROOT
BRANCH   7   9
HETATM    9  C1  UNL     1     -36.618  13.979  -4.613  1.00 20.00     0.223 C 
HETATM   10  O10 UNL     1     -37.810  13.758  -4.415  1.00 20.00    -0.279 OA
HETATM   11 CL11 UNL     1     -35.293  12.977  -4.108  1.00 20.00    -0.043 Cl
ENDBRANCH   7   9
TORSDOF 1
ENDMDL
MODEL 9
REMARK VINA RESULT:      -4.1     11.447     12.203
REMARK  1 active torsions:
REMARK  status: ('A' for Active; 'I' for Inactive)
REMARK    1  A    between atoms: C1_1  and  C8_8 
ROOT
HETATM    1  C2  UNL     1     -34.698   4.985   6.198  1.00 20.00     0.001 C 
HETATM    2  C3  UNL     1     -34.470   6.485   6.262  1.00 20.00     0.001 C 
HETATM    3  C4  UNL     1     -34.978   4.743   4.718  1.00 20.00     0.010 C 
HETATM    4  C5  UNL     1     -33.583   6.755   5.050  1.00 20.00     0.010 C 
HETATM    5  C6  UNL     1     -34.657   6.349   2.691  1.00 20.00     0.023 C 
HETATM    6  C7  UNL     1     -32.945   5.134   3.104  1.00 20.00     0.023 C 
HETATM    7  C8  UNL     1     -33.264   6.205   2.033  1.00 20.00     0.073 C 
HETATM    8  C9  UNL     1     -34.067   5.743   3.997  1.00 20.00    -0.039 C 
ENDROOT
BRANCH   7   9
HETATM    9  C1  UNL     1     -32.367   7.449   1.978  1.00 20.00     0.223 C 
HETATM   10  O10 UNL     1     -31.522   7.673   2.840  1.00 20.00    -0.279 OA
HETATM   11 CL11 UNL     1     -32.705   8.439   0.592  1.00 20.00    -0.043 Cl
ENDBRANCH   7   9
TORSDOF 1
ENDMDL
