MODEL 1
REMARK VINA RESULT:      -5.3      0.000      0.000
REMARK  1 active torsions:
REMARK  status: ('A' for Active; 'I' for Inactive)
REMARK    1  A    between atoms: C1_1  and  C6_6 
ROOT
HETATM    1  C2  UNL     1     -35.868  16.913  -4.148  1.00 20.00     0.010 C 
HETATM    2  C3  UNL     1     -33.376  17.301  -3.994  1.00 20.00     0.010 C 
HETATM    3  C4  UNL     1     -34.110  15.557  -5.346  1.00 20.00     0.010 C 
HETATM    4  C5  UNL     1     -34.575  16.334  -2.067  1.00 20.00     0.010 C 
HETATM    5  C6  UNL     1     -35.296  14.552  -3.368  1.00 20.00     0.081 C 
HETATM    6  C7  UNL     1     -34.530  16.971  -4.942  1.00 20.00    -0.013 C 
HETATM    7  C8  UNL     1     -35.779  15.940  -2.930  1.00 20.00    -0.001 C 
HETATM    8  C9  UNL     1     -33.420  16.087  -3.055  1.00 20.00    -0.009 C 
HETATM    9  C10 UNL     1     -33.923  14.902  -3.968  1.00 20.00     0.003 C 
ENDROOT
BRANCH   5  10
HETATM   10  C1  UNL     1     -36.245  13.828  -4.270  1.00 20.00     0.223 C 
HETATM   11  O11 UNL     1     -35.909  12.818  -4.883  1.00 20.00    -0.279 OA
HETATM   12 CL12 UNL     1     -37.807  14.587  -4.323  1.00 20.00    -0.043 Cl
ENDBRANCH   5  10
TORSDOF 1
ENDMDL
MODEL 2
REMARK VINA RESULT:      -5.1      0.746      2.324
REMARK  1 active torsions:
REMARK  status: ('A' for Active; 'I' for Inactive)
REMARK    1  A    between atoms: C1_1  and  C6_6 
ROOT
HETATM    1  C2  UNL     1     -33.721  14.534  -4.193  1.00 20.00     0.010 C 
HETATM    2  C3  UNL     1     -33.517  16.995  -3.655  1.00 20.00     0.010 C 
HETATM    3  C4  UNL     1     -35.344  15.852  -2.780  1.00 20.00     0.010 C 
HETATM    4  C5  UNL     1     -34.153  16.300  -5.935  1.00 20.00     0.010 C 
HETATM    5  C6  UNL     1     -36.013  15.181  -5.111  1.00 20.00     0.081 C 
HETATM    6  C7  UNL     1     -33.863  15.619  -3.085  1.00 20.00    -0.013 C 
HETATM    7  C8  UNL     1     -34.549  14.895  -5.467  1.00 20.00    -0.001 C 
HETATM    8  C9  UNL     1     -34.606  17.142  -4.728  1.00 20.00    -0.009 C 
HETATM    9  C10 UNL     1     -35.846  16.363  -4.140  1.00 20.00     0.003 C 
ENDROOT
BRANCH   5  10
HETATM   10  C1  UNL     1     -36.760  13.995  -4.584  1.00 20.00     0.223 C 
HETATM   11  O11 UNL     1     -36.233  12.890  -4.492  1.00 20.00    -0.279 OA
HETATM   12 CL12 UNL     1     -38.394  14.393  -4.148  1.00 20.00    -0.043 Cl
ENDBRANCH   5  10
TORSDOF 1
ENDMDL
MODEL 3
REMARK VINA RESULT:      -5.0      1.309      2.547
REMARK  1 active torsions:
REMARK  status: ('A' for Active; 'I' for Inactive)
REMARK    1  A    between atoms: C1_1  and  C6_6 
ROOT
HETATM    1  C2  UNL     1     -34.772  14.104  -3.957  1.00 20.00     0.010 C 
HETATM    2  C3  UNL     1     -33.453  16.240  -3.668  1.00 20.00     0.010 C 
HETATM    3  C4  UNL     1     -35.600  16.174  -2.776  1.00 20.00     0.010 C 
HETATM    4  C5  UNL     1     -34.341  15.654  -5.894  1.00 20.00     0.010 C 
HETATM    5  C6  UNL     1     -36.506  15.619  -5.057  1.00 20.00     0.081 C 
HETATM    6  C7  UNL     1     -34.396  15.254  -2.977  1.00 20.00    -0.013 C 
HETATM    7  C8  UNL     1     -35.341  14.653  -5.304  1.00 20.00    -0.001 C 
HETATM    8  C9  UNL     1     -34.351  16.744  -4.806  1.00 20.00    -0.009 C 
HETATM    9  C10 UNL     1     -35.811  16.696  -4.207  1.00 20.00     0.003 C 
ENDROOT
BRANCH   5  10
HETATM   10  C1  UNL     1     -37.716  14.980  -4.451  1.00 20.00     0.223 C 
HETATM   11  O11 UNL     1     -37.842  13.760  -4.397  1.00 20.00    -0.279 OA
HETATM   12 CL12 UNL     1     -38.855  16.156  -3.869  1.00 20.00    -0.043 Cl
ENDBRANCH   5  10
TORSDOF 1
ENDMDL
MODEL 4
REMARK VINA RESULT:      -4.9      1.498      2.594
REMARK  1 active torsions:
REMARK  status: ('A' for Active; 'I' for Inactive)
REMARK    1  A    between atoms: C1_1  and  C6_6 
ROOT
HETATM    1  C2  UNL     1     -35.045  14.267  -3.517  1.00 20.00     0.010 C 
HETATM    2  C3  UNL     1     -34.160  16.323  -2.344  1.00 20.00     0.010 C 
HETATM    3  C4  UNL     1     -35.791  16.634  -3.973  1.00 20.00     0.010 C 
HETATM    4  C5  UNL     1     -32.731  15.147  -3.976  1.00 20.00     0.010 C 
HETATM    5  C6  UNL     1     -34.312  15.472  -5.644  1.00 20.00     0.081 C 
HETATM    6  C7  UNL     1     -35.419  15.636  -2.876  1.00 20.00    -0.013 C 
HETATM    7  C8  UNL     1     -33.928  14.419  -4.598  1.00 20.00    -0.001 C 
HETATM    8  C9  UNL     1     -33.366  16.510  -3.645  1.00 20.00    -0.009 C 
HETATM    9  C10 UNL     1     -34.469  16.717  -4.754  1.00 20.00     0.003 C 
ENDROOT
BRANCH   5  10
HETATM   10  C1  UNL     1     -35.499  15.105  -6.479  1.00 20.00     0.223 C 
HETATM   11  O11 UNL     1     -35.969  13.971  -6.468  1.00 20.00    -0.279 OA
HETATM   12 CL12 UNL     1     -36.080  16.447  -7.418  1.00 20.00    -0.043 Cl
ENDBRANCH   5  10
TORSDOF 1
ENDMDL
MODEL 5
REMARK VINA RESULT:      -4.9      1.351      1.841
REMARK  1 active torsions:
REMARK  status: ('A' for Active; 'I' for Inactive)
REMARK    1  A    between atoms: C1_1  and  C6_6 
ROOT
HETATM    1  C2  UNL     1     -34.349  17.212  -4.665  1.00 20.00     0.010 C 
HETATM    2  C3  UNL     1     -33.582  16.510  -2.362  1.00 20.00     0.010 C 
HETATM    3  C4  UNL     1     -33.733  14.859  -3.993  1.00 20.00     0.010 C 
HETATM    4  C5  UNL     1     -35.948  17.107  -2.723  1.00 20.00     0.010 C 
HETATM    5  C6  UNL     1     -36.158  15.443  -4.328  1.00 20.00     0.081 C 
HETATM    6  C7  UNL     1     -33.345  16.332  -3.863  1.00 20.00    -0.013 C 
HETATM    7  C8  UNL     1     -35.827  16.938  -4.242  1.00 20.00    -0.001 C 
HETATM    8  C9  UNL     1     -35.018  15.982  -2.234  1.00 20.00    -0.009 C 
HETATM    9  C10 UNL     1     -35.127  14.864  -3.343  1.00 20.00     0.003 C 
ENDROOT
BRANCH   5  10
HETATM   10  C1  UNL     1     -36.128  14.886  -5.716  1.00 20.00     0.223 C 
HETATM   11  O11 UNL     1     -35.921  13.695  -5.929  1.00 20.00    -0.279 OA
HETATM   12 CL12 UNL     1     -36.413  16.108  -6.918  1.00 20.00    -0.043 Cl
ENDBRANCH   5  10
TORSDOF 1
ENDMDL
MODEL 6
REMARK VINA RESULT:      -4.8      1.264      1.821
REMARK  1 active torsions:
REMARK  status: ('A' for Active; 'I' for Inactive)
REMARK    1  A    between atoms: C1_1  and  C6_6 
ROOT
HETATM    1  C2  UNL     1     -34.648  16.166  -5.433  1.00 20.00     0.010 C 
HETATM    2  C3  UNL     1     -33.006  15.719  -3.565  1.00 20.00     0.010 C 
HETATM    3  C4  UNL     1     -34.661  14.129  -3.944  1.00 20.00     0.010 C 
HETATM    4  C5  UNL     1     -34.725  17.465  -3.278  1.00 20.00     0.010 C 
HETATM    5  C6  UNL     1     -36.412  15.904  -3.607  1.00 20.00     0.081 C 
HETATM    6  C7  UNL     1     -33.769  15.089  -4.731  1.00 20.00    -0.013 C 
HETATM    7  C8  UNL     1     -35.580  16.903  -4.420  1.00 20.00    -0.001 C 
HETATM    8  C9  UNL     1     -34.171  16.164  -2.669  1.00 20.00    -0.009 C 
HETATM    9  C10 UNL     1     -35.298  15.090  -2.926  1.00 20.00     0.003 C 
ENDROOT
BRANCH   5  10
HETATM   10  C1  UNL     1     -37.398  15.123  -4.418  1.00 20.00     0.223 C 
HETATM   11  O11 UNL     1     -37.641  13.944  -4.178  1.00 20.00    -0.279 OA
HETATM   12 CL12 UNL     1     -38.109  16.080  -5.683  1.00 20.00    -0.043 Cl
ENDBRANCH   5  10
TORSDOF 1
ENDMDL
MODEL 7
REMARK VINA RESULT:      -4.8      1.390      1.709
REMARK  1 active torsions:
REMARK  status: ('A' for Active; 'I' for Inactive)
REMARK    1  A    between atoms: C1_1  and  C6_6 
ROOT
HETATM    1  C2  UNL     1     -35.951  17.101  -3.628  1.00 20.00     0.010 C 
HETATM    2  C3  UNL     1     -34.221  18.575  -2.523  1.00 20.00     0.010 C 
HETATM    3  C4  UNL     1     -33.513  17.209  -4.267  1.00 20.00     0.010 C 
HETATM    4  C5  UNL     1     -35.091  16.608  -1.313  1.00 20.00     0.010 C 
HETATM    5  C6  UNL     1     -34.362  15.202  -3.010  1.00 20.00     0.081 C 
HETATM    6  C7  UNL     1     -34.731  18.040  -3.862  1.00 20.00    -0.013 C 
HETATM    7  C8  UNL     1     -35.624  15.971  -2.601  1.00 20.00    -0.001 C 
HETATM    8  C9  UNL     1     -33.801  17.269  -1.834  1.00 20.00    -0.009 C 
HETATM    9  C10 UNL     1     -33.324  16.337  -3.015  1.00 20.00     0.003 C 
ENDROOT
BRANCH   5  10
HETATM   10  C1  UNL     1     -34.500  14.429  -4.284  1.00 20.00     0.223 C 
HETATM   11  O11 UNL     1     -33.566  14.313  -5.072  1.00 20.00    -0.279 OA
HETATM   12 CL12 UNL     1     -36.092  13.758  -4.475  1.00 20.00    -0.043 Cl
ENDBRANCH   5  10
TORSDOF 1
ENDMDL
MODEL 8
REMARK VINA RESULT:      -4.7      2.644      3.525
REMARK  1 active torsions:
REMARK  status: ('A' for Active; 'I' for Inactive)
REMARK    1  A    between atoms: C1_1  and  C6_6 
ROOT
HETATM    1  C2  UNL     1     -34.204  17.203  -4.640  1.00 20.00     0.010 C 
HETATM    2  C3  UNL     1     -35.298  15.011  -5.262  1.00 20.00     0.010 C 
HETATM    3  C4  UNL     1     -36.239  16.223  -3.514  1.00 20.00     0.010 C 
HETATM    4  C5  UNL     1     -33.121  14.995  -4.101  1.00 20.00     0.010 C 
HETATM    5  C6  UNL     1     -34.028  16.167  -2.314  1.00 20.00     0.081 C 
HETATM    6  C7  UNL     1     -35.557  16.464  -4.861  1.00 20.00    -0.013 C 
HETATM    7  C8  UNL     1     -33.288  16.444  -3.628  1.00 20.00    -0.001 C 
HETATM    8  C9  UNL     1     -34.574  14.494  -4.010  1.00 20.00    -0.009 C 
HETATM    9  C10 UNL     1     -35.207  15.318  -2.822  1.00 20.00     0.003 C 
ENDROOT
BRANCH   5  10
HETATM   10  C1  UNL     1     -34.386  17.396  -1.540  1.00 20.00     0.223 C 
HETATM   11  O11 UNL     1     -33.962  18.504  -1.857  1.00 20.00    -0.279 OA
HETATM   12 CL12 UNL     1     -35.432  17.044  -0.197  1.00 20.00    -0.043 Cl
ENDBRANCH   5  10
TORSDOF 1
ENDMDL
MODEL 9
REMARK VINA RESULT:      -4.6      3.123      4.111
REMARK  1 active torsions:
REMARK  status: ('A' for Active; 'I' for Inactive)
REMARK    1  A    between atoms: C1_1  and  C6_6 
ROOT
HETATM    1  C2  UNL     1     -34.394  17.391  -4.521  1.00 20.00     0.010 C 
HETATM    2  C3  UNL     1     -36.253  15.791  -3.912  1.00 20.00     0.010 C 
HETATM    3  C4  UNL     1     -35.738  17.469  -2.387  1.00 20.00     0.010 C 
HETATM    4  C5  UNL     1     -33.914  15.008  -3.866  1.00 20.00     0.010 C 
HETATM    5  C6  UNL     1     -33.363  16.640  -2.310  1.00 20.00     0.081 C 
HETATM    6  C7  UNL     1     -35.815  17.256  -3.899  1.00 20.00    -0.013 C 
HETATM    7  C8  UNL     1     -33.366  16.439  -3.830  1.00 20.00    -0.001 C 
HETATM    8  C9  UNL     1     -35.182  15.165  -3.007  1.00 20.00    -0.009 C 
HETATM    9  C10 UNL     1     -34.826  16.303  -1.973  1.00 20.00     0.003 C 
ENDROOT
BRANCH   5  10
HETATM   10  C1  UNL     1     -32.879  17.986  -1.870  1.00 20.00     0.223 C 
HETATM   11  O11 UNL     1     -32.331  18.761  -2.648  1.00 20.00    -0.279 OA
HETATM   12 CL12 UNL     1     -33.188  18.273  -0.184  1.00 20.00    -0.043 Cl
ENDBRANCH   5  10
TORSDOF 1
ENDMDL
