MODEL 1
REMARK VINA RESULT:      -3.8      0.000      0.000
REMARK  3 active torsions:
REMARK  status: ('A' for Active; 'I' for Inactive)
REMARK    1  A    between atoms: C1_1  and  C4_4 
REMARK    2  A    between atoms: C2_2  and  C8_8 
REMARK    3  A    between atoms: C8_8  and  O10_10 
ROOT
HETATM    1  C1  UNL     1     -34.885  16.126  -2.044  1.00 20.00    -0.069 C 
HETATM    2  C2  UNL     1     -34.613  15.492  -3.028  1.00 20.00    -0.066 C 
ENDROOT
BRANCH   2   3
HETATM    3  C8  UNL     1     -34.278  14.717  -4.235  1.00 20.00     0.116 C 
HETATM    4  C5  UNL     1     -32.771  14.482  -4.324  1.00 20.00     0.060 C 
HETATM    5  C6  UNL     1     -34.783  15.438  -5.484  1.00 20.00     0.060 C 
BRANCH   3   6
HETATM    6  O10 UNL     1     -34.933  13.448  -4.181  1.00 20.00    -0.373 OA
HETATM    7  C7  UNL     1     -36.287  13.551  -4.592  1.00 20.00     0.204 C 
ENDBRANCH   3   6
ENDBRANCH   2   3
BRANCH   1   8
HETATM    8  C4  UNL     1     -35.217  16.896  -0.847  1.00 20.00     0.224 A 
HETATM    9  C3  UNL     1     -35.276  18.379  -0.945  1.00 20.00     0.214 A 
HETATM   10  O9  UNL     1     -34.128  17.702  -0.417  1.00 20.00    -0.368 OA
ENDBRANCH   1   8
TORSDOF 3
ENDMDL
MODEL 2
REMARK VINA RESULT:      -3.6      1.622      4.662
REMARK  3 active torsions:
REMARK  status: ('A' for Active; 'I' for Inactive)
REMARK    1  A    between atoms: C1_1  and  C4_4 
REMARK    2  A    between atoms: C2_2  and  C8_8 
REMARK    3  A    between atoms: C8_8  and  O10_10 
ROOT
HETATM    1  C1  UNL     1     -35.176  15.024  -3.295  1.00 20.00    -0.069 C 
HETATM    2  C2  UNL     1     -34.970  15.995  -2.617  1.00 20.00    -0.066 C 
ENDROOT
BRANCH   2   3
HETATM    3  C8  UNL     1     -34.717  17.184  -1.786  1.00 20.00     0.116 C 
HETATM    4  C5  UNL     1     -33.219  17.480  -1.712  1.00 20.00     0.060 C 
HETATM    5  C6  UNL     1     -35.292  16.982  -0.384  1.00 20.00     0.060 C 
BRANCH   3   6
HETATM    6  O10 UNL     1     -35.376  18.315  -2.358  1.00 20.00    -0.373 OA
HETATM    7  C7  UNL     1     -34.702  18.767  -3.522  1.00 20.00     0.204 C 
ENDBRANCH   3   6
ENDBRANCH   2   3
BRANCH   1   8
HETATM    8  C4  UNL     1     -35.428  13.844  -4.120  1.00 20.00     0.224 A 
HETATM    9  C3  UNL     1     -36.109  14.020  -5.430  1.00 20.00     0.214 A 
HETATM   10  O9  UNL     1     -36.818  13.585  -4.264  1.00 20.00    -0.368 OA
ENDBRANCH   1   8
TORSDOF 3
ENDMDL
MODEL 3
REMARK VINA RESULT:      -3.6      2.717      3.248
REMARK  3 active torsions:
REMARK  status: ('A' for Active; 'I' for Inactive)
REMARK    1  A    between atoms: C1_1  and  C4_4 
REMARK    2  A    between atoms: C2_2  and  C8_8 
REMARK    3  A    between atoms: C8_8  and  O10_10 
ROOT
HETATM    1  C1  UNL     1     -32.349  18.036  -1.425  1.00 20.00    -0.069 C 
HETATM    2  C2  UNL     1     -32.953  17.346  -2.202  1.00 20.00    -0.066 C 
ENDROOT
BRANCH   2   3
HETATM    3  C8  UNL     1     -33.693  16.499  -3.154  1.00 20.00     0.116 C 
HETATM    4  C5  UNL     1     -34.223  17.334  -4.319  1.00 20.00     0.060 C 
HETATM    5  C6  UNL     1     -34.840  15.783  -2.443  1.00 20.00     0.060 C 
BRANCH   3   6
HETATM    6  O10 UNL     1     -32.821  15.494  -3.674  1.00 20.00    -0.373 OA
HETATM    7  C7  UNL     1     -33.494  14.661  -4.604  1.00 20.00     0.204 C 
ENDBRANCH   3   6
ENDBRANCH   2   3
BRANCH   1   8
HETATM    8  C4  UNL     1     -31.615  18.876  -0.481  1.00 20.00     0.224 A 
HETATM    9  C3  UNL     1     -30.829  18.219   0.597  1.00 20.00     0.214 A 
HETATM   10  O9  UNL     1     -32.132  18.766   0.838  1.00 20.00    -0.368 OA
ENDBRANCH   1   8
TORSDOF 3
ENDMDL
MODEL 4
REMARK VINA RESULT:      -3.6      2.315      2.794
REMARK  3 active torsions:
REMARK  status: ('A' for Active; 'I' for Inactive)
REMARK    1  A    between atoms: C1_1  and  C4_4 
REMARK    2  A    between atoms: C2_2  and  C8_8 
REMARK    3  A    between atoms: C8_8  and  O10_10 
ROOT
HETATM    1  C1  UNL     1     -32.752  17.602  -2.196  1.00 20.00    -0.069 C 
HETATM    2  C2  UNL     1     -33.238  16.775  -2.920  1.00 20.00    -0.066 C 
ENDROOT
BRANCH   2   3
HETATM    3  C8  UNL     1     -33.833  15.762  -3.808  1.00 20.00     0.116 C 
HETATM    4  C5  UNL     1     -35.006  15.064  -3.120  1.00 20.00     0.060 C 
HETATM    5  C6  UNL     1     -32.776  14.742  -4.230  1.00 20.00     0.060 C 
BRANCH   3   6
HETATM    6  O10 UNL     1     -34.314  16.393  -4.996  1.00 20.00    -0.373 OA
HETATM    7  C7  UNL     1     -34.325  15.490  -6.090  1.00 20.00     0.204 C 
ENDBRANCH   3   6
ENDBRANCH   2   3
BRANCH   1   8
HETATM    8  C4  UNL     1     -32.161  18.608  -1.316  1.00 20.00     0.224 A 
HETATM    9  C3  UNL     1     -31.086  18.192  -0.376  1.00 20.00     0.214 A 
HETATM   10  O9  UNL     1     -32.445  18.347   0.052  1.00 20.00    -0.368 OA
ENDBRANCH   1   8
TORSDOF 3
ENDMDL
MODEL 5
REMARK VINA RESULT:      -3.6      0.938      1.722
REMARK  3 active torsions:
REMARK  status: ('A' for Active; 'I' for Inactive)
REMARK    1  A    between atoms: C1_1  and  C4_4 
REMARK    2  A    between atoms: C2_2  and  C8_8 
REMARK    3  A    between atoms: C8_8  and  O10_10 
ROOT
HETATM    1  C1  UNL     1     -35.010  16.226  -1.927  1.00 20.00    -0.069 C 
HETATM    2  C2  UNL     1     -34.822  15.613  -2.944  1.00 20.00    -0.066 C 
ENDROOT
BRANCH   2   3
HETATM    3  C8  UNL     1     -34.594  14.862  -4.190  1.00 20.00     0.116 C 
HETATM    4  C5  UNL     1     -35.454  13.599  -4.223  1.00 20.00     0.060 C 
HETATM    5  C6  UNL     1     -33.114  14.506  -4.331  1.00 20.00     0.060 C 
BRANCH   3   6
HETATM    6  O10 UNL     1     -34.944  15.679  -5.309  1.00 20.00    -0.373 OA
HETATM    7  C7  UNL     1     -34.352  15.195  -6.504  1.00 20.00     0.204 C 
ENDBRANCH   3   6
ENDBRANCH   2   3
BRANCH   1   8
HETATM    8  C4  UNL     1     -35.237  16.970  -0.690  1.00 20.00     0.224 A 
HETATM    9  C3  UNL     1     -35.312  18.454  -0.753  1.00 20.00     0.214 A 
HETATM   10  O9  UNL     1     -34.118  17.775  -0.344  1.00 20.00    -0.368 OA
ENDBRANCH   1   8
TORSDOF 3
ENDMDL
MODEL 6
REMARK VINA RESULT:      -3.5      1.520      4.890
REMARK  3 active torsions:
REMARK  status: ('A' for Active; 'I' for Inactive)
REMARK    1  A    between atoms: C1_1  and  C4_4 
REMARK    2  A    between atoms: C2_2  and  C8_8 
REMARK    3  A    between atoms: C8_8  and  O10_10 
ROOT
HETATM    1  C1  UNL     1     -35.257  15.004  -3.232  1.00 20.00    -0.069 C 
HETATM    2  C2  UNL     1     -35.127  15.938  -2.486  1.00 20.00    -0.066 C 
ENDROOT
BRANCH   2   3
HETATM    3  C8  UNL     1     -34.969  17.084  -1.574  1.00 20.00     0.116 C 
HETATM    4  C5  UNL     1     -35.845  18.254  -2.021  1.00 20.00     0.060 C 
HETATM    5  C6  UNL     1     -33.502  17.509  -1.508  1.00 20.00     0.060 C 
BRANCH   3   6
HETATM    6  O10 UNL     1     -35.361  16.700  -0.255  1.00 20.00    -0.373 OA
HETATM    7  C7  UNL     1     -35.287  17.796   0.643  1.00 20.00     0.204 C 
ENDBRANCH   3   6
ENDBRANCH   2   3
BRANCH   1   8
HETATM    8  C4  UNL     1     -35.414  13.868  -4.137  1.00 20.00     0.224 A 
HETATM    9  C3  UNL     1     -36.098  14.082  -5.440  1.00 20.00     0.214 A 
HETATM   10  O9  UNL     1     -36.780  13.517  -4.314  1.00 20.00    -0.368 OA
ENDBRANCH   1   8
TORSDOF 3
ENDMDL
MODEL 7
REMARK VINA RESULT:      -3.5      0.726      1.781
REMARK  3 active torsions:
REMARK  status: ('A' for Active; 'I' for Inactive)
REMARK    1  A    between atoms: C1_1  and  C4_4 
REMARK    2  A    between atoms: C2_2  and  C8_8 
REMARK    3  A    between atoms: C8_8  and  O10_10 
ROOT
HETATM    1  C1  UNL     1     -35.196  16.111  -2.057  1.00 20.00    -0.069 C 
HETATM    2  C2  UNL     1     -35.164  15.471  -3.073  1.00 20.00    -0.066 C 
ENDROOT
BRANCH   2   3
HETATM    3  C8  UNL     1     -35.125  14.688  -4.320  1.00 20.00     0.116 C 
HETATM    4  C5  UNL     1     -34.942  15.607  -5.528  1.00 20.00     0.060 C 
HETATM    5  C6  UNL     1     -36.401  13.860  -4.465  1.00 20.00     0.060 C 
BRANCH   3   6
HETATM    6  O10 UNL     1     -34.027  13.775  -4.274  1.00 20.00    -0.373 OA
HETATM    7  C7  UNL     1     -32.790  14.450  -4.436  1.00 20.00     0.204 C 
ENDBRANCH   3   6
ENDBRANCH   2   3
BRANCH   1   8
HETATM    8  C4  UNL     1     -35.235  16.889  -0.820  1.00 20.00     0.224 A 
HETATM    9  C3  UNL     1     -36.332  17.875  -0.630  1.00 20.00     0.214 A 
HETATM   10  O9  UNL     1     -35.023  18.274  -1.058  1.00 20.00    -0.368 OA
ENDBRANCH   1   8
TORSDOF 3
ENDMDL
MODEL 8
REMARK VINA RESULT:      -3.4      1.285      4.817
REMARK  3 active torsions:
REMARK  status: ('A' for Active; 'I' for Inactive)
REMARK    1  A    between atoms: C1_1  and  C4_4 
REMARK    2  A    between atoms: C2_2  and  C8_8 
REMARK    3  A    between atoms: C8_8  and  O10_10 
ROOT
HETATM    1  C1  UNL     1     -34.668  15.473  -3.500  1.00 20.00    -0.069 C 
HETATM    2  C2  UNL     1     -34.550  16.338  -2.674  1.00 20.00    -0.066 C 
ENDROOT
BRANCH   2   3
HETATM    3  C8  UNL     1     -34.406  17.398  -1.661  1.00 20.00     0.116 C 
HETATM    4  C5  UNL     1     -35.194  17.047  -0.400  1.00 20.00     0.060 C 
HETATM    5  C6  UNL     1     -34.872  18.738  -2.229  1.00 20.00     0.060 C 
BRANCH   3   6
HETATM    6  O10 UNL     1     -33.028  17.539  -1.312  1.00 20.00    -0.373 OA
HETATM    7  C7  UNL     1     -32.432  18.626  -2.002  1.00 20.00     0.204 C 
ENDBRANCH   3   6
ENDBRANCH   2   3
BRANCH   1   8
HETATM    8  C4  UNL     1     -34.811  14.421  -4.505  1.00 20.00     0.224 A 
HETATM    9  C3  UNL     1     -36.070  13.630  -4.537  1.00 20.00     0.214 A 
HETATM   10  O9  UNL     1     -34.880  13.130  -3.914  1.00 20.00    -0.368 OA
ENDBRANCH   1   8
TORSDOF 3
ENDMDL
MODEL 9
REMARK VINA RESULT:      -3.4      1.847      2.440
REMARK  3 active torsions:
REMARK  status: ('A' for Active; 'I' for Inactive)
REMARK    1  A    between atoms: C1_1  and  C4_4 
REMARK    2  A    between atoms: C2_2  and  C8_8 
REMARK    3  A    between atoms: C8_8  and  O10_10 
ROOT
HETATM    1  C1  UNL     1     -33.494  16.512  -2.959  1.00 20.00    -0.069 C 
HETATM    2  C2  UNL     1     -34.035  15.793  -3.755  1.00 20.00    -0.066 C 
ENDROOT
BRANCH   2   3
HETATM    3  C8  UNL     1     -34.698  14.912  -4.732  1.00 20.00     0.116 C 
HETATM    4  C5  UNL     1     -35.765  15.678  -5.512  1.00 20.00     0.060 C 
HETATM    5  C6  UNL     1     -35.315  13.706  -4.023  1.00 20.00     0.060 C 
BRANCH   3   6
HETATM    6  O10 UNL     1     -33.729  14.413  -5.656  1.00 20.00    -0.373 OA
HETATM    7  C7  UNL     1     -33.829  15.070  -6.909  1.00 20.00     0.204 C 
ENDBRANCH   3   6
ENDBRANCH   2   3
BRANCH   1   8
HETATM    8  C4  UNL     1     -32.836  17.387  -1.990  1.00 20.00     0.224 A 
HETATM    9  C3  UNL     1     -33.467  18.694  -1.664  1.00 20.00     0.214 A 
HETATM   10  O9  UNL     1     -32.378  18.591  -2.590  1.00 20.00    -0.368 OA
ENDBRANCH   1   8
TORSDOF 3
ENDMDL
