MODEL 1
REMARK VINA RESULT:      -4.8      0.000      0.000
REMARK  3 active torsions:
REMARK  status: ('A' for Active; 'I' for Inactive)
REMARK    1  A    between atoms: C7_7  and  C8_8 
REMARK    2  A    between atoms: C8_8  and  C9_9 
REMARK    3  A    between atoms: C9_9  and  N10_10 
ROOT
HETATM    1  C1  UNL     1     -32.937   8.721   0.471  1.00 20.00     0.012 C 
HETATM    2  C3  UNL     1     -32.618   8.078   1.433  1.00 20.00    -0.117 C 
HETATM    3  C7  UNL     1     -32.222   7.292   2.611  1.00 20.00     0.096 C 
ENDROOT
BRANCH   3   4
HETATM    4  C8  UNL     1     -33.120   6.066   2.823  1.00 20.00     0.061 C 
BRANCH   4   5
HETATM    5  C9  UNL     1     -34.250   6.270   3.851  1.00 20.00     0.300 C 
HETATM    6  C4  UNL     1     -33.750   6.884   5.093  1.00 20.00    -0.081 C 
HETATM    7  C2  UNL     1     -33.344   7.390   6.103  1.00 20.00     0.014 C 
BRANCH   5   8
HETATM    8  N10 UNL     1     -34.850   4.970   4.159  1.00 20.00     0.095 N 
HETATM    9  C5  UNL     1     -35.026   4.821   5.603  1.00 20.00     0.310 C 
HETATM   10  C6  UNL     1     -34.021   3.889   3.628  1.00 20.00     0.310 C 
ENDBRANCH   5   8
ENDBRANCH   4   5
ENDBRANCH   3   4
TORSDOF 3
ENDMDL
MODEL 2
REMARK VINA RESULT:      -4.6     15.349     16.218
REMARK  3 active torsions:
REMARK  status: ('A' for Active; 'I' for Inactive)
REMARK    1  A    between atoms: C7_7  and  C8_8 
REMARK    2  A    between atoms: C8_8  and  C9_9 
REMARK    3  A    between atoms: C9_9  and  N10_10 
ROOT
HETATM    1  C1  UNL     1     -26.147  19.251   7.217  1.00 20.00     0.012 C 
HETATM    2  C3  UNL     1     -25.043  18.941   7.574  1.00 20.00    -0.117 C 
HETATM    3  C7  UNL     1     -23.692  18.558   8.006  1.00 20.00     0.096 C 
ENDROOT
BRANCH   3   4
HETATM    4  C8  UNL     1     -23.530  18.613   9.531  1.00 20.00     0.061 C 
BRANCH   4   5
HETATM    5  C9  UNL     1     -24.486  17.691  10.311  1.00 20.00     0.300 C 
HETATM    6  C4  UNL     1     -25.361  18.458  11.216  1.00 20.00    -0.081 C 
HETATM    7  C2  UNL     1     -26.077  19.082  11.951  1.00 20.00     0.014 C 
BRANCH   5   8
HETATM    8  N10 UNL     1     -23.694  16.739  11.093  1.00 20.00     0.095 N 
HETATM    9  C5  UNL     1     -24.570  15.794  11.782  1.00 20.00     0.310 C 
HETATM   10  C6  UNL     1     -22.847  17.447  12.051  1.00 20.00     0.310 C 
ENDBRANCH   5   8
ENDBRANCH   4   5
ENDBRANCH   3   4
TORSDOF 3
ENDMDL
MODEL 3
REMARK VINA RESULT:      -4.4     15.512     16.688
REMARK  3 active torsions:
REMARK  status: ('A' for Active; 'I' for Inactive)
REMARK    1  A    between atoms: C7_7  and  C8_8 
REMARK    2  A    between atoms: C8_8  and  C9_9 
REMARK    3  A    between atoms: C9_9  and  N10_10 
ROOT
HETATM    1  C1  UNL     1     -21.573  17.243   7.794  1.00 20.00     0.012 C 
HETATM    2  C3  UNL     1     -22.414  17.849   8.400  1.00 20.00    -0.117 C 
HETATM    3  C7  UNL     1     -23.441  18.596   9.141  1.00 20.00     0.096 C 
ENDROOT
BRANCH   3   4
HETATM    4  C8  UNL     1     -24.270  17.691  10.062  1.00 20.00     0.061 C 
BRANCH   4   5
HETATM    5  C9  UNL     1     -24.102  17.982  11.566  1.00 20.00     0.300 C 
HETATM    6  C4  UNL     1     -22.692  17.891  11.982  1.00 20.00    -0.081 C 
HETATM    7  C2  UNL     1     -21.542  17.822  12.321  1.00 20.00     0.014 C 
BRANCH   5   8
HETATM    8  N10 UNL     1     -24.897  17.015  12.327  1.00 20.00     0.095 N 
HETATM    9  C5  UNL     1     -24.736  15.674  11.769  1.00 20.00     0.310 C 
HETATM   10  C6  UNL     1     -26.305  17.404  12.330  1.00 20.00     0.310 C 
ENDBRANCH   5   8
ENDBRANCH   4   5
ENDBRANCH   3   4
TORSDOF 3
ENDMDL
MODEL 4
REMARK VINA RESULT:      -4.4      1.067      2.282
REMARK  3 active torsions:
REMARK  status: ('A' for Active; 'I' for Inactive)
REMARK    1  A    between atoms: C7_7  and  C8_8 
REMARK    2  A    between atoms: C8_8  and  C9_9 
REMARK    3  A    between atoms: C9_9  and  N10_10 
ROOT
HETATM    1  C1  UNL     1     -33.302   9.115  -0.073  1.00 20.00     0.012 C 
HETATM    2  C3  UNL     1     -32.790   8.393   0.738  1.00 20.00    -0.117 C 
HETATM    3  C7  UNL     1     -32.161   7.505   1.726  1.00 20.00     0.096 C 
ENDROOT
BRANCH   3   4
HETATM    4  C8  UNL     1     -32.859   7.564   3.091  1.00 20.00     0.061 C 
BRANCH   4   5
HETATM    5  C9  UNL     1     -33.133   6.190   3.732  1.00 20.00     0.300 C 
HETATM    6  C4  UNL     1     -33.299   5.140   2.711  1.00 20.00    -0.081 C 
HETATM    7  C2  UNL     1     -33.429   4.283   1.881  1.00 20.00     0.014 C 
BRANCH   5   8
HETATM    8  N10 UNL     1     -34.351   6.278   4.540  1.00 20.00     0.095 N 
HETATM    9  C5  UNL     1     -34.035   6.748   5.887  1.00 20.00     0.310 C 
HETATM   10  C6  UNL     1     -35.022   4.980   4.593  1.00 20.00     0.310 C 
ENDBRANCH   5   8
ENDBRANCH   4   5
ENDBRANCH   3   4
TORSDOF 3
ENDMDL
MODEL 5
REMARK VINA RESULT:      -4.3     11.360     12.113
REMARK  3 active torsions:
REMARK  status: ('A' for Active; 'I' for Inactive)
REMARK    1  A    between atoms: C7_7  and  C8_8 
REMARK    2  A    between atoms: C8_8  and  C9_9 
REMARK    3  A    between atoms: C9_9  and  N10_10 
ROOT
HETATM    1  C1  UNL     1     -30.984  18.273  -0.035  1.00 20.00     0.012 C 
HETATM    2  C3  UNL     1     -31.671  18.311  -1.019  1.00 20.00    -0.117 C 
HETATM    3  C7  UNL     1     -32.513  18.362  -2.223  1.00 20.00     0.096 C 
ENDROOT
BRANCH   3   4
HETATM    4  C8  UNL     1     -32.891  16.964  -2.730  1.00 20.00     0.061 C 
BRANCH   4   5
HETATM    5  C9  UNL     1     -34.398  16.648  -2.674  1.00 20.00     0.300 C 
HETATM    6  C4  UNL     1     -34.945  16.855  -1.321  1.00 20.00    -0.081 C 
HETATM    7  C2  UNL     1     -35.393  17.028  -0.221  1.00 20.00     0.014 C 
BRANCH   5   8
HETATM    8  N10 UNL     1     -34.605  15.254  -3.073  1.00 20.00     0.095 N 
HETATM    9  C5  UNL     1     -33.615  14.859  -4.072  1.00 20.00     0.310 C 
HETATM   10  C6  UNL     1     -35.960  15.069  -3.590  1.00 20.00     0.310 C 
ENDBRANCH   5   8
ENDBRANCH   4   5
ENDBRANCH   3   4
TORSDOF 3
ENDMDL
MODEL 6
REMARK VINA RESULT:      -4.2     11.702     12.786
REMARK  3 active torsions:
REMARK  status: ('A' for Active; 'I' for Inactive)
REMARK    1  A    between atoms: C7_7  and  C8_8 
REMARK    2  A    between atoms: C8_8  and  C9_9 
REMARK    3  A    between atoms: C9_9  and  N10_10 
ROOT
HETATM    1  C1  UNL     1     -35.133  16.597  -1.441  1.00 20.00     0.012 C 
HETATM    2  C3  UNL     1     -34.412  16.190  -2.311  1.00 20.00    -0.117 C 
HETATM    3  C7  UNL     1     -33.526  15.697  -3.374  1.00 20.00     0.096 C 
ENDROOT
BRANCH   3   4
HETATM    4  C8  UNL     1     -34.223  14.682  -4.290  1.00 20.00     0.061 C 
BRANCH   4   5
HETATM    5  C9  UNL     1     -35.345  15.273  -5.165  1.00 20.00     0.300 C 
HETATM    6  C4  UNL     1     -36.678  14.866  -4.685  1.00 20.00    -0.081 C 
HETATM    7  C2  UNL     1     -37.764  14.539  -4.293  1.00 20.00     0.014 C 
BRANCH   5   8
HETATM    8  N10 UNL     1     -35.164  14.813  -6.543  1.00 20.00     0.095 N 
HETATM    9  C5  UNL     1     -33.783  15.025  -6.973  1.00 20.00     0.310 C 
HETATM   10  C6  UNL     1     -36.092  15.504  -7.437  1.00 20.00     0.310 C 
ENDBRANCH   5   8
ENDBRANCH   4   5
ENDBRANCH   3   4
TORSDOF 3
ENDMDL
MODEL 7
REMARK VINA RESULT:      -4.1     11.500     12.277
REMARK  3 active torsions:
REMARK  status: ('A' for Active; 'I' for Inactive)
REMARK    1  A    between atoms: C7_7  and  C8_8 
REMARK    2  A    between atoms: C8_8  and  C9_9 
REMARK    3  A    between atoms: C9_9  and  N10_10 
ROOT
HETATM    1  C1  UNL     1     -31.630  18.465  -0.681  1.00 20.00     0.012 C 
HETATM    2  C3  UNL     1     -32.289  17.926  -1.527  1.00 20.00    -0.117 C 
HETATM    3  C7  UNL     1     -33.094  17.271  -2.568  1.00 20.00     0.096 C 
ENDROOT
BRANCH   3   4
HETATM    4  C8  UNL     1     -34.372  16.636  -2.003  1.00 20.00     0.061 C 
BRANCH   4   5
HETATM    5  C9  UNL     1     -34.966  15.511  -2.873  1.00 20.00     0.300 C 
HETATM    6  C4  UNL     1     -33.946  14.903  -3.745  1.00 20.00    -0.081 C 
HETATM    7  C2  UNL     1     -33.115  14.404  -4.453  1.00 20.00     0.014 C 
BRANCH   5   8
HETATM    8  N10 UNL     1     -36.042  16.067  -3.697  1.00 20.00     0.095 N 
HETATM    9  C5  UNL     1     -36.776  17.089  -2.953  1.00 20.00     0.310 C 
HETATM   10  C6  UNL     1     -36.944  15.006  -4.140  1.00 20.00     0.310 C 
ENDBRANCH   5   8
ENDBRANCH   4   5
ENDBRANCH   3   4
TORSDOF 3
ENDMDL
MODEL 8
REMARK VINA RESULT:      -4.1     11.394     12.188
REMARK  3 active torsions:
REMARK  status: ('A' for Active; 'I' for Inactive)
REMARK    1  A    between atoms: C7_7  and  C8_8 
REMARK    2  A    between atoms: C8_8  and  C9_9 
REMARK    3  A    between atoms: C9_9  and  N10_10 
ROOT
HETATM    1  C1  UNL     1     -32.681  17.876  -1.959  1.00 20.00     0.012 C 
HETATM    2  C3  UNL     1     -33.674  17.212  -1.846  1.00 20.00    -0.117 C 
HETATM    3  C7  UNL     1     -34.889  16.397  -1.702  1.00 20.00     0.096 C 
ENDROOT
BRANCH   3   4
HETATM    4  C8  UNL     1     -35.608  16.181  -3.040  1.00 20.00     0.061 C 
BRANCH   4   5
HETATM    5  C9  UNL     1     -35.432  14.774  -3.643  1.00 20.00     0.300 C 
HETATM    6  C4  UNL     1     -34.053  14.553  -4.110  1.00 20.00    -0.081 C 
HETATM    7  C2  UNL     1     -32.927  14.370  -4.487  1.00 20.00     0.014 C 
BRANCH   5   8
HETATM    8  N10 UNL     1     -36.357  14.621  -4.769  1.00 20.00     0.095 N 
HETATM    9  C5  UNL     1     -36.167  15.704  -5.732  1.00 20.00     0.310 C 
HETATM   10  C6  UNL     1     -37.738  14.593  -4.292  1.00 20.00     0.310 C 
ENDBRANCH   5   8
ENDBRANCH   4   5
ENDBRANCH   3   4
TORSDOF 3
ENDMDL
MODEL 9
REMARK VINA RESULT:      -4.1     11.584     12.520
REMARK  3 active torsions:
REMARK  status: ('A' for Active; 'I' for Inactive)
REMARK    1  A    between atoms: C7_7  and  C8_8 
REMARK    2  A    between atoms: C8_8  and  C9_9 
REMARK    3  A    between atoms: C9_9  and  N10_10 
ROOT
HETATM    1  C1  UNL     1     -36.292  13.952  -4.339  1.00 20.00     0.012 C 
HETATM    2  C3  UNL     1     -35.138  14.263  -4.231  1.00 20.00    -0.117 C 
HETATM    3  C7  UNL     1     -33.723  14.639  -4.097  1.00 20.00     0.096 C 
ENDROOT
BRANCH   3   4
HETATM    4  C8  UNL     1     -33.529  16.158  -4.002  1.00 20.00     0.061 C 
BRANCH   4   5
HETATM    5  C9  UNL     1     -33.187  16.673  -2.591  1.00 20.00     0.300 C 
HETATM    6  C4  UNL     1     -34.386  16.751  -1.737  1.00 20.00    -0.081 C 
HETATM    7  C2  UNL     1     -35.361  16.810  -1.039  1.00 20.00     0.014 C 
BRANCH   5   8
HETATM    8  N10 UNL     1     -32.586  18.004  -2.705  1.00 20.00     0.095 N 
HETATM    9  C5  UNL     1     -32.100  18.456  -1.403  1.00 20.00     0.310 C 
HETATM   10  C6  UNL     1     -33.553  18.954  -3.251  1.00 20.00     0.310 C 
ENDBRANCH   5   8
ENDBRANCH   4   5
ENDBRANCH   3   4
TORSDOF 3
ENDMDL
