MODEL 1
REMARK VINA RESULT:      -4.0      0.000      0.000
REMARK  1 active torsions:
REMARK  status: ('A' for Active; 'I' for Inactive)
REMARK    1  A    between atoms: C2_2  and  C5_5 
ROOT
HETATM    1  C1  UNL     1     -33.442   6.854   2.068  1.00 20.00     0.270 A 
HETATM    2  C2  UNL     1     -33.217   6.742   3.555  1.00 20.00     0.181 A 
HETATM    3  O6  UNL     1     -32.745   5.741   2.640  1.00 20.00    -0.336 OA
HETATM    4 CL7  UNL     1     -32.552   7.966   1.063  1.00 20.00    -0.091 Cl
HETATM    5 CL8  UNL     1     -32.004   7.740   4.352  1.00 20.00    -0.084 Cl
ENDROOT
BRANCH   2   6
HETATM    6  C5  UNL     1     -34.358   6.258   4.447  1.00 20.00     0.032 C 
HETATM    7  C3  UNL     1     -34.594   4.761   4.252  1.00 20.00     0.014 C 
HETATM    8  C4  UNL     1     -34.062   6.568   5.912  1.00 20.00     0.014 C 
ENDBRANCH   2   6
TORSDOF 1
ENDMDL
MODEL 2
REMARK VINA RESULT:      -3.9     15.552     16.213
REMARK  1 active torsions:
REMARK  status: ('A' for Active; 'I' for Inactive)
REMARK    1  A    between atoms: C2_2  and  C5_5 
ROOT
HETATM    1  C1  UNL     1     -23.916  18.111   8.673  1.00 20.00     0.270 A 
HETATM    2  C2  UNL     1     -24.136  18.062  10.164  1.00 20.00     0.181 A 
HETATM    3  O6  UNL     1     -23.164  18.936   9.569  1.00 20.00    -0.336 OA
HETATM    4 CL7  UNL     1     -25.039  18.875   7.581  1.00 20.00    -0.091 Cl
HETATM    5 CL8  UNL     1     -25.561  18.809  10.881  1.00 20.00    -0.084 Cl
ENDROOT
BRANCH   2   6
HETATM    6  C5  UNL     1     -23.515  16.925  10.972  1.00 20.00     0.032 C 
HETATM    7  C3  UNL     1     -22.681  17.480  12.125  1.00 20.00     0.014 C 
HETATM    8  C4  UNL     1     -24.597  15.985  11.496  1.00 20.00     0.014 C 
ENDBRANCH   2   6
TORSDOF 1
ENDMDL
MODEL 3
REMARK VINA RESULT:      -3.6      2.306      3.630
REMARK  1 active torsions:
REMARK  status: ('A' for Active; 'I' for Inactive)
REMARK    1  A    between atoms: C2_2  and  C5_5 
ROOT
HETATM    1  C1  UNL     1     -34.808   4.977   4.719  1.00 20.00     0.270 A 
HETATM    2  C2  UNL     1     -34.062   6.144   4.123  1.00 20.00     0.181 A 
HETATM    3  O6  UNL     1     -35.496   6.116   4.191  1.00 20.00    -0.336 OA
HETATM    4 CL7  UNL     1     -34.880   4.682   6.435  1.00 20.00    -0.091 Cl
HETATM    5 CL8  UNL     1     -33.229   7.295   5.164  1.00 20.00    -0.084 Cl
ENDROOT
BRANCH   2   6
HETATM    6  C5  UNL     1     -33.521   6.034   2.699  1.00 20.00     0.032 C 
HETATM    7  C3  UNL     1     -32.430   7.077   2.459  1.00 20.00     0.014 C 
HETATM    8  C4  UNL     1     -32.987   4.629   2.435  1.00 20.00     0.014 C 
ENDBRANCH   2   6
TORSDOF 1
ENDMDL
MODEL 4
REMARK VINA RESULT:      -3.6     11.236     11.826
REMARK  1 active torsions:
REMARK  status: ('A' for Active; 'I' for Inactive)
REMARK    1  A    between atoms: C2_2  and  C5_5 
ROOT
HETATM    1  C1  UNL     1     -34.968  14.176  -3.950  1.00 20.00     0.270 A 
HETATM    2  C2  UNL     1     -34.857  15.645  -3.628  1.00 20.00     0.181 A 
HETATM    3  O6  UNL     1     -33.989  15.010  -4.579  1.00 20.00    -0.336 OA
HETATM    4 CL7  UNL     1     -36.256  13.522  -4.926  1.00 20.00    -0.091 Cl
HETATM    5 CL8  UNL     1     -36.040  16.789  -4.254  1.00 20.00    -0.084 Cl
ENDROOT
BRANCH   2   6
HETATM    6  C5  UNL     1     -34.142  16.074  -2.348  1.00 20.00     0.032 C 
HETATM    7  C3  UNL     1     -33.004  17.042  -2.668  1.00 20.00     0.014 C 
HETATM    8  C4  UNL     1     -35.127  16.710  -1.370  1.00 20.00     0.014 C 
ENDBRANCH   2   6
TORSDOF 1
ENDMDL
MODEL 5
REMARK VINA RESULT:      -3.6     11.286     12.222
REMARK  1 active torsions:
REMARK  status: ('A' for Active; 'I' for Inactive)
REMARK    1  A    between atoms: C2_2  and  C5_5 
ROOT
HETATM    1  C1  UNL     1     -34.533  15.780  -5.913  1.00 20.00     0.270 A 
HETATM    2  C2  UNL     1     -34.007  15.459  -4.536  1.00 20.00     0.181 A 
HETATM    3  O6  UNL     1     -35.212  14.866  -5.045  1.00 20.00    -0.336 OA
HETATM    4 CL7  UNL     1     -33.800  15.160  -7.367  1.00 20.00    -0.091 Cl
HETATM    5 CL8  UNL     1     -32.611  14.404  -4.337  1.00 20.00    -0.084 Cl
ENDROOT
BRANCH   2   6
HETATM    6  C5  UNL     1     -34.252  16.446  -3.396  1.00 20.00     0.032 C 
HETATM    7  C3  UNL     1     -35.122  15.809  -2.313  1.00 20.00     0.014 C 
HETATM    8  C4  UNL     1     -32.928  16.925  -2.807  1.00 20.00     0.014 C 
ENDBRANCH   2   6
TORSDOF 1
ENDMDL
MODEL 6
REMARK VINA RESULT:      -3.5      9.256      9.833
REMARK  1 active torsions:
REMARK  status: ('A' for Active; 'I' for Inactive)
REMARK    1  A    between atoms: C2_2  and  C5_5 
ROOT
HETATM    1  C1  UNL     1     -41.542   8.171   0.818  1.00 20.00     0.270 A 
HETATM    2  C2  UNL     1     -42.200   7.194  -0.124  1.00 20.00     0.181 A 
HETATM    3  O6  UNL     1     -42.898   7.750   1.000  1.00 20.00    -0.336 OA
HETATM    4 CL7  UNL     1     -41.236   9.832   0.388  1.00 20.00    -0.091 Cl
HETATM    5 CL8  UNL     1     -42.714   7.709  -1.728  1.00 20.00    -0.084 Cl
ENDROOT
BRANCH   2   6
HETATM    6  C5  UNL     1     -41.904   5.703   0.023  1.00 20.00     0.032 C 
HETATM    7  C3  UNL     1     -43.201   4.913   0.189  1.00 20.00     0.014 C 
HETATM    8  C4  UNL     1     -41.115   5.191  -1.180  1.00 20.00     0.014 C 
ENDBRANCH   2   6
TORSDOF 1
ENDMDL
MODEL 7
REMARK VINA RESULT:      -3.5     11.754     12.057
REMARK  1 active torsions:
REMARK  status: ('A' for Active; 'I' for Inactive)
REMARK    1  A    between atoms: C2_2  and  C5_5 
ROOT
HETATM    1  C1  UNL     1     -37.023  14.361  -4.149  1.00 20.00     0.270 A 
HETATM    2  C2  UNL     1     -35.757  15.148  -4.374  1.00 20.00     0.181 A 
HETATM    3  O6  UNL     1     -36.142  14.068  -5.239  1.00 20.00    -0.336 OA
HETATM    4 CL7  UNL     1     -38.604  15.000  -4.504  1.00 20.00    -0.091 Cl
HETATM    5 CL8  UNL     1     -35.825  16.777  -5.039  1.00 20.00    -0.084 Cl
ENDROOT
BRANCH   2   6
HETATM    6  C5  UNL     1     -34.525  14.836  -3.528  1.00 20.00     0.032 C 
HETATM    7  C3  UNL     1     -33.308  14.590  -4.420  1.00 20.00     0.014 C 
HETATM    8  C4  UNL     1     -34.248  15.970  -2.544  1.00 20.00     0.014 C 
ENDBRANCH   2   6
TORSDOF 1
ENDMDL
MODEL 8
REMARK VINA RESULT:      -3.5     10.053     10.580
REMARK  1 active torsions:
REMARK  status: ('A' for Active; 'I' for Inactive)
REMARK    1  A    between atoms: C2_2  and  C5_5 
ROOT
HETATM    1  C1  UNL     1     -43.414   4.811  -1.787  1.00 20.00     0.270 A 
HETATM    2  C2  UNL     1     -42.437   5.623  -0.976  1.00 20.00     0.181 A 
HETATM    3  O6  UNL     1     -43.314   4.665  -0.366  1.00 20.00    -0.336 OA
HETATM    4 CL7  UNL     1     -42.920   3.480  -2.798  1.00 20.00    -0.091 Cl
HETATM    5 CL8  UNL     1     -40.718   5.240  -1.004  1.00 20.00    -0.084 Cl
ENDROOT
BRANCH   2   6
HETATM    6  C5  UNL     1     -42.781   7.069  -0.625  1.00 20.00     0.032 C 
HETATM    7  C3  UNL     1     -42.976   7.224   0.882  1.00 20.00     0.014 C 
HETATM    8  C4  UNL     1     -41.692   8.017  -1.124  1.00 20.00     0.014 C 
ENDBRANCH   2   6
TORSDOF 1
ENDMDL
MODEL 9
REMARK VINA RESULT:      -3.3     16.028     16.533
REMARK  1 active torsions:
REMARK  status: ('A' for Active; 'I' for Inactive)
REMARK    1  A    between atoms: C2_2  and  C5_5 
ROOT
HETATM    1  C1  UNL     1     -22.730  18.315   8.987  1.00 20.00     0.270 A 
HETATM    2  C2  UNL     1     -23.541  17.690  10.095  1.00 20.00     0.181 A 
HETATM    3  O6  UNL     1     -24.146  18.510   9.084  1.00 20.00    -0.336 OA
HETATM    4 CL7  UNL     1     -22.106  17.396   7.645  1.00 20.00    -0.091 Cl
HETATM    5 CL8  UNL     1     -23.913  15.968  10.066  1.00 20.00    -0.084 Cl
ENDROOT
BRANCH   2   6
HETATM    6  C5  UNL     1     -23.536  18.337  11.478  1.00 20.00     0.032 C 
HETATM    7  C3  UNL     1     -24.883  18.135  12.170  1.00 20.00     0.014 C 
HETATM    8  C4  UNL     1     -22.404  17.772  12.332  1.00 20.00     0.014 C 
ENDBRANCH   2   6
TORSDOF 1
ENDMDL
