MODEL 1
REMARK VINA RESULT:      -5.2      0.000      0.000
REMARK  2 active torsions:
REMARK  status: ('A' for Active; 'I' for Inactive)
REMARK    1  A    between atoms: C4_4  and  C5_5 
REMARK    2  A    between atoms: C9_9  and  C11_11 
ROOT
HETATM    1  C1  UNL     1     -31.770  18.510  -0.682  1.00 20.00     0.012 C 
HETATM    2  C2  UNL     1     -32.612  17.873  -1.255  1.00 20.00    -0.117 C 
HETATM    3  C11 UNL     1     -33.643  17.094  -1.943  1.00 20.00     0.098 C 
ENDROOT
BRANCH   3   4
HETATM    4  C9  UNL     1     -33.317  16.944  -3.434  1.00 20.00     0.000 C 
HETATM    5  C6  UNL     1     -32.885  15.505  -3.773  1.00 20.00     0.033 C 
HETATM    6  C3  UNL     1     -34.031  14.556  -3.991  1.00 20.00    -0.016 C 
HETATM    7  C4  UNL     1     -35.292  14.975  -4.170  1.00 20.00    -0.016 C 
HETATM    8  C7  UNL     1     -35.698  16.418  -4.200  1.00 20.00     0.042 C 
HETATM    9  C8  UNL     1     -34.500  17.368  -4.317  1.00 20.00     0.010 C 
BRANCH   7  10
HETATM   10  C5  UNL     1     -36.327  13.957  -4.365  1.00 20.00     0.151 C 
HETATM   11  C10 UNL     1     -37.766  14.405  -4.393  1.00 20.00     0.096 C 
HETATM   12  O12 UNL     1     -36.023  12.769  -4.495  1.00 20.00    -0.293 OA
ENDBRANCH   7  10
ENDBRANCH   3   4
TORSDOF 2
ENDMDL
MODEL 2
REMARK VINA RESULT:      -4.8      1.315      1.689
REMARK  2 active torsions:
REMARK  status: ('A' for Active; 'I' for Inactive)
REMARK    1  A    between atoms: C4_4  and  C5_5 
REMARK    2  A    between atoms: C9_9  and  C11_11 
ROOT
HETATM    1  C1  UNL     1     -32.330  18.184  -1.714  1.00 20.00     0.012 C 
HETATM    2  C2  UNL     1     -33.104  17.306  -1.984  1.00 20.00    -0.117 C 
HETATM    3  C11 UNL     1     -34.052  16.235  -2.301  1.00 20.00     0.098 C 
ENDROOT
BRANCH   3   4
HETATM    4  C9  UNL     1     -33.905  15.785  -3.759  1.00 20.00     0.000 C 
HETATM    5  C6  UNL     1     -34.431  14.351  -3.960  1.00 20.00     0.033 C 
HETATM    6  C3  UNL     1     -35.920  14.264  -4.147  1.00 20.00    -0.016 C 
HETATM    7  C4  UNL     1     -36.678  15.337  -4.412  1.00 20.00    -0.016 C 
HETATM    8  C7  UNL     1     -36.136  16.725  -4.578  1.00 20.00     0.042 C 
HETATM    9  C8  UNL     1     -34.610  16.751  -4.723  1.00 20.00     0.010 C 
BRANCH   7  10
HETATM   10  C5  UNL     1     -38.121  15.131  -4.566  1.00 20.00     0.151 C 
HETATM   11  C10 UNL     1     -38.975  16.326  -4.905  1.00 20.00     0.096 C 
HETATM   12  O12 UNL     1     -38.615  14.012  -4.414  1.00 20.00    -0.293 OA
ENDBRANCH   7  10
ENDBRANCH   3   4
TORSDOF 2
ENDMDL
MODEL 3
REMARK VINA RESULT:      -4.8      1.726      2.036
REMARK  2 active torsions:
REMARK  status: ('A' for Active; 'I' for Inactive)
REMARK    1  A    between atoms: C4_4  and  C5_5 
REMARK    2  A    between atoms: C9_9  and  C11_11 
ROOT
HETATM    1  C1  UNL     1     -33.850  18.249   1.599  1.00 20.00     0.012 C 
HETATM    2  C2  UNL     1     -34.461  17.758   0.689  1.00 20.00    -0.117 C 
HETATM    3  C11 UNL     1     -35.210  17.150  -0.414  1.00 20.00     0.098 C 
ENDROOT
BRANCH   3   4
HETATM    4  C9  UNL     1     -34.763  17.723  -1.763  1.00 20.00     0.000 C 
HETATM    5  C6  UNL     1     -33.473  17.043  -2.264  1.00 20.00     0.033 C 
HETATM    6  C3  UNL     1     -33.704  15.733  -2.964  1.00 20.00    -0.016 C 
HETATM    7  C4  UNL     1     -34.916  15.339  -3.379  1.00 20.00    -0.016 C 
HETATM    8  C7  UNL     1     -36.162  16.158  -3.220  1.00 20.00     0.042 C 
HETATM    9  C8  UNL     1     -35.870  17.609  -2.822  1.00 20.00     0.010 C 
BRANCH   7  10
HETATM   10  C5  UNL     1     -35.019  14.037  -4.044  1.00 20.00     0.151 C 
HETATM   11  C10 UNL     1     -36.329  13.677  -4.698  1.00 20.00     0.096 C 
HETATM   12  O12 UNL     1     -34.061  13.262  -4.058  1.00 20.00    -0.293 OA
ENDBRANCH   7  10
ENDBRANCH   3   4
TORSDOF 2
ENDMDL
MODEL 4
REMARK VINA RESULT:      -4.8      2.774      5.554
REMARK  2 active torsions:
REMARK  status: ('A' for Active; 'I' for Inactive)
REMARK    1  A    between atoms: C4_4  and  C5_5 
REMARK    2  A    between atoms: C9_9  and  C11_11 
ROOT
HETATM    1  C1  UNL     1     -35.844  13.715  -4.396  1.00 20.00     0.012 C 
HETATM    2  C2  UNL     1     -35.094  14.477  -3.849  1.00 20.00    -0.117 C 
HETATM    3  C11 UNL     1     -34.172  15.398  -3.180  1.00 20.00     0.098 C 
ENDROOT
BRANCH   3   4
HETATM    4  C9  UNL     1     -34.836  16.758  -2.934  1.00 20.00     0.000 C 
HETATM    5  C6  UNL     1     -35.160  16.964  -1.441  1.00 20.00     0.033 C 
HETATM    6  C3  UNL     1     -33.996  17.452  -0.624  1.00 20.00    -0.016 C 
HETATM    7  C4  UNL     1     -32.880  17.944  -1.178  1.00 20.00    -0.016 C 
HETATM    8  C7  UNL     1     -32.672  18.090  -2.655  1.00 20.00     0.042 C 
HETATM    9  C8  UNL     1     -33.968  17.914  -3.455  1.00 20.00     0.010 C 
BRANCH   7  10
HETATM   10  C5  UNL     1     -31.808  18.382  -0.278  1.00 20.00     0.151 C 
HETATM   11  C10 UNL     1     -32.167  18.689   1.154  1.00 20.00     0.096 C 
HETATM   12  O12 UNL     1     -30.652  18.499  -0.689  1.00 20.00    -0.293 OA
ENDBRANCH   7  10
ENDBRANCH   3   4
TORSDOF 2
ENDMDL
MODEL 5
REMARK VINA RESULT:      -4.7      1.524      2.339
REMARK  2 active torsions:
REMARK  status: ('A' for Active; 'I' for Inactive)
REMARK    1  A    between atoms: C4_4  and  C5_5 
REMARK    2  A    between atoms: C9_9  and  C11_11 
ROOT
HETATM    1  C1  UNL     1     -31.775  18.501  -0.499  1.00 20.00     0.012 C 
HETATM    2  C2  UNL     1     -32.284  18.075  -1.501  1.00 20.00    -0.117 C 
HETATM    3  C11 UNL     1     -32.894  17.559  -2.728  1.00 20.00     0.098 C 
ENDROOT
BRANCH   3   4
HETATM    4  C9  UNL     1     -34.399  17.336  -2.543  1.00 20.00     0.000 C 
HETATM    5  C6  UNL     1     -35.200  17.889  -3.738  1.00 20.00     0.033 C 
HETATM    6  C3  UNL     1     -35.269  16.955  -4.914  1.00 20.00    -0.016 C 
HETATM    7  C4  UNL     1     -34.929  15.662  -4.830  1.00 20.00    -0.016 C 
HETATM    8  C7  UNL     1     -34.474  14.996  -3.566  1.00 20.00     0.042 C 
HETATM    9  C8  UNL     1     -34.729  15.853  -2.321  1.00 20.00     0.010 C 
BRANCH   7  10
HETATM   10  C5  UNL     1     -35.029  14.851  -6.046  1.00 20.00     0.151 C 
HETATM   11  C10 UNL     1     -34.066  15.137  -7.170  1.00 20.00     0.096 C 
HETATM   12  O12 UNL     1     -35.884  13.967  -6.144  1.00 20.00    -0.293 OA
ENDBRANCH   7  10
ENDBRANCH   3   4
TORSDOF 2
ENDMDL
MODEL 6
REMARK VINA RESULT:      -4.7      2.667      4.803
REMARK  2 active torsions:
REMARK  status: ('A' for Active; 'I' for Inactive)
REMARK    1  A    between atoms: C4_4  and  C5_5 
REMARK    2  A    between atoms: C9_9  and  C11_11 
ROOT
HETATM    1  C1  UNL     1     -33.829  15.312  -7.861  1.00 20.00     0.012 C 
HETATM    2  C2  UNL     1     -34.466  15.401  -6.847  1.00 20.00    -0.117 C 
HETATM    3  C11 UNL     1     -35.248  15.518  -5.614  1.00 20.00     0.098 C 
ENDROOT
BRANCH   3   4
HETATM    4  C9  UNL     1     -34.728  14.558  -4.539  1.00 20.00     0.000 C 
HETATM    5  C6  UNL     1     -33.215  14.739  -4.307  1.00 20.00     0.033 C 
HETATM    6  C3  UNL     1     -32.868  15.870  -3.379  1.00 20.00    -0.016 C 
HETATM    7  C4  UNL     1     -33.778  16.467  -2.598  1.00 20.00    -0.016 C 
HETATM    8  C7  UNL     1     -35.221  16.068  -2.537  1.00 20.00     0.042 C 
HETATM    9  C8  UNL     1     -35.492  14.720  -3.216  1.00 20.00     0.010 C 
BRANCH   7  10
HETATM   10  C5  UNL     1     -33.323  17.564  -1.739  1.00 20.00     0.151 C 
HETATM   11  C10 UNL     1     -34.119  17.868  -0.495  1.00 20.00     0.096 C 
HETATM   12  O12 UNL     1     -32.322  18.220  -2.035  1.00 20.00    -0.293 OA
ENDBRANCH   7  10
ENDBRANCH   3   4
TORSDOF 2
ENDMDL
MODEL 7
REMARK VINA RESULT:      -4.7      1.977      2.354
REMARK  2 active torsions:
REMARK  status: ('A' for Active; 'I' for Inactive)
REMARK    1  A    between atoms: C4_4  and  C5_5 
REMARK    2  A    between atoms: C9_9  and  C11_11 
ROOT
HETATM    1  C1  UNL     1     -35.384  17.493   0.396  1.00 20.00     0.012 C 
HETATM    2  C2  UNL     1     -35.233  16.892  -0.633  1.00 20.00    -0.117 C 
HETATM    3  C11 UNL     1     -35.055  16.150  -1.883  1.00 20.00     0.098 C 
ENDROOT
BRANCH   3   4
HETATM    4  C9  UNL     1     -33.990  16.808  -2.767  1.00 20.00     0.000 C 
HETATM    5  C6  UNL     1     -33.052  15.758  -3.395  1.00 20.00     0.033 C 
HETATM    6  C3  UNL     1     -33.599  15.114  -4.638  1.00 20.00    -0.016 C 
HETATM    7  C4  UNL     1     -34.652  15.608  -5.304  1.00 20.00    -0.016 C 
HETATM    8  C7  UNL     1     -35.381  16.856  -4.910  1.00 20.00     0.042 C 
HETATM    9  C8  UNL     1     -34.623  17.679  -3.862  1.00 20.00     0.010 C 
BRANCH   7  10
HETATM   10  C5  UNL     1     -35.100  14.888  -6.500  1.00 20.00     0.151 C 
HETATM   11  C10 UNL     1     -34.589  15.353  -7.840  1.00 20.00     0.096 C 
HETATM   12  O12 UNL     1     -35.878  13.936  -6.405  1.00 20.00    -0.293 OA
ENDBRANCH   7  10
ENDBRANCH   3   4
TORSDOF 2
ENDMDL
MODEL 8
REMARK VINA RESULT:      -4.6     10.435     13.616
REMARK  2 active torsions:
REMARK  status: ('A' for Active; 'I' for Inactive)
REMARK    1  A    between atoms: C4_4  and  C5_5 
REMARK    2  A    between atoms: C9_9  and  C11_11 
ROOT
HETATM    1  C1  UNL     1     -42.636   2.765  -3.172  1.00 20.00     0.012 C 
HETATM    2  C2  UNL     1     -42.938   3.551  -2.315  1.00 20.00    -0.117 C 
HETATM    3  C11 UNL     1     -43.317   4.512  -1.277  1.00 20.00     0.098 C 
ENDROOT
BRANCH   3   4
HETATM    4  C9  UNL     1     -42.187   4.695  -0.258  1.00 20.00     0.000 C 
HETATM    5  C6  UNL     1     -41.040   5.545  -0.838  1.00 20.00     0.033 C 
HETATM    6  C3  UNL     1     -41.274   7.028  -0.755  1.00 20.00    -0.016 C 
HETATM    7  C4  UNL     1     -42.233   7.566   0.011  1.00 20.00    -0.016 C 
HETATM    8  C7  UNL     1     -43.156   6.767   0.881  1.00 20.00     0.042 C 
HETATM    9  C8  UNL     1     -42.698   5.313   1.051  1.00 20.00     0.010 C 
BRANCH   7  10
HETATM   10  C5  UNL     1     -42.372   9.025   0.005  1.00 20.00     0.151 C 
HETATM   11  C10 UNL     1     -41.205   9.849   0.489  1.00 20.00     0.096 C 
HETATM   12  O12 UNL     1     -43.416   9.555  -0.378  1.00 20.00    -0.293 OA
ENDBRANCH   7  10
ENDBRANCH   3   4
TORSDOF 2
ENDMDL
MODEL 9
REMARK VINA RESULT:      -4.5      2.027      3.558
REMARK  2 active torsions:
REMARK  status: ('A' for Active; 'I' for Inactive)
REMARK    1  A    between atoms: C4_4  and  C5_5 
REMARK    2  A    between atoms: C9_9  and  C11_11 
ROOT
HETATM    1  C1  UNL     1     -30.267  18.887   1.501  1.00 20.00     0.012 C 
HETATM    2  C2  UNL     1     -31.400  18.558   1.278  1.00 20.00    -0.117 C 
HETATM    3  C11 UNL     1     -32.781  18.147   1.014  1.00 20.00     0.098 C 
ENDROOT
BRANCH   3   4
HETATM    4  C9  UNL     1     -33.402  18.990  -0.105  1.00 20.00     0.000 C 
HETATM    5  C6  UNL     1     -32.508  19.003  -1.361  1.00 20.00     0.033 C 
HETATM    6  C3  UNL     1     -32.684  17.804  -2.250  1.00 20.00    -0.016 C 
HETATM    7  C4  UNL     1     -33.718  16.959  -2.128  1.00 20.00    -0.016 C 
HETATM    8  C7  UNL     1     -34.819  17.123  -1.124  1.00 20.00     0.042 C 
HETATM    9  C8  UNL     1     -34.815  18.506  -0.462  1.00 20.00     0.010 C 
BRANCH   7  10
HETATM   10  C5  UNL     1     -33.779  15.820  -3.048  1.00 20.00     0.151 C 
HETATM   11  C10 UNL     1     -35.080  15.065  -3.156  1.00 20.00     0.096 C 
HETATM   12  O12 UNL     1     -32.789  15.489  -3.705  1.00 20.00    -0.293 OA
ENDBRANCH   7  10
ENDBRANCH   3   4
TORSDOF 2
ENDMDL
