MODEL 1
REMARK VINA RESULT:      -5.0      0.000      0.000
REMARK  2 active torsions:
REMARK  status: ('A' for Active; 'I' for Inactive)
REMARK    1  A    between atoms: C3_3  and  C4_4 
REMARK    2  A    between atoms: C3_3  and  O10_10 
ROOT
HETATM    1  C1  UNL     1     -34.245  14.726  -3.980  1.00 20.00    -0.066 A 
HETATM    2  C2  UNL     1     -33.049  14.440  -4.451  1.00 20.00     0.016 C 
HETATM    3  C4  UNL     1     -35.537  14.235  -3.689  1.00 20.00     0.126 A 
HETATM    4  C5  UNL     1     -35.073  15.732  -3.424  1.00 20.00    -0.008 A 
HETATM    5  C6  UNL     1     -35.566  16.836  -4.320  1.00 20.00     0.021 C 
HETATM    6  C7  UNL     1     -34.849  16.142  -1.994  1.00 20.00     0.021 C 
ENDROOT
BRANCH   3   7
HETATM    7  C3  UNL     1     -36.373  13.912  -4.846  1.00 20.00     0.267 C 
HETATM    8  O9  UNL     1     -35.971  13.899  -6.001  1.00 20.00    -0.264 OA
BRANCH   7   9
HETATM    9  O10 UNL     1     -37.642  13.637  -4.428  1.00 20.00    -0.326 OA
HETATM   10  C8  UNL     1     -38.504  14.770  -4.292  1.00 20.00     0.213 C 
ENDBRANCH   7   9
ENDBRANCH   3   7
TORSDOF 2
ENDMDL
MODEL 2
REMARK VINA RESULT:      -4.6      1.388      1.943
REMARK  2 active torsions:
REMARK  status: ('A' for Active; 'I' for Inactive)
REMARK    1  A    between atoms: C3_3  and  C4_4 
REMARK    2  A    between atoms: C3_3  and  O10_10 
ROOT
HETATM    1  C1  UNL     1     -34.351  14.973  -4.720  1.00 20.00    -0.066 A 
HETATM    2  C2  UNL     1     -33.136  14.632  -4.345  1.00 20.00     0.016 C 
HETATM    3  C4  UNL     1     -35.726  14.939  -4.402  1.00 20.00     0.126 A 
HETATM    4  C5  UNL     1     -35.132  15.623  -5.707  1.00 20.00    -0.008 A 
HETATM    5  C6  UNL     1     -35.304  14.954  -7.044  1.00 20.00     0.021 C 
HETATM    6  C7  UNL     1     -35.124  17.126  -5.757  1.00 20.00     0.021 C 
ENDROOT
BRANCH   3   7
HETATM    7  C3  UNL     1     -36.369  13.626  -4.479  1.00 20.00     0.267 C 
HETATM    8  O9  UNL     1     -35.762  12.565  -4.488  1.00 20.00    -0.264 OA
BRANCH   7   9
HETATM    9  O10 UNL     1     -37.723  13.785  -4.539  1.00 20.00    -0.326 OA
HETATM   10  C8  UNL     1     -38.208  15.078  -4.163  1.00 20.00     0.213 C 
ENDBRANCH   7   9
ENDBRANCH   3   7
TORSDOF 2
ENDMDL
MODEL 3
REMARK VINA RESULT:      -4.5      0.902      1.613
REMARK  2 active torsions:
REMARK  status: ('A' for Active; 'I' for Inactive)
REMARK    1  A    between atoms: C3_3  and  C4_4 
REMARK    2  A    between atoms: C3_3  and  O10_10 
ROOT
HETATM    1  C1  UNL     1     -34.231  15.083  -3.672  1.00 20.00    -0.066 A 
HETATM    2  C2  UNL     1     -33.009  15.025  -4.159  1.00 20.00     0.016 C 
HETATM    3  C4  UNL     1     -35.418  14.368  -3.400  1.00 20.00     0.126 A 
HETATM    4  C5  UNL     1     -35.213  15.908  -3.071  1.00 20.00    -0.008 A 
HETATM    5  C6  UNL     1     -35.895  16.949  -3.916  1.00 20.00     0.021 C 
HETATM    6  C7  UNL     1     -35.047  16.289  -1.625  1.00 20.00     0.021 C 
ENDROOT
BRANCH   3   7
HETATM    7  C3  UNL     1     -36.199  13.956  -4.568  1.00 20.00     0.267 C 
HETATM    8  O9  UNL     1     -37.399  13.722  -4.542  1.00 20.00    -0.264 OA
BRANCH   7   9
HETATM    9  O10 UNL     1     -35.382  13.879  -5.658  1.00 20.00    -0.326 OA
HETATM   10  C8  UNL     1     -35.798  14.644  -6.793  1.00 20.00     0.213 C 
ENDBRANCH   7   9
ENDBRANCH   3   7
TORSDOF 2
ENDMDL
MODEL 4
REMARK VINA RESULT:      -4.2     17.568     19.115
REMARK  2 active torsions:
REMARK  status: ('A' for Active; 'I' for Inactive)
REMARK    1  A    between atoms: C3_3  and  C4_4 
REMARK    2  A    between atoms: C3_3  and  O10_10 
ROOT
HETATM    1  C1  UNL     1     -24.412  16.688  11.051  1.00 20.00    -0.066 A 
HETATM    2  C2  UNL     1     -24.705  15.429  11.302  1.00 20.00     0.016 C 
HETATM    3  C4  UNL     1     -24.267  17.679  10.056  1.00 20.00     0.126 A 
HETATM    4  C5  UNL     1     -24.043  17.937  11.607  1.00 20.00    -0.008 A 
HETATM    5  C6  UNL     1     -22.647  18.103  12.143  1.00 20.00     0.021 C 
HETATM    6  C7  UNL     1     -25.089  18.740  12.332  1.00 20.00     0.021 C 
ENDROOT
BRANCH   3   7
HETATM    7  C3  UNL     1     -23.122  17.521   9.157  1.00 20.00     0.267 C 
HETATM    8  O9  UNL     1     -22.403  16.532   9.130  1.00 20.00    -0.264 OA
BRANCH   7   9
HETATM    9  O10 UNL     1     -22.998  18.634   8.379  1.00 20.00    -0.326 OA
HETATM   10  C8  UNL     1     -24.228  19.224   7.948  1.00 20.00     0.213 C 
ENDBRANCH   7   9
ENDBRANCH   3   7
TORSDOF 2
ENDMDL
MODEL 5
REMARK VINA RESULT:      -4.2      1.153      1.934
REMARK  2 active torsions:
REMARK  status: ('A' for Active; 'I' for Inactive)
REMARK    1  A    between atoms: C3_3  and  C4_4 
REMARK    2  A    between atoms: C3_3  and  O10_10 
ROOT
HETATM    1  C1  UNL     1     -35.049  16.071  -4.894  1.00 20.00    -0.066 A 
HETATM    2  C2  UNL     1     -35.504  17.102  -5.574  1.00 20.00     0.016 C 
HETATM    3  C4  UNL     1     -34.855  14.672  -4.880  1.00 20.00     0.126 A 
HETATM    4  C5  UNL     1     -34.425  15.642  -3.697  1.00 20.00    -0.008 A 
HETATM    5  C6  UNL     1     -35.223  15.663  -2.422  1.00 20.00     0.021 C 
HETATM    6  C7  UNL     1     -32.954  15.902  -3.518  1.00 20.00     0.021 C 
ENDROOT
BRANCH   3   7
HETATM    7  C3  UNL     1     -36.068  13.859  -4.769  1.00 20.00     0.267 C 
HETATM    8  O9  UNL     1     -36.089  12.714  -4.341  1.00 20.00    -0.264 OA
BRANCH   7   9
HETATM    9  O10 UNL     1     -37.139  14.577  -5.213  1.00 20.00    -0.326 OA
HETATM   10  C8  UNL     1     -38.259  14.625  -4.324  1.00 20.00     0.213 C 
ENDBRANCH   7   9
ENDBRANCH   3   7
TORSDOF 2
ENDMDL
MODEL 6
REMARK VINA RESULT:      -4.0      1.669      2.330
REMARK  2 active torsions:
REMARK  status: ('A' for Active; 'I' for Inactive)
REMARK    1  A    between atoms: C3_3  and  C4_4 
REMARK    2  A    between atoms: C3_3  and  O10_10 
ROOT
HETATM    1  C1  UNL     1     -33.782  16.873  -2.998  1.00 20.00    -0.066 A 
HETATM    2  C2  UNL     1     -32.904  17.799  -3.322  1.00 20.00     0.016 C 
HETATM    3  C4  UNL     1     -34.064  15.490  -2.960  1.00 20.00     0.126 A 
HETATM    4  C5  UNL     1     -35.062  16.616  -2.448  1.00 20.00    -0.008 A 
HETATM    5  C6  UNL     1     -36.278  16.962  -3.263  1.00 20.00     0.021 C 
HETATM    6  C7  UNL     1     -35.248  16.749  -0.961  1.00 20.00     0.021 C 
ENDROOT
BRANCH   3   7
HETATM    7  C3  UNL     1     -34.276  14.845  -4.257  1.00 20.00     0.267 C 
HETATM    8  O9  UNL     1     -33.936  15.329  -5.328  1.00 20.00    -0.264 OA
BRANCH   7   9
HETATM    9  O10 UNL     1     -34.900  13.646  -4.072  1.00 20.00    -0.326 OA
HETATM   10  C8  UNL     1     -36.225  13.554  -4.606  1.00 20.00     0.213 C 
ENDBRANCH   7   9
ENDBRANCH   3   7
TORSDOF 2
ENDMDL
MODEL 7
REMARK VINA RESULT:      -4.0      1.484      2.323
REMARK  2 active torsions:
REMARK  status: ('A' for Active; 'I' for Inactive)
REMARK    1  A    between atoms: C3_3  and  C4_4 
REMARK    2  A    between atoms: C3_3  and  O10_10 
ROOT
HETATM    1  C1  UNL     1     -34.208  16.579  -4.305  1.00 20.00    -0.066 A 
HETATM    2  C2  UNL     1     -34.670  17.425  -5.201  1.00 20.00     0.016 C 
HETATM    3  C4  UNL     1     -33.642  15.305  -4.081  1.00 20.00     0.126 A 
HETATM    4  C5  UNL     1     -33.946  16.358  -2.931  1.00 20.00    -0.008 A 
HETATM    5  C6  UNL     1     -35.110  16.134  -2.004  1.00 20.00     0.021 C 
HETATM    6  C7  UNL     1     -32.770  17.051  -2.300  1.00 20.00     0.021 C 
ENDROOT
BRANCH   3   7
HETATM    7  C3  UNL     1     -34.532  14.163  -4.296  1.00 20.00     0.267 C 
HETATM    8  O9  UNL     1     -34.315  13.035  -3.875  1.00 20.00    -0.264 OA
BRANCH   7   9
HETATM    9  O10 UNL     1     -35.614  14.560  -5.027  1.00 20.00    -0.326 OA
HETATM   10  C8  UNL     1     -36.882  14.108  -4.543  1.00 20.00     0.213 C 
ENDBRANCH   7   9
ENDBRANCH   3   7
TORSDOF 2
ENDMDL
MODEL 8
REMARK VINA RESULT:      -3.8      2.496      3.948
REMARK  2 active torsions:
REMARK  status: ('A' for Active; 'I' for Inactive)
REMARK    1  A    between atoms: C3_3  and  C4_4 
REMARK    2  A    between atoms: C3_3  and  O10_10 
ROOT
HETATM    1  C1  UNL     1     -35.274  14.576  -4.571  1.00 20.00    -0.066 A 
HETATM    2  C2  UNL     1     -36.365  13.853  -4.432  1.00 20.00     0.016 C 
HETATM    3  C4  UNL     1     -34.031  14.941  -4.009  1.00 20.00     0.126 A 
HETATM    4  C5  UNL     1     -34.577  15.495  -5.394  1.00 20.00    -0.008 A 
HETATM    5  C6  UNL     1     -35.083  16.908  -5.486  1.00 20.00     0.021 C 
HETATM    6  C7  UNL     1     -33.921  14.984  -6.648  1.00 20.00     0.021 C 
ENDROOT
BRANCH   3   7
HETATM    7  C3  UNL     1     -34.093  15.769  -2.803  1.00 20.00     0.267 C 
HETATM    8  O9  UNL     1     -35.037  15.777  -2.025  1.00 20.00    -0.264 OA
BRANCH   7   9
HETATM    9  O10 UNL     1     -32.952  16.508  -2.699  1.00 20.00    -0.326 OA
HETATM   10  C8  UNL     1     -33.025  17.634  -1.820  1.00 20.00     0.213 C 
ENDBRANCH   7   9
ENDBRANCH   3   7
TORSDOF 2
ENDMDL
MODEL 9
REMARK VINA RESULT:      -3.7      1.627      2.479
REMARK  2 active torsions:
REMARK  status: ('A' for Active; 'I' for Inactive)
REMARK    1  A    between atoms: C3_3  and  C4_4 
REMARK    2  A    between atoms: C3_3  and  O10_10 
ROOT
HETATM    1  C1  UNL     1     -34.094  16.517  -2.799  1.00 20.00    -0.066 A 
HETATM    2  C2  UNL     1     -33.107  17.038  -2.102  1.00 20.00     0.016 C 
HETATM    3  C4  UNL     1     -34.705  15.328  -3.254  1.00 20.00     0.126 A 
HETATM    4  C5  UNL     1     -35.246  16.786  -3.577  1.00 20.00    -0.008 A 
HETATM    5  C6  UNL     1     -35.065  17.360  -4.956  1.00 20.00     0.021 C 
HETATM    6  C7  UNL     1     -36.503  17.228  -2.877  1.00 20.00     0.021 C 
ENDROOT
BRANCH   3   7
HETATM    7  C3  UNL     1     -33.961  14.572  -4.263  1.00 20.00     0.267 C 
HETATM    8  O9  UNL     1     -32.741  14.561  -4.350  1.00 20.00    -0.264 OA
BRANCH   7   9
HETATM    9  O10 UNL     1     -34.836  13.901  -5.066  1.00 20.00    -0.326 OA
HETATM   10  C8  UNL     1     -36.106  13.602  -4.478  1.00 20.00     0.213 C 
ENDBRANCH   7   9
ENDBRANCH   3   7
TORSDOF 2
ENDMDL
