MODEL 1
REMARK VINA RESULT:      -3.9      0.000      0.000
REMARK  3 active torsions:
REMARK  status: ('A' for Active; 'I' for Inactive)
REMARK    1  A    between atoms: C2_2  and  N7_7 
REMARK    2  A    between atoms: C4_4  and  C5_5 
REMARK    3  A    between atoms: C5_5  and  N7_7 
ROOT
HETATM    1  C1  UNL     1     -21.668  17.410   8.100  1.00 20.00     0.060 C 
HETATM    2  C4  UNL     1     -21.770  18.159   9.361  1.00 20.00     0.143 C 
HETATM    3  N6  UNL     1     -21.584  16.819   7.104  1.00 20.00    -0.197 NA
ENDROOT
BRANCH   2   4
HETATM    4  C5  UNL     1     -23.215  18.520   9.692  1.00 20.00     0.138 C 
BRANCH   4   5
HETATM    5  N7  UNL     1     -23.596  17.993  11.006  1.00 20.00    -0.366 N 
HETATM    6  C3  UNL     1     -22.495  17.784  11.951  1.00 20.00     0.151 C 
BRANCH   5   7
HETATM    7  C2  UNL     1     -24.910  17.904  11.395  1.00 20.00     0.167 C 
HETATM    8  S8  UNL     1     -26.053  19.146  11.016  1.00 20.00    -0.048 SA
HETATM    9  S9  UNL     1     -25.502  16.542  12.282  1.00 20.00    -0.048 SA
ENDBRANCH   5   7
ENDBRANCH   4   5
ENDBRANCH   2   4
TORSDOF 3
ENDMDL
MODEL 2
REMARK VINA RESULT:      -3.6      2.350      2.718
REMARK  3 active torsions:
REMARK  status: ('A' for Active; 'I' for Inactive)
REMARK    1  A    between atoms: C2_2  and  N7_7 
REMARK    2  A    between atoms: C4_4  and  C5_5 
REMARK    3  A    between atoms: C5_5  and  N7_7 
ROOT
HETATM    1  C1  UNL     1     -24.176  18.809   7.664  1.00 20.00     0.060 C 
HETATM    2  C4  UNL     1     -24.090  18.366   9.063  1.00 20.00     0.143 C 
HETATM    3  N6  UNL     1     -24.240  19.156   6.558  1.00 20.00    -0.197 NA
ENDROOT
BRANCH   2   4
HETATM    4  C5  UNL     1     -25.151  19.030   9.935  1.00 20.00     0.138 C 
BRANCH   4   5
HETATM    5  N7  UNL     1     -25.189  18.420  11.267  1.00 20.00    -0.366 N 
HETATM    6  C3  UNL     1     -26.393  18.695  12.057  1.00 20.00     0.151 C 
BRANCH   5   7
HETATM    7  C2  UNL     1     -24.264  17.486  11.661  1.00 20.00     0.167 C 
HETATM    8  S8  UNL     1     -22.738  17.949  12.331  1.00 20.00    -0.048 SA
HETATM    9  S9  UNL     1     -24.570  15.789  11.517  1.00 20.00    -0.048 SA
ENDBRANCH   5   7
ENDBRANCH   4   5
ENDBRANCH   2   4
TORSDOF 3
ENDMDL
MODEL 3
REMARK VINA RESULT:      -3.5     16.440     17.127
REMARK  3 active torsions:
REMARK  status: ('A' for Active; 'I' for Inactive)
REMARK    1  A    between atoms: C2_2  and  N7_7 
REMARK    2  A    between atoms: C4_4  and  C5_5 
REMARK    3  A    between atoms: C5_5  and  N7_7 
ROOT
HETATM    1  C1  UNL     1     -35.203  13.760  -4.157  1.00 20.00     0.060 C 
HETATM    2  C4  UNL     1     -34.288  14.831  -3.733  1.00 20.00     0.143 C 
HETATM    3  N6  UNL     1     -35.923  12.915  -4.495  1.00 20.00    -0.197 NA
ENDROOT
BRANCH   2   4
HETATM    4  C5  UNL     1     -34.860  15.641  -2.574  1.00 20.00     0.138 C 
BRANCH   4   5
HETATM    5  N7  UNL     1     -33.974  16.756  -2.229  1.00 20.00    -0.366 N 
HETATM    6  C3  UNL     1     -33.074  17.206  -3.295  1.00 20.00     0.151 C 
BRANCH   5   7
HETATM    7  C2  UNL     1     -34.125  17.466  -1.064  1.00 20.00     0.167 C 
HETATM    8  S8  UNL     1     -32.877  18.504  -0.467  1.00 20.00    -0.048 SA
HETATM    9  S9  UNL     1     -35.576  17.369  -0.126  1.00 20.00    -0.048 SA
ENDBRANCH   5   7
ENDBRANCH   4   5
ENDBRANCH   2   4
TORSDOF 3
ENDMDL
MODEL 4
REMARK VINA RESULT:      -3.5     16.432     17.131
REMARK  3 active torsions:
REMARK  status: ('A' for Active; 'I' for Inactive)
REMARK    1  A    between atoms: C2_2  and  N7_7 
REMARK    2  A    between atoms: C4_4  and  C5_5 
REMARK    3  A    between atoms: C5_5  and  N7_7 
ROOT
HETATM    1  C1  UNL     1     -35.198  13.765  -4.145  1.00 20.00     0.060 C 
HETATM    2  C4  UNL     1     -34.282  14.831  -3.714  1.00 20.00     0.143 C 
HETATM    3  N6  UNL     1     -35.920  12.924  -4.488  1.00 20.00    -0.197 NA
ENDROOT
BRANCH   2   4
HETATM    4  C5  UNL     1     -34.873  15.667  -2.583  1.00 20.00     0.138 C 
BRANCH   4   5
HETATM    5  N7  UNL     1     -33.976  16.768  -2.223  1.00 20.00    -0.366 N 
HETATM    6  C3  UNL     1     -33.060  17.211  -3.278  1.00 20.00     0.151 C 
BRANCH   5   7
HETATM    7  C2  UNL     1     -34.130  17.475  -1.056  1.00 20.00     0.167 C 
HETATM    8  S8  UNL     1     -35.588  17.384  -0.129  1.00 20.00    -0.048 SA
HETATM    9  S9  UNL     1     -32.874  18.492  -0.440  1.00 20.00    -0.048 SA
ENDBRANCH   5   7
ENDBRANCH   4   5
ENDBRANCH   2   4
TORSDOF 3
ENDMDL
MODEL 5
REMARK VINA RESULT:      -3.4     15.842     16.523
REMARK  3 active torsions:
REMARK  status: ('A' for Active; 'I' for Inactive)
REMARK    1  A    between atoms: C2_2  and  N7_7 
REMARK    2  A    between atoms: C4_4  and  C5_5 
REMARK    3  A    between atoms: C5_5  and  N7_7 
ROOT
HETATM    1  C1  UNL     1     -31.634  18.277  -0.856  1.00 20.00     0.060 C 
HETATM    2  C4  UNL     1     -32.966  18.069  -1.444  1.00 20.00     0.143 C 
HETATM    3  N6  UNL     1     -30.584  18.444  -0.391  1.00 20.00    -0.197 NA
ENDROOT
BRANCH   2   4
HETATM    4  C5  UNL     1     -32.950  16.991  -2.523  1.00 20.00     0.138 C 
BRANCH   4   5
HETATM    5  N7  UNL     1     -34.182  16.198  -2.488  1.00 20.00    -0.366 N 
HETATM    6  C3  UNL     1     -35.136  16.554  -1.434  1.00 20.00     0.151 C 
BRANCH   5   7
HETATM    7  C2  UNL     1     -34.512  15.331  -3.499  1.00 20.00     0.167 C 
HETATM    8  S8  UNL     1     -33.300  14.563  -4.466  1.00 20.00    -0.048 SA
HETATM    9  S9  UNL     1     -36.159  14.947  -3.863  1.00 20.00    -0.048 SA
ENDBRANCH   5   7
ENDBRANCH   4   5
ENDBRANCH   2   4
TORSDOF 3
ENDMDL
MODEL 6
REMARK VINA RESULT:      -3.3     16.903     17.601
REMARK  3 active torsions:
REMARK  status: ('A' for Active; 'I' for Inactive)
REMARK    1  A    between atoms: C2_2  and  N7_7 
REMARK    2  A    between atoms: C4_4  and  C5_5 
REMARK    3  A    between atoms: C5_5  and  N7_7 
ROOT
HETATM    1  C1  UNL     1     -35.738  13.912  -4.236  1.00 20.00     0.060 C 
HETATM    2  C4  UNL     1     -35.565  15.292  -3.758  1.00 20.00     0.143 C 
HETATM    3  N6  UNL     1     -35.878  12.824  -4.614  1.00 20.00    -0.197 NA
ENDROOT
BRANCH   2   4
HETATM    4  C5  UNL     1     -34.313  15.444  -2.900  1.00 20.00     0.138 C 
BRANCH   4   5
HETATM    5  N7  UNL     1     -34.314  16.729  -2.196  1.00 20.00    -0.366 N 
HETATM    6  C3  UNL     1     -35.218  16.822  -1.046  1.00 20.00     0.151 C 
BRANCH   5   7
HETATM    7  C2  UNL     1     -33.382  17.701  -2.464  1.00 20.00     0.167 C 
HETATM    8  S8  UNL     1     -32.251  18.225  -1.265  1.00 20.00    -0.048 SA
HETATM    9  S9  UNL     1     -33.279  18.454  -4.018  1.00 20.00    -0.048 SA
ENDBRANCH   5   7
ENDBRANCH   4   5
ENDBRANCH   2   4
TORSDOF 3
ENDMDL
MODEL 7
REMARK VINA RESULT:      -3.3     18.321     19.132
REMARK  3 active torsions:
REMARK  status: ('A' for Active; 'I' for Inactive)
REMARK    1  A    between atoms: C2_2  and  N7_7 
REMARK    2  A    between atoms: C4_4  and  C5_5 
REMARK    3  A    between atoms: C5_5  and  N7_7 
ROOT
HETATM    1  C1  UNL     1     -36.333  13.906  -4.309  1.00 20.00     0.060 C 
HETATM    2  C4  UNL     1     -34.892  13.980  -4.025  1.00 20.00     0.143 C 
HETATM    3  N6  UNL     1     -37.470  13.845  -4.531  1.00 20.00    -0.197 NA
ENDROOT
BRANCH   2   4
HETATM    4  C5  UNL     1     -34.175  14.942  -4.967  1.00 20.00     0.138 C 
BRANCH   4   5
HETATM    5  N7  UNL     1     -34.022  16.262  -4.349  1.00 20.00    -0.366 N 
HETATM    6  C3  UNL     1     -33.172  16.309  -3.156  1.00 20.00     0.151 C 
BRANCH   5   7
HETATM    7  C2  UNL     1     -34.468  17.405  -4.964  1.00 20.00     0.167 C 
HETATM    8  S8  UNL     1     -33.638  18.912  -4.786  1.00 20.00    -0.048 SA
HETATM    9  S9  UNL     1     -35.882  17.405  -5.960  1.00 20.00    -0.048 SA
ENDBRANCH   5   7
ENDBRANCH   4   5
ENDBRANCH   2   4
TORSDOF 3
ENDMDL
MODEL 8
REMARK VINA RESULT:      -3.3      1.533      2.176
REMARK  3 active torsions:
REMARK  status: ('A' for Active; 'I' for Inactive)
REMARK    1  A    between atoms: C2_2  and  N7_7 
REMARK    2  A    between atoms: C4_4  and  C5_5 
REMARK    3  A    between atoms: C5_5  and  N7_7 
ROOT
HETATM    1  C1  UNL     1     -22.212  17.297   8.094  1.00 20.00     0.060 C 
HETATM    2  C4  UNL     1     -23.377  18.193   8.143  1.00 20.00     0.143 C 
HETATM    3  N6  UNL     1     -21.294  16.588   8.054  1.00 20.00    -0.197 NA
ENDROOT
BRANCH   2   4
HETATM    4  C5  UNL     1     -23.353  19.090   9.377  1.00 20.00     0.138 C 
BRANCH   4   5
HETATM    5  N7  UNL     1     -24.327  18.635  10.372  1.00 20.00    -0.366 N 
HETATM    6  C3  UNL     1     -25.713  19.049  10.140  1.00 20.00     0.151 C 
BRANCH   5   7
HETATM    7  C2  UNL     1     -24.000  17.711  11.333  1.00 20.00     0.167 C 
HETATM    8  S8  UNL     1     -25.120  16.491  11.835  1.00 20.00    -0.048 SA
HETATM    9  S9  UNL     1     -22.447  17.706  12.096  1.00 20.00    -0.048 SA
ENDBRANCH   5   7
ENDBRANCH   4   5
ENDBRANCH   2   4
TORSDOF 3
ENDMDL
MODEL 9
REMARK VINA RESULT:      -3.3     18.921     19.806
REMARK  3 active torsions:
REMARK  status: ('A' for Active; 'I' for Inactive)
REMARK    1  A    between atoms: C2_2  and  N7_7 
REMARK    2  A    between atoms: C4_4  and  C5_5 
REMARK    3  A    between atoms: C5_5  and  N7_7 
ROOT
HETATM    1  C1  UNL     1     -36.363  13.732  -4.574  1.00 20.00     0.060 C 
HETATM    2  C4  UNL     1     -36.934  15.067  -4.810  1.00 20.00     0.143 C 
HETATM    3  N6  UNL     1     -35.914  12.679  -4.386  1.00 20.00    -0.197 NA
ENDROOT
BRANCH   2   4
HETATM    4  C5  UNL     1     -36.292  15.756  -6.010  1.00 20.00     0.138 C 
BRANCH   4   5
HETATM    5  N7  UNL     1     -34.838  15.838  -5.848  1.00 20.00    -0.366 N 
HETATM    6  C3  UNL     1     -34.045  15.208  -6.908  1.00 20.00     0.151 C 
BRANCH   5   7
HETATM    7  C2  UNL     1     -34.260  16.631  -4.888  1.00 20.00     0.167 C 
HETATM    8  S8  UNL     1     -33.414  15.952  -3.541  1.00 20.00    -0.048 SA
HETATM    9  S9  UNL     1     -34.339  18.357  -4.971  1.00 20.00    -0.048 SA
ENDBRANCH   5   7
ENDBRANCH   4   5
ENDBRANCH   2   4
TORSDOF 3
ENDMDL
