MODEL 1
REMARK VINA RESULT:      -4.5      0.000      0.000
REMARK  1 active torsions:
REMARK  status: ('A' for Active; 'I' for Inactive)
REMARK    1  A    between atoms: C4_4  and  C10_10 
ROOT
HETATM    1  C1  UNL     1     -34.076  17.414  -4.477  1.00 20.00     0.174 C 
HETATM    2  C2  UNL     1     -34.936  16.233  -4.196  1.00 20.00     0.025 A 
HETATM    3  C3  UNL     1     -34.642  15.809  -2.807  1.00 20.00     0.030 A 
HETATM    4  C4  UNL     1     -33.599  16.746  -2.282  1.00 20.00     0.130 C 
HETATM    5  C5  UNL     1     -34.403  14.835  -3.948  1.00 20.00    -0.035 A 
HETATM    6  C6  UNL     1     -35.381  13.694  -4.087  1.00 20.00     0.016 C 
HETATM    7  C7  UNL     1     -33.001  14.468  -4.358  1.00 20.00     0.016 C 
HETATM    8  O11 UNL     1     -33.121  17.516  -3.405  1.00 20.00    -0.385 OA
ENDROOT
BRANCH   4   9
HETATM    9  C10 UNL     1     -34.154  17.708  -1.242  1.00 20.00     0.007 C 
HETATM   10  C8  UNL     1     -35.258  17.041  -0.421  1.00 20.00     0.012 C 
HETATM   11  C9  UNL     1     -33.042  18.216  -0.325  1.00 20.00     0.012 C 
ENDBRANCH   4   9
TORSDOF 1
ENDMDL
MODEL 2
REMARK VINA RESULT:      -4.4      1.830      2.687
REMARK  1 active torsions:
REMARK  status: ('A' for Active; 'I' for Inactive)
REMARK    1  A    between atoms: C4_4  and  C10_10 
ROOT
HETATM    1  C1  UNL     1     -33.088  19.262  -2.831  1.00 20.00     0.174 C 
HETATM    2  C2  UNL     1     -34.101  18.303  -2.314  1.00 20.00     0.025 A 
HETATM    3  C3  UNL     1     -33.468  17.580  -1.186  1.00 20.00     0.030 A 
HETATM    4  C4  UNL     1     -32.077  18.118  -1.053  1.00 20.00     0.130 C 
HETATM    5  C5  UNL     1     -33.958  16.795  -2.390  1.00 20.00    -0.035 A 
HETATM    6  C6  UNL     1     -35.214  15.979  -2.209  1.00 20.00     0.016 C 
HETATM    7  C7  UNL     1     -32.976  16.168  -3.344  1.00 20.00     0.016 C 
HETATM    8  O11 UNL     1     -31.827  18.930  -2.219  1.00 20.00    -0.385 OA
ENDROOT
BRANCH   4   9
HETATM    9  C10 UNL     1     -31.907  18.988   0.183  1.00 20.00     0.007 C 
HETATM   10  C8  UNL     1     -33.084  18.802   1.142  1.00 20.00     0.012 C 
HETATM   11  C9  UNL     1     -30.589  18.673   0.890  1.00 20.00     0.012 C 
ENDBRANCH   4   9
TORSDOF 1
ENDMDL
MODEL 3
REMARK VINA RESULT:      -4.3      1.186      4.124
REMARK  1 active torsions:
REMARK  status: ('A' for Active; 'I' for Inactive)
REMARK    1  A    between atoms: C4_4  and  C10_10 
ROOT
HETATM    1  C1  UNL     1     -35.036  18.086  -3.413  1.00 20.00     0.174 C 
HETATM    2  C2  UNL     1     -33.629  18.096  -2.930  1.00 20.00     0.025 A 
HETATM    3  C3  UNL     1     -33.283  16.696  -2.589  1.00 20.00     0.030 A 
HETATM    4  C4  UNL     1     -34.500  15.870  -2.869  1.00 20.00     0.130 C 
HETATM    5  C5  UNL     1     -33.217  17.762  -1.509  1.00 20.00    -0.035 A 
HETATM    6  C6  UNL     1     -31.843  18.207  -1.071  1.00 20.00     0.016 C 
HETATM    7  C7  UNL     1     -34.230  17.784  -0.395  1.00 20.00     0.016 C 
HETATM    8  O11 UNL     1     -35.585  16.789  -3.113  1.00 20.00    -0.385 OA
ENDROOT
BRANCH   4   9
HETATM    9  C10 UNL     1     -34.332  14.988  -4.098  1.00 20.00     0.007 C 
HETATM   10  C8  UNL     1     -32.864  14.614  -4.300  1.00 20.00     0.012 C 
HETATM   11  C9  UNL     1     -35.192  13.730  -3.983  1.00 20.00     0.012 C 
ENDBRANCH   4   9
TORSDOF 1
ENDMDL
MODEL 4
REMARK VINA RESULT:      -4.1      2.309      3.501
REMARK  1 active torsions:
REMARK  status: ('A' for Active; 'I' for Inactive)
REMARK    1  A    between atoms: C4_4  and  C10_10 
ROOT
HETATM    1  C1  UNL     1     -36.588  13.962  -4.585  1.00 20.00     0.174 C 
HETATM    2  C2  UNL     1     -35.616  14.321  -5.652  1.00 20.00     0.025 A 
HETATM    3  C3  UNL     1     -34.955  15.577  -5.224  1.00 20.00     0.030 A 
HETATM    4  C4  UNL     1     -35.554  15.951  -3.904  1.00 20.00     0.130 C 
HETATM    5  C5  UNL     1     -35.735  15.554  -6.528  1.00 20.00    -0.035 A 
HETATM    6  C6  UNL     1     -34.930  15.567  -7.805  1.00 20.00     0.016 C 
HETATM    7  C7  UNL     1     -37.047  16.284  -6.646  1.00 20.00     0.016 C 
HETATM    8  O11 UNL     1     -36.696  15.093  -3.701  1.00 20.00    -0.385 OA
ENDROOT
BRANCH   4   9
HETATM    9  C10 UNL     1     -34.587  15.743  -2.749  1.00 20.00     0.007 C 
HETATM   10  C8  UNL     1     -33.176  16.188  -3.137  1.00 20.00     0.012 C 
HETATM   11  C9  UNL     1     -35.058  16.495  -1.505  1.00 20.00     0.012 C 
ENDBRANCH   4   9
TORSDOF 1
ENDMDL
MODEL 5
REMARK VINA RESULT:      -4.1      1.212      4.015
REMARK  1 active torsions:
REMARK  status: ('A' for Active; 'I' for Inactive)
REMARK    1  A    between atoms: C4_4  and  C10_10 
ROOT
HETATM    1  C1  UNL     1     -33.307  17.315  -3.288  1.00 20.00     0.174 C 
HETATM    2  C2  UNL     1     -33.828  16.854  -1.973  1.00 20.00     0.025 A 
HETATM    3  C3  UNL     1     -34.999  15.991  -2.255  1.00 20.00     0.030 A 
HETATM    4  C4  UNL     1     -35.162  15.957  -3.743  1.00 20.00     0.130 C 
HETATM    5  C5  UNL     1     -35.184  17.243  -1.414  1.00 20.00    -0.035 A 
HETATM    6  C6  UNL     1     -35.396  17.046   0.067  1.00 20.00     0.016 C 
HETATM    7  C7  UNL     1     -35.926  18.431  -1.966  1.00 20.00     0.016 C 
HETATM    8  O11 UNL     1     -34.285  16.966  -4.286  1.00 20.00    -0.385 OA
ENDROOT
BRANCH   4   9
HETATM    9  C10 UNL     1     -34.773  14.613  -4.338  1.00 20.00     0.007 C 
HETATM   10  C8  UNL     1     -35.990  13.691  -4.436  1.00 20.00     0.012 C 
HETATM   11  C9  UNL     1     -34.132  14.794  -5.713  1.00 20.00     0.012 C 
ENDBRANCH   4   9
TORSDOF 1
ENDMDL
MODEL 6
REMARK VINA RESULT:      -4.1      2.574      4.574
REMARK  1 active torsions:
REMARK  status: ('A' for Active; 'I' for Inactive)
REMARK    1  A    between atoms: C4_4  and  C10_10 
ROOT
HETATM    1  C1  UNL     1     -36.242  13.598  -4.612  1.00 20.00     0.174 C 
HETATM    2  C2  UNL     1     -35.817  14.675  -3.678  1.00 20.00     0.025 A 
HETATM    3  C3  UNL     1     -35.573  15.883  -4.501  1.00 20.00     0.030 A 
HETATM    4  C4  UNL     1     -35.851  15.501  -5.922  1.00 20.00     0.130 C 
HETATM    5  C5  UNL     1     -34.435  15.302  -3.679  1.00 20.00    -0.035 A 
HETATM    6  C6  UNL     1     -34.029  16.064  -2.441  1.00 20.00     0.016 C 
HETATM    7  C7  UNL     1     -33.282  14.608  -4.354  1.00 20.00     0.016 C 
HETATM    8  O11 UNL     1     -35.997  14.066  -5.951  1.00 20.00    -0.385 OA
ENDROOT
BRANCH   4   9
HETATM    9  C10 UNL     1     -37.135  16.125  -6.449  1.00 20.00     0.007 C 
HETATM   10  C8  UNL     1     -37.537  17.334  -5.604  1.00 20.00     0.012 C 
HETATM   11  C9  UNL     1     -36.979  16.527  -7.915  1.00 20.00     0.012 C 
ENDBRANCH   4   9
TORSDOF 1
ENDMDL
MODEL 7
REMARK VINA RESULT:      -4.1      2.151      4.406
REMARK  1 active torsions:
REMARK  status: ('A' for Active; 'I' for Inactive)
REMARK    1  A    between atoms: C4_4  and  C10_10 
ROOT
HETATM    1  C1  UNL     1     -34.477  13.787  -4.121  1.00 20.00     0.174 C 
HETATM    2  C2  UNL     1     -35.139  14.733  -3.183  1.00 20.00     0.025 A 
HETATM    3  C3  UNL     1     -35.499  15.935  -3.972  1.00 20.00     0.030 A 
HETATM    4  C4  UNL     1     -35.035  15.687  -5.374  1.00 20.00     0.130 C 
HETATM    5  C5  UNL     1     -34.561  16.078  -2.786  1.00 20.00    -0.035 A 
HETATM    6  C6  UNL     1     -35.124  16.724  -1.544  1.00 20.00     0.016 C 
HETATM    7  C7  UNL     1     -33.100  16.374  -2.998  1.00 20.00     0.016 C 
HETATM    8  O11 UNL     1     -34.210  14.504  -5.341  1.00 20.00    -0.385 OA
ENDROOT
BRANCH   4   9
HETATM    9  C10 UNL     1     -36.191  15.440  -6.331  1.00 20.00     0.007 C 
HETATM   10  C8  UNL     1     -37.235  16.551  -6.219  1.00 20.00     0.012 C 
HETATM   11  C9  UNL     1     -35.688  15.325  -7.770  1.00 20.00     0.012 C 
ENDBRANCH   4   9
TORSDOF 1
ENDMDL
MODEL 8
REMARK VINA RESULT:      -4.0      1.782      4.173
REMARK  1 active torsions:
REMARK  status: ('A' for Active; 'I' for Inactive)
REMARK    1  A    between atoms: C4_4  and  C10_10 
ROOT
HETATM    1  C1  UNL     1     -34.089  14.370  -4.154  1.00 20.00     0.174 C 
HETATM    2  C2  UNL     1     -34.885  15.066  -3.109  1.00 20.00     0.025 A 
HETATM    3  C3  UNL     1     -35.367  16.332  -3.709  1.00 20.00     0.030 A 
HETATM    4  C4  UNL     1     -34.840  16.373  -5.110  1.00 20.00     0.130 C 
HETATM    5  C5  UNL     1     -34.484  16.385  -2.474  1.00 20.00    -0.035 A 
HETATM    6  C6  UNL     1     -35.153  16.749  -1.172  1.00 20.00     0.016 C 
HETATM    7  C7  UNL     1     -33.065  16.878  -2.570  1.00 20.00     0.016 C 
HETATM    8  O11 UNL     1     -33.879  15.304  -5.230  1.00 20.00    -0.385 OA
ENDROOT
BRANCH   4   9
HETATM    9  C10 UNL     1     -35.932  16.155  -6.147  1.00 20.00     0.007 C 
HETATM   10  C8  UNL     1     -35.572  14.996  -7.078  1.00 20.00     0.012 C 
HETATM   11  C9  UNL     1     -37.278  15.896  -5.470  1.00 20.00     0.012 C 
ENDBRANCH   4   9
TORSDOF 1
ENDMDL
MODEL 9
REMARK VINA RESULT:      -3.8      1.511      2.027
REMARK  1 active torsions:
REMARK  status: ('A' for Active; 'I' for Inactive)
REMARK    1  A    between atoms: C4_4  and  C10_10 
ROOT
HETATM    1  C1  UNL     1     -34.859  16.284  -5.272  1.00 20.00     0.174 C 
HETATM    2  C2  UNL     1     -36.264  16.086  -4.824  1.00 20.00     0.025 A 
HETATM    3  C3  UNL     1     -36.216  15.831  -3.365  1.00 20.00     0.030 A 
HETATM    4  C4  UNL     1     -34.773  15.874  -2.966  1.00 20.00     0.130 C 
HETATM    5  C5  UNL     1     -36.806  14.776  -4.285  1.00 20.00    -0.035 A 
HETATM    6  C6  UNL     1     -38.306  14.613  -4.264  1.00 20.00     0.016 C 
HETATM    7  C7  UNL     1     -36.072  13.485  -4.536  1.00 20.00     0.016 C 
HETATM    8  O11 UNL     1     -34.000  15.893  -4.185  1.00 20.00    -0.385 OA
ENDROOT
BRANCH   4   9
HETATM    9  C10 UNL     1     -34.431  17.118  -2.161  1.00 20.00     0.007 C 
HETATM   10  C8  UNL     1     -35.040  17.043  -0.761  1.00 20.00     0.012 C 
HETATM   11  C9  UNL     1     -32.917  17.308  -2.074  1.00 20.00     0.012 C 
ENDBRANCH   4   9
TORSDOF 1
ENDMDL
