MODEL 1
REMARK VINA RESULT:      -5.0      0.000      0.000
REMARK  2 active torsions:
REMARK  status: ('A' for Active; 'I' for Inactive)
REMARK    1  A    between atoms: C1_1  and  C6_6 
REMARK    2  A    between atoms: C7_7  and  C9_9 
ROOT
HETATM    1  C2  UNL     1     -33.710  15.070  -4.314  1.00 20.00     0.012 C 
HETATM    2  C3  UNL     1     -35.655  15.643  -2.810  1.00 20.00     0.012 C 
HETATM    3  C4  UNL     1     -32.781  15.905  -3.433  1.00 20.00     0.005 C 
HETATM    4  C5  UNL     1     -34.730  16.479  -1.927  1.00 20.00     0.005 C 
HETATM    5  C6  UNL     1     -34.889  14.529  -3.514  1.00 20.00     0.047 C 
HETATM    6  C7  UNL     1     -33.539  17.034  -2.722  1.00 20.00    -0.015 C 
ENDROOT
BRANCH   5   7
HETATM    7  C1  UNL     1     -35.840  13.863  -4.489  1.00 20.00     0.235 C 
HETATM    8  O10 UNL     1     -35.953  12.647  -4.598  1.00 20.00    -0.306 OA
ENDBRANCH   5   7
BRANCH   6   9
HETATM    9  C9  UNL     1     -32.600  17.821  -1.808  1.00 20.00     0.000 C 
HETATM   10  C8  UNL     1     -33.259  18.178  -0.517  1.00 20.00     0.005 C 
ENDBRANCH   6   9
TORSDOF 2
ENDMDL
MODEL 2
REMARK VINA RESULT:      -4.8      0.647      1.669
REMARK  2 active torsions:
REMARK  status: ('A' for Active; 'I' for Inactive)
REMARK    1  A    between atoms: C1_1  and  C6_6 
REMARK    2  A    between atoms: C7_7  and  C9_9 
ROOT
HETATM    1  C2  UNL     1     -36.012  15.732  -3.213  1.00 20.00     0.012 C 
HETATM    2  C3  UNL     1     -33.984  14.476  -4.041  1.00 20.00     0.012 C 
HETATM    3  C4  UNL     1     -35.120  16.903  -2.801  1.00 20.00     0.005 C 
HETATM    4  C5  UNL     1     -33.089  15.644  -3.629  1.00 20.00     0.005 C 
HETATM    5  C6  UNL     1     -35.396  14.950  -4.367  1.00 20.00     0.047 C 
HETATM    6  C7  UNL     1     -33.696  16.439  -2.464  1.00 20.00    -0.015 C 
ENDROOT
BRANCH   5   7
HETATM    7  C1  UNL     1     -36.252  13.720  -4.598  1.00 20.00     0.235 C 
HETATM    8  O10 UNL     1     -35.820  12.575  -4.536  1.00 20.00    -0.306 OA
ENDBRANCH   5   7
BRANCH   6   9
HETATM    9  C9  UNL     1     -32.811  17.632  -2.106  1.00 20.00     0.000 C 
HETATM   10  C8  UNL     1     -33.087  18.128  -0.725  1.00 20.00     0.005 C 
ENDBRANCH   6   9
TORSDOF 2
ENDMDL
MODEL 3
REMARK VINA RESULT:      -4.6     15.990     17.062
REMARK  2 active torsions:
REMARK  status: ('A' for Active; 'I' for Inactive)
REMARK    1  A    between atoms: C1_1  and  C6_6 
REMARK    2  A    between atoms: C7_7  and  C9_9 
ROOT
HETATM    1  C2  UNL     1     -24.066  18.657   8.672  1.00 20.00     0.012 C 
HETATM    2  C3  UNL     1     -22.839  17.447  10.517  1.00 20.00     0.012 C 
HETATM    3  C4  UNL     1     -25.046  19.228   9.695  1.00 20.00     0.005 C 
HETATM    4  C5  UNL     1     -23.818  18.014  11.543  1.00 20.00     0.005 C 
HETATM    5  C6  UNL     1     -22.712  18.367   9.308  1.00 20.00     0.047 C 
HETATM    6  C7  UNL     1     -25.189  18.308  10.916  1.00 20.00    -0.015 C 
ENDROOT
BRANCH   5   7
HETATM    7  C1  UNL     1     -21.861  17.653   8.275  1.00 20.00     0.235 C 
HETATM    8  O10 UNL     1     -22.083  17.698   7.070  1.00 20.00    -0.306 OA
ENDBRANCH   5   7
BRANCH   6   9
HETATM    9  C9  UNL     1     -26.133  18.924  11.948  1.00 20.00     0.000 C 
HETATM   10  C8  UNL     1     -27.222  17.979  12.332  1.00 20.00     0.005 C 
ENDBRANCH   6   9
TORSDOF 2
ENDMDL
MODEL 4
REMARK VINA RESULT:      -4.4     10.974     11.795
REMARK  2 active torsions:
REMARK  status: ('A' for Active; 'I' for Inactive)
REMARK    1  A    between atoms: C1_1  and  C6_6 
REMARK    2  A    between atoms: C7_7  and  C9_9 
ROOT
HETATM    1  C2  UNL     1     -33.868   6.812   4.506  1.00 20.00     0.012 C 
HETATM    2  C3  UNL     1     -33.696   4.702   3.130  1.00 20.00     0.012 C 
HETATM    3  C4  UNL     1     -33.382   7.632   3.311  1.00 20.00     0.005 C 
HETATM    4  C5  UNL     1     -33.209   5.518   1.934  1.00 20.00     0.005 C 
HETATM    5  C6  UNL     1     -34.575   5.541   4.051  1.00 20.00     0.047 C 
HETATM    6  C7  UNL     1     -32.491   6.800   2.378  1.00 20.00    -0.015 C 
ENDROOT
BRANCH   5   7
HETATM    7  C1  UNL     1     -34.871   4.712   5.285  1.00 20.00     0.235 C 
HETATM    8  O10 UNL     1     -34.564   5.057   6.421  1.00 20.00    -0.306 OA
ENDBRANCH   5   7
BRANCH   6   9
HETATM    9  C9  UNL     1     -32.061   7.626   1.166  1.00 20.00     0.000 C 
HETATM   10  C8  UNL     1     -32.975   8.784   0.937  1.00 20.00     0.005 C 
ENDBRANCH   6   9
TORSDOF 2
ENDMDL
MODEL 5
REMARK VINA RESULT:      -4.4      2.515      4.460
REMARK  2 active torsions:
REMARK  status: ('A' for Active; 'I' for Inactive)
REMARK    1  A    between atoms: C1_1  and  C6_6 
REMARK    2  A    between atoms: C7_7  and  C9_9 
ROOT
HETATM    1  C2  UNL     1     -32.748  16.015  -3.410  1.00 20.00     0.012 C 
HETATM    2  C3  UNL     1     -34.670  16.580  -1.875  1.00 20.00     0.012 C 
HETATM    3  C4  UNL     1     -33.690  15.193  -4.289  1.00 20.00     0.005 C 
HETATM    4  C5  UNL     1     -35.615  15.758  -2.750  1.00 20.00     0.005 C 
HETATM    5  C6  UNL     1     -33.499  17.124  -2.685  1.00 20.00     0.047 C 
HETATM    6  C7  UNL     1     -34.871  14.633  -3.485  1.00 20.00    -0.015 C 
ENDROOT
BRANCH   5   7
HETATM    7  C1  UNL     1     -32.533  17.777  -1.716  1.00 20.00     0.235 C 
HETATM    8  O10 UNL     1     -31.851  18.756  -1.997  1.00 20.00    -0.306 OA
ENDBRANCH   5   7
BRANCH   6   9
HETATM    9  C9  UNL     1     -35.825  13.860  -4.394  1.00 20.00     0.000 C 
HETATM   10  C8  UNL     1     -37.208  14.421  -4.346  1.00 20.00     0.005 C 
ENDBRANCH   6   9
TORSDOF 2
ENDMDL
MODEL 6
REMARK VINA RESULT:      -4.4      1.351      1.878
REMARK  2 active torsions:
REMARK  status: ('A' for Active; 'I' for Inactive)
REMARK    1  A    between atoms: C1_1  and  C6_6 
REMARK    2  A    between atoms: C7_7  and  C9_9 
ROOT
HETATM    1  C2  UNL     1     -33.045  16.796  -3.289  1.00 20.00     0.012 C 
HETATM    2  C3  UNL     1     -35.286  15.904  -2.547  1.00 20.00     0.012 C 
HETATM    3  C4  UNL     1     -32.860  17.469  -1.930  1.00 20.00     0.005 C 
HETATM    4  C5  UNL     1     -35.107  16.576  -1.187  1.00 20.00     0.005 C 
HETATM    5  C6  UNL     1     -33.940  15.568  -3.180  1.00 20.00     0.047 C 
HETATM    6  C7  UNL     1     -34.209  17.818  -1.283  1.00 20.00    -0.015 C 
ENDROOT
BRANCH   5   7
HETATM    7  C1  UNL     1     -34.206  15.065  -4.585  1.00 20.00     0.235 C 
HETATM    8  O10 UNL     1     -33.570  14.157  -5.109  1.00 20.00    -0.306 OA
ENDBRANCH   5   7
BRANCH   6   9
HETATM    9  C9  UNL     1     -34.000  18.441   0.096  1.00 20.00     0.000 C 
HETATM   10  C8  UNL     1     -32.552  18.518   0.452  1.00 20.00     0.005 C 
ENDBRANCH   6   9
TORSDOF 2
ENDMDL
MODEL 7
REMARK VINA RESULT:      -4.3     10.816     11.764
REMARK  2 active torsions:
REMARK  status: ('A' for Active; 'I' for Inactive)
REMARK    1  A    between atoms: C1_1  and  C6_6 
REMARK    2  A    between atoms: C7_7  and  C9_9 
ROOT
HETATM    1  C2  UNL     1     -33.235   7.718   3.245  1.00 20.00     0.012 C 
HETATM    2  C3  UNL     1     -33.146   5.736   1.684  1.00 20.00     0.012 C 
HETATM    3  C4  UNL     1     -33.667   6.800   4.388  1.00 20.00     0.005 C 
HETATM    4  C5  UNL     1     -33.579   4.815   2.824  1.00 20.00     0.005 C 
HETATM    5  C6  UNL     1     -32.408   6.961   2.213  1.00 20.00     0.047 C 
HETATM    6  C7  UNL     1     -34.417   5.565   3.870  1.00 20.00    -0.015 C 
ENDROOT
BRANCH   5   7
HETATM    7  C1  UNL     1     -32.168   7.893   1.042  1.00 20.00     0.235 C 
HETATM    8  O10 UNL     1     -32.915   8.822   0.752  1.00 20.00    -0.306 OA
ENDBRANCH   5   7
BRANCH   6   9
HETATM    9  C9  UNL     1     -34.792   4.638   5.025  1.00 20.00     0.000 C 
HETATM   10  C8  UNL     1     -34.791   5.359   6.333  1.00 20.00     0.005 C 
ENDBRANCH   6   9
TORSDOF 2
ENDMDL
MODEL 8
REMARK VINA RESULT:      -4.3      0.881      1.846
REMARK  2 active torsions:
REMARK  status: ('A' for Active; 'I' for Inactive)
REMARK    1  A    between atoms: C1_1  and  C6_6 
REMARK    2  A    between atoms: C7_7  and  C9_9 
ROOT
HETATM    1  C2  UNL     1     -35.556  15.481  -2.548  1.00 20.00     0.012 C 
HETATM    2  C3  UNL     1     -33.368  15.400  -3.804  1.00 20.00     0.012 C 
HETATM    3  C4  UNL     1     -35.138  16.802  -1.902  1.00 20.00     0.005 C 
HETATM    4  C5  UNL     1     -32.946  16.720  -3.160  1.00 20.00     0.005 C 
HETATM    5  C6  UNL     1     -34.885  15.294  -3.903  1.00 20.00     0.047 C 
HETATM    6  C7  UNL     1     -33.612  16.920  -1.790  1.00 20.00    -0.015 C 
ENDROOT
BRANCH   5   7
HETATM    7  C1  UNL     1     -35.217  13.898  -4.392  1.00 20.00     0.235 C 
HETATM    8  O10 UNL     1     -34.684  12.884  -3.955  1.00 20.00    -0.306 OA
ENDBRANCH   5   7
BRANCH   6   9
HETATM    9  C9  UNL     1     -33.218  18.269  -1.191  1.00 20.00     0.000 C 
HETATM   10  C8  UNL     1     -31.741  18.378  -1.003  1.00 20.00     0.005 C 
ENDBRANCH   6   9
TORSDOF 2
ENDMDL
MODEL 9
REMARK VINA RESULT:      -4.3      2.929      4.833
REMARK  2 active torsions:
REMARK  status: ('A' for Active; 'I' for Inactive)
REMARK    1  A    between atoms: C1_1  and  C6_6 
REMARK    2  A    between atoms: C7_7  and  C9_9 
ROOT
HETATM    1  C2  UNL     1     -32.401  17.397  -2.314  1.00 20.00     0.012 C 
HETATM    2  C3  UNL     1     -34.057  17.623  -0.423  1.00 20.00     0.012 C 
HETATM    3  C4  UNL     1     -33.462  16.696  -3.162  1.00 20.00     0.005 C 
HETATM    4  C5  UNL     1     -35.121  16.923  -1.266  1.00 20.00     0.005 C 
HETATM    5  C6  UNL     1     -33.038  18.340  -1.302  1.00 20.00     0.047 C 
HETATM    6  C7  UNL     1     -34.492  15.965  -2.289  1.00 20.00    -0.015 C 
ENDROOT
BRANCH   5   7
HETATM    7  C1  UNL     1     -31.937  18.859  -0.399  1.00 20.00     0.235 C 
HETATM    8  O10 UNL     1     -30.754  18.567  -0.539  1.00 20.00    -0.306 OA
ENDBRANCH   5   7
BRANCH   6   9
HETATM    9  C9  UNL     1     -35.570  15.318  -3.156  1.00 20.00     0.000 C 
HETATM   10  C8  UNL     1     -35.013  14.222  -4.002  1.00 20.00     0.005 C 
ENDBRANCH   6   9
TORSDOF 2
ENDMDL
