MODEL 1
REMARK VINA RESULT:      -5.3      0.000      0.000
REMARK  1 active torsions:
REMARK  status: ('A' for Active; 'I' for Inactive)
REMARK    1  A    between atoms: C3_3  and  C8_8 
ROOT
HETATM    1  C1  UNL     1     -33.594  17.167  -3.400  1.00 20.00    -0.025 C 
HETATM    2  C2  UNL     1     -33.089  15.933  -3.541  1.00 20.00    -0.024 C 
HETATM    3  C4  UNL     1     -35.028  15.725  -2.320  1.00 20.00     0.018 C 
HETATM    4  C5  UNL     1     -35.074  17.019  -3.139  1.00 20.00     0.013 C 
HETATM    5  C6  UNL     1     -34.237  14.960  -3.394  1.00 20.00     0.024 C 
HETATM    6  C7  UNL     1     -35.798  16.524  -4.426  1.00 20.00     0.005 C 
HETATM    7  C8  UNL     1     -35.179  15.086  -4.633  1.00 20.00     0.027 C 
HETATM    8  C10 UNL     1     -35.700  17.494  -5.597  1.00 20.00     0.012 C 
HETATM    9  C11 UNL     1     -34.463  14.845  -5.967  1.00 20.00     0.024 C 
ENDROOT
BRANCH   7  10
HETATM   10  C3  UNL     1     -36.248  14.023  -4.523  1.00 20.00     0.132 C 
HETATM   11  C9  UNL     1     -37.666  14.503  -4.374  1.00 20.00     0.091 C 
HETATM   12  O12 UNL     1     -35.972  12.825  -4.557  1.00 20.00    -0.298 OA
ENDBRANCH   7  10
TORSDOF 1
ENDMDL
MODEL 2
REMARK VINA RESULT:      -5.0      0.965      1.112
REMARK  1 active torsions:
REMARK  status: ('A' for Active; 'I' for Inactive)
REMARK    1  A    between atoms: C3_3  and  C8_8 
ROOT
HETATM    1  C1  UNL     1     -33.215  16.043  -3.866  1.00 20.00    -0.025 C 
HETATM    2  C2  UNL     1     -33.471  14.737  -4.026  1.00 20.00    -0.024 C 
HETATM    3  C4  UNL     1     -35.043  15.550  -2.555  1.00 20.00     0.018 C 
HETATM    4  C5  UNL     1     -34.496  16.699  -3.408  1.00 20.00     0.013 C 
HETATM    5  C6  UNL     1     -34.931  14.523  -3.695  1.00 20.00     0.024 C 
HETATM    6  C7  UNL     1     -35.533  16.718  -4.570  1.00 20.00     0.005 C 
HETATM    7  C8  UNL     1     -35.812  15.182  -4.803  1.00 20.00     0.027 C 
HETATM    8  C10 UNL     1     -35.085  17.531  -5.779  1.00 20.00     0.012 C 
HETATM    9  C11 UNL     1     -35.517  14.649  -6.210  1.00 20.00     0.024 C 
ENDROOT
BRANCH   7  10
HETATM   10  C3  UNL     1     -37.259  14.852  -4.514  1.00 20.00     0.132 C 
HETATM   11  C9  UNL     1     -38.203  16.015  -4.377  1.00 20.00     0.091 C 
HETATM   12  O12 UNL     1     -37.645  13.690  -4.401  1.00 20.00    -0.298 OA
ENDBRANCH   7  10
TORSDOF 1
ENDMDL
MODEL 3
REMARK VINA RESULT:      -4.9      1.451      2.345
REMARK  1 active torsions:
REMARK  status: ('A' for Active; 'I' for Inactive)
REMARK    1  A    between atoms: C3_3  and  C8_8 
ROOT
HETATM    1  C1  UNL     1     -34.335  16.014  -2.487  1.00 20.00    -0.025 C 
HETATM    2  C2  UNL     1     -33.294  16.079  -3.330  1.00 20.00    -0.024 C 
HETATM    3  C4  UNL     1     -34.435  14.143  -3.826  1.00 20.00     0.018 C 
HETATM    4  C5  UNL     1     -35.377  15.129  -3.128  1.00 20.00     0.013 C 
HETATM    5  C6  UNL     1     -33.650  15.253  -4.545  1.00 20.00     0.024 C 
HETATM    6  C7  UNL     1     -36.008  15.848  -4.358  1.00 20.00     0.005 C 
HETATM    7  C8  UNL     1     -34.781  15.975  -5.344  1.00 20.00     0.027 C 
HETATM    8  C10 UNL     1     -36.746  17.134  -4.004  1.00 20.00     0.012 C 
HETATM    9  C11 UNL     1     -34.407  17.397  -5.776  1.00 20.00     0.024 C 
ENDROOT
BRANCH   7  10
HETATM   10  C3  UNL     1     -35.034  15.194  -6.614  1.00 20.00     0.132 C 
HETATM   11  C9  UNL     1     -33.946  15.220  -7.652  1.00 20.00     0.091 C 
HETATM   12  O12 UNL     1     -36.077  14.565  -6.787  1.00 20.00    -0.298 OA
ENDBRANCH   7  10
TORSDOF 1
ENDMDL
MODEL 4
REMARK VINA RESULT:      -4.5      1.479      2.590
REMARK  1 active torsions:
REMARK  status: ('A' for Active; 'I' for Inactive)
REMARK    1  A    between atoms: C3_3  and  C8_8 
ROOT
HETATM    1  C1  UNL     1     -33.970  16.262  -2.370  1.00 20.00    -0.025 C 
HETATM    2  C2  UNL     1     -35.278  15.979  -2.286  1.00 20.00    -0.024 C 
HETATM    3  C4  UNL     1     -35.015  17.396  -4.080  1.00 20.00     0.018 C 
HETATM    4  C5  UNL     1     -33.692  16.679  -3.795  1.00 20.00     0.013 C 
HETATM    5  C6  UNL     1     -35.870  16.188  -3.662  1.00 20.00     0.024 C 
HETATM    6  C7  UNL     1     -33.813  15.452  -4.746  1.00 20.00     0.005 C 
HETATM    7  C8  UNL     1     -35.342  15.076  -4.623  1.00 20.00     0.027 C 
HETATM    8  C10 UNL     1     -32.804  14.347  -4.455  1.00 20.00     0.012 C 
HETATM    9  C11 UNL     1     -35.651  13.656  -4.137  1.00 20.00     0.024 C 
ENDROOT
BRANCH   7  10
HETATM   10  C3  UNL     1     -36.040  15.234  -5.955  1.00 20.00     0.132 C 
HETATM   11  C9  UNL     1     -35.171  15.190  -7.183  1.00 20.00     0.091 C 
HETATM   12  O12 UNL     1     -37.258  15.387  -6.031  1.00 20.00    -0.298 OA
ENDBRANCH   7  10
TORSDOF 1
ENDMDL
MODEL 5
REMARK VINA RESULT:      -4.4      1.648      3.440
REMARK  1 active torsions:
REMARK  status: ('A' for Active; 'I' for Inactive)
REMARK    1  A    between atoms: C3_3  and  C8_8 
ROOT
HETATM    1  C1  UNL     1     -35.678  15.350  -6.717  1.00 20.00    -0.025 C 
HETATM    2  C2  UNL     1     -34.464  15.900  -6.576  1.00 20.00    -0.024 C 
HETATM    3  C4  UNL     1     -35.874  17.024  -5.148  1.00 20.00     0.018 C 
HETATM    4  C5  UNL     1     -36.450  15.637  -5.451  1.00 20.00     0.013 C 
HETATM    5  C6  UNL     1     -34.417  16.538  -5.206  1.00 20.00     0.024 C 
HETATM    6  C7  UNL     1     -35.862  14.813  -4.267  1.00 20.00     0.005 C 
HETATM    7  C8  UNL     1     -34.411  15.418  -4.118  1.00 20.00     0.027 C 
HETATM    8  C10 UNL     1     -35.967  13.304  -4.458  1.00 20.00     0.012 C 
HETATM    9  C11 UNL     1     -33.250  14.429  -4.269  1.00 20.00     0.024 C 
ENDROOT
BRANCH   7  10
HETATM   10  C3  UNL     1     -34.242  16.074  -2.766  1.00 20.00     0.132 C 
HETATM   11  C9  UNL     1     -33.037  16.955  -2.589  1.00 20.00     0.091 C 
HETATM   12  O12 UNL     1     -35.054  15.898  -1.859  1.00 20.00    -0.298 OA
ENDBRANCH   7  10
TORSDOF 1
ENDMDL
MODEL 6
REMARK VINA RESULT:      -4.4      1.421      2.498
REMARK  1 active torsions:
REMARK  status: ('A' for Active; 'I' for Inactive)
REMARK    1  A    between atoms: C3_3  and  C8_8 
ROOT
HETATM    1  C1  UNL     1     -36.083  17.271  -2.399  1.00 20.00    -0.025 C 
HETATM    2  C2  UNL     1     -35.346  16.318  -1.810  1.00 20.00    -0.024 C 
HETATM    3  C4  UNL     1     -36.386  15.338  -3.613  1.00 20.00     0.018 C 
HETATM    4  C5  UNL     1     -36.295  16.851  -3.834  1.00 20.00     0.013 C 
HETATM    5  C6  UNL     1     -35.047  15.271  -2.859  1.00 20.00     0.024 C 
HETATM    6  C7  UNL     1     -34.958  16.951  -4.625  1.00 20.00     0.005 C 
HETATM    7  C8  UNL     1     -34.059  15.865  -3.913  1.00 20.00     0.027 C 
HETATM    8  C10 UNL     1     -34.397  18.366  -4.707  1.00 20.00     0.012 C 
HETATM    9  C11 UNL     1     -32.749  16.370  -3.299  1.00 20.00     0.024 C 
ENDROOT
BRANCH   7  10
HETATM   10  C3  UNL     1     -33.683  14.765  -4.880  1.00 20.00     0.132 C 
HETATM   11  C9  UNL     1     -33.940  15.030  -6.338  1.00 20.00     0.091 C 
HETATM   12  O12 UNL     1     -33.187  13.708  -4.493  1.00 20.00    -0.298 OA
ENDBRANCH   7  10
TORSDOF 1
ENDMDL
MODEL 7
REMARK VINA RESULT:      -4.4      1.824      3.163
REMARK  1 active torsions:
REMARK  status: ('A' for Active; 'I' for Inactive)
REMARK    1  A    between atoms: C3_3  and  C8_8 
ROOT
HETATM    1  C1  UNL     1     -35.094  15.883  -2.275  1.00 20.00    -0.025 C 
HETATM    2  C2  UNL     1     -35.260  17.114  -2.779  1.00 20.00    -0.024 C 
HETATM    3  C4  UNL     1     -33.301  16.293  -3.661  1.00 20.00     0.018 C 
HETATM    4  C5  UNL     1     -34.195  15.128  -3.226  1.00 20.00     0.013 C 
HETATM    5  C6  UNL     1     -34.489  17.175  -4.078  1.00 20.00     0.024 C 
HETATM    6  C7  UNL     1     -34.951  14.829  -4.554  1.00 20.00     0.005 C 
HETATM    7  C8  UNL     1     -35.197  16.275  -5.139  1.00 20.00     0.027 C 
HETATM    8  C10 UNL     1     -36.175  13.937  -4.377  1.00 20.00     0.012 C 
HETATM    9  C11 UNL     1     -36.659  16.663  -5.387  1.00 20.00     0.024 C 
ENDROOT
BRANCH   7  10
HETATM   10  C3  UNL     1     -34.479  16.446  -6.459  1.00 20.00     0.132 C 
HETATM   11  C9  UNL     1     -34.019  15.190  -7.147  1.00 20.00     0.091 C 
HETATM   12  O12 UNL     1     -34.284  17.558  -6.946  1.00 20.00    -0.298 OA
ENDBRANCH   7  10
TORSDOF 1
ENDMDL
MODEL 8
REMARK VINA RESULT:      -4.4      1.122      2.735
REMARK  1 active torsions:
REMARK  status: ('A' for Active; 'I' for Inactive)
REMARK    1  A    between atoms: C3_3  and  C8_8 
ROOT
HETATM    1  C1  UNL     1     -34.144  17.256  -5.771  1.00 20.00    -0.025 C 
HETATM    2  C2  UNL     1     -35.283  17.534  -5.121  1.00 20.00    -0.024 C 
HETATM    3  C4  UNL     1     -35.775  15.893  -6.657  1.00 20.00     0.018 C 
HETATM    4  C5  UNL     1     -34.278  15.861  -6.335  1.00 20.00     0.013 C 
HETATM    5  C6  UNL     1     -36.171  16.315  -5.233  1.00 20.00     0.024 C 
HETATM    6  C7  UNL     1     -34.251  14.813  -5.183  1.00 20.00     0.005 C 
HETATM    7  C8  UNL     1     -35.565  15.157  -4.378  1.00 20.00     0.027 C 
HETATM    8  C10 UNL     1     -32.944  14.797  -4.399  1.00 20.00     0.012 C 
HETATM    9  C11 UNL     1     -35.376  15.526  -2.903  1.00 20.00     0.024 C 
ENDROOT
BRANCH   7  10
HETATM   10  C3  UNL     1     -36.530  13.993  -4.409  1.00 20.00     0.132 C 
HETATM   11  C9  UNL     1     -37.989  14.320  -4.241  1.00 20.00     0.091 C 
HETATM   12  O12 UNL     1     -36.141  12.838  -4.567  1.00 20.00    -0.298 OA
ENDBRANCH   7  10
TORSDOF 1
ENDMDL
MODEL 9
REMARK VINA RESULT:      -4.4      1.020      2.295
REMARK  1 active torsions:
REMARK  status: ('A' for Active; 'I' for Inactive)
REMARK    1  A    between atoms: C3_3  and  C8_8 
ROOT
HETATM    1  C1  UNL     1     -33.431  16.952  -3.955  1.00 20.00    -0.025 C 
HETATM    2  C2  UNL     1     -34.246  17.118  -5.006  1.00 20.00    -0.024 C 
HETATM    3  C4  UNL     1     -33.976  14.850  -4.722  1.00 20.00     0.018 C 
HETATM    4  C5  UNL     1     -33.687  15.571  -3.401  1.00 20.00     0.013 C 
HETATM    5  C6  UNL     1     -35.064  15.853  -5.142  1.00 20.00     0.024 C 
HETATM    6  C7  UNL     1     -35.090  15.515  -2.727  1.00 20.00     0.005 C 
HETATM    7  C8  UNL     1     -36.064  15.756  -3.946  1.00 20.00     0.027 C 
HETATM    8  C10 UNL     1     -35.233  16.452  -1.532  1.00 20.00     0.012 C 
HETATM    9  C11 UNL     1     -36.998  16.966  -3.836  1.00 20.00     0.024 C 
ENDROOT
BRANCH   7  10
HETATM   10  C3  UNL     1     -36.949  14.550  -4.168  1.00 20.00     0.132 C 
HETATM   11  C9  UNL     1     -38.430  14.804  -4.243  1.00 20.00     0.091 C 
HETATM   12  O12 UNL     1     -36.480  13.419  -4.286  1.00 20.00    -0.298 OA
ENDBRANCH   7  10
TORSDOF 1
ENDMDL
