MODEL 1
REMARK VINA RESULT:      -4.9      0.000      0.000
REMARK  1 active torsions:
REMARK  status: ('A' for Active; 'I' for Inactive)
REMARK    1  A    between atoms: C3_3  and  C7_7 
ROOT
HETATM    1  C1  UNL     1     -34.772  17.219  -4.621  1.00 20.00    -0.025 C 
HETATM    2  C2  UNL     1     -34.280  16.118  -5.208  1.00 20.00    -0.020 C 
HETATM    3  C4  UNL     1     -35.602  15.952  -2.667  1.00 20.00     0.021 C 
HETATM    4  C5  UNL     1     -33.286  16.267  -3.125  1.00 20.00     0.022 C 
HETATM    5  C6  UNL     1     -34.608  17.042  -3.131  1.00 20.00     0.010 C 
HETATM    6  C7  UNL     1     -35.020  14.658  -3.308  1.00 20.00     0.067 C 
HETATM    7  C8  UNL     1     -33.797  15.195  -4.105  1.00 20.00    -0.016 C 
HETATM    8  C10 UNL     1     -32.759  14.171  -4.507  1.00 20.00     0.020 C 
ENDROOT
BRANCH   6   9
HETATM    9  C3  UNL     1     -36.028  13.944  -4.156  1.00 20.00     0.128 C 
HETATM   10  C9  UNL     1     -37.335  14.650  -4.394  1.00 20.00     0.091 C 
HETATM   11  O11 UNL     1     -35.798  12.835  -4.636  1.00 20.00    -0.298 OA
ENDBRANCH   6   9
TORSDOF 1
ENDMDL
MODEL 2
REMARK VINA RESULT:      -4.4      1.299      1.402
REMARK  1 active torsions:
REMARK  status: ('A' for Active; 'I' for Inactive)
REMARK    1  A    between atoms: C3_3  and  C7_7 
ROOT
HETATM    1  C1  UNL     1     -34.399  18.043  -3.710  1.00 20.00    -0.025 C 
HETATM    2  C2  UNL     1     -34.145  17.020  -4.541  1.00 20.00    -0.020 C 
HETATM    3  C4  UNL     1     -35.311  16.554  -1.961  1.00 20.00     0.021 C 
HETATM    4  C5  UNL     1     -33.009  16.584  -2.574  1.00 20.00     0.022 C 
HETATM    5  C6  UNL     1     -34.174  17.544  -2.304  1.00 20.00     0.010 C 
HETATM    6  C7  UNL     1     -35.006  15.342  -2.888  1.00 20.00     0.067 C 
HETATM    7  C8  UNL     1     -33.761  15.828  -3.684  1.00 20.00    -0.016 C 
HETATM    8  C10 UNL     1     -32.946  14.756  -4.372  1.00 20.00     0.020 C 
ENDROOT
BRANCH   6   9
HETATM    9  C3  UNL     1     -36.175  14.983  -3.754  1.00 20.00     0.128 C 
HETATM   10  C9  UNL     1     -36.112  13.657  -4.461  1.00 20.00     0.091 C 
HETATM   11  O11 UNL     1     -37.141  15.735  -3.878  1.00 20.00    -0.298 OA
ENDBRANCH   6   9
TORSDOF 1
ENDMDL
MODEL 3
REMARK VINA RESULT:      -4.3      1.723      2.780
REMARK  1 active torsions:
REMARK  status: ('A' for Active; 'I' for Inactive)
REMARK    1  A    between atoms: C3_3  and  C7_7 
ROOT
HETATM    1  C1  UNL     1     -33.020  16.988  -2.613  1.00 20.00    -0.025 C 
HETATM    2  C2  UNL     1     -33.086  15.907  -3.404  1.00 20.00    -0.020 C 
HETATM    3  C4  UNL     1     -35.167  17.881  -3.449  1.00 20.00     0.021 C 
HETATM    4  C5  UNL     1     -35.007  15.914  -2.116  1.00 20.00     0.022 C 
HETATM    5  C6  UNL     1     -34.432  17.332  -2.205  1.00 20.00     0.010 C 
HETATM    6  C7  UNL     1     -35.289  16.626  -4.361  1.00 20.00     0.067 C 
HETATM    7  C8  UNL     1     -34.551  15.534  -3.536  1.00 20.00    -0.016 C 
HETATM    8  C10 UNL     1     -34.835  14.099  -3.920  1.00 20.00     0.020 C 
ENDROOT
BRANCH   6   9
HETATM    9  C3  UNL     1     -34.704  16.856  -5.722  1.00 20.00     0.128 C 
HETATM   10  C9  UNL     1     -34.191  18.240  -6.013  1.00 20.00     0.091 C 
HETATM   11  O11 UNL     1     -34.643  15.957  -6.558  1.00 20.00    -0.298 OA
ENDBRANCH   6   9
TORSDOF 1
ENDMDL
MODEL 4
REMARK VINA RESULT:      -4.3      1.700      3.336
REMARK  1 active torsions:
REMARK  status: ('A' for Active; 'I' for Inactive)
REMARK    1  A    between atoms: C3_3  and  C7_7 
ROOT
HETATM    1  C1  UNL     1     -34.657  16.492  -6.153  1.00 20.00    -0.025 C 
HETATM    2  C2  UNL     1     -35.669  16.589  -5.279  1.00 20.00    -0.020 C 
HETATM    3  C4  UNL     1     -33.509  14.757  -4.818  1.00 20.00     0.021 C 
HETATM    4  C5  UNL     1     -35.571  14.377  -5.948  1.00 20.00     0.022 C 
HETATM    5  C6  UNL     1     -34.211  15.050  -6.164  1.00 20.00     0.010 C 
HETATM    6  C7  UNL     1     -34.680  14.826  -3.795  1.00 20.00     0.067 C 
HETATM    7  C8  UNL     1     -35.892  15.208  -4.692  1.00 20.00    -0.016 C 
HETATM    8  C10 UNL     1     -37.264  14.952  -4.108  1.00 20.00     0.020 C 
ENDROOT
BRANCH   6   9
HETATM    9  C3  UNL     1     -34.412  15.804  -2.692  1.00 20.00     0.128 C 
HETATM   10  C9  UNL     1     -33.123  16.575  -2.770  1.00 20.00     0.091 C 
HETATM   11  O11 UNL     1     -35.208  15.969  -1.769  1.00 20.00    -0.298 OA
ENDBRANCH   6   9
TORSDOF 1
ENDMDL
MODEL 5
REMARK VINA RESULT:      -4.3      1.310      2.538
REMARK  1 active torsions:
REMARK  status: ('A' for Active; 'I' for Inactive)
REMARK    1  A    between atoms: C3_3  and  C7_7 
ROOT
HETATM    1  C1  UNL     1     -34.816  15.960  -2.263  1.00 20.00    -0.025 C 
HETATM    2  C2  UNL     1     -35.713  16.575  -3.050  1.00 20.00    -0.020 C 
HETATM    3  C4  UNL     1     -33.710  14.859  -4.180  1.00 20.00     0.021 C 
HETATM    4  C5  UNL     1     -33.619  17.209  -3.799  1.00 20.00     0.022 C 
HETATM    5  C6  UNL     1     -33.522  15.883  -3.037  1.00 20.00     0.010 C 
HETATM    6  C7  UNL     1     -34.719  15.576  -5.124  1.00 20.00     0.067 C 
HETATM    7  C8  UNL     1     -35.018  16.897  -4.359  1.00 20.00    -0.016 C 
HETATM    8  C10 UNL     1     -35.629  18.016  -5.173  1.00 20.00     0.020 C 
ENDROOT
BRANCH   6   9
HETATM    9  C3  UNL     1     -35.935  14.742  -5.391  1.00 20.00     0.128 C 
HETATM   10  C9  UNL     1     -36.088  13.487  -4.575  1.00 20.00     0.091 C 
HETATM   11  O11 UNL     1     -36.769  15.069  -6.234  1.00 20.00    -0.298 OA
ENDBRANCH   6   9
TORSDOF 1
ENDMDL
MODEL 6
REMARK VINA RESULT:      -4.2     10.689     12.365
REMARK  1 active torsions:
REMARK  status: ('A' for Active; 'I' for Inactive)
REMARK    1  A    between atoms: C3_3  and  C7_7 
ROOT
HETATM    1  C1  UNL     1     -41.195   8.132   0.152  1.00 20.00    -0.025 C 
HETATM    2  C2  UNL     1     -41.293   6.935   0.751  1.00 20.00    -0.020 C 
HETATM    3  C4  UNL     1     -42.886   7.551  -1.554  1.00 20.00     0.021 C 
HETATM    4  C5  UNL     1     -43.413   7.858   0.748  1.00 20.00     0.022 C 
HETATM    5  C6  UNL     1     -42.568   8.486  -0.365  1.00 20.00     0.010 C 
HETATM    6  C7  UNL     1     -43.043   6.162  -0.869  1.00 20.00     0.067 C 
HETATM    7  C8  UNL     1     -42.735   6.482   0.621  1.00 20.00    -0.016 C 
HETATM    8  C10 UNL     1     -43.200   5.461   1.635  1.00 20.00     0.020 C 
ENDROOT
BRANCH   6   9
HETATM    9  C3  UNL     1     -42.136   5.130  -1.467  1.00 20.00     0.128 C 
HETATM   10  C9  UNL     1     -42.795   3.967  -2.157  1.00 20.00     0.091 C 
HETATM   11  O11 UNL     1     -40.912   5.230  -1.398  1.00 20.00    -0.298 OA
ENDBRANCH   6   9
TORSDOF 1
ENDMDL
MODEL 7
REMARK VINA RESULT:      -4.2      1.613      3.170
REMARK  1 active torsions:
REMARK  status: ('A' for Active; 'I' for Inactive)
REMARK    1  A    between atoms: C3_3  and  C7_7 
ROOT
HETATM    1  C1  UNL     1     -34.097  14.103  -3.792  1.00 20.00    -0.025 C 
HETATM    2  C2  UNL     1     -35.296  13.743  -4.273  1.00 20.00    -0.020 C 
HETATM    3  C4  UNL     1     -34.224  16.349  -4.814  1.00 20.00     0.021 C 
HETATM    4  C5  UNL     1     -35.625  15.656  -3.016  1.00 20.00     0.022 C 
HETATM    5  C6  UNL     1     -34.165  15.577  -3.476  1.00 20.00     0.010 C 
HETATM    6  C7  UNL     1     -35.630  15.975  -5.367  1.00 20.00     0.067 C 
HETATM    7  C8  UNL     1     -36.165  14.986  -4.292  1.00 20.00    -0.016 C 
HETATM    8  C10 UNL     1     -37.659  14.747  -4.287  1.00 20.00     0.020 C 
ENDROOT
BRANCH   6   9
HETATM    9  C3  UNL     1     -35.559  15.389  -6.745  1.00 20.00     0.128 C 
HETATM   10  C9  UNL     1     -34.195  15.299  -7.372  1.00 20.00     0.091 C 
HETATM   11  O11 UNL     1     -36.567  15.000  -7.333  1.00 20.00    -0.298 OA
ENDBRANCH   6   9
TORSDOF 1
ENDMDL
MODEL 8
REMARK VINA RESULT:      -4.2      1.710      3.490
REMARK  1 active torsions:
REMARK  status: ('A' for Active; 'I' for Inactive)
REMARK    1  A    between atoms: C3_3  and  C7_7 
ROOT
HETATM    1  C1  UNL     1     -35.677  14.856  -5.990  1.00 20.00    -0.025 C 
HETATM    2  C2  UNL     1     -35.725  16.053  -5.388  1.00 20.00    -0.020 C 
HETATM    3  C4  UNL     1     -35.022  13.700  -3.906  1.00 20.00     0.021 C 
HETATM    4  C5  UNL     1     -37.174  14.666  -4.237  1.00 20.00     0.022 C 
HETATM    5  C6  UNL     1     -36.127  13.829  -4.979  1.00 20.00     0.010 C 
HETATM    6  C7  UNL     1     -35.093  15.070  -3.170  1.00 20.00     0.067 C 
HETATM    7  C8  UNL     1     -36.197  15.824  -3.965  1.00 20.00    -0.016 C 
HETATM    8  C10 UNL     1     -36.820  17.018  -3.275  1.00 20.00     0.020 C 
ENDROOT
BRANCH   6   9
HETATM    9  C3  UNL     1     -33.770  15.773  -3.155  1.00 20.00     0.128 C 
HETATM   10  C9  UNL     1     -33.630  16.930  -2.204  1.00 20.00     0.091 C 
HETATM   11  O11 UNL     1     -32.844  15.420  -3.883  1.00 20.00    -0.298 OA
ENDBRANCH   6   9
TORSDOF 1
ENDMDL
MODEL 9
REMARK VINA RESULT:      -4.1      1.404      2.826
REMARK  1 active torsions:
REMARK  status: ('A' for Active; 'I' for Inactive)
REMARK    1  A    between atoms: C3_3  and  C7_7 
ROOT
HETATM    1  C1  UNL     1     -34.292  14.444  -3.880  1.00 20.00    -0.025 C 
HETATM    2  C2  UNL     1     -35.095  15.245  -3.164  1.00 20.00    -0.020 C 
HETATM    3  C4  UNL     1     -35.666  14.685  -5.920  1.00 20.00     0.021 C 
HETATM    4  C5  UNL     1     -34.387  16.469  -4.995  1.00 20.00     0.022 C 
HETATM    5  C6  UNL     1     -34.281  14.970  -5.295  1.00 20.00     0.010 C 
HETATM    6  C7  UNL     1     -36.606  15.639  -5.126  1.00 20.00     0.067 C 
HETATM    7  C8  UNL     1     -35.635  16.303  -4.109  1.00 20.00    -0.016 C 
HETATM    8  C10 UNL     1     -36.116  17.582  -3.461  1.00 20.00     0.020 C 
ENDROOT
BRANCH   6   9
HETATM    9  C3  UNL     1     -37.747  14.907  -4.486  1.00 20.00     0.128 C 
HETATM   10  C9  UNL     1     -38.906  15.741  -4.013  1.00 20.00     0.091 C 
HETATM   11  O11 UNL     1     -37.736  13.684  -4.356  1.00 20.00    -0.298 OA
ENDBRANCH   6   9
TORSDOF 1
ENDMDL
