MODEL 1
REMARK VINA RESULT:      -3.8      0.000      0.000
REMARK  1 active torsions:
REMARK  status: ('A' for Active; 'I' for Inactive)
REMARK    1  A    between atoms: C1_1  and  C4_4 
ROOT
HETATM    1  C2  UNL     1     -34.109  15.402  -5.229  1.00 20.00     0.031 A 
HETATM    2  C3  UNL     1     -33.423  14.346  -4.416  1.00 20.00     0.031 A 
HETATM    3  C4  UNL     1     -34.823  14.778  -4.055  1.00 20.00     0.078 A 
HETATM    4 BR7  UNL     1     -35.016  15.869  -2.480  1.00 20.00    -0.077 Br
ENDROOT
BRANCH   3   5
HETATM    5  C1  UNL     1     -35.941  13.856  -4.312  1.00 20.00     0.142 C 
HETATM    6  C5  UNL     1     -37.320  14.457  -4.353  1.00 20.00     0.092 C 
HETATM    7  O6  UNL     1     -35.756  12.652  -4.487  1.00 20.00    -0.297 OA
ENDBRANCH   3   5
TORSDOF 1
ENDMDL
MODEL 2
REMARK VINA RESULT:      -3.8     11.631     12.195
REMARK  1 active torsions:
REMARK  status: ('A' for Active; 'I' for Inactive)
REMARK    1  A    between atoms: C1_1  and  C4_4 
ROOT
HETATM    1  C2  UNL     1     -34.651   4.458   4.758  1.00 20.00     0.031 A 
HETATM    2  C3  UNL     1     -35.587   5.466   4.162  1.00 20.00     0.031 A 
HETATM    3  C4  UNL     1     -34.119   5.791   4.289  1.00 20.00     0.078 A 
HETATM    4 BR7  UNL     1     -33.626   7.055   5.657  1.00 20.00    -0.077 Br
ENDROOT
BRANCH   3   5
HETATM    5  C1  UNL     1     -33.292   5.838   3.073  1.00 20.00     0.142 C 
HETATM    6  C5  UNL     1     -32.497   7.095   2.842  1.00 20.00     0.092 C 
HETATM    7  O6  UNL     1     -33.252   4.895   2.283  1.00 20.00    -0.297 OA
ENDBRANCH   3   5
TORSDOF 1
ENDMDL
MODEL 3
REMARK VINA RESULT:      -3.5     11.865     12.398
REMARK  1 active torsions:
REMARK  status: ('A' for Active; 'I' for Inactive)
REMARK    1  A    between atoms: C1_1  and  C4_4 
ROOT
HETATM    1  C2  UNL     1     -35.586   5.571   4.167  1.00 20.00     0.031 A 
HETATM    2  C3  UNL     1     -34.738   4.742   5.085  1.00 20.00     0.031 A 
HETATM    3  C4  UNL     1     -34.089   5.532   3.975  1.00 20.00     0.078 A 
HETATM    4 BR7  UNL     1     -33.437   4.530   2.464  1.00 20.00    -0.077 Br
ENDROOT
BRANCH   3   5
HETATM    5  C1  UNL     1     -33.297   6.724   4.318  1.00 20.00     0.142 C 
HETATM    6  C5  UNL     1     -32.434   7.302   3.228  1.00 20.00     0.092 C 
HETATM    7  O6  UNL     1     -33.340   7.226   5.441  1.00 20.00    -0.297 OA
ENDBRANCH   3   5
TORSDOF 1
ENDMDL
MODEL 4
REMARK VINA RESULT:      -3.5      1.715      1.911
REMARK  1 active torsions:
REMARK  status: ('A' for Active; 'I' for Inactive)
REMARK    1  A    between atoms: C1_1  and  C4_4 
ROOT
HETATM    1  C2  UNL     1     -33.756  14.756  -3.843  1.00 20.00     0.031 A 
HETATM    2  C3  UNL     1     -34.718  15.906  -3.808  1.00 20.00     0.031 A 
HETATM    3  C4  UNL     1     -34.939  14.773  -4.780  1.00 20.00     0.078 A 
HETATM    4 BR7  UNL     1     -34.569  15.136  -6.635  1.00 20.00    -0.077 Br
ENDROOT
BRANCH   3   5
HETATM    5  C1  UNL     1     -36.049  13.836  -4.540  1.00 20.00     0.142 C 
HETATM    6  C5  UNL     1     -37.406  14.440  -4.298  1.00 20.00     0.092 C 
HETATM    7  O6  UNL     1     -35.875  12.618  -4.539  1.00 20.00    -0.297 OA
ENDBRANCH   3   5
TORSDOF 1
ENDMDL
MODEL 5
REMARK VINA RESULT:      -3.3     10.359     11.297
REMARK  1 active torsions:
REMARK  status: ('A' for Active; 'I' for Inactive)
REMARK    1  A    between atoms: C1_1  and  C4_4 
ROOT
HETATM    1  C2  UNL     1     -40.932   5.489  -0.849  1.00 20.00     0.031 A 
HETATM    2  C3  UNL     1     -42.222   5.145  -1.533  1.00 20.00     0.031 A 
HETATM    3  C4  UNL     1     -42.191   6.244  -0.499  1.00 20.00     0.078 A 
HETATM    4 BR7  UNL     1     -42.989   5.850   1.209  1.00 20.00    -0.077 Br
ENDROOT
BRANCH   3   5
HETATM    5  C1  UNL     1     -42.328   7.641  -0.941  1.00 20.00     0.142 C 
HETATM    6  C5  UNL     1     -41.648   8.688  -0.099  1.00 20.00     0.092 C 
HETATM    7  O6  UNL     1     -42.966   7.939  -1.950  1.00 20.00    -0.297 OA
ENDBRANCH   3   5
TORSDOF 1
ENDMDL
MODEL 6
REMARK VINA RESULT:      -3.3     11.014     11.650
REMARK  1 active torsions:
REMARK  status: ('A' for Active; 'I' for Inactive)
REMARK    1  A    between atoms: C1_1  and  C4_4 
ROOT
HETATM    1  C2  UNL     1     -42.458   7.960  -0.193  1.00 20.00     0.031 A 
HETATM    2  C3  UNL     1     -41.259   7.555   0.612  1.00 20.00     0.031 A 
HETATM    3  C4  UNL     1     -42.256   6.510   0.173  1.00 20.00     0.078 A 
HETATM    4 BR7  UNL     1     -43.415   5.792   1.534  1.00 20.00    -0.077 Br
ENDROOT
BRANCH   3   5
HETATM    5  C1  UNL     1     -41.872   5.557  -0.881  1.00 20.00     0.142 C 
HETATM    6  C5  UNL     1     -42.986   4.789  -1.539  1.00 20.00     0.092 C 
HETATM    7  O6  UNL     1     -40.696   5.399  -1.209  1.00 20.00    -0.297 OA
ENDBRANCH   3   5
TORSDOF 1
ENDMDL
MODEL 7
REMARK VINA RESULT:      -3.2     11.291     11.621
REMARK  1 active torsions:
REMARK  status: ('A' for Active; 'I' for Inactive)
REMARK    1  A    between atoms: C1_1  and  C4_4 
ROOT
HETATM    1  C2  UNL     1     -31.905   7.176   3.147  1.00 20.00     0.031 A 
HETATM    2  C3  UNL     1     -33.111   7.606   2.367  1.00 20.00     0.031 A 
HETATM    3  C4  UNL     1     -33.176   6.367   3.226  1.00 20.00     0.078 A 
HETATM    4 BR7  UNL     1     -33.184   4.674   2.308  1.00 20.00    -0.077 Br
ENDROOT
BRANCH   3   5
HETATM    5  C1  UNL     1     -33.965   6.403   4.468  1.00 20.00     0.142 C 
HETATM    6  C5  UNL     1     -35.174   5.509   4.530  1.00 20.00     0.092 C 
HETATM    7  O6  UNL     1     -33.650   7.128   5.411  1.00 20.00    -0.297 OA
ENDBRANCH   3   5
TORSDOF 1
ENDMDL
MODEL 8
REMARK VINA RESULT:      -3.2      2.045      2.436
REMARK  1 active torsions:
REMARK  status: ('A' for Active; 'I' for Inactive)
REMARK    1  A    between atoms: C1_1  and  C4_4 
ROOT
HETATM    1  C2  UNL     1     -33.360  16.295  -2.687  1.00 20.00     0.031 A 
HETATM    2  C3  UNL     1     -34.793  16.095  -2.293  1.00 20.00     0.031 A 
HETATM    3  C4  UNL     1     -34.360  15.814  -3.711  1.00 20.00     0.078 A 
HETATM    4 BR7  UNL     1     -34.904  17.087  -5.051  1.00 20.00    -0.077 Br
ENDROOT
BRANCH   3   5
HETATM    5  C1  UNL     1     -34.291  14.418  -4.172  1.00 20.00     0.142 C 
HETATM    6  C5  UNL     1     -35.578  13.639  -4.169  1.00 20.00     0.092 C 
HETATM    7  O6  UNL     1     -33.232  13.914  -4.543  1.00 20.00    -0.297 OA
ENDBRANCH   3   5
TORSDOF 1
ENDMDL
MODEL 9
REMARK VINA RESULT:      -3.1      1.830      2.508
REMARK  1 active torsions:
REMARK  status: ('A' for Active; 'I' for Inactive)
REMARK    1  A    between atoms: C1_1  and  C4_4 
ROOT
HETATM    1  C2  UNL     1     -33.344  14.772  -4.239  1.00 20.00     0.031 A 
HETATM    2  C3  UNL     1     -34.731  14.683  -3.676  1.00 20.00     0.031 A 
HETATM    3  C4  UNL     1     -34.493  15.423  -4.969  1.00 20.00     0.078 A 
HETATM    4 BR7  UNL     1     -34.586  17.345  -4.898  1.00 20.00    -0.077 Br
ENDROOT
BRANCH   3   5
HETATM    5  C1  UNL     1     -34.964  14.824  -6.229  1.00 20.00     0.142 C 
HETATM    6  C5  UNL     1     -34.301  15.299  -7.494  1.00 20.00     0.092 C 
HETATM    7  O6  UNL     1     -35.856  13.976  -6.246  1.00 20.00    -0.297 OA
ENDBRANCH   3   5
TORSDOF 1
ENDMDL
