MODEL 1
REMARK VINA RESULT:      -4.0      0.000      0.000
REMARK  2 active torsions:
REMARK  status: ('A' for Active; 'I' for Inactive)
REMARK    1  A    between atoms: C3_3  and  C4_4 
REMARK    2  A    between atoms: C5_5  and  C7_7 
ROOT
HETATM    1  C1  UNL     1     -22.479  18.008   8.622  1.00 20.00    -0.007 C 
HETATM    2  C2  UNL     1     -22.642  16.846   9.262  1.00 20.00     0.042 C 
HETATM    3  C4  UNL     1     -23.528  19.047   8.896  1.00 20.00     0.084 C 
HETATM    4  C5  UNL     1     -24.250  18.620  10.186  1.00 20.00     0.065 C 
HETATM    5  S9  UNL     1     -24.033  16.798  10.291  1.00 20.00    -0.136 SA
ENDROOT
BRANCH   3   6
HETATM    6  C3  UNL     1     -24.393  19.094   7.672  1.00 20.00     0.240 C 
HETATM    7  O8  UNL     1     -23.970  18.899   6.538  1.00 20.00    -0.306 OA
ENDBRANCH   3   6
BRANCH   4   8
HETATM    8  C7  UNL     1     -25.712  19.024  10.303  1.00 20.00     0.012 C 
HETATM    9  C6  UNL     1     -26.148  19.137  11.730  1.00 20.00     0.006 C 
ENDBRANCH   4   8
TORSDOF 2
ENDMDL
MODEL 2
REMARK VINA RESULT:      -4.0     16.973     18.188
REMARK  2 active torsions:
REMARK  status: ('A' for Active; 'I' for Inactive)
REMARK    1  A    between atoms: C3_3  and  C4_4 
REMARK    2  A    between atoms: C5_5  and  C7_7 
ROOT
HETATM    1  C1  UNL     1     -34.864  15.455  -2.778  1.00 20.00    -0.007 C 
HETATM    2  C2  UNL     1     -34.891  16.754  -3.093  1.00 20.00     0.042 C 
HETATM    3  C4  UNL     1     -34.507  14.526  -3.902  1.00 20.00     0.084 C 
HETATM    4  C5  UNL     1     -33.840  15.383  -4.993  1.00 20.00     0.065 C 
HETATM    5  S9  UNL     1     -34.488  17.085  -4.745  1.00 20.00    -0.136 SA
ENDROOT
BRANCH   3   6
HETATM    6  C3  UNL     1     -35.788  13.863  -4.313  1.00 20.00     0.240 C 
HETATM    7  O8  UNL     1     -35.884  12.661  -4.537  1.00 20.00    -0.306 OA
ENDBRANCH   3   6
BRANCH   4   8
HETATM    8  C7  UNL     1     -34.026  14.910  -6.426  1.00 20.00     0.012 C 
HETATM    9  C6  UNL     1     -34.382  16.035  -7.345  1.00 20.00     0.006 C 
ENDBRANCH   4   8
TORSDOF 2
ENDMDL
MODEL 3
REMARK VINA RESULT:      -3.9     16.310     16.770
REMARK  2 active torsions:
REMARK  status: ('A' for Active; 'I' for Inactive)
REMARK    1  A    between atoms: C3_3  and  C4_4 
REMARK    2  A    between atoms: C5_5  and  C7_7 
ROOT
HETATM    1  C1  UNL     1     -34.879   5.214   4.492  1.00 20.00    -0.007 C 
HETATM    2  C2  UNL     1     -34.345   4.157   3.871  1.00 20.00     0.042 C 
HETATM    3  C4  UNL     1     -34.306   6.546   4.104  1.00 20.00     0.084 C 
HETATM    4  C5  UNL     1     -33.567   6.341   2.770  1.00 20.00     0.065 C 
HETATM    5  S9  UNL     1     -33.107   4.563   2.731  1.00 20.00    -0.136 SA
ENDROOT
BRANCH   3   6
HETATM    6  C3  UNL     1     -33.437   6.972   5.250  1.00 20.00     0.240 C 
HETATM    7  O8  UNL     1     -33.729   6.783   6.426  1.00 20.00    -0.306 OA
ENDBRANCH   3   6
BRANCH   4   8
HETATM    8  C7  UNL     1     -32.368   7.243   2.520  1.00 20.00     0.012 C 
HETATM    9  C6  UNL     1     -32.542   8.077   1.290  1.00 20.00     0.006 C 
ENDBRANCH   4   8
TORSDOF 2
ENDMDL
MODEL 4
REMARK VINA RESULT:      -3.9      2.583      3.146
REMARK  2 active torsions:
REMARK  status: ('A' for Active; 'I' for Inactive)
REMARK    1  A    between atoms: C3_3  and  C4_4 
REMARK    2  A    between atoms: C5_5  and  C7_7 
ROOT
HETATM    1  C1  UNL     1     -22.800  17.077   9.974  1.00 20.00    -0.007 C 
HETATM    2  C2  UNL     1     -23.192  17.918   9.012  1.00 20.00     0.042 C 
HETATM    3  C4  UNL     1     -23.609  17.121  11.238  1.00 20.00     0.084 C 
HETATM    4  C5  UNL     1     -24.938  17.816  10.891  1.00 20.00     0.065 C 
HETATM    5  S9  UNL     1     -24.573  18.873   9.433  1.00 20.00    -0.136 SA
ENDROOT
BRANCH   3   6
HETATM    6  C3  UNL     1     -22.763  17.840  12.246  1.00 20.00     0.240 C 
HETATM    7  O8  UNL     1     -21.537  17.798  12.252  1.00 20.00    -0.306 OA
ENDBRANCH   3   6
BRANCH   4   8
HETATM    8  C7  UNL     1     -25.596  18.604  12.013  1.00 20.00     0.012 C 
HETATM    9  C6  UNL     1     -26.863  19.263  11.564  1.00 20.00     0.006 C 
ENDBRANCH   4   8
TORSDOF 2
ENDMDL
MODEL 5
REMARK VINA RESULT:      -3.9     16.937     18.116
REMARK  2 active torsions:
REMARK  status: ('A' for Active; 'I' for Inactive)
REMARK    1  A    between atoms: C3_3  and  C4_4 
REMARK    2  A    between atoms: C5_5  and  C7_7 
ROOT
HETATM    1  C1  UNL     1     -36.641  15.197  -5.515  1.00 20.00    -0.007 C 
HETATM    2  C2  UNL     1     -36.019  16.271  -6.012  1.00 20.00     0.042 C 
HETATM    3  C4  UNL     1     -36.337  14.883  -4.079  1.00 20.00     0.084 C 
HETATM    4  C5  UNL     1     -35.731  16.157  -3.464  1.00 20.00     0.065 C 
HETATM    5  S9  UNL     1     -34.999  17.083  -4.872  1.00 20.00    -0.136 SA
ENDROOT
BRANCH   3   6
HETATM    6  C3  UNL     1     -35.422  13.694  -4.100  1.00 20.00     0.240 C 
HETATM    7  O8  UNL     1     -35.764  12.587  -4.501  1.00 20.00    -0.306 OA
ENDBRANCH   3   6
BRANCH   4   8
HETATM    8  C7  UNL     1     -34.728  15.949  -2.340  1.00 20.00     0.012 C 
HETATM    9  C6  UNL     1     -33.366  16.447  -2.707  1.00 20.00     0.006 C 
ENDBRANCH   4   8
TORSDOF 2
ENDMDL
MODEL 6
REMARK VINA RESULT:      -3.8     16.149     17.276
REMARK  2 active torsions:
REMARK  status: ('A' for Active; 'I' for Inactive)
REMARK    1  A    between atoms: C3_3  and  C4_4 
REMARK    2  A    between atoms: C5_5  and  C7_7 
ROOT
HETATM    1  C1  UNL     1     -35.840  14.052  -4.382  1.00 20.00    -0.007 C 
HETATM    2  C2  UNL     1     -36.792  14.980  -4.239  1.00 20.00     0.042 C 
HETATM    3  C4  UNL     1     -34.512  14.392  -3.771  1.00 20.00     0.084 C 
HETATM    4  C5  UNL     1     -34.762  15.532  -2.768  1.00 20.00     0.065 C 
HETATM    5  S9  UNL     1     -36.282  16.380  -3.357  1.00 20.00    -0.136 SA
ENDROOT
BRANCH   3   6
HETATM    6  C3  UNL     1     -33.608  14.743  -4.916  1.00 20.00     0.240 C 
HETATM    7  O8  UNL     1     -33.873  14.493  -6.087  1.00 20.00    -0.306 OA
ENDBRANCH   3   6
BRANCH   4   8
HETATM    8  C7  UNL     1     -33.614  16.508  -2.560  1.00 20.00     0.012 C 
HETATM    9  C6  UNL     1     -33.890  17.466  -1.444  1.00 20.00     0.006 C 
ENDBRANCH   4   8
TORSDOF 2
ENDMDL
MODEL 7
REMARK VINA RESULT:      -3.7     17.510     18.691
REMARK  2 active torsions:
REMARK  status: ('A' for Active; 'I' for Inactive)
REMARK    1  A    between atoms: C3_3  and  C4_4 
REMARK    2  A    between atoms: C5_5  and  C7_7 
ROOT
HETATM    1  C1  UNL     1     -36.649  15.540  -6.224  1.00 20.00    -0.007 C 
HETATM    2  C2  UNL     1     -35.681  15.248  -7.098  1.00 20.00     0.042 C 
HETATM    3  C4  UNL     1     -36.213  15.651  -4.792  1.00 20.00     0.084 C 
HETATM    4  C5  UNL     1     -34.685  15.831  -4.805  1.00 20.00     0.065 C 
HETATM    5  S9  UNL     1     -34.115  15.075  -6.379  1.00 20.00    -0.136 SA
ENDROOT
BRANCH   3   6
HETATM    6  C3  UNL     1     -36.699  14.404  -4.114  1.00 20.00     0.240 C 
HETATM    7  O8  UNL     1     -37.670  13.761  -4.498  1.00 20.00    -0.306 OA
ENDBRANCH   3   6
BRANCH   4   8
HETATM    8  C7  UNL     1     -33.934  15.276  -3.605  1.00 20.00     0.012 C 
HETATM    9  C6  UNL     1     -33.829  16.278  -2.499  1.00 20.00     0.006 C 
ENDBRANCH   4   8
TORSDOF 2
ENDMDL
MODEL 8
REMARK VINA RESULT:      -3.7     22.788     23.313
REMARK  2 active torsions:
REMARK  status: ('A' for Active; 'I' for Inactive)
REMARK    1  A    between atoms: C3_3  and  C4_4 
REMARK    2  A    between atoms: C5_5  and  C7_7 
ROOT
HETATM    1  C1  UNL     1     -42.209   5.043   0.889  1.00 20.00    -0.007 C 
HETATM    2  C2  UNL     1     -43.363   5.616   1.244  1.00 20.00     0.042 C 
HETATM    3  C4  UNL     1     -41.184   5.969   0.300  1.00 20.00     0.084 C 
HETATM    4  C5  UNL     1     -41.602   7.398   0.687  1.00 20.00     0.065 C 
HETATM    5  S9  UNL     1     -43.417   7.323   0.959  1.00 20.00    -0.136 SA
ENDROOT
BRANCH   3   6
HETATM    6  C3  UNL     1     -41.172   5.690  -1.173  1.00 20.00     0.240 C 
HETATM    7  O8  UNL     1     -41.634   4.668  -1.671  1.00 20.00    -0.306 OA
ENDBRANCH   3   6
BRANCH   4   8
HETATM    8  C7  UNL     1     -41.220   8.498  -0.292  1.00 20.00     0.012 C 
HETATM    9  C6  UNL     1     -41.222   9.847   0.355  1.00 20.00     0.006 C 
ENDBRANCH   4   8
TORSDOF 2
ENDMDL
MODEL 9
REMARK VINA RESULT:      -3.5     17.259     18.344
REMARK  2 active torsions:
REMARK  status: ('A' for Active; 'I' for Inactive)
REMARK    1  A    between atoms: C3_3  and  C4_4 
REMARK    2  A    between atoms: C5_5  and  C7_7 
ROOT
HETATM    1  C1  UNL     1     -34.293  14.792  -3.776  1.00 20.00    -0.007 C 
HETATM    2  C2  UNL     1     -34.469  15.638  -2.756  1.00 20.00     0.042 C 
HETATM    3  C4  UNL     1     -35.313  14.885  -4.873  1.00 20.00     0.084 C 
HETATM    4  C5  UNL     1     -36.019  16.243  -4.711  1.00 20.00     0.065 C 
HETATM    5  S9  UNL     1     -35.841  16.679  -2.935  1.00 20.00    -0.136 SA
ENDROOT
BRANCH   3   6
HETATM    6  C3  UNL     1     -36.201  13.687  -4.716  1.00 20.00     0.240 C 
HETATM    7  O8  UNL     1     -35.780  12.561  -4.473  1.00 20.00    -0.306 OA
ENDBRANCH   3   6
BRANCH   4   8
HETATM    8  C7  UNL     1     -37.468  16.306  -5.167  1.00 20.00     0.012 C 
HETATM    9  C6  UNL     1     -38.392  16.666  -4.047  1.00 20.00     0.006 C 
ENDBRANCH   4   8
TORSDOF 2
ENDMDL
