MODEL 1
REMARK VINA RESULT:      -5.5      0.000      0.000
REMARK  1 active torsions:
REMARK  status: ('A' for Active; 'I' for Inactive)
REMARK    1  A    between atoms: C1_1  and  C9_9 
ROOT
HETATM    1  C2  UNL     1     -34.218  17.547  -3.353  1.00 20.00     0.010 C 
HETATM    2  C3  UNL     1     -35.333  15.937  -5.071  1.00 20.00     0.025 C 
HETATM    3  C4  UNL     1     -35.413  15.343  -2.648  1.00 20.00     0.025 C 
HETATM    4  C5  UNL     1     -33.875  14.322  -4.132  1.00 20.00     0.026 C 
HETATM    5  C6  UNL     1     -34.069  16.711  -4.650  1.00 20.00    -0.008 C 
HETATM    6  C7  UNL     1     -34.138  16.203  -2.583  1.00 20.00    -0.008 C 
HETATM    7  C8  UNL     1     -33.282  15.676  -3.781  1.00 20.00    -0.005 C 
HETATM    8  C9  UNL     1     -35.334  14.771  -4.072  1.00 20.00     0.049 C 
ENDROOT
BRANCH   8   9
HETATM    9  C1  UNL     1     -36.298  13.650  -4.362  1.00 20.00     0.181 C 
HETATM   10  O10 UNL     1     -37.510  13.993  -4.462  1.00 20.00    -0.647 OA
HETATM   11  O11 UNL     1     -35.769  12.508  -4.467  1.00 20.00    -0.647 OA
ENDBRANCH   8   9
TORSDOF 1
ENDMDL
MODEL 2
REMARK VINA RESULT:      -5.4      0.450      1.507
REMARK  1 active torsions:
REMARK  status: ('A' for Active; 'I' for Inactive)
REMARK    1  A    between atoms: C1_1  and  C9_9 
ROOT
HETATM    1  C2  UNL     1     -33.394  16.602  -2.622  1.00 20.00     0.010 C 
HETATM    2  C3  UNL     1     -35.832  15.751  -2.965  1.00 20.00     0.025 C 
HETATM    3  C4  UNL     1     -33.949  14.381  -3.862  1.00 20.00     0.025 C 
HETATM    4  C5  UNL     1     -35.254  15.775  -5.263  1.00 20.00     0.026 C 
HETATM    5  C6  UNL     1     -34.826  16.907  -3.130  1.00 20.00    -0.008 C 
HETATM    6  C7  UNL     1     -33.221  15.737  -3.896  1.00 20.00    -0.008 C 
HETATM    7  C8  UNL     1     -34.259  16.691  -4.571  1.00 20.00    -0.005 C 
HETATM    8  C9  UNL     1     -35.408  14.802  -4.095  1.00 20.00     0.049 C 
ENDROOT
BRANCH   8   9
HETATM    9  C1  UNL     1     -36.355  13.671  -4.402  1.00 20.00     0.181 C 
HETATM   10  O10 UNL     1     -37.575  13.992  -4.470  1.00 20.00    -0.647 OA
HETATM   11  O11 UNL     1     -35.805  12.544  -4.552  1.00 20.00    -0.647 OA
ENDBRANCH   8   9
TORSDOF 1
ENDMDL
MODEL 3
REMARK VINA RESULT:      -5.1      0.961      1.869
REMARK  1 active torsions:
REMARK  status: ('A' for Active; 'I' for Inactive)
REMARK    1  A    between atoms: C1_1  and  C9_9 
ROOT
HETATM    1  C2  UNL     1     -33.254  17.342  -3.791  1.00 20.00     0.010 C 
HETATM    2  C3  UNL     1     -33.509  14.788  -4.235  1.00 20.00     0.025 C 
HETATM    3  C4  UNL     1     -35.360  16.313  -4.926  1.00 20.00     0.025 C 
HETATM    4  C5  UNL     1     -35.489  15.013  -2.951  1.00 20.00     0.026 C 
HETATM    5  C6  UNL     1     -33.219  15.904  -3.213  1.00 20.00    -0.008 C 
HETATM    6  C7  UNL     1     -34.798  17.204  -3.804  1.00 20.00    -0.008 C 
HETATM    7  C8  UNL     1     -34.626  16.215  -2.606  1.00 20.00    -0.005 C 
HETATM    8  C9  UNL     1     -35.031  14.906  -4.405  1.00 20.00     0.049 C 
ENDROOT
BRANCH   8   9
HETATM    9  C1  UNL     1     -35.705  13.780  -5.145  1.00 20.00     0.181 C 
HETATM   10  O10 UNL     1     -35.867  12.718  -4.480  1.00 20.00    -0.647 OA
HETATM   11  O11 UNL     1     -36.023  14.044  -6.338  1.00 20.00    -0.647 OA
ENDBRANCH   8   9
TORSDOF 1
ENDMDL
MODEL 4
REMARK VINA RESULT:      -4.7     17.713     18.563
REMARK  1 active torsions:
REMARK  status: ('A' for Active; 'I' for Inactive)
REMARK    1  A    between atoms: C1_1  and  C9_9 
ROOT
HETATM    1  C2  UNL     1     -22.843  17.768   8.169  1.00 20.00     0.010 C 
HETATM    2  C3  UNL     1     -24.003  16.429  10.079  1.00 20.00     0.025 C 
HETATM    3  C4  UNL     1     -24.461  18.875   9.883  1.00 20.00     0.025 C 
HETATM    4  C5  UNL     1     -22.953  18.015  11.494  1.00 20.00     0.026 C 
HETATM    5  C6  UNL     1     -22.685  16.808   9.376  1.00 20.00    -0.008 C 
HETATM    6  C7  UNL     1     -23.077  18.893   9.209  1.00 20.00    -0.008 C 
HETATM    7  C8  UNL     1     -22.188  18.052  10.181  1.00 20.00    -0.005 C 
HETATM    8  C9  UNL     1     -24.314  17.707  10.871  1.00 20.00     0.049 C 
ENDROOT
BRANCH   8   9
HETATM    9  C1  UNL     1     -25.411  17.601  11.898  1.00 20.00     0.181 C 
HETATM   10  O10 UNL     1     -25.942  18.696  12.235  1.00 20.00    -0.647 OA
HETATM   11  O11 UNL     1     -25.658  16.426  12.291  1.00 20.00    -0.647 OA
ENDBRANCH   8   9
TORSDOF 1
ENDMDL
MODEL 5
REMARK VINA RESULT:      -4.7     10.404     12.164
REMARK  1 active torsions:
REMARK  status: ('A' for Active; 'I' for Inactive)
REMARK    1  A    between atoms: C1_1  and  C9_9 
ROOT
HETATM    1  C2  UNL     1     -43.417   4.731  -0.135  1.00 20.00     0.010 C 
HETATM    2  C3  UNL     1     -43.372   7.027   1.096  1.00 20.00     0.025 C 
HETATM    3  C4  UNL     1     -42.677   6.939  -1.300  1.00 20.00     0.025 C 
HETATM    4  C5  UNL     1     -41.090   7.046   0.455  1.00 20.00     0.026 C 
HETATM    5  C6  UNL     1     -42.928   5.551   1.086  1.00 20.00    -0.008 C 
HETATM    6  C7  UNL     1     -42.336   5.478  -0.957  1.00 20.00    -0.008 C 
HETATM    7  C8  UNL     1     -41.534   5.595   0.380  1.00 20.00    -0.005 C 
HETATM    8  C9  UNL     1     -42.436   7.642   0.046  1.00 20.00     0.049 C 
ENDROOT
BRANCH   8   9
HETATM    9  C1  UNL     1     -42.409   9.147  -0.019  1.00 20.00     0.181 C 
HETATM   10  O10 UNL     1     -43.417   9.682  -0.561  1.00 20.00    -0.647 OA
HETATM   11  O11 UNL     1     -41.378   9.681   0.478  1.00 20.00    -0.647 OA
ENDBRANCH   8   9
TORSDOF 1
ENDMDL
MODEL 6
REMARK VINA RESULT:      -4.7      1.526      1.928
REMARK  1 active torsions:
REMARK  status: ('A' for Active; 'I' for Inactive)
REMARK    1  A    between atoms: C1_1  and  C9_9 
ROOT
HETATM    1  C2  UNL     1     -35.149  17.477  -2.270  1.00 20.00     0.010 C 
HETATM    2  C3  UNL     1     -34.595  17.021  -4.774  1.00 20.00     0.025 C 
HETATM    3  C4  UNL     1     -35.448  15.138  -3.376  1.00 20.00     0.025 C 
HETATM    4  C5  UNL     1     -33.148  15.361  -3.897  1.00 20.00     0.026 C 
HETATM    5  C6  UNL     1     -34.110  17.565  -3.417  1.00 20.00    -0.008 C 
HETATM    6  C7  UNL     1     -34.838  15.959  -2.225  1.00 20.00    -0.008 C 
HETATM    7  C8  UNL     1     -33.415  16.330  -2.757  1.00 20.00    -0.005 C 
HETATM    8  C9  UNL     1     -34.524  15.505  -4.547  1.00 20.00     0.049 C 
ENDROOT
BRANCH   8   9
HETATM    9  C1  UNL     1     -34.679  14.642  -5.773  1.00 20.00     0.181 C 
HETATM   10  O10 UNL     1     -33.723  14.699  -6.597  1.00 20.00    -0.647 OA
HETATM   11  O11 UNL     1     -35.748  13.971  -5.818  1.00 20.00    -0.647 OA
ENDBRANCH   8   9
TORSDOF 1
ENDMDL
MODEL 7
REMARK VINA RESULT:      -4.6      1.403      2.506
REMARK  1 active torsions:
REMARK  status: ('A' for Active; 'I' for Inactive)
REMARK    1  A    between atoms: C1_1  and  C9_9 
ROOT
HETATM    1  C2  UNL     1     -33.714  17.549  -1.311  1.00 20.00     0.010 C 
HETATM    2  C3  UNL     1     -35.072  15.609  -2.396  1.00 20.00     0.025 C 
HETATM    3  C4  UNL     1     -32.803  16.130  -3.295  1.00 20.00     0.025 C 
HETATM    4  C5  UNL     1     -34.774  16.848  -4.394  1.00 20.00     0.026 C 
HETATM    5  C6  UNL     1     -35.040  17.089  -1.968  1.00 20.00    -0.008 C 
HETATM    6  C7  UNL     1     -33.104  17.532  -2.736  1.00 20.00    -0.008 C 
HETATM    7  C8  UNL     1     -34.548  17.829  -3.256  1.00 20.00    -0.005 C 
HETATM    8  C9  UNL     1     -34.208  15.631  -3.665  1.00 20.00     0.049 C 
ENDROOT
BRANCH   8   9
HETATM    9  C1  UNL     1     -34.238  14.383  -4.509  1.00 20.00     0.181 C 
HETATM   10  O10 UNL     1     -34.795  13.383  -3.974  1.00 20.00    -0.647 OA
HETATM   11  O11 UNL     1     -33.700  14.498  -5.646  1.00 20.00    -0.647 OA
ENDBRANCH   8   9
TORSDOF 1
ENDMDL
MODEL 8
REMARK VINA RESULT:      -4.6      1.183      2.070
REMARK  1 active torsions:
REMARK  status: ('A' for Active; 'I' for Inactive)
REMARK    1  A    between atoms: C1_1  and  C9_9 
ROOT
HETATM    1  C2  UNL     1     -34.980  17.422  -6.466  1.00 20.00     0.010 C 
HETATM    2  C3  UNL     1     -35.113  14.822  -6.356  1.00 20.00     0.025 C 
HETATM    3  C4  UNL     1     -36.587  16.160  -4.851  1.00 20.00     0.025 C 
HETATM    4  C5  UNL     1     -34.600  15.139  -4.064  1.00 20.00     0.026 C 
HETATM    5  C6  UNL     1     -34.224  16.079  -6.297  1.00 20.00    -0.008 C 
HETATM    6  C7  UNL     1     -35.482  17.220  -5.013  1.00 20.00    -0.008 C 
HETATM    7  C8  UNL     1     -34.166  16.412  -4.771  1.00 20.00    -0.005 C 
HETATM    8  C9  UNL     1     -35.790  14.853  -4.979  1.00 20.00     0.049 C 
ENDROOT
BRANCH   8   9
HETATM    9  C1  UNL     1     -36.542  13.609  -4.581  1.00 20.00     0.181 C 
HETATM   10  O10 UNL     1     -35.832  12.575  -4.431  1.00 20.00    -0.647 OA
HETATM   11  O11 UNL     1     -37.789  13.761  -4.449  1.00 20.00    -0.647 OA
ENDBRANCH   8   9
TORSDOF 1
ENDMDL
MODEL 9
REMARK VINA RESULT:      -4.5     10.406     11.608
REMARK  1 active torsions:
REMARK  status: ('A' for Active; 'I' for Inactive)
REMARK    1  A    between atoms: C1_1  and  C9_9 
ROOT
HETATM    1  C2  UNL     1     -42.997   9.118  -0.050  1.00 20.00     0.010 C 
HETATM    2  C3  UNL     1     -41.531   7.569  -1.546  1.00 20.00     0.025 C 
HETATM    3  C4  UNL     1     -43.356   6.542  -0.189  1.00 20.00     0.025 C 
HETATM    4  C5  UNL     1     -41.089   6.436   0.489  1.00 20.00     0.026 C 
HETATM    5  C6  UNL     1     -41.574   8.650  -0.448  1.00 20.00    -0.008 C 
HETATM    6  C7  UNL     1     -43.131   7.773   0.709  1.00 20.00    -0.008 C 
HETATM    7  C8  UNL     1     -41.578   7.821   0.878  1.00 20.00    -0.005 C 
HETATM    8  C9  UNL     1     -41.951   6.315  -0.767  1.00 20.00     0.049 C 
ENDROOT
BRANCH   8   9
HETATM    9  C1  UNL     1     -41.761   4.999  -1.477  1.00 20.00     0.181 C 
HETATM   10  O10 UNL     1     -40.568   4.590  -1.545  1.00 20.00    -0.647 OA
HETATM   11  O11 UNL     1     -42.823   4.473  -1.913  1.00 20.00    -0.647 OA
ENDBRANCH   8   9
TORSDOF 1
ENDMDL
