MODEL 1
REMARK VINA RESULT:      -5.0      0.000      0.000
REMARK  3 active torsions:
REMARK  status: ('A' for Active; 'I' for Inactive)
REMARK    1  A    between atoms: C1_1  and  C7_7 
REMARK    2  A    between atoms: C2_2  and  C8_8 
REMARK    3  A    between atoms: C4_4  and  C9_9 
ROOT
HETATM    1  C8  UNL     1     -34.372   4.758   3.666  1.00 20.00     0.233 A 
HETATM    2  C9  UNL     1     -34.670   4.807   5.129  1.00 20.00     0.186 A 
HETATM    3  O10 UNL     1     -35.614   5.256   4.147  1.00 20.00    -0.358 OA
ENDROOT
BRANCH   1   4
HETATM    4  C2  UNL     1     -33.589   5.812   3.024  1.00 20.00    -0.071 C 
HETATM    5  C1  UNL     1     -32.945   6.679   2.495  1.00 20.00    -0.099 C 
BRANCH   5   6
HETATM    6  C7  UNL     1     -32.163   7.733   1.853  1.00 20.00     0.065 A 
HETATM    7  C5  UNL     1     -32.901   8.793   1.107  1.00 20.00     0.018 A 
HETATM    8  C6  UNL     1     -32.114   7.755   0.362  1.00 20.00     0.018 A 
ENDBRANCH   5   6
ENDBRANCH   1   4
BRANCH   2   9
HETATM    9  C4  UNL     1     -33.969   5.722   6.019  1.00 20.00    -0.002 C 
HETATM   10  C3  UNL     1     -34.171   7.045   6.043  1.00 20.00     0.009 C 
ENDBRANCH   2   9
TORSDOF 3
ENDMDL
MODEL 2
REMARK VINA RESULT:      -4.5     11.633     12.516
REMARK  3 active torsions:
REMARK  status: ('A' for Active; 'I' for Inactive)
REMARK    1  A    between atoms: C1_1  and  C7_7 
REMARK    2  A    between atoms: C2_2  and  C8_8 
REMARK    3  A    between atoms: C4_4  and  C9_9 
ROOT
HETATM    1  C8  UNL     1     -31.742  18.912  -1.263  1.00 20.00     0.233 A 
HETATM    2  C9  UNL     1     -31.592  19.117   0.209  1.00 20.00     0.186 A 
HETATM    3  O10 UNL     1     -30.618  18.397  -0.560  1.00 20.00    -0.358 OA
ENDROOT
BRANCH   1   4
HETATM    4  C2  UNL     1     -32.578  17.836  -1.792  1.00 20.00    -0.071 C 
HETATM    5  C1  UNL     1     -33.264  16.950  -2.226  1.00 20.00    -0.099 C 
BRANCH   5   6
HETATM    6  C7  UNL     1     -34.101  15.875  -2.755  1.00 20.00     0.065 A 
HETATM    7  C5  UNL     1     -33.576  15.083  -3.904  1.00 20.00     0.018 A 
HETATM    8  C6  UNL     1     -34.698  16.057  -4.110  1.00 20.00     0.018 A 
ENDBRANCH   5   6
ENDBRANCH   1   4
BRANCH   2   9
HETATM    9  C4  UNL     1     -32.479  18.462   1.161  1.00 20.00    -0.002 C 
HETATM   10  C3  UNL     1     -32.116  18.106   2.399  1.00 20.00     0.009 C 
ENDBRANCH   2   9
TORSDOF 3
ENDMDL
MODEL 3
REMARK VINA RESULT:      -4.3     11.286     12.375
REMARK  3 active torsions:
REMARK  status: ('A' for Active; 'I' for Inactive)
REMARK    1  A    between atoms: C1_1  and  C7_7 
REMARK    2  A    between atoms: C2_2  and  C8_8 
REMARK    3  A    between atoms: C4_4  and  C9_9 
ROOT
HETATM    1  C8  UNL     1     -36.084  14.356  -3.957  1.00 20.00     0.233 A 
HETATM    2  C9  UNL     1     -36.151  14.020  -5.411  1.00 20.00     0.186 A 
HETATM    3  O10 UNL     1     -35.586  13.118  -4.449  1.00 20.00    -0.358 OA
ENDROOT
BRANCH   1   4
HETATM    4  C2  UNL     1     -35.007  15.190  -3.426  1.00 20.00    -0.071 C 
HETATM    5  C1  UNL     1     -34.122  15.875  -2.989  1.00 20.00    -0.099 C 
BRANCH   5   6
HETATM    6  C7  UNL     1     -33.046  16.710  -2.460  1.00 20.00     0.065 A 
HETATM    7  C5  UNL     1     -33.400  17.747  -1.448  1.00 20.00     0.018 A 
HETATM    8  C6  UNL     1     -33.027  18.151  -2.843  1.00 20.00     0.018 A 
ENDBRANCH   5   6
ENDBRANCH   1   4
BRANCH   2   9
HETATM    9  C4  UNL     1     -35.340  14.728  -6.393  1.00 20.00    -0.002 C 
HETATM   10  C3  UNL     1     -35.779  15.094  -7.602  1.00 20.00     0.009 C 
ENDBRANCH   2   9
TORSDOF 3
ENDMDL
MODEL 4
REMARK VINA RESULT:      -4.3     11.453     12.150
REMARK  3 active torsions:
REMARK  status: ('A' for Active; 'I' for Inactive)
REMARK    1  A    between atoms: C1_1  and  C7_7 
REMARK    2  A    between atoms: C2_2  and  C8_8 
REMARK    3  A    between atoms: C4_4  and  C9_9 
ROOT
HETATM    1  C8  UNL     1     -34.809  17.408  -0.721  1.00 20.00     0.233 A 
HETATM    2  C9  UNL     1     -33.694  18.357  -0.424  1.00 20.00     0.186 A 
HETATM    3  O10 UNL     1     -34.824  18.738  -1.222  1.00 20.00    -0.358 OA
ENDROOT
BRANCH   1   4
HETATM    4  C2  UNL     1     -34.698  16.433  -1.804  1.00 20.00    -0.071 C 
HETATM    5  C1  UNL     1     -34.608  15.630  -2.695  1.00 20.00    -0.099 C 
BRANCH   5   6
HETATM    6  C7  UNL     1     -34.496  14.655  -3.778  1.00 20.00     0.065 A 
HETATM    7  C5  UNL     1     -33.170  14.501  -4.443  1.00 20.00     0.018 A 
HETATM    8  C6  UNL     1     -34.302  15.172  -5.164  1.00 20.00     0.018 A 
ENDBRANCH   5   6
ENDBRANCH   1   4
BRANCH   2   9
HETATM    9  C4  UNL     1     -32.365  18.168  -0.988  1.00 20.00    -0.002 C 
HETATM   10  C3  UNL     1     -31.229  18.379  -0.314  1.00 20.00     0.009 C 
ENDBRANCH   2   9
TORSDOF 3
ENDMDL
MODEL 5
REMARK VINA RESULT:      -4.2     11.012     11.966
REMARK  3 active torsions:
REMARK  status: ('A' for Active; 'I' for Inactive)
REMARK    1  A    between atoms: C1_1  and  C7_7 
REMARK    2  A    between atoms: C2_2  and  C8_8 
REMARK    3  A    between atoms: C4_4  and  C9_9 
ROOT
HETATM    1  C8  UNL     1     -34.970  13.806  -4.092  1.00 20.00     0.233 A 
HETATM    2  C9  UNL     1     -36.356  13.825  -4.647  1.00 20.00     0.186 A 
HETATM    3  O10 UNL     1     -35.207  14.088  -5.465  1.00 20.00    -0.358 OA
ENDROOT
BRANCH   1   4
HETATM    4  C2  UNL     1     -34.422  14.969  -3.397  1.00 20.00    -0.071 C 
HETATM    5  C1  UNL     1     -33.970  15.926  -2.826  1.00 20.00    -0.099 C 
BRANCH   5   6
HETATM    6  C7  UNL     1     -33.423  17.088  -2.130  1.00 20.00     0.065 A 
HETATM    7  C5  UNL     1     -34.185  17.629  -0.968  1.00 20.00     0.018 A 
HETATM    8  C6  UNL     1     -34.147  18.386  -2.263  1.00 20.00     0.018 A 
ENDBRANCH   5   6
ENDBRANCH   1   4
BRANCH   2   9
HETATM    9  C4  UNL     1     -37.309  14.863  -4.277  1.00 20.00    -0.002 C 
HETATM   10  C3  UNL     1     -38.636  14.692  -4.264  1.00 20.00     0.009 C 
ENDBRANCH   2   9
TORSDOF 3
ENDMDL
MODEL 6
REMARK VINA RESULT:      -4.2     10.988     12.079
REMARK  3 active torsions:
REMARK  status: ('A' for Active; 'I' for Inactive)
REMARK    1  A    between atoms: C1_1  and  C7_7 
REMARK    2  A    between atoms: C2_2  and  C8_8 
REMARK    3  A    between atoms: C4_4  and  C9_9 
ROOT
HETATM    1  C8  UNL     1     -33.321  15.757  -3.456  1.00 20.00     0.233 A 
HETATM    2  C9  UNL     1     -33.813  14.625  -4.297  1.00 20.00     0.186 A 
HETATM    3  O10 UNL     1     -33.923  15.991  -4.723  1.00 20.00    -0.358 OA
ENDROOT
BRANCH   1   4
HETATM    4  C2  UNL     1     -34.137  16.298  -2.371  1.00 20.00    -0.071 C 
HETATM    5  C1  UNL     1     -34.809  16.742  -1.479  1.00 20.00    -0.099 C 
BRANCH   5   6
HETATM    6  C7  UNL     1     -35.626  17.284  -0.394  1.00 20.00     0.065 A 
HETATM    7  C5  UNL     1     -35.335  18.670   0.073  1.00 20.00     0.018 A 
HETATM    8  C6  UNL     1     -34.974  17.494   0.931  1.00 20.00     0.018 A 
ENDBRANCH   5   6
ENDBRANCH   1   4
BRANCH   2   9
HETATM    9  C4  UNL     1     -34.969  13.831  -3.902  1.00 20.00    -0.002 C 
HETATM   10  C3  UNL     1     -36.088  13.727  -4.627  1.00 20.00     0.009 C 
ENDBRANCH   2   9
TORSDOF 3
ENDMDL
MODEL 7
REMARK VINA RESULT:      -4.1     14.817     15.837
REMARK  3 active torsions:
REMARK  status: ('A' for Active; 'I' for Inactive)
REMARK    1  A    between atoms: C1_1  and  C7_7 
REMARK    2  A    between atoms: C2_2  and  C8_8 
REMARK    3  A    between atoms: C4_4  and  C9_9 
ROOT
HETATM    1  C8  UNL     1     -22.605  18.097   8.607  1.00 20.00     0.233 A 
HETATM    2  C9  UNL     1     -22.644  17.215   9.811  1.00 20.00     0.186 A 
HETATM    3  O10 UNL     1     -22.402  16.695   8.496  1.00 20.00    -0.358 OA
ENDROOT
BRANCH   1   4
HETATM    4  C2  UNL     1     -23.837  18.510   7.938  1.00 20.00    -0.071 C 
HETATM    5  C1  UNL     1     -24.851  18.850   7.388  1.00 20.00    -0.099 C 
BRANCH   5   6
HETATM    6  C7  UNL     1     -26.083  19.263   6.719  1.00 20.00     0.065 A 
HETATM    7  C5  UNL     1     -26.865  18.220   5.994  1.00 20.00     0.018 A 
HETATM    8  C6  UNL     1     -26.101  19.259   5.227  1.00 20.00     0.018 A 
ENDBRANCH   5   6
ENDBRANCH   1   4
BRANCH   2   9
HETATM    9  C4  UNL     1     -23.884  16.970  10.535  1.00 20.00    -0.002 C 
HETATM   10  C3  UNL     1     -23.962  16.265  11.669  1.00 20.00     0.009 C 
ENDBRANCH   2   9
TORSDOF 3
ENDMDL
MODEL 8
REMARK VINA RESULT:      -4.1     15.783     16.980
REMARK  3 active torsions:
REMARK  status: ('A' for Active; 'I' for Inactive)
REMARK    1  A    between atoms: C1_1  and  C7_7 
REMARK    2  A    between atoms: C2_2  and  C8_8 
REMARK    3  A    between atoms: C4_4  and  C9_9 
ROOT
HETATM    1  C8  UNL     1     -23.053  17.635   9.084  1.00 20.00     0.233 A 
HETATM    2  C9  UNL     1     -23.187  18.415   7.817  1.00 20.00     0.186 A 
HETATM    3  O10 UNL     1     -22.244  18.777   8.836  1.00 20.00    -0.358 OA
ENDROOT
BRANCH   1   4
HETATM    4  C2  UNL     1     -23.963  17.861  10.206  1.00 20.00    -0.071 C 
HETATM    5  C1  UNL     1     -24.712  18.046  11.128  1.00 20.00    -0.099 C 
BRANCH   5   6
HETATM    6  C7  UNL     1     -25.621  18.273  12.249  1.00 20.00     0.065 A 
HETATM    7  C5  UNL     1     -26.851  17.433  12.331  1.00 20.00     0.018 A 
HETATM    8  C6  UNL     1     -26.951  18.882  11.957  1.00 20.00     0.018 A 
ENDBRANCH   5   6
ENDBRANCH   1   4
BRANCH   2   9
HETATM    9  C4  UNL     1     -24.377  19.206   7.533  1.00 20.00    -0.002 C 
HETATM   10  C3  UNL     1     -25.030  19.185   6.366  1.00 20.00     0.009 C 
ENDBRANCH   2   9
TORSDOF 3
ENDMDL
MODEL 9
REMARK VINA RESULT:      -4.0     11.158     12.614
REMARK  3 active torsions:
REMARK  status: ('A' for Active; 'I' for Inactive)
REMARK    1  A    between atoms: C1_1  and  C7_7 
REMARK    2  A    between atoms: C2_2  and  C8_8 
REMARK    3  A    between atoms: C4_4  and  C9_9 
ROOT
HETATM    1  C8  UNL     1     -34.778  14.822  -3.474  1.00 20.00     0.233 A 
HETATM    2  C9  UNL     1     -34.999  14.512  -4.918  1.00 20.00     0.186 A 
HETATM    3  O10 UNL     1     -33.993  13.845  -4.143  1.00 20.00    -0.358 OA
ENDROOT
BRANCH   1   4
HETATM    4  C2  UNL     1     -33.968  15.968  -3.066  1.00 20.00    -0.071 C 
HETATM    5  C1  UNL     1     -33.300  16.910  -2.731  1.00 20.00    -0.099 C 
BRANCH   5   6
HETATM    6  C7  UNL     1     -32.490  18.056  -2.323  1.00 20.00     0.065 A 
HETATM    7  C5  UNL     1     -32.096  18.155  -0.888  1.00 20.00     0.018 A 
HETATM    8  C6  UNL     1     -33.128  19.086  -1.452  1.00 20.00     0.018 A 
ENDBRANCH   5   6
ENDBRANCH   1   4
BRANCH   2   9
HETATM    9  C4  UNL     1     -34.674  15.476  -5.961  1.00 20.00    -0.002 C 
HETATM   10  C3  UNL     1     -33.950  15.188  -7.048  1.00 20.00     0.009 C 
ENDBRANCH   2   9
TORSDOF 3
ENDMDL
