MODEL 1
REMARK VINA RESULT:      -5.1      0.000      0.000
REMARK  1 active torsions:
REMARK  status: ('A' for Active; 'I' for Inactive)
REMARK    1  A    between atoms: C3_3  and  C6_6 
ROOT
HETATM    1  C1  UNL     1     -35.393  17.087  -2.170  1.00 20.00    -0.030 C 
HETATM    2  C2  UNL     1     -34.466  16.129  -2.295  1.00 20.00    -0.026 C 
HETATM    3  C4  UNL     1     -36.656  17.125  -2.975  1.00 20.00     0.032 C 
HETATM    4  C5  UNL     1     -34.587  14.971  -3.255  1.00 20.00     0.018 C 
HETATM    5  C6  UNL     1     -36.046  14.798  -3.739  1.00 20.00     0.098 C 
HETATM    6  C7  UNL     1     -36.680  16.133  -4.157  1.00 20.00    -0.000 C 
HETATM    7  C8  UNL     1     -33.562  15.170  -4.379  1.00 20.00     0.015 C 
HETATM    8  C9  UNL     1     -38.120  15.971  -4.655  1.00 20.00     0.011 C 
ENDROOT
BRANCH   5   9
HETATM    9  C3  UNL     1     -36.077  13.771  -4.862  1.00 20.00     0.178 C 
HETATM   10  O10 UNL     1     -36.255  14.242  -6.018  1.00 20.00    -0.648 OA
HETATM   11  O11 UNL     1     -35.920  12.575  -4.488  1.00 20.00    -0.648 OA
ENDBRANCH   5   9
TORSDOF 1
ENDMDL
MODEL 2
REMARK VINA RESULT:      -4.9      0.835      1.419
REMARK  1 active torsions:
REMARK  status: ('A' for Active; 'I' for Inactive)
REMARK    1  A    between atoms: C3_3  and  C6_6 
ROOT
HETATM    1  C1  UNL     1     -33.855  16.938  -2.751  1.00 20.00    -0.030 C 
HETATM    2  C2  UNL     1     -33.236  15.849  -3.225  1.00 20.00    -0.026 C 
HETATM    3  C4  UNL     1     -35.323  17.191  -2.914  1.00 20.00     0.032 C 
HETATM    4  C5  UNL     1     -33.943  14.746  -3.974  1.00 20.00     0.018 C 
HETATM    5  C6  UNL     1     -35.473  14.814  -3.752  1.00 20.00     0.098 C 
HETATM    6  C7  UNL     1     -36.019  16.241  -3.912  1.00 20.00    -0.000 C 
HETATM    7  C8  UNL     1     -33.508  14.808  -5.444  1.00 20.00     0.015 C 
HETATM    8  C9  UNL     1     -37.536  16.318  -3.712  1.00 20.00     0.011 C 
ENDROOT
BRANCH   5   9
HETATM    9  C3  UNL     1     -36.153  13.830  -4.692  1.00 20.00     0.178 C 
HETATM   10  O10 UNL     1     -36.068  12.618  -4.356  1.00 20.00    -0.648 OA
HETATM   11  O11 UNL     1     -36.716  14.358  -5.693  1.00 20.00    -0.648 OA
ENDBRANCH   5   9
TORSDOF 1
ENDMDL
MODEL 3
REMARK VINA RESULT:      -4.6      1.167      1.242
REMARK  1 active torsions:
REMARK  status: ('A' for Active; 'I' for Inactive)
REMARK    1  A    between atoms: C3_3  and  C6_6 
ROOT
HETATM    1  C1  UNL     1     -36.238  17.465  -2.154  1.00 20.00    -0.030 C 
HETATM    2  C2  UNL     1     -35.123  16.842  -1.750  1.00 20.00    -0.026 C 
HETATM    3  C4  UNL     1     -36.982  17.102  -3.402  1.00 20.00     0.032 C 
HETATM    4  C5  UNL     1     -34.490  15.696  -2.500  1.00 20.00     0.018 C 
HETATM    5  C6  UNL     1     -35.482  15.074  -3.510  1.00 20.00     0.098 C 
HETATM    6  C7  UNL     1     -36.215  16.142  -4.336  1.00 20.00    -0.000 C 
HETATM    7  C8  UNL     1     -33.178  16.195  -3.120  1.00 20.00     0.015 C 
HETATM    8  C9  UNL     1     -37.188  15.536  -5.353  1.00 20.00     0.011 C 
ENDROOT
BRANCH   5   9
HETATM    9  C3  UNL     1     -34.737  14.080  -4.388  1.00 20.00     0.178 C 
HETATM   10  O10 UNL     1     -34.242  14.559  -5.444  1.00 20.00    -0.648 OA
HETATM   11  O11 UNL     1     -34.712  12.897  -3.944  1.00 20.00    -0.648 OA
ENDBRANCH   5   9
TORSDOF 1
ENDMDL
MODEL 4
REMARK VINA RESULT:      -4.5      1.452      2.387
REMARK  1 active torsions:
REMARK  status: ('A' for Active; 'I' for Inactive)
REMARK    1  A    between atoms: C3_3  and  C6_6 
ROOT
HETATM    1  C1  UNL     1     -33.296  15.703  -3.379  1.00 20.00    -0.030 C 
HETATM    2  C2  UNL     1     -33.592  14.716  -4.234  1.00 20.00    -0.026 C 
HETATM    3  C4  UNL     1     -34.320  16.634  -2.804  1.00 20.00     0.032 C 
HETATM    4  C5  UNL     1     -34.992  14.420  -4.714  1.00 20.00     0.018 C 
HETATM    5  C6  UNL     1     -36.048  15.086  -3.800  1.00 20.00     0.098 C 
HETATM    6  C7  UNL     1     -35.702  16.550  -3.487  1.00 20.00    -0.000 C 
HETATM    7  C8  UNL     1     -35.087  14.817  -6.193  1.00 20.00     0.015 C 
HETATM    8  C9  UNL     1     -36.749  17.225  -2.596  1.00 20.00     0.011 C 
ENDROOT
BRANCH   5   9
HETATM    9  C3  UNL     1     -37.419  14.945  -4.444  1.00 20.00     0.178 C 
HETATM   10  O10 UNL     1     -37.962  13.815  -4.313  1.00 20.00    -0.648 OA
HETATM   11  O11 UNL     1     -37.837  15.984  -5.029  1.00 20.00    -0.648 OA
ENDBRANCH   5   9
TORSDOF 1
ENDMDL
MODEL 5
REMARK VINA RESULT:      -4.5      1.372      1.810
REMARK  1 active torsions:
REMARK  status: ('A' for Active; 'I' for Inactive)
REMARK    1  A    between atoms: C3_3  and  C6_6 
ROOT
HETATM    1  C1  UNL     1     -36.431  17.450  -2.501  1.00 20.00    -0.030 C 
HETATM    2  C2  UNL     1     -35.384  16.886  -1.886  1.00 20.00    -0.026 C 
HETATM    3  C4  UNL     1     -36.917  17.034  -3.855  1.00 20.00     0.032 C 
HETATM    4  C5  UNL     1     -34.575  15.759  -2.480  1.00 20.00     0.018 C 
HETATM    5  C6  UNL     1     -35.338  15.076  -3.640  1.00 20.00     0.098 C 
HETATM    6  C7  UNL     1     -35.951  16.096  -4.611  1.00 20.00    -0.000 C 
HETATM    7  C8  UNL     1     -33.194  16.309  -2.862  1.00 20.00     0.015 C 
HETATM    8  C9  UNL     1     -36.695  15.431  -5.773  1.00 20.00     0.011 C 
ENDROOT
BRANCH   5   9
HETATM    9  C3  UNL     1     -34.403  14.104  -4.343  1.00 20.00     0.178 C 
HETATM   10  O10 UNL     1     -34.393  12.932  -3.876  1.00 20.00    -0.648 OA
HETATM   11  O11 UNL     1     -33.753  14.599  -5.307  1.00 20.00    -0.648 OA
ENDBRANCH   5   9
TORSDOF 1
ENDMDL
MODEL 6
REMARK VINA RESULT:      -4.4      1.949      2.564
REMARK  1 active torsions:
REMARK  status: ('A' for Active; 'I' for Inactive)
REMARK    1  A    between atoms: C3_3  and  C6_6 
ROOT
HETATM    1  C1  UNL     1     -34.594  17.677  -5.288  1.00 20.00    -0.030 C 
HETATM    2  C2  UNL     1     -35.041  17.379  -4.061  1.00 20.00    -0.026 C 
HETATM    3  C4  UNL     1     -34.752  16.769  -6.469  1.00 20.00     0.032 C 
HETATM    4  C5  UNL     1     -35.762  16.096  -3.725  1.00 20.00     0.018 C 
HETATM    5  C6  UNL     1     -36.283  15.398  -5.004  1.00 20.00     0.098 C 
HETATM    6  C7  UNL     1     -35.218  15.343  -6.109  1.00 20.00    -0.000 C 
HETATM    7  C8  UNL     1     -34.831  15.234  -2.863  1.00 20.00     0.015 C 
HETATM    8  C9  UNL     1     -35.718  14.638  -7.374  1.00 20.00     0.011 C 
ENDROOT
BRANCH   5   9
HETATM    9  C3  UNL     1     -36.802  14.016  -4.636  1.00 20.00     0.178 C 
HETATM   10  O10 UNL     1     -35.943  13.093  -4.666  1.00 20.00    -0.648 OA
HETATM   11  O11 UNL     1     -38.031  13.972  -4.348  1.00 20.00    -0.648 OA
ENDBRANCH   5   9
TORSDOF 1
ENDMDL
MODEL 7
REMARK VINA RESULT:      -4.3      1.079      2.913
REMARK  1 active torsions:
REMARK  status: ('A' for Active; 'I' for Inactive)
REMARK    1  A    between atoms: C3_3  and  C6_6 
ROOT
HETATM    1  C1  UNL     1     -35.391  16.682  -2.233  1.00 20.00    -0.030 C 
HETATM    2  C2  UNL     1     -36.483  16.831  -2.995  1.00 20.00    -0.026 C 
HETATM    3  C4  UNL     1     -34.216  15.841  -2.627  1.00 20.00     0.032 C 
HETATM    4  C5  UNL     1     -36.654  16.175  -4.343  1.00 20.00     0.018 C 
HETATM    5  C6  UNL     1     -35.297  15.688  -4.904  1.00 20.00     0.098 C 
HETATM    6  C7  UNL     1     -34.472  14.934  -3.850  1.00 20.00    -0.000 C 
HETATM    7  C8  UNL     1     -37.720  15.079  -4.212  1.00 20.00     0.015 C 
HETATM    8  C9  UNL     1     -33.133  14.431  -4.398  1.00 20.00     0.011 C 
ENDROOT
BRANCH   5   9
HETATM    9  C3  UNL     1     -35.548  14.847  -6.146  1.00 20.00     0.178 C 
HETATM   10  O10 UNL     1     -35.885  13.651  -5.929  1.00 20.00    -0.648 OA
HETATM   11  O11 UNL     1     -35.383  15.457  -7.240  1.00 20.00    -0.648 OA
ENDBRANCH   5   9
TORSDOF 1
ENDMDL
MODEL 8
REMARK VINA RESULT:      -4.3      2.741      4.293
REMARK  1 active torsions:
REMARK  status: ('A' for Active; 'I' for Inactive)
REMARK    1  A    between atoms: C3_3  and  C6_6 
ROOT
HETATM    1  C1  UNL     1     -33.789  14.495  -4.266  1.00 20.00    -0.030 C 
HETATM    2  C2  UNL     1     -35.076  14.395  -3.910  1.00 20.00    -0.026 C 
HETATM    3  C4  UNL     1     -32.869  15.559  -3.752  1.00 20.00     0.032 C 
HETATM    4  C5  UNL     1     -35.749  15.339  -2.944  1.00 20.00     0.018 C 
HETATM    5  C6  UNL     1     -34.707  16.131  -2.120  1.00 20.00     0.098 C 
HETATM    6  C7  UNL     1     -33.584  16.701  -2.999  1.00 20.00    -0.000 C 
HETATM    7  C8  UNL     1     -36.734  16.212  -3.733  1.00 20.00     0.015 C 
HETATM    8  C9  UNL     1     -32.555  17.503  -2.196  1.00 20.00     0.011 C 
ENDROOT
BRANCH   5   9
HETATM    9  C3  UNL     1     -35.423  17.215  -1.328  1.00 20.00     0.178 C 
HETATM   10  O10 UNL     1     -35.709  18.257  -1.978  1.00 20.00    -0.648 OA
HETATM   11  O11 UNL     1     -35.637  16.931  -0.116  1.00 20.00    -0.648 OA
ENDBRANCH   5   9
TORSDOF 1
ENDMDL
MODEL 9
REMARK VINA RESULT:      -4.2      0.870      2.881
REMARK  1 active torsions:
REMARK  status: ('A' for Active; 'I' for Inactive)
REMARK    1  A    between atoms: C3_3  and  C6_6 
ROOT
HETATM    1  C1  UNL     1     -36.984  17.478  -3.080  1.00 20.00    -0.030 C 
HETATM    2  C2  UNL     1     -37.889  16.983  -3.934  1.00 20.00    -0.026 C 
HETATM    3  C4  UNL     1     -35.660  16.831  -2.810  1.00 20.00     0.032 C 
HETATM    4  C5  UNL     1     -37.679  15.718  -4.731  1.00 20.00     0.018 C 
HETATM    5  C6  UNL     1     -36.183  15.323  -4.766  1.00 20.00     0.098 C 
HETATM    6  C7  UNL     1     -35.530  15.402  -3.377  1.00 20.00    -0.000 C 
HETATM    7  C8  UNL     1     -38.611  14.637  -4.170  1.00 20.00     0.015 C 
HETATM    8  C9  UNL     1     -34.053  14.996  -3.397  1.00 20.00     0.011 C 
ENDROOT
BRANCH   5   9
HETATM    9  C3  UNL     1     -36.052  13.940  -5.385  1.00 20.00     0.178 C 
HETATM   10  O10 UNL     1     -36.054  12.981  -4.566  1.00 20.00    -0.648 OA
HETATM   11  O11 UNL     1     -35.955  13.931  -6.644  1.00 20.00    -0.648 OA
ENDBRANCH   5   9
TORSDOF 1
ENDMDL
