MODEL 1
REMARK VINA RESULT:      -5.4      0.000      0.000
REMARK  0 active torsions:
REMARK  status: ('A' for Active; 'I' for Inactive)
ROOT
HETATM    1  C1  UNL     1     -35.041  14.026  -4.450  1.00 20.00     0.057 C 
HETATM    2  C2  UNL     1     -33.149  16.638  -2.649  1.00 20.00    -0.019 C 
HETATM    3  C3  UNL     1     -34.060  15.743  -3.050  1.00 20.00    -0.051 C 
HETATM    4  C4  UNL     1     -33.945  14.665  -4.007  1.00 20.00    -0.052 C 
HETATM    5  C5  UNL     1     -36.410  14.458  -4.045  1.00 20.00     0.150 C 
HETATM    6  C6  UNL     1     -33.715  17.585  -1.640  1.00 20.00     0.028 C 
HETATM    7  C7  UNL     1     -36.554  15.745  -3.256  1.00 20.00     0.092 C 
HETATM    8  C8  UNL     1     -35.222  17.356  -1.774  1.00 20.00     0.013 C 
HETATM    9  C9  UNL     1     -35.363  15.937  -2.328  1.00 20.00     0.026 C 
HETATM   10  C10 UNL     1     -32.573  14.263  -4.469  1.00 20.00     0.049 C 
HETATM   11  O11 UNL     1     -37.389  13.812  -4.415  1.00 20.00    -0.293 OA
ENDROOT
TORSDOF 0
ENDMDL
MODEL 2
REMARK VINA RESULT:      -5.2      1.249      1.387
REMARK  0 active torsions:
REMARK  status: ('A' for Active; 'I' for Inactive)
ROOT
HETATM    1  C1  UNL     1     -35.868  14.363  -5.619  1.00 20.00     0.057 C 
HETATM    2  C2  UNL     1     -33.192  16.363  -4.041  1.00 20.00    -0.019 C 
HETATM    3  C3  UNL     1     -34.229  15.552  -4.289  1.00 20.00    -0.051 C 
HETATM    4  C4  UNL     1     -34.664  14.953  -5.531  1.00 20.00    -0.052 C 
HETATM    5  C5  UNL     1     -36.828  14.381  -4.478  1.00 20.00     0.150 C 
HETATM    6  C6  UNL     1     -33.129  16.749  -2.598  1.00 20.00     0.028 C 
HETATM    7  C7  UNL     1     -36.491  15.229  -3.266  1.00 20.00     0.092 C 
HETATM    8  C8  UNL     1     -34.513  16.348  -2.083  1.00 20.00     0.013 C 
HETATM    9  C9  UNL     1     -34.988  15.244  -3.029  1.00 20.00     0.026 C 
HETATM   10  C10 UNL     1     -33.728  14.986  -6.706  1.00 20.00     0.049 C 
HETATM   11  O11 UNL     1     -37.894  13.775  -4.567  1.00 20.00    -0.293 OA
ENDROOT
TORSDOF 0
ENDMDL
MODEL 3
REMARK VINA RESULT:      -5.2     16.555     17.892
REMARK  0 active torsions:
REMARK  status: ('A' for Active; 'I' for Inactive)
ROOT
HETATM    1  C1  UNL     1     -22.247  17.760   9.779  1.00 20.00     0.057 C 
HETATM    2  C2  UNL     1     -24.837  18.625  12.267  1.00 20.00    -0.019 C 
HETATM    3  C3  UNL     1     -24.169  18.281  11.159  1.00 20.00    -0.051 C 
HETATM    4  C4  UNL     1     -22.806  17.827  10.999  1.00 20.00    -0.052 C 
HETATM    5  C5  UNL     1     -22.974  18.231   8.564  1.00 20.00     0.150 C 
HETATM    6  C6  UNL     1     -26.238  19.045  11.957  1.00 20.00     0.028 C 
HETATM    7  C7  UNL     1     -24.297  18.950   8.750  1.00 20.00     0.092 C 
HETATM    8  C8  UNL     1     -26.195  19.262  10.442  1.00 20.00     0.013 C 
HETATM    9  C9  UNL     1     -25.048  18.380   9.945  1.00 20.00     0.026 C 
HETATM   10  C10 UNL     1     -22.043  17.410  12.225  1.00 20.00     0.049 C 
HETATM   11  O11 UNL     1     -22.462  18.095   7.455  1.00 20.00    -0.293 OA
ENDROOT
TORSDOF 0
ENDMDL
MODEL 4
REMARK VINA RESULT:      -5.0     15.755     17.545
REMARK  0 active torsions:
REMARK  status: ('A' for Active; 'I' for Inactive)
ROOT
HETATM    1  C1  UNL     1     -23.501  18.234   7.602  1.00 20.00     0.057 C 
HETATM    2  C2  UNL     1     -24.953  18.365  10.997  1.00 20.00    -0.019 C 
HETATM    3  C3  UNL     1     -24.132  18.311   9.940  1.00 20.00    -0.051 C 
HETATM    4  C4  UNL     1     -24.397  18.576   8.544  1.00 20.00    -0.052 C 
HETATM    5  C5  UNL     1     -22.252  17.497   7.949  1.00 20.00     0.150 C 
HETATM    6  C6  UNL     1     -24.245  17.999  12.262  1.00 20.00     0.028 C 
HETATM    7  C7  UNL     1     -22.089  16.984   9.367  1.00 20.00     0.092 C 
HETATM    8  C8  UNL     1     -22.958  17.347  11.750  1.00 20.00     0.013 C 
HETATM    9  C9  UNL     1     -22.737  17.941  10.357  1.00 20.00     0.026 C 
HETATM   10  C10 UNL     1     -25.683  19.262   8.178  1.00 20.00     0.049 C 
HETATM   11  O11 UNL     1     -21.421  17.257   7.075  1.00 20.00    -0.293 OA
ENDROOT
TORSDOF 0
ENDMDL
MODEL 5
REMARK VINA RESULT:      -4.9      2.872      4.914
REMARK  0 active torsions:
REMARK  status: ('A' for Active; 'I' for Inactive)
ROOT
HETATM    1  C1  UNL     1     -33.443  18.336  -0.503  1.00 20.00     0.057 C 
HETATM    2  C2  UNL     1     -35.461  15.792  -2.266  1.00 20.00    -0.019 C 
HETATM    3  C3  UNL     1     -34.475  16.572  -1.806  1.00 20.00    -0.051 C 
HETATM    4  C4  UNL     1     -34.446  17.455  -0.661  1.00 20.00    -0.052 C 
HETATM    5  C5  UNL     1     -32.380  18.497  -1.537  1.00 20.00     0.150 C 
HETATM    6  C6  UNL     1     -35.047  15.051  -3.497  1.00 20.00     0.028 C 
HETATM    7  C7  UNL     1     -32.544  17.768  -2.857  1.00 20.00     0.092 C 
HETATM    8  C8  UNL     1     -33.780  15.795  -3.926  1.00 20.00     0.013 C 
HETATM    9  C9  UNL     1     -33.237  16.430  -2.644  1.00 20.00     0.026 C 
HETATM   10  C10 UNL     1     -35.547  17.344   0.355  1.00 20.00     0.049 C 
HETATM   11  O11 UNL     1     -31.441  19.263  -1.333  1.00 20.00    -0.293 OA
ENDROOT
TORSDOF 0
ENDMDL
MODEL 6
REMARK VINA RESULT:      -4.9     11.733     12.208
REMARK  0 active torsions:
REMARK  status: ('A' for Active; 'I' for Inactive)
ROOT
HETATM    1  C1  UNL     1     -32.823   5.900   1.914  1.00 20.00     0.057 C 
HETATM    2  C2  UNL     1     -34.461   4.489   4.910  1.00 20.00    -0.019 C 
HETATM    3  C3  UNL     1     -33.977   5.296   3.957  1.00 20.00    -0.051 C 
HETATM    4  C4  UNL     1     -33.490   4.981   2.632  1.00 20.00    -0.052 C 
HETATM    5  C5  UNL     1     -32.484   7.236   2.484  1.00 20.00     0.150 C 
HETATM    6  C6  UNL     1     -34.841   5.253   6.137  1.00 20.00     0.028 C 
HETATM    7  C7  UNL     1     -32.757   7.481   3.956  1.00 20.00     0.092 C 
HETATM    8  C8  UNL     1     -34.157   6.605   5.915  1.00 20.00     0.013 C 
HETATM    9  C9  UNL     1     -34.006   6.731   4.398  1.00 20.00     0.026 C 
HETATM   10  C10 UNL     1     -33.772   3.615   2.073  1.00 20.00     0.049 C 
HETATM   11  O11 UNL     1     -31.931   8.079   1.780  1.00 20.00    -0.293 OA
ENDROOT
TORSDOF 0
ENDMDL
MODEL 7
REMARK VINA RESULT:      -4.8      1.807      2.035
REMARK  0 active torsions:
REMARK  status: ('A' for Active; 'I' for Inactive)
ROOT
HETATM    1  C1  UNL     1     -35.284  14.724  -5.823  1.00 20.00     0.057 C 
HETATM    2  C2  UNL     1     -33.710  17.699  -4.300  1.00 20.00    -0.019 C 
HETATM    3  C3  UNL     1     -34.152  16.466  -4.575  1.00 20.00    -0.051 C 
HETATM    4  C4  UNL     1     -34.667  15.918  -5.810  1.00 20.00    -0.052 C 
HETATM    5  C5  UNL     1     -35.537  13.967  -4.563  1.00 20.00     0.150 C 
HETATM    6  C6  UNL     1     -33.275  17.822  -2.874  1.00 20.00     0.028 C 
HETATM    7  C7  UNL     1     -35.239  14.648  -3.241  1.00 20.00     0.092 C 
HETATM    8  C8  UNL     1     -33.878  16.570  -2.231  1.00 20.00     0.013 C 
HETATM    9  C9  UNL     1     -34.034  15.568  -3.377  1.00 20.00     0.026 C 
HETATM   10  C10 UNL     1     -34.473  16.703  -7.076  1.00 20.00     0.049 C 
HETATM   11  O11 UNL     1     -36.044  12.848  -4.614  1.00 20.00    -0.293 OA
ENDROOT
TORSDOF 0
ENDMDL
MODEL 8
REMARK VINA RESULT:      -4.7      2.880      4.686
REMARK  0 active torsions:
REMARK  status: ('A' for Active; 'I' for Inactive)
ROOT
HETATM    1  C1  UNL     1     -33.512  18.605   0.540  1.00 20.00     0.057 C 
HETATM    2  C2  UNL     1     -32.981  16.747  -2.609  1.00 20.00    -0.019 C 
HETATM    3  C3  UNL     1     -33.503  17.387  -1.555  1.00 20.00    -0.051 C 
HETATM    4  C4  UNL     1     -32.867  18.250  -0.585  1.00 20.00    -0.052 C 
HETATM    5  C5  UNL     1     -34.859  18.055   0.870  1.00 20.00     0.150 C 
HETATM    6  C6  UNL     1     -34.017  15.950  -3.336  1.00 20.00     0.028 C 
HETATM    7  C7  UNL     1     -35.420  16.950  -0.005  1.00 20.00     0.092 C 
HETATM    8  C8  UNL     1     -35.172  15.906  -2.332  1.00 20.00     0.013 C 
HETATM    9  C9  UNL     1     -34.981  17.142  -1.450  1.00 20.00     0.026 C 
HETATM   10  C10 UNL     1     -31.485  18.759  -0.879  1.00 20.00     0.049 C 
HETATM   11  O11 UNL     1     -35.451  18.449   1.872  1.00 20.00    -0.293 OA
ENDROOT
TORSDOF 0
ENDMDL
MODEL 9
REMARK VINA RESULT:      -4.6      1.496      2.451
REMARK  0 active torsions:
REMARK  status: ('A' for Active; 'I' for Inactive)
ROOT
HETATM    1  C1  UNL     1     -34.547  14.395  -3.760  1.00 20.00     0.057 C 
HETATM    2  C2  UNL     1     -35.740  17.889  -3.626  1.00 20.00    -0.019 C 
HETATM    3  C3  UNL     1     -35.641  16.554  -3.637  1.00 20.00    -0.051 C 
HETATM    4  C4  UNL     1     -34.479  15.707  -3.478  1.00 20.00    -0.052 C 
HETATM    5  C5  UNL     1     -35.785  13.784  -4.326  1.00 20.00     0.150 C 
HETATM    6  C6  UNL     1     -37.151  18.337  -3.840  1.00 20.00     0.028 C 
HETATM    7  C7  UNL     1     -36.916  14.705  -4.742  1.00 20.00     0.092 C 
HETATM    8  C8  UNL     1     -37.830  17.068  -4.361  1.00 20.00     0.013 C 
HETATM    9  C9  UNL     1     -36.987  15.912  -3.818  1.00 20.00     0.026 C 
HETATM   10  C10 UNL     1     -33.209  16.326  -2.968  1.00 20.00     0.049 C 
HETATM   11  O11 UNL     1     -35.837  12.570  -4.511  1.00 20.00    -0.293 OA
ENDROOT
TORSDOF 0
ENDMDL
