MODEL 1
REMARK VINA RESULT:      -5.7      0.000      0.000
REMARK  2 active torsions:
REMARK  status: ('A' for Active; 'I' for Inactive)
REMARK    1  A    between atoms: C4_4  and  C5_5 
REMARK    2  A    between atoms: C5_5  and  C8_8 
ROOT
HETATM    1  C1  UNL     1     -34.902   4.730   4.820  1.00 20.00    -0.027 A 
HETATM    2  C2  UNL     1     -34.368   4.323   3.661  1.00 20.00    -0.026 A 
HETATM    3  C3  UNL     1     -33.666   6.917   4.630  1.00 20.00    -0.012 A 
HETATM    4  C4  UNL     1     -33.136   6.502   3.469  1.00 20.00    -0.003 A 
HETATM    5  C6  UNL     1     -34.613   6.071   5.433  1.00 20.00     0.054 A 
HETATM    6  C7  UNL     1     -33.424   5.166   2.850  1.00 20.00     0.069 A 
ENDROOT
BRANCH   4   7
HETATM    7  C5  UNL     1     -32.223   7.410   2.770  1.00 20.00     0.261 C 
HETATM    8  O9  UNL     1     -31.175   7.783   3.300  1.00 20.00    -0.283 OA
BRANCH   7   9
HETATM    9  C8  UNL     1     -32.623   7.862   1.393  1.00 20.00     0.455 C 
HETATM   10  F10 UNL     1     -33.665   7.148   0.898  1.00 20.00    -0.163 F 
HETATM   11  F11 UNL     1     -31.604   7.736   0.507  1.00 20.00    -0.163 F 
HETATM   12  F12 UNL     1     -32.998   9.166   1.379  1.00 20.00    -0.163 F 
ENDBRANCH   7   9
ENDBRANCH   4   7
TORSDOF 2
ENDMDL
MODEL 2
REMARK VINA RESULT:      -5.7     11.050     11.598
REMARK  2 active torsions:
REMARK  status: ('A' for Active; 'I' for Inactive)
REMARK    1  A    between atoms: C4_4  and  C5_5 
REMARK    2  A    between atoms: C5_5  and  C8_8 
ROOT
HETATM    1  C1  UNL     1     -34.142  17.372  -1.327  1.00 20.00    -0.027 A 
HETATM    2  C2  UNL     1     -35.165  16.539  -1.562  1.00 20.00    -0.026 A 
HETATM    3  C3  UNL     1     -32.859  16.347  -3.239  1.00 20.00    -0.012 A 
HETATM    4  C4  UNL     1     -33.888  15.517  -3.467  1.00 20.00    -0.003 A 
HETATM    5  C6  UNL     1     -32.877  17.371  -2.138  1.00 20.00     0.054 A 
HETATM    6  C7  UNL     1     -35.155  15.516  -2.663  1.00 20.00     0.069 A 
ENDROOT
BRANCH   4   7
HETATM    7  C5  UNL     1     -33.762  14.557  -4.568  1.00 20.00     0.261 C 
HETATM    8  O9  UNL     1     -33.227  13.462  -4.391  1.00 20.00    -0.283 OA
BRANCH   7   9
HETATM    9  C8  UNL     1     -34.309  14.969  -5.905  1.00 20.00     0.455 C 
HETATM   10  F10 UNL     1     -35.435  14.288  -6.235  1.00 20.00    -0.163 F 
HETATM   11  F11 UNL     1     -33.415  14.755  -6.902  1.00 20.00    -0.163 F 
HETATM   12  F12 UNL     1     -34.625  16.288  -5.936  1.00 20.00    -0.163 F 
ENDBRANCH   7   9
ENDBRANCH   4   7
TORSDOF 2
ENDMDL
MODEL 3
REMARK VINA RESULT:      -5.7     11.061     11.651
REMARK  2 active torsions:
REMARK  status: ('A' for Active; 'I' for Inactive)
REMARK    1  A    between atoms: C4_4  and  C5_5 
REMARK    2  A    between atoms: C5_5  and  C8_8 
ROOT
HETATM    1  C1  UNL     1     -34.178  17.365  -1.329  1.00 20.00    -0.027 A 
HETATM    2  C2  UNL     1     -35.200  16.535  -1.578  1.00 20.00    -0.026 A 
HETATM    3  C3  UNL     1     -32.875  16.341  -3.227  1.00 20.00    -0.012 A 
HETATM    4  C4  UNL     1     -33.903  15.514  -3.469  1.00 20.00    -0.003 A 
HETATM    5  C6  UNL     1     -32.903  17.362  -2.124  1.00 20.00     0.054 A 
HETATM    6  C7  UNL     1     -35.179  15.515  -2.681  1.00 20.00     0.069 A 
ENDROOT
BRANCH   4   7
HETATM    7  C5  UNL     1     -33.766  14.557  -4.571  1.00 20.00     0.261 C 
HETATM    8  O9  UNL     1     -33.230  13.462  -4.391  1.00 20.00    -0.283 OA
BRANCH   7   9
HETATM    9  C8  UNL     1     -34.300  14.970  -5.913  1.00 20.00     0.455 C 
HETATM   10  F10 UNL     1     -34.576  16.298  -5.973  1.00 20.00    -0.163 F 
HETATM   11  F11 UNL     1     -35.449  14.317  -6.220  1.00 20.00    -0.163 F 
HETATM   12  F12 UNL     1     -33.419  14.707  -6.910  1.00 20.00    -0.163 F 
ENDBRANCH   7   9
ENDBRANCH   4   7
TORSDOF 2
ENDMDL
MODEL 4
REMARK VINA RESULT:      -5.7     11.018     11.582
REMARK  2 active torsions:
REMARK  status: ('A' for Active; 'I' for Inactive)
REMARK    1  A    between atoms: C4_4  and  C5_5 
REMARK    2  A    between atoms: C5_5  and  C8_8 
ROOT
HETATM    1  C1  UNL     1     -33.928  17.492  -1.363  1.00 20.00    -0.027 A 
HETATM    2  C2  UNL     1     -32.910  17.280  -2.208  1.00 20.00    -0.026 A 
HETATM    3  C3  UNL     1     -35.247  15.658  -2.480  1.00 20.00    -0.012 A 
HETATM    4  C4  UNL     1     -34.223  15.453  -3.322  1.00 20.00    -0.003 A 
HETATM    5  C6  UNL     1     -35.208  16.706  -1.403  1.00 20.00     0.054 A 
HETATM    6  C7  UNL     1     -32.941  16.231  -3.285  1.00 20.00     0.069 A 
ENDROOT
BRANCH   4   7
HETATM    7  C5  UNL     1     -34.370  14.403  -4.335  1.00 20.00     0.261 C 
HETATM    8  O9  UNL     1     -34.237  13.216  -4.036  1.00 20.00    -0.283 OA
BRANCH   7   9
HETATM    9  C8  UNL     1     -34.685  14.841  -5.738  1.00 20.00     0.455 C 
HETATM   10  F10 UNL     1     -35.036  16.150  -5.805  1.00 20.00    -0.163 F 
HETATM   11  F11 UNL     1     -35.712  14.131  -6.268  1.00 20.00    -0.163 F 
HETATM   12  F12 UNL     1     -33.623  14.677  -6.567  1.00 20.00    -0.163 F 
ENDBRANCH   7   9
ENDBRANCH   4   7
TORSDOF 2
ENDMDL
MODEL 5
REMARK VINA RESULT:      -5.6     11.109     11.594
REMARK  2 active torsions:
REMARK  status: ('A' for Active; 'I' for Inactive)
REMARK    1  A    between atoms: C4_4  and  C5_5 
REMARK    2  A    between atoms: C5_5  and  C8_8 
ROOT
HETATM    1  C1  UNL     1     -33.813  17.475  -1.402  1.00 20.00    -0.027 A 
HETATM    2  C2  UNL     1     -32.845  17.220  -2.292  1.00 20.00    -0.026 A 
HETATM    3  C3  UNL     1     -35.273  15.727  -2.480  1.00 20.00    -0.012 A 
HETATM    4  C4  UNL     1     -34.298  15.479  -3.367  1.00 20.00    -0.003 A 
HETATM    5  C6  UNL     1     -35.134  16.758  -1.395  1.00 20.00     0.054 A 
HETATM    6  C7  UNL     1     -32.976  16.189  -3.376  1.00 20.00     0.069 A 
ENDROOT
BRANCH   4   7
HETATM    7  C5  UNL     1     -34.543  14.452  -4.384  1.00 20.00     0.261 C 
HETATM    8  O9  UNL     1     -34.628  13.263  -4.071  1.00 20.00    -0.283 OA
BRANCH   7   9
HETATM    9  C8  UNL     1     -34.682  14.912  -5.807  1.00 20.00     0.455 C 
HETATM   10  F10 UNL     1     -35.552  14.148  -6.515  1.00 20.00    -0.163 F 
HETATM   11  F11 UNL     1     -33.498  14.872  -6.467  1.00 20.00    -0.163 F 
HETATM   12  F12 UNL     1     -35.132  16.190  -5.882  1.00 20.00    -0.163 F 
ENDBRANCH   7   9
ENDBRANCH   4   7
TORSDOF 2
ENDMDL
MODEL 6
REMARK VINA RESULT:      -5.5      1.489      1.778
REMARK  2 active torsions:
REMARK  status: ('A' for Active; 'I' for Inactive)
REMARK    1  A    between atoms: C4_4  and  C5_5 
REMARK    2  A    between atoms: C5_5  and  C8_8 
ROOT
HETATM    1  C1  UNL     1     -34.855   5.763   6.332  1.00 20.00    -0.027 A 
HETATM    2  C2  UNL     1     -35.108   4.797   5.438  1.00 20.00    -0.026 A 
HETATM    3  C3  UNL     1     -33.390   6.941   4.654  1.00 20.00    -0.012 A 
HETATM    4  C4  UNL     1     -33.649   5.970   3.765  1.00 20.00    -0.003 A 
HETATM    5  C6  UNL     1     -33.970   6.941   6.041  1.00 20.00     0.054 A 
HETATM    6  C7  UNL     1     -34.535   4.793   4.049  1.00 20.00     0.069 A 
ENDROOT
BRANCH   4   7
HETATM    7  C5  UNL     1     -33.029   6.071   2.441  1.00 20.00     0.261 C 
HETATM    8  O9  UNL     1     -33.003   5.101   1.682  1.00 20.00    -0.283 OA
BRANCH   7   9
HETATM    9  C8  UNL     1     -32.433   7.396   2.060  1.00 20.00     0.455 C 
HETATM   10  F10 UNL     1     -33.377   8.352   1.868  1.00 20.00    -0.163 F 
HETATM   11  F11 UNL     1     -31.717   7.315   0.911  1.00 20.00    -0.163 F 
HETATM   12  F12 UNL     1     -31.591   7.864   3.016  1.00 20.00    -0.163 F 
ENDBRANCH   7   9
ENDBRANCH   4   7
TORSDOF 2
ENDMDL
MODEL 7
REMARK VINA RESULT:      -4.9     11.049     11.624
REMARK  2 active torsions:
REMARK  status: ('A' for Active; 'I' for Inactive)
REMARK    1  A    between atoms: C4_4  and  C5_5 
REMARK    2  A    between atoms: C5_5  and  C8_8 
ROOT
HETATM    1  C1  UNL     1     -34.086  17.699  -0.268  1.00 20.00    -0.027 A 
HETATM    2  C2  UNL     1     -35.133  16.979  -0.692  1.00 20.00    -0.026 A 
HETATM    3  C3  UNL     1     -32.977  17.423  -2.513  1.00 20.00    -0.012 A 
HETATM    4  C4  UNL     1     -34.030  16.703  -2.930  1.00 20.00    -0.003 A 
HETATM    5  C6  UNL     1     -32.893  18.003  -1.129  1.00 20.00     0.054 A 
HETATM    6  C7  UNL     1     -35.225  16.400  -2.076  1.00 20.00     0.069 A 
ENDROOT
BRANCH   4   7
HETATM    7  C5  UNL     1     -34.005  16.186  -4.301  1.00 20.00     0.261 C 
HETATM    8  O9  UNL     1     -34.422  16.867  -5.239  1.00 20.00    -0.283 OA
BRANCH   7   9
HETATM    9  C8  UNL     1     -33.454  14.803  -4.505  1.00 20.00     0.455 C 
HETATM   10  F10 UNL     1     -34.181  13.857  -3.859  1.00 20.00    -0.163 F 
HETATM   11  F11 UNL     1     -32.180  14.696  -4.052  1.00 20.00    -0.163 F 
HETATM   12  F12 UNL     1     -33.437  14.455  -5.817  1.00 20.00    -0.163 F 
ENDBRANCH   7   9
ENDBRANCH   4   7
TORSDOF 2
ENDMDL
MODEL 8
REMARK VINA RESULT:      -4.8     11.677     12.216
REMARK  2 active torsions:
REMARK  status: ('A' for Active; 'I' for Inactive)
REMARK    1  A    between atoms: C4_4  and  C5_5 
REMARK    2  A    between atoms: C5_5  and  C8_8 
ROOT
HETATM    1  C1  UNL     1     -33.132  15.593  -3.495  1.00 20.00    -0.027 A 
HETATM    2  C2  UNL     1     -34.041  16.018  -2.607  1.00 20.00    -0.026 A 
HETATM    3  C3  UNL     1     -34.971  14.643  -4.932  1.00 20.00    -0.012 A 
HETATM    4  C4  UNL     1     -35.874  15.073  -4.037  1.00 20.00    -0.003 A 
HETATM    5  C6  UNL     1     -33.494  14.860  -4.755  1.00 20.00     0.054 A 
HETATM    6  C7  UNL     1     -35.519  15.809  -2.779  1.00 20.00     0.069 A 
ENDROOT
BRANCH   4   7
HETATM    7  C5  UNL     1     -37.289  14.806  -4.312  1.00 20.00     0.261 C 
HETATM    8  O9  UNL     1     -37.715  13.651  -4.360  1.00 20.00    -0.283 OA
BRANCH   7   9
HETATM    9  C8  UNL     1     -38.183  15.994  -4.529  1.00 20.00     0.455 C 
HETATM   10  F10 UNL     1     -39.259  15.696  -5.300  1.00 20.00    -0.163 F 
HETATM   11  F11 UNL     1     -37.529  17.011  -5.144  1.00 20.00    -0.163 F 
HETATM   12  F12 UNL     1     -38.663  16.485  -3.359  1.00 20.00    -0.163 F 
ENDBRANCH   7   9
ENDBRANCH   4   7
TORSDOF 2
ENDMDL
MODEL 9
REMARK VINA RESULT:      -4.7     10.713     11.476
REMARK  2 active torsions:
REMARK  status: ('A' for Active; 'I' for Inactive)
REMARK    1  A    between atoms: C4_4  and  C5_5 
REMARK    2  A    between atoms: C5_5  and  C8_8 
ROOT
HETATM    1  C1  UNL     1     -33.213  17.742  -1.254  1.00 20.00    -0.027 A 
HETATM    2  C2  UNL     1     -32.798  17.360  -2.469  1.00 20.00    -0.026 A 
HETATM    3  C3  UNL     1     -35.395  16.534  -1.611  1.00 20.00    -0.012 A 
HETATM    4  C4  UNL     1     -34.972  16.156  -2.827  1.00 20.00    -0.003 A 
HETATM    5  C6  UNL     1     -34.554  17.371  -0.688  1.00 20.00     0.054 A 
HETATM    6  C7  UNL     1     -33.632  16.519  -3.395  1.00 20.00     0.069 A 
ENDROOT
BRANCH   4   7
HETATM    7  C5  UNL     1     -35.875  15.340  -3.643  1.00 20.00     0.261 C 
HETATM    8  O9  UNL     1     -37.057  15.658  -3.785  1.00 20.00    -0.283 OA
BRANCH   7   9
HETATM    9  C8  UNL     1     -35.299  14.111  -4.288  1.00 20.00     0.455 C 
HETATM   10  F10 UNL     1     -34.830  14.355  -5.537  1.00 20.00    -0.163 F 
HETATM   11  F11 UNL     1     -36.221  13.122  -4.401  1.00 20.00    -0.163 F 
HETATM   12  F12 UNL     1     -34.263  13.604  -3.572  1.00 20.00    -0.163 F 
ENDBRANCH   7   9
ENDBRANCH   4   7
TORSDOF 2
ENDMDL
