MODEL 1
REMARK VINA RESULT:      -5.6      0.000      0.000
REMARK  2 active torsions:
REMARK  status: ('A' for Active; 'I' for Inactive)
REMARK    1  A    between atoms: C3_3  and  C9_9 
REMARK    2  A    between atoms: C9_9  and  N10_10 
ROOT
HETATM    1  C1  UNL     1     -33.576   6.085   3.574  1.00 20.00     0.040 C 
HETATM    2  C4  UNL     1     -33.196   7.013   4.706  1.00 20.00     0.057 C 
HETATM    3  C5  UNL     1     -34.314   7.041   5.738  1.00 20.00     0.006 C 
HETATM    4  C6  UNL     1     -34.622   5.651   6.305  1.00 20.00     0.004 C 
HETATM    5  C7  UNL     1     -34.353   4.511   5.320  1.00 20.00     0.043 C 
HETATM    6  C8  UNL     1     -34.513   4.940   3.869  1.00 20.00     0.217 C 
HETATM    7  N10 UNL     1     -33.117   6.253   2.377  1.00 20.00    -0.292 NA
HETATM    8  F11 UNL     1     -34.246   3.869   3.073  1.00 20.00    -0.243 F 
ENDROOT
BRANCH   7   9
HETATM    9  C9  UNL     1     -32.222   7.392   2.232  1.00 20.00     0.175 C 
BRANCH   9  10
HETATM   10  C3  UNL     1     -32.424   8.019   0.890  1.00 20.00    -0.015 C 
HETATM   11  C2  UNL     1     -33.006   9.209   0.701  1.00 20.00     0.008 C 
ENDBRANCH   9  10
ENDBRANCH   7   9
TORSDOF 2
ENDMDL
MODEL 2
REMARK VINA RESULT:      -5.4      1.716      2.265
REMARK  2 active torsions:
REMARK  status: ('A' for Active; 'I' for Inactive)
REMARK    1  A    between atoms: C3_3  and  C9_9 
REMARK    2  A    between atoms: C9_9  and  N10_10 
ROOT
HETATM    1  C1  UNL     1     -33.218   6.575   3.842  1.00 20.00     0.040 C 
HETATM    2  C4  UNL     1     -34.108   5.552   3.173  1.00 20.00     0.057 C 
HETATM    3  C5  UNL     1     -34.340   4.382   4.119  1.00 20.00     0.006 C 
HETATM    4  C6  UNL     1     -34.977   4.818   5.443  1.00 20.00     0.004 C 
HETATM    5  C7  UNL     1     -34.603   6.241   5.866  1.00 20.00     0.043 C 
HETATM    6  C8  UNL     1     -33.238   6.668   5.348  1.00 20.00     0.217 C 
HETATM    7  N10 UNL     1     -32.452   7.359   3.156  1.00 20.00    -0.292 NA
HETATM    8  F11 UNL     1     -33.000   7.941   5.765  1.00 20.00    -0.243 F 
ENDROOT
BRANCH   7   9
HETATM    9  C9  UNL     1     -32.532   7.166   1.715  1.00 20.00     0.175 C 
BRANCH   9  10
HETATM   10  C3  UNL     1     -32.591   8.495   1.035  1.00 20.00    -0.015 C 
HETATM   11  C2  UNL     1     -33.294   8.736  -0.077  1.00 20.00     0.008 C 
ENDBRANCH   9  10
ENDBRANCH   7   9
TORSDOF 2
ENDMDL
MODEL 3
REMARK VINA RESULT:      -4.5     11.229     12.079
REMARK  2 active torsions:
REMARK  status: ('A' for Active; 'I' for Inactive)
REMARK    1  A    between atoms: C3_3  and  C9_9 
REMARK    2  A    between atoms: C9_9  and  N10_10 
ROOT
HETATM    1  C1  UNL     1     -33.698  16.112  -2.985  1.00 20.00     0.040 C 
HETATM    2  C4  UNL     1     -35.060  16.143  -2.330  1.00 20.00     0.057 C 
HETATM    3  C5  UNL     1     -36.121  15.729  -3.341  1.00 20.00     0.006 C 
HETATM    4  C6  UNL     1     -35.868  14.331  -3.915  1.00 20.00     0.004 C 
HETATM    5  C7  UNL     1     -34.386  13.950  -3.978  1.00 20.00     0.043 C 
HETATM    6  C8  UNL     1     -33.476  15.159  -4.134  1.00 20.00     0.217 C 
HETATM    7  N10 UNL     1     -32.735  16.874  -2.582  1.00 20.00    -0.292 NA
HETATM    8  F11 UNL     1     -32.187  14.725  -4.171  1.00 20.00    -0.243 F 
ENDROOT
BRANCH   7   9
HETATM    9  C9  UNL     1     -33.082  17.741  -1.465  1.00 20.00     0.175 C 
BRANCH   9  10
HETATM   10  C3  UNL     1     -31.910  18.597  -1.113  1.00 20.00    -0.015 C 
HETATM   11  C2  UNL     1     -31.055  18.324  -0.121  1.00 20.00     0.008 C 
ENDBRANCH   9  10
ENDBRANCH   7   9
TORSDOF 2
ENDMDL
MODEL 4
REMARK VINA RESULT:      -4.4     15.839     16.894
REMARK  2 active torsions:
REMARK  status: ('A' for Active; 'I' for Inactive)
REMARK    1  A    between atoms: C3_3  and  C9_9 
REMARK    2  A    between atoms: C9_9  and  N10_10 
ROOT
HETATM    1  C1  UNL     1     -24.448  18.250  10.979  1.00 20.00     0.040 C 
HETATM    2  C4  UNL     1     -25.006  18.786   9.680  1.00 20.00     0.057 C 
HETATM    3  C5  UNL     1     -23.862  19.202   8.766  1.00 20.00     0.006 C 
HETATM    4  C6  UNL     1     -22.904  18.044   8.465  1.00 20.00     0.004 C 
HETATM    5  C7  UNL     1     -22.809  17.014   9.594  1.00 20.00     0.043 C 
HETATM    6  C8  UNL     1     -23.077  17.619  10.964  1.00 20.00     0.217 C 
HETATM    7  N10 UNL     1     -25.115  18.321  12.084  1.00 20.00    -0.292 NA
HETATM    8  F11 UNL     1     -22.981  16.632  11.895  1.00 20.00    -0.243 F 
ENDROOT
BRANCH   7   9
HETATM    9  C9  UNL     1     -26.422  18.949  11.957  1.00 20.00     0.175 C 
BRANCH   9  10
HETATM   10  C3  UNL     1     -27.487  17.970  12.332  1.00 20.00    -0.015 C 
HETATM   11  C2  UNL     1     -28.769  18.081  11.965  1.00 20.00     0.008 C 
ENDBRANCH   9  10
ENDBRANCH   7   9
TORSDOF 2
ENDMDL
MODEL 5
REMARK VINA RESULT:      -4.3     11.649     12.407
REMARK  2 active torsions:
REMARK  status: ('A' for Active; 'I' for Inactive)
REMARK    1  A    between atoms: C3_3  and  C9_9 
REMARK    2  A    between atoms: C9_9  and  N10_10 
ROOT
HETATM    1  C1  UNL     1     -33.745  17.014  -1.930  1.00 20.00     0.040 C 
HETATM    2  C4  UNL     1     -33.029  16.756  -3.237  1.00 20.00     0.057 C 
HETATM    3  C5  UNL     1     -33.324  15.339  -3.709  1.00 20.00     0.006 C 
HETATM    4  C6  UNL     1     -34.824  15.086  -3.896  1.00 20.00     0.004 C 
HETATM    5  C7  UNL     1     -35.709  15.912  -2.959  1.00 20.00     0.043 C 
HETATM    6  C8  UNL     1     -35.017  16.253  -1.647  1.00 20.00     0.217 C 
HETATM    7  N10 UNL     1     -33.293  17.863  -1.066  1.00 20.00    -0.292 NA
HETATM    8  F11 UNL     1     -35.873  16.991  -0.890  1.00 20.00    -0.243 F 
ENDROOT
BRANCH   7   9
HETATM    9  C9  UNL     1     -32.062  18.528  -1.465  1.00 20.00     0.175 C 
BRANCH   9  10
HETATM   10  C3  UNL     1     -31.125  18.586  -0.303  1.00 20.00    -0.015 C 
HETATM   11  C2  UNL     1     -31.466  18.264   0.950  1.00 20.00     0.008 C 
ENDBRANCH   9  10
ENDBRANCH   7   9
TORSDOF 2
ENDMDL
MODEL 6
REMARK VINA RESULT:      -4.2     11.268     12.237
REMARK  2 active torsions:
REMARK  status: ('A' for Active; 'I' for Inactive)
REMARK    1  A    between atoms: C3_3  and  C9_9 
REMARK    2  A    between atoms: C9_9  and  N10_10 
ROOT
HETATM    1  C1  UNL     1     -34.416  16.191  -2.514  1.00 20.00     0.040 C 
HETATM    2  C4  UNL     1     -33.178  16.424  -3.349  1.00 20.00     0.057 C 
HETATM    3  C5  UNL     1     -32.850  17.911  -3.371  1.00 20.00     0.006 C 
HETATM    4  C6  UNL     1     -32.628  18.481  -1.966  1.00 20.00     0.004 C 
HETATM    5  C7  UNL     1     -33.430  17.765  -0.877  1.00 20.00     0.043 C 
HETATM    6  C8  UNL     1     -34.725  17.163  -1.402  1.00 20.00     0.217 C 
HETATM    7  N10 UNL     1     -35.201  15.187  -2.732  1.00 20.00    -0.292 NA
HETATM    8  F11 UNL     1     -35.361  16.544  -0.371  1.00 20.00    -0.243 F 
ENDROOT
BRANCH   7   9
HETATM    9  C9  UNL     1     -34.786  14.327  -3.830  1.00 20.00     0.175 C 
BRANCH   9  10
HETATM   10  C3  UNL     1     -35.992  13.815  -4.549  1.00 20.00    -0.015 C 
HETATM   11  C2  UNL     1     -37.222  14.320  -4.400  1.00 20.00     0.008 C 
ENDBRANCH   9  10
ENDBRANCH   7   9
TORSDOF 2
ENDMDL
MODEL 7
REMARK VINA RESULT:      -4.1     11.665     12.443
REMARK  2 active torsions:
REMARK  status: ('A' for Active; 'I' for Inactive)
REMARK    1  A    between atoms: C3_3  and  C9_9 
REMARK    2  A    between atoms: C9_9  and  N10_10 
ROOT
HETATM    1  C1  UNL     1     -32.803  18.176  -0.143  1.00 20.00     0.040 C 
HETATM    2  C4  UNL     1     -31.303  18.286  -0.300  1.00 20.00     0.057 C 
HETATM    3  C5  UNL     1     -30.753  19.262   0.732  1.00 20.00     0.006 C 
HETATM    4  C6  UNL     1     -31.083  18.842   2.168  1.00 20.00     0.004 C 
HETATM    5  C7  UNL     1     -32.393  18.061   2.296  1.00 20.00     0.043 C 
HETATM    6  C8  UNL     1     -33.402  18.428   1.218  1.00 20.00     0.217 C 
HETATM    7  N10 UNL     1     -33.567  17.873  -1.141  1.00 20.00    -0.292 NA
HETATM    8  F11 UNL     1     -34.523  17.680   1.407  1.00 20.00    -0.243 F 
ENDROOT
BRANCH   7   9
HETATM    9  C9  UNL     1     -32.860  17.653  -2.394  1.00 20.00     0.175 C 
BRANCH   9  10
HETATM   10  C3  UNL     1     -33.264  16.336  -2.972  1.00 20.00    -0.015 C 
HETATM   11  C2  UNL     1     -34.430  15.731  -2.713  1.00 20.00     0.008 C 
ENDBRANCH   9  10
ENDBRANCH   7   9
TORSDOF 2
ENDMDL
MODEL 8
REMARK VINA RESULT:      -3.9      9.769     10.607
REMARK  2 active torsions:
REMARK  status: ('A' for Active; 'I' for Inactive)
REMARK    1  A    between atoms: C3_3  and  C9_9 
REMARK    2  A    between atoms: C9_9  and  N10_10 
ROOT
HETATM    1  C1  UNL     1     -42.764   5.955  -0.630  1.00 20.00     0.040 C 
HETATM    2  C4  UNL     1     -42.958   7.067  -1.636  1.00 20.00     0.057 C 
HETATM    3  C5  UNL     1     -43.306   8.358  -0.908  1.00 20.00     0.006 C 
HETATM    4  C6  UNL     1     -42.229   8.769   0.101  1.00 20.00     0.004 C 
HETATM    5  C7  UNL     1     -41.468   7.587   0.706  1.00 20.00     0.043 C 
HETATM    6  C8  UNL     1     -42.304   6.317   0.760  1.00 20.00     0.217 C 
HETATM    7  N10 UNL     1     -42.982   4.718  -0.938  1.00 20.00    -0.292 NA
HETATM    8  F11 UNL     1     -41.545   5.326   1.301  1.00 20.00    -0.243 F 
ENDROOT
BRANCH   7   9
HETATM    9  C9  UNL     1     -43.417   4.508  -2.311  1.00 20.00     0.175 C 
BRANCH   9  10
HETATM   10  C3  UNL     1     -43.078   3.117  -2.737  1.00 20.00    -0.015 C 
HETATM   11  C2  UNL     1     -41.998   2.798  -3.460  1.00 20.00     0.008 C 
ENDBRANCH   9  10
ENDBRANCH   7   9
TORSDOF 2
ENDMDL
MODEL 9
REMARK VINA RESULT:      -3.9     11.628     12.502
REMARK  2 active torsions:
REMARK  status: ('A' for Active; 'I' for Inactive)
REMARK    1  A    between atoms: C3_3  and  C9_9 
REMARK    2  A    between atoms: C9_9  and  N10_10 
ROOT
HETATM    1  C1  UNL     1     -34.517  15.157  -4.359  1.00 20.00     0.040 C 
HETATM    2  C4  UNL     1     -35.633  16.077  -3.920  1.00 20.00     0.057 C 
HETATM    3  C5  UNL     1     -35.560  16.285  -2.413  1.00 20.00     0.006 C 
HETATM    4  C6  UNL     1     -34.216  16.872  -1.969  1.00 20.00     0.004 C 
HETATM    5  C7  UNL     1     -33.043  16.474  -2.868  1.00 20.00     0.043 C 
HETATM    6  C8  UNL     1     -33.250  15.125  -3.540  1.00 20.00     0.217 C 
HETATM    7  N10 UNL     1     -34.628  14.411  -5.408  1.00 20.00    -0.292 NA
HETATM    8  F11 UNL     1     -32.167  14.863  -4.320  1.00 20.00    -0.243 F 
ENDROOT
BRANCH   7   9
HETATM    9  C9  UNL     1     -35.898  14.542  -6.107  1.00 20.00     0.175 C 
BRANCH   9  10
HETATM   10  C3  UNL     1     -35.653  14.992  -7.511  1.00 20.00    -0.015 C 
HETATM   11  C2  UNL     1     -34.532  15.598  -7.917  1.00 20.00     0.008 C 
ENDBRANCH   9  10
ENDBRANCH   7   9
TORSDOF 2
ENDMDL
