MODEL 1
REMARK VINA RESULT:      -4.8      0.000      0.000
REMARK  0 active torsions:
REMARK  status: ('A' for Active; 'I' for Inactive)
ROOT
HETATM    1  C1  UNL     1     -22.992  17.498  12.167  1.00 20.00     0.223 A 
HETATM    2  C2  UNL     1     -24.573  15.773  11.759  1.00 20.00     0.128 A 
HETATM    3  C3  UNL     1     -24.331  18.117  12.332  1.00 20.00     0.092 A 
HETATM    4  C4  UNL     1     -25.341  17.026  12.054  1.00 20.00     0.026 A 
HETATM    5  C5  UNL     1     -25.313  18.274  11.189  1.00 20.00    -0.029 A 
HETATM    6  C6  UNL     1     -26.436  19.263  11.383  1.00 20.00     0.016 C 
HETATM    7  C7  UNL     1     -24.829  18.199   9.764  1.00 20.00     0.016 C 
HETATM    8  N8  UNL     1     -23.181  16.161  11.866  1.00 20.00    -0.360 N 
HETATM    9  O9  UNL     1     -21.947  18.114  12.297  1.00 20.00    -0.273 OA
HETATM   10  H20 UNL     1     -22.414  15.515  11.711  1.00 20.00     0.162 HD
ENDROOT
TORSDOF 0
ENDMDL
MODEL 2
REMARK VINA RESULT:      -4.7     23.474     23.933
REMARK  0 active torsions:
REMARK  status: ('A' for Active; 'I' for Inactive)
ROOT
HETATM    1  C1  UNL     1     -41.379   5.485  -0.561  1.00 20.00     0.223 A 
HETATM    2  C2  UNL     1     -43.264   5.828   0.842  1.00 20.00     0.128 A 
HETATM    3  C3  UNL     1     -41.168   6.797   0.102  1.00 20.00     0.092 A 
HETATM    4  C4  UNL     1     -42.376   7.027   0.983  1.00 20.00     0.026 A 
HETATM    5  C5  UNL     1     -42.059   7.997  -0.141  1.00 20.00    -0.029 A 
HETATM    6  C6  UNL     1     -41.513   9.347   0.257  1.00 20.00     0.016 C 
HETATM    7  C7  UNL     1     -42.934   8.050  -1.368  1.00 20.00     0.016 C 
HETATM    8  N8  UNL     1     -42.571   4.964  -0.091  1.00 20.00    -0.360 N 
HETATM    9  O9  UNL     1     -40.597   5.006  -1.365  1.00 20.00    -0.273 OA
HETATM   10  H20 UNL     1     -42.938   4.066  -0.391  1.00 20.00     0.162 HD
ENDROOT
TORSDOF 0
ENDMDL
MODEL 3
REMARK VINA RESULT:      -4.7     18.574     19.639
REMARK  0 active torsions:
REMARK  status: ('A' for Active; 'I' for Inactive)
ROOT
HETATM    1  C1  UNL     1     -35.862  13.798  -4.673  1.00 20.00     0.223 A 
HETATM    2  C2  UNL     1     -35.795  15.942  -5.690  1.00 20.00     0.128 A 
HETATM    3  C3  UNL     1     -35.917  14.784  -3.564  1.00 20.00     0.092 A 
HETATM    4  C4  UNL     1     -35.856  16.151  -4.207  1.00 20.00     0.026 A 
HETATM    5  C5  UNL     1     -34.772  15.719  -3.235  1.00 20.00    -0.029 A 
HETATM    6  C6  UNL     1     -34.785  16.363  -1.870  1.00 20.00     0.016 C 
HETATM    7  C7  UNL     1     -33.383  15.414  -3.733  1.00 20.00     0.016 C 
HETATM    8  N8  UNL     1     -35.818  14.504  -5.861  1.00 20.00    -0.360 N 
HETATM    9  O9  UNL     1     -35.867  12.591  -4.499  1.00 20.00    -0.273 OA
HETATM   10  H20 UNL     1     -35.782  14.055  -6.770  1.00 20.00     0.162 HD
ENDROOT
TORSDOF 0
ENDMDL
MODEL 4
REMARK VINA RESULT:      -4.7      2.372      3.427
REMARK  0 active torsions:
REMARK  status: ('A' for Active; 'I' for Inactive)
ROOT
HETATM    1  C1  UNL     1     -22.279  17.257   8.869  1.00 20.00     0.223 A 
HETATM    2  C2  UNL     1     -23.831  19.007   9.280  1.00 20.00     0.128 A 
HETATM    3  C3  UNL     1     -23.418  16.638   9.593  1.00 20.00     0.092 A 
HETATM    4  C4  UNL     1     -24.401  17.753   9.872  1.00 20.00     0.026 A 
HETATM    5  C5  UNL     1     -23.773  16.987  11.024  1.00 20.00    -0.029 A 
HETATM    6  C6  UNL     1     -24.663  16.018  11.763  1.00 20.00     0.016 C 
HETATM    7  C7  UNL     1     -22.754  17.651  11.912  1.00 20.00     0.016 C 
HETATM    8  N8  UNL     1     -22.572  18.597   8.694  1.00 20.00    -0.360 N 
HETATM    9  O9  UNL     1     -21.293  16.635   8.512  1.00 20.00    -0.273 OA
HETATM   10  H20 UNL     1     -21.948  19.242   8.218  1.00 20.00     0.162 HD
ENDROOT
TORSDOF 0
ENDMDL
MODEL 5
REMARK VINA RESULT:      -4.6      2.005      2.940
REMARK  0 active torsions:
REMARK  status: ('A' for Active; 'I' for Inactive)
ROOT
HETATM    1  C1  UNL     1     -25.340  18.129  11.842  1.00 20.00     0.223 A 
HETATM    2  C2  UNL     1     -24.700  15.851  11.641  1.00 20.00     0.128 A 
HETATM    3  C3  UNL     1     -24.404  18.062  10.691  1.00 20.00     0.092 A 
HETATM    4  C4  UNL     1     -23.980  16.615  10.571  1.00 20.00     0.026 A 
HETATM    5  C5  UNL     1     -22.942  17.692  10.838  1.00 20.00    -0.029 A 
HETATM    6  C6  UNL     1     -22.027  18.054   9.694  1.00 20.00     0.016 C 
HETATM    7  C7  UNL     1     -22.273  17.785  12.184  1.00 20.00     0.016 C 
HETATM    8  N8  UNL     1     -25.495  16.845  12.332  1.00 20.00    -0.360 N 
HETATM    9  O9  UNL     1     -25.854  19.165  12.230  1.00 20.00    -0.273 OA
HETATM   10  H20 UNL     1     -26.094  16.623  13.121  1.00 20.00     0.162 HD
ENDROOT
TORSDOF 0
ENDMDL
MODEL 6
REMARK VINA RESULT:      -4.6      1.684      2.439
REMARK  0 active torsions:
REMARK  status: ('A' for Active; 'I' for Inactive)
ROOT
HETATM    1  C1  UNL     1     -22.971  17.528  10.070  1.00 20.00     0.223 A 
HETATM    2  C2  UNL     1     -22.282  17.745  12.332  1.00 20.00     0.128 A 
HETATM    3  C3  UNL     1     -24.152  18.033  10.815  1.00 20.00     0.092 A 
HETATM    4  C4  UNL     1     -23.722  18.155  12.260  1.00 20.00     0.026 A 
HETATM    5  C5  UNL     1     -24.861  17.224  11.882  1.00 20.00    -0.029 A 
HETATM    6  C6  UNL     1     -26.254  17.664  12.260  1.00 20.00     0.016 C 
HETATM    7  C7  UNL     1     -24.673  15.730  11.944  1.00 20.00     0.016 C 
HETATM    8  N8  UNL     1     -21.928  17.404  10.970  1.00 20.00    -0.360 N 
HETATM    9  O9  UNL     1     -22.982  17.292   8.873  1.00 20.00    -0.273 OA
HETATM   10  H20 UNL     1     -21.003  17.080  10.704  1.00 20.00     0.162 HD
ENDROOT
TORSDOF 0
ENDMDL
MODEL 7
REMARK VINA RESULT:      -4.5     18.813     19.583
REMARK  0 active torsions:
REMARK  status: ('A' for Active; 'I' for Inactive)
ROOT
HETATM    1  C1  UNL     1     -36.647  14.452  -3.992  1.00 20.00     0.223 A 
HETATM    2  C2  UNL     1     -35.816  16.352  -2.835  1.00 20.00     0.128 A 
HETATM    3  C3  UNL     1     -35.201  14.200  -3.768  1.00 20.00     0.092 A 
HETATM    4  C4  UNL     1     -34.664  15.417  -3.047  1.00 20.00     0.026 A 
HETATM    5  C5  UNL     1     -34.110  15.034  -4.408  1.00 20.00    -0.029 A 
HETATM    6  C6  UNL     1     -32.723  14.440  -4.437  1.00 20.00     0.016 C 
HETATM    7  C7  UNL     1     -34.419  15.877  -5.619  1.00 20.00     0.016 C 
HETATM    8  N8  UNL     1     -36.953  15.675  -3.423  1.00 20.00    -0.360 N 
HETATM    9  O9  UNL     1     -37.382  13.673  -4.575  1.00 20.00    -0.273 OA
HETATM   10  H20 UNL     1     -37.887  16.074  -3.437  1.00 20.00     0.162 HD
ENDROOT
TORSDOF 0
ENDMDL
MODEL 8
REMARK VINA RESULT:      -4.4      1.708      2.484
REMARK  0 active torsions:
REMARK  status: ('A' for Active; 'I' for Inactive)
ROOT
HETATM    1  C1  UNL     1     -24.139  16.163  11.462  1.00 20.00     0.223 A 
HETATM    2  C2  UNL     1     -22.502  17.865  11.712  1.00 20.00     0.128 A 
HETATM    3  C3  UNL     1     -24.286  17.055  10.284  1.00 20.00     0.092 A 
HETATM    4  C4  UNL     1     -23.257  18.151  10.449  1.00 20.00     0.026 A 
HETATM    5  C5  UNL     1     -24.734  18.497  10.392  1.00 20.00    -0.029 A 
HETATM    6  C6  UNL     1     -25.232  19.156   9.129  1.00 20.00     0.016 C 
HETATM    7  C7  UNL     1     -25.451  18.973  11.630  1.00 20.00     0.016 C 
HETATM    8  N8  UNL     1     -23.098  16.651  12.231  1.00 20.00    -0.360 N 
HETATM    9  O9  UNL     1     -24.840  15.184  11.655  1.00 20.00    -0.273 OA
HETATM   10  H20 UNL     1     -22.794  16.211  13.094  1.00 20.00     0.162 HD
ENDROOT
TORSDOF 0
ENDMDL
MODEL 9
REMARK VINA RESULT:      -4.2      3.065      3.874
REMARK  0 active torsions:
REMARK  status: ('A' for Active; 'I' for Inactive)
ROOT
HETATM    1  C1  UNL     1     -23.310  18.341   8.038  1.00 20.00     0.223 A 
HETATM    2  C2  UNL     1     -21.293  17.410   8.878  1.00 20.00     0.128 A 
HETATM    3  C3  UNL     1     -23.270  18.677   9.484  1.00 20.00     0.092 A 
HETATM    4  C4  UNL     1     -21.995  18.070  10.027  1.00 20.00     0.026 A 
HETATM    5  C5  UNL     1     -23.341  17.630  10.576  1.00 20.00    -0.029 A 
HETATM    6  C6  UNL     1     -23.701  18.109  11.961  1.00 20.00     0.016 C 
HETATM    7  C7  UNL     1     -23.874  16.255  10.268  1.00 20.00     0.016 C 
HETATM    8  N8  UNL     1     -22.154  17.642   7.738  1.00 20.00    -0.360 N 
HETATM    9  O9  UNL     1     -24.226  18.661   7.299  1.00 20.00    -0.273 OA
HETATM   10  H20 UNL     1     -21.940  17.302   6.805  1.00 20.00     0.162 HD
ENDROOT
TORSDOF 0
ENDMDL
