MODEL 1
REMARK VINA RESULT:      -5.1      0.000      0.000
REMARK  1 active torsions:
REMARK  status: ('A' for Active; 'I' for Inactive)
REMARK    1  A    between atoms: C1_1  and  C3_3 
ROOT
HETATM    1  C1  UNL     1     -33.418   6.104   3.207  1.00 20.00     0.163 C 
HETATM    2  C2  UNL     1     -34.081   5.967   4.367  1.00 20.00    -0.045 C 
HETATM    3  C4  UNL     1     -35.053   4.869   4.697  1.00 20.00     0.046 C 
HETATM    4  C5  UNL     1     -33.872   6.952   5.488  1.00 20.00     0.046 C 
HETATM    5  F8  UNL     1     -33.610   5.210   2.212  1.00 20.00    -0.202 F 
ENDROOT
BRANCH   1   6
HETATM    6  C3  UNL     1     -32.451   7.178   2.847  1.00 20.00     0.183 C 
HETATM    7  C6  UNL     1     -32.634   7.825   1.499  1.00 20.00     0.099 C 
HETATM    8  O7  UNL     1     -31.520   7.496   3.581  1.00 20.00    -0.290 OA
ENDBRANCH   1   6
TORSDOF 1
ENDMDL
MODEL 2
REMARK VINA RESULT:      -4.8      2.287      3.866
REMARK  1 active torsions:
REMARK  status: ('A' for Active; 'I' for Inactive)
REMARK    1  A    between atoms: C1_1  and  C3_3 
ROOT
HETATM    1  C1  UNL     1     -33.873   6.277   4.091  1.00 20.00     0.163 C 
HETATM    2  C2  UNL     1     -33.185   6.157   2.943  1.00 20.00    -0.045 C 
HETATM    3  C4  UNL     1     -32.424   7.259   2.258  1.00 20.00     0.046 C 
HETATM    4  C5  UNL     1     -33.112   4.832   2.230  1.00 20.00     0.046 C 
HETATM    5  F8  UNL     1     -33.926   7.471   4.723  1.00 20.00    -0.202 F 
ENDROOT
BRANCH   1   6
HETATM    6  C3  UNL     1     -34.638   5.210   4.794  1.00 20.00     0.183 C 
HETATM    7  C6  UNL     1     -34.772   5.351   6.288  1.00 20.00     0.099 C 
HETATM    8  O7  UNL     1     -35.098   4.236   4.206  1.00 20.00    -0.290 OA
ENDBRANCH   1   6
TORSDOF 1
ENDMDL
MODEL 3
REMARK VINA RESULT:      -4.8      1.798      2.139
REMARK  1 active torsions:
REMARK  status: ('A' for Active; 'I' for Inactive)
REMARK    1  A    between atoms: C1_1  and  C3_3 
ROOT
HETATM    1  C1  UNL     1     -33.161   6.677   4.079  1.00 20.00     0.163 C 
HETATM    2  C2  UNL     1     -34.142   6.180   4.851  1.00 20.00    -0.045 C 
HETATM    3  C4  UNL     1     -34.382   6.526   6.295  1.00 20.00     0.046 C 
HETATM    4  C5  UNL     1     -35.136   5.199   4.286  1.00 20.00     0.046 C 
HETATM    5  F8  UNL     1     -32.279   7.561   4.597  1.00 20.00    -0.202 F 
ENDROOT
BRANCH   1   6
HETATM    6  C3  UNL     1     -32.895   6.357   2.649  1.00 20.00     0.183 C 
HETATM    7  C6  UNL     1     -32.561   7.518   1.750  1.00 20.00     0.099 C 
HETATM    8  O7  UNL     1     -32.986   5.217   2.204  1.00 20.00    -0.290 OA
ENDBRANCH   1   6
TORSDOF 1
ENDMDL
MODEL 4
REMARK VINA RESULT:      -4.3     11.418     11.733
REMARK  1 active torsions:
REMARK  status: ('A' for Active; 'I' for Inactive)
REMARK    1  A    between atoms: C1_1  and  C3_3 
ROOT
HETATM    1  C1  UNL     1     -35.367  14.909  -3.774  1.00 20.00     0.163 C 
HETATM    2  C2  UNL     1     -34.130  15.341  -3.476  1.00 20.00    -0.045 C 
HETATM    3  C4  UNL     1     -33.786  16.361  -2.426  1.00 20.00     0.046 C 
HETATM    4  C5  UNL     1     -32.931  14.789  -4.203  1.00 20.00     0.046 C 
HETATM    5  F8  UNL     1     -36.433  15.409  -3.109  1.00 20.00    -0.202 F 
ENDROOT
BRANCH   1   6
HETATM    6  C3  UNL     1     -35.742  13.903  -4.806  1.00 20.00     0.183 C 
HETATM    7  C6  UNL     1     -35.934  14.417  -6.209  1.00 20.00     0.099 C 
HETATM    8  O7  UNL     1     -35.935  12.723  -4.532  1.00 20.00    -0.290 OA
ENDBRANCH   1   6
TORSDOF 1
ENDMDL
MODEL 5
REMARK VINA RESULT:      -4.3     10.982     11.485
REMARK  1 active torsions:
REMARK  status: ('A' for Active; 'I' for Inactive)
REMARK    1  A    between atoms: C1_1  and  C3_3 
ROOT
HETATM    1  C1  UNL     1     -34.009  14.811  -4.011  1.00 20.00     0.163 C 
HETATM    2  C2  UNL     1     -33.997  15.769  -3.068  1.00 20.00    -0.045 C 
HETATM    3  C4  UNL     1     -32.899  16.773  -2.852  1.00 20.00     0.046 C 
HETATM    4  C5  UNL     1     -35.157  15.920  -2.118  1.00 20.00     0.046 C 
HETATM    5  F8  UNL     1     -32.964  14.690  -4.860  1.00 20.00    -0.202 F 
ENDROOT
BRANCH   1   6
HETATM    6  C3  UNL     1     -35.077  13.802  -4.251  1.00 20.00     0.183 C 
HETATM    7  C6  UNL     1     -36.356  14.307  -4.866  1.00 20.00     0.099 C 
HETATM    8  O7  UNL     1     -34.952  12.625  -3.927  1.00 20.00    -0.290 OA
ENDBRANCH   1   6
TORSDOF 1
ENDMDL
MODEL 6
REMARK VINA RESULT:      -4.1     11.197     11.557
REMARK  1 active torsions:
REMARK  status: ('A' for Active; 'I' for Inactive)
REMARK    1  A    between atoms: C1_1  and  C3_3 
ROOT
HETATM    1  C1  UNL     1     -34.715  15.136  -3.413  1.00 20.00     0.163 C 
HETATM    2  C2  UNL     1     -34.354  16.091  -2.540  1.00 20.00    -0.045 C 
HETATM    3  C4  UNL     1     -35.180  16.579  -1.382  1.00 20.00     0.046 C 
HETATM    4  C5  UNL     1     -33.012  16.765  -2.657  1.00 20.00     0.046 C 
HETATM    5  F8  UNL     1     -35.921  14.535  -3.292  1.00 20.00    -0.202 F 
ENDROOT
BRANCH   1   6
HETATM    6  C3  UNL     1     -33.924  14.630  -4.568  1.00 20.00     0.183 C 
HETATM    7  C6  UNL     1     -34.219  15.248  -5.910  1.00 20.00     0.099 C 
HETATM    8  O7  UNL     1     -33.105  13.723  -4.456  1.00 20.00    -0.290 OA
ENDBRANCH   1   6
TORSDOF 1
ENDMDL
MODEL 7
REMARK VINA RESULT:      -4.1     15.627     16.093
REMARK  1 active torsions:
REMARK  status: ('A' for Active; 'I' for Inactive)
REMARK    1  A    between atoms: C1_1  and  C3_3 
ROOT
HETATM    1  C1  UNL     1     -23.523  17.339   9.671  1.00 20.00     0.163 C 
HETATM    2  C2  UNL     1     -24.333  17.198  10.734  1.00 20.00    -0.045 C 
HETATM    3  C4  UNL     1     -24.553  15.926  11.506  1.00 20.00     0.046 C 
HETATM    4  C5  UNL     1     -25.108  18.375  11.266  1.00 20.00     0.046 C 
HETATM    5  F8  UNL     1     -22.829  16.275   9.208  1.00 20.00    -0.202 F 
ENDROOT
BRANCH   1   6
HETATM    6  C3  UNL     1     -23.283  18.580   8.884  1.00 20.00     0.183 C 
HETATM    7  C6  UNL     1     -24.319  18.933   7.850  1.00 20.00     0.099 C 
HETATM    8  O7  UNL     1     -22.273  19.262   9.028  1.00 20.00    -0.290 OA
ENDBRANCH   1   6
TORSDOF 1
ENDMDL
MODEL 8
REMARK VINA RESULT:      -4.1      1.919      3.282
REMARK  1 active torsions:
REMARK  status: ('A' for Active; 'I' for Inactive)
REMARK    1  A    between atoms: C1_1  and  C3_3 
ROOT
HETATM    1  C1  UNL     1     -33.678   5.474   2.914  1.00 20.00     0.163 C 
HETATM    2  C2  UNL     1     -33.029   6.637   3.090  1.00 20.00    -0.045 C 
HETATM    3  C4  UNL     1     -32.377   7.450   2.007  1.00 20.00     0.046 C 
HETATM    4  C5  UNL     1     -32.920   7.251   4.462  1.00 20.00     0.046 C 
HETATM    5  F8  UNL     1     -33.774   4.936   1.677  1.00 20.00    -0.202 F 
ENDROOT
BRANCH   1   6
HETATM    6  C3  UNL     1     -34.334   4.644   3.963  1.00 20.00     0.183 C 
HETATM    7  C6  UNL     1     -35.303   5.352   4.873  1.00 20.00     0.099 C 
HETATM    8  O7  UNL     1     -34.072   3.456   4.119  1.00 20.00    -0.290 OA
ENDBRANCH   1   6
TORSDOF 1
ENDMDL
MODEL 9
REMARK VINA RESULT:      -4.0     15.928     16.740
REMARK  1 active torsions:
REMARK  status: ('A' for Active; 'I' for Inactive)
REMARK    1  A    between atoms: C1_1  and  C3_3 
ROOT
HETATM    1  C1  UNL     1     -24.208  17.754  10.591  1.00 20.00     0.163 C 
HETATM    2  C2  UNL     1     -22.890  17.792  10.849  1.00 20.00    -0.045 C 
HETATM    3  C4  UNL     1     -21.798  17.907   9.822  1.00 20.00     0.046 C 
HETATM    4  C5  UNL     1     -22.388  17.738  12.269  1.00 20.00     0.046 C 
HETATM    5  F8  UNL     1     -24.646  17.809   9.312  1.00 20.00    -0.202 F 
ENDROOT
BRANCH   1   6
HETATM    6  C3  UNL     1     -25.314  17.640  11.581  1.00 20.00     0.183 C 
HETATM    7  C6  UNL     1     -25.932  18.931  12.052  1.00 20.00     0.099 C 
HETATM    8  O7  UNL     1     -25.681  16.560  12.034  1.00 20.00    -0.290 OA
ENDBRANCH   1   6
TORSDOF 1
ENDMDL
