MODEL 1
REMARK VINA RESULT:      -4.8      0.000      0.000
REMARK  2 active torsions:
REMARK  status: ('A' for Active; 'I' for Inactive)
REMARK    1  A    between atoms: C1_1  and  C2_2 
REMARK    2  A    between atoms: N7_7  and  O8_8 
ROOT
HETATM    1  C2  UNL     1     -35.316  15.495  -4.630  1.00 20.00     0.115 A 
HETATM    2  C3  UNL     1     -34.391  15.926  -3.491  1.00 20.00     0.033 A 
HETATM    3  C4  UNL     1     -34.201  14.615  -4.180  1.00 20.00     0.260 A 
HETATM    4  C5  UNL     1     -34.892  15.908  -2.071  1.00 20.00     0.022 C 
HETATM    5  C6  UNL     1     -33.405  17.026  -3.781  1.00 20.00     0.022 C 
HETATM    6  F9  UNL     1     -33.118  14.398  -5.003  1.00 20.00    -0.205 F 
HETATM    7  F10 UNL     1     -34.458  13.428  -3.531  1.00 20.00    -0.205 F 
ENDROOT
BRANCH   1   8
HETATM    8  C1  UNL     1     -36.706  15.108  -4.361  1.00 20.00     0.130 C 
HETATM    9  N7  UNL     1     -37.183  14.000  -4.818  1.00 20.00    -0.152 NA
BRANCH   9  10
HETATM   10  O8  UNL     1     -38.515  13.890  -4.413  1.00 20.00    -0.267 OA
HETATM   11  H19 UNL     1     -38.988  14.149  -5.223  1.00 20.00     0.247 HD
ENDBRANCH   9  10
ENDBRANCH   1   8
TORSDOF 2
ENDMDL
MODEL 2
REMARK VINA RESULT:      -4.7      2.312      2.540
REMARK  2 active torsions:
REMARK  status: ('A' for Active; 'I' for Inactive)
REMARK    1  A    between atoms: C1_1  and  C2_2 
REMARK    2  A    between atoms: N7_7  and  O8_8 
ROOT
HETATM    1  C2  UNL     1     -34.176  15.548  -3.821  1.00 20.00     0.115 A 
HETATM    2  C3  UNL     1     -34.754  16.962  -3.743  1.00 20.00     0.033 A 
HETATM    3  C4  UNL     1     -34.199  16.292  -2.530  1.00 20.00     0.260 A 
HETATM    4  C5  UNL     1     -36.244  17.167  -3.814  1.00 20.00     0.022 C 
HETATM    5  C6  UNL     1     -33.951  18.072  -4.368  1.00 20.00     0.022 C 
HETATM    6  F9  UNL     1     -33.020  16.721  -1.960  1.00 20.00    -0.205 F 
HETATM    7  F10 UNL     1     -35.021  15.891  -1.500  1.00 20.00    -0.205 F 
ENDROOT
BRANCH   1   8
HETATM    8  C1  UNL     1     -35.055  14.388  -4.011  1.00 20.00     0.130 C 
HETATM    9  N7  UNL     1     -34.575  13.191  -4.020  1.00 20.00    -0.152 NA
BRANCH   9  10
HETATM   10  O8  UNL     1     -35.627  12.293  -4.217  1.00 20.00    -0.267 OA
HETATM   11  H19 UNL     1     -36.039  12.278  -3.336  1.00 20.00     0.247 HD
ENDBRANCH   9  10
ENDBRANCH   1   8
TORSDOF 2
ENDMDL
MODEL 3
REMARK VINA RESULT:      -4.6      1.752      2.317
REMARK  2 active torsions:
REMARK  status: ('A' for Active; 'I' for Inactive)
REMARK    1  A    between atoms: C1_1  and  C2_2 
REMARK    2  A    between atoms: N7_7  and  O8_8 
ROOT
HETATM    1  C2  UNL     1     -35.268  14.700  -3.527  1.00 20.00     0.115 A 
HETATM    2  C3  UNL     1     -34.179  15.247  -4.450  1.00 20.00     0.033 A 
HETATM    3  C4  UNL     1     -34.549  15.962  -3.194  1.00 20.00     0.260 A 
HETATM    4  C5  UNL     1     -34.558  15.885  -5.761  1.00 20.00     0.022 C 
HETATM    5  C6  UNL     1     -32.868  14.508  -4.485  1.00 20.00     0.022 C 
HETATM    6  F9  UNL     1     -33.686  16.001  -2.121  1.00 20.00    -0.205 F 
HETATM    7  F10 UNL     1     -35.199  17.175  -3.231  1.00 20.00    -0.205 F 
ENDROOT
BRANCH   1   8
HETATM    8  C1  UNL     1     -36.681  14.748  -3.923  1.00 20.00     0.130 C 
HETATM    9  N7  UNL     1     -37.298  13.679  -4.298  1.00 20.00    -0.152 NA
BRANCH   9  10
HETATM   10  O8  UNL     1     -38.616  14.016  -4.613  1.00 20.00    -0.267 OA
HETATM   11  H19 UNL     1     -39.116  13.392  -4.059  1.00 20.00     0.247 HD
ENDBRANCH   9  10
ENDBRANCH   1   8
TORSDOF 2
ENDMDL
MODEL 4
REMARK VINA RESULT:      -4.3      1.068      1.068
REMARK  2 active torsions:
REMARK  status: ('A' for Active; 'I' for Inactive)
REMARK    1  A    between atoms: C1_1  and  C2_2 
REMARK    2  A    between atoms: N7_7  and  O8_8 
ROOT
HETATM    1  C2  UNL     1     -34.692  15.782  -4.667  1.00 20.00     0.115 A 
HETATM    2  C3  UNL     1     -34.150  15.861  -3.239  1.00 20.00     0.033 A 
HETATM    3  C4  UNL     1     -34.110  14.580  -4.005  1.00 20.00     0.260 A 
HETATM    4  C5  UNL     1     -35.106  15.959  -2.079  1.00 20.00     0.022 C 
HETATM    5  C6  UNL     1     -32.856  16.602  -3.032  1.00 20.00     0.022 C 
HETATM    6  F9  UNL     1     -32.916  14.057  -4.449  1.00 20.00    -0.205 F 
HETATM    7  F10 UNL     1     -34.909  13.516  -3.650  1.00 20.00    -0.205 F 
ENDROOT
BRANCH   1   8
HETATM    8  C1  UNL     1     -36.135  15.846  -4.926  1.00 20.00     0.130 C 
HETATM    9  N7  UNL     1     -36.659  15.198  -5.910  1.00 20.00    -0.152 NA
BRANCH   9  10
HETATM   10  O8  UNL     1     -38.034  15.439  -5.918  1.00 20.00    -0.267 OA
HETATM   11  H19 UNL     1     -38.288  15.156  -5.023  1.00 20.00     0.247 HD
ENDBRANCH   9  10
ENDBRANCH   1   8
TORSDOF 2
ENDMDL
MODEL 5
REMARK VINA RESULT:      -4.2      3.039      3.646
REMARK  2 active torsions:
REMARK  status: ('A' for Active; 'I' for Inactive)
REMARK    1  A    between atoms: C1_1  and  C2_2 
REMARK    2  A    between atoms: N7_7  and  O8_8 
ROOT
HETATM    1  C2  UNL     1     -34.917  15.686  -2.673  1.00 20.00     0.115 A 
HETATM    2  C3  UNL     1     -34.634  16.895  -1.781  1.00 20.00     0.033 A 
HETATM    3  C4  UNL     1     -35.479  17.026  -3.004  1.00 20.00     0.260 A 
HETATM    4  C5  UNL     1     -33.270  17.534  -1.795  1.00 20.00     0.022 C 
HETATM    5  C6  UNL     1     -35.318  16.940  -0.440  1.00 20.00     0.022 C 
HETATM    6  F9  UNL     1     -36.835  17.248  -2.908  1.00 20.00    -0.205 F 
HETATM    7  F10 UNL     1     -35.033  17.724  -4.104  1.00 20.00    -0.205 F 
ENDROOT
BRANCH   1   8
HETATM    8  C1  UNL     1     -33.860  15.110  -3.512  1.00 20.00     0.130 C 
HETATM    9  N7  UNL     1     -34.078  14.049  -4.213  1.00 20.00    -0.152 NA
BRANCH   9  10
HETATM   10  O8  UNL     1     -32.910  13.728  -4.907  1.00 20.00    -0.267 OA
HETATM   11  H19 UNL     1     -33.120  12.840  -5.245  1.00 20.00     0.247 HD
ENDBRANCH   9  10
ENDBRANCH   1   8
TORSDOF 2
ENDMDL
MODEL 6
REMARK VINA RESULT:      -4.2      1.988      2.206
REMARK  2 active torsions:
REMARK  status: ('A' for Active; 'I' for Inactive)
REMARK    1  A    between atoms: C1_1  and  C2_2 
REMARK    2  A    between atoms: N7_7  and  O8_8 
ROOT
HETATM    1  C2  UNL     1     -35.125  15.869  -4.082  1.00 20.00     0.115 A 
HETATM    2  C3  UNL     1     -35.077  16.847  -2.908  1.00 20.00     0.033 A 
HETATM    3  C4  UNL     1     -33.860  16.570  -3.725  1.00 20.00     0.260 A 
HETATM    4  C5  UNL     1     -35.111  16.323  -1.496  1.00 20.00     0.022 C 
HETATM    5  C6  UNL     1     -35.763  18.175  -3.086  1.00 20.00     0.022 C 
HETATM    6  F9  UNL     1     -33.340  17.528  -4.568  1.00 20.00    -0.205 F 
HETATM    7  F10 UNL     1     -32.793  15.875  -3.199  1.00 20.00    -0.205 F 
ENDROOT
BRANCH   1   8
HETATM    8  C1  UNL     1     -35.249  14.425  -3.852  1.00 20.00     0.130 C 
HETATM    9  N7  UNL     1     -35.687  13.644  -4.780  1.00 20.00    -0.152 NA
BRANCH   9  10
HETATM   10  O8  UNL     1     -35.701  12.336  -4.289  1.00 20.00    -0.267 OA
HETATM   11  H19 UNL     1     -35.291  11.847  -5.023  1.00 20.00     0.247 HD
ENDBRANCH   9  10
ENDBRANCH   1   8
TORSDOF 2
ENDMDL
MODEL 7
REMARK VINA RESULT:      -4.2      2.999      3.468
REMARK  2 active torsions:
REMARK  status: ('A' for Active; 'I' for Inactive)
REMARK    1  A    between atoms: C1_1  and  C2_2 
REMARK    2  A    between atoms: N7_7  and  O8_8 
ROOT
HETATM    1  C2  UNL     1     -33.601  15.906  -3.108  1.00 20.00     0.115 A 
HETATM    2  C3  UNL     1     -33.752  17.348  -2.621  1.00 20.00     0.033 A 
HETATM    3  C4  UNL     1     -34.861  16.363  -2.457  1.00 20.00     0.260 A 
HETATM    4  C5  UNL     1     -33.940  18.460  -3.619  1.00 20.00     0.022 C 
HETATM    5  C6  UNL     1     -32.974  17.748  -1.395  1.00 20.00     0.022 C 
HETATM    6  F9  UNL     1     -35.207  15.886  -1.212  1.00 20.00    -0.205 F 
HETATM    7  F10 UNL     1     -36.027  16.478  -3.182  1.00 20.00    -0.205 F 
ENDROOT
BRANCH   1   8
HETATM    8  C1  UNL     1     -33.591  15.597  -4.542  1.00 20.00     0.130 C 
HETATM    9  N7  UNL     1     -33.276  14.418  -4.961  1.00 20.00    -0.152 NA
BRANCH   9  10
HETATM   10  O8  UNL     1     -33.350  14.408  -6.356  1.00 20.00    -0.267 OA
HETATM   11  H19 UNL     1     -33.724  15.288  -6.538  1.00 20.00     0.247 HD
ENDBRANCH   9  10
ENDBRANCH   1   8
TORSDOF 2
ENDMDL
MODEL 8
REMARK VINA RESULT:      -4.1      1.802      2.258
REMARK  2 active torsions:
REMARK  status: ('A' for Active; 'I' for Inactive)
REMARK    1  A    between atoms: C1_1  and  C2_2 
REMARK    2  A    between atoms: N7_7  and  O8_8 
ROOT
HETATM    1  C2  UNL     1     -35.326  15.978  -3.490  1.00 20.00     0.115 A 
HETATM    2  C3  UNL     1     -33.813  15.937  -3.706  1.00 20.00     0.033 A 
HETATM    3  C4  UNL     1     -34.694  16.740  -4.603  1.00 20.00     0.260 A 
HETATM    4  C5  UNL     1     -33.171  14.698  -4.274  1.00 20.00     0.022 C 
HETATM    5  C6  UNL     1     -32.953  16.673  -2.713  1.00 20.00     0.022 C 
HETATM    6  F9  UNL     1     -34.671  18.117  -4.571  1.00 20.00    -0.205 F 
HETATM    7  F10 UNL     1     -34.899  16.371  -5.914  1.00 20.00    -0.205 F 
ENDROOT
BRANCH   1   8
HETATM    8  C1  UNL     1     -36.158  14.806  -3.787  1.00 20.00     0.130 C 
HETATM    9  N7  UNL     1     -37.364  14.946  -4.223  1.00 20.00    -0.152 NA
BRANCH   9  10
HETATM   10  O8  UNL     1     -37.915  13.678  -4.419  1.00 20.00    -0.267 OA
HETATM   11  H19 UNL     1     -38.802  13.789  -4.035  1.00 20.00     0.247 HD
ENDBRANCH   9  10
ENDBRANCH   1   8
TORSDOF 2
ENDMDL
MODEL 9
REMARK VINA RESULT:      -4.1     11.658     12.371
REMARK  2 active torsions:
REMARK  status: ('A' for Active; 'I' for Inactive)
REMARK    1  A    between atoms: C1_1  and  C2_2 
REMARK    2  A    between atoms: N7_7  and  O8_8 
ROOT
HETATM    1  C2  UNL     1     -42.841   5.816  -1.353  1.00 20.00     0.115 A 
HETATM    2  C3  UNL     1     -42.566   6.385   0.039  1.00 20.00     0.033 A 
HETATM    3  C4  UNL     1     -41.472   6.259  -0.968  1.00 20.00     0.260 A 
HETATM    4  C5  UNL     1     -42.534   5.465   1.232  1.00 20.00     0.022 C 
HETATM    5  C6  UNL     1     -43.096   7.761   0.340  1.00 20.00     0.022 C 
HETATM    6  F9  UNL     1     -40.918   7.375  -1.555  1.00 20.00    -0.205 F 
HETATM    7  F10 UNL     1     -40.456   5.344  -0.803  1.00 20.00    -0.205 F 
ENDROOT
BRANCH   1   8
HETATM    8  C1  UNL     1     -43.121   4.387  -1.537  1.00 20.00     0.130 C 
HETATM    9  N7  UNL     1     -42.508   3.705  -2.445  1.00 20.00    -0.152 NA
BRANCH   9  10
HETATM   10  O8  UNL     1     -42.967   2.387  -2.395  1.00 20.00    -0.267 OA
HETATM   11  H19 UNL     1     -42.343   1.987  -1.765  1.00 20.00     0.247 HD
ENDBRANCH   9  10
ENDBRANCH   1   8
TORSDOF 2
ENDMDL
