MODEL 1
REMARK VINA RESULT:      -4.2      0.000      0.000
REMARK  0 active torsions:
REMARK  status: ('A' for Active; 'I' for Inactive)
ROOT
HETATM    1  C1  UNL     1     -35.003  16.386  -1.468  1.00 20.00     0.015 C 
HETATM    2  C2  UNL     1     -34.886  15.933  -2.573  1.00 20.00    -0.076 C 
HETATM    3  C3  UNL     1     -35.720  14.213  -4.112  1.00 20.00     0.057 C 
HETATM    4  C4  UNL     1     -35.935  14.147  -5.614  1.00 20.00     0.044 C 
HETATM    5  C5  UNL     1     -34.742  15.378  -3.933  1.00 20.00     0.218 C 
HETATM    6  C6  UNL     1     -35.830  15.610  -6.085  1.00 20.00     0.154 C 
HETATM    7  C7  UNL     1     -33.289  14.915  -4.141  1.00 20.00     0.064 C 
HETATM    8  C8  UNL     1     -35.062  15.672  -7.415  1.00 20.00     0.049 C 
HETATM    9  C9  UNL     1     -37.237  16.195  -6.296  1.00 20.00     0.049 C 
HETATM   10  C10 UNL     1     -34.350  17.449  -5.259  1.00 20.00     0.313 C 
HETATM   11  N11 UNL     1     -35.226  16.334  -4.944  1.00 20.00     0.114 N 
ENDROOT
TORSDOF 0
ENDMDL
MODEL 2
REMARK VINA RESULT:      -4.1      1.173      3.778
REMARK  0 active torsions:
REMARK  status: ('A' for Active; 'I' for Inactive)
ROOT
HETATM    1  C1  UNL     1     -35.918  15.139  -7.734  1.00 20.00     0.015 C 
HETATM    2  C2  UNL     1     -35.580  15.037  -6.586  1.00 20.00    -0.076 C 
HETATM    3  C3  UNL     1     -33.644  14.762  -5.104  1.00 20.00     0.057 C 
HETATM    4  C4  UNL     1     -33.295  15.257  -3.712  1.00 20.00     0.044 C 
HETATM    5  C5  UNL     1     -35.166  14.912  -5.175  1.00 20.00     0.218 C 
HETATM    6  C6  UNL     1     -34.331  16.359  -3.422  1.00 20.00     0.154 C 
HETATM    7  C7  UNL     1     -35.870  13.697  -4.545  1.00 20.00     0.064 C 
HETATM    8  C8  UNL     1     -34.793  16.263  -1.959  1.00 20.00     0.049 C 
HETATM    9  C9  UNL     1     -33.702  17.744  -3.655  1.00 20.00     0.049 C 
HETATM   10  C10 UNL     1     -36.742  16.493  -4.071  1.00 20.00     0.313 C 
HETATM   11  N11 UNL     1     -35.377  16.179  -4.453  1.00 20.00     0.114 N 
ENDROOT
TORSDOF 0
ENDMDL
MODEL 3
REMARK VINA RESULT:      -4.1      1.145      2.188
REMARK  0 active torsions:
REMARK  status: ('A' for Active; 'I' for Inactive)
ROOT
HETATM    1  C1  UNL     1     -35.173  17.014  -0.719  1.00 20.00     0.015 C 
HETATM    2  C2  UNL     1     -34.987  16.775  -1.881  1.00 20.00    -0.076 C 
HETATM    3  C3  UNL     1     -33.633  15.452  -3.443  1.00 20.00     0.057 C 
HETATM    4  C4  UNL     1     -33.903  14.792  -4.783  1.00 20.00     0.044 C 
HETATM    5  C5  UNL     1     -34.760  16.481  -3.309  1.00 20.00     0.218 C 
HETATM    6  C6  UNL     1     -35.437  14.804  -4.920  1.00 20.00     0.154 C 
HETATM    7  C7  UNL     1     -34.406  17.785  -4.046  1.00 20.00     0.064 C 
HETATM    8  C8  UNL     1     -35.825  15.136  -6.370  1.00 20.00     0.049 C 
HETATM    9  C9  UNL     1     -36.006  13.421  -4.557  1.00 20.00     0.049 C 
HETATM   10  C10 UNL     1     -37.090  16.530  -4.186  1.00 20.00     0.313 C 
HETATM   11  N11 UNL     1     -35.903  15.750  -3.883  1.00 20.00     0.114 N 
ENDROOT
TORSDOF 0
ENDMDL
MODEL 4
REMARK VINA RESULT:      -4.0      1.351      3.776
REMARK  0 active torsions:
REMARK  status: ('A' for Active; 'I' for Inactive)
ROOT
HETATM    1  C1  UNL     1     -33.942  15.112  -7.180  1.00 20.00     0.015 C 
HETATM    2  C2  UNL     1     -34.214  15.242  -6.019  1.00 20.00    -0.076 C 
HETATM    3  C3  UNL     1     -33.259  15.557  -3.780  1.00 20.00     0.057 C 
HETATM    4  C4  UNL     1     -33.700  16.304  -2.534  1.00 20.00     0.044 C 
HETATM    5  C5  UNL     1     -34.549  15.402  -4.590  1.00 20.00     0.218 C 
HETATM    6  C6  UNL     1     -34.844  17.217  -3.015  1.00 20.00     0.154 C 
HETATM    7  C7  UNL     1     -35.353  14.178  -4.117  1.00 20.00     0.064 C 
HETATM    8  C8  UNL     1     -35.962  17.246  -1.960  1.00 20.00     0.049 C 
HETATM    9  C9  UNL     1     -34.319  18.649  -3.221  1.00 20.00     0.049 C 
HETATM   10  C10 UNL     1     -36.610  16.794  -4.733  1.00 20.00     0.313 C 
HETATM   11  N11 UNL     1     -35.212  16.695  -4.349  1.00 20.00     0.114 N 
ENDROOT
TORSDOF 0
ENDMDL
MODEL 5
REMARK VINA RESULT:      -4.0      1.261      3.859
REMARK  0 active torsions:
REMARK  status: ('A' for Active; 'I' for Inactive)
ROOT
HETATM    1  C1  UNL     1     -34.147  17.018  -7.918  1.00 20.00     0.015 C 
HETATM    2  C2  UNL     1     -34.434  16.502  -6.873  1.00 20.00    -0.076 C 
HETATM    3  C3  UNL     1     -33.728  14.822  -5.229  1.00 20.00     0.057 C 
HETATM    4  C4  UNL     1     -33.825  14.710  -3.718  1.00 20.00     0.044 C 
HETATM    5  C5  UNL     1     -34.787  15.869  -5.587  1.00 20.00     0.218 C 
HETATM    6  C6  UNL     1     -34.212  16.125  -3.249  1.00 20.00     0.154 C 
HETATM    7  C7  UNL     1     -36.180  15.226  -5.704  1.00 20.00     0.064 C 
HETATM    8  C8  UNL     1     -35.242  16.031  -2.112  1.00 20.00     0.049 C 
HETATM    9  C9  UNL     1     -32.965  16.864  -2.730  1.00 20.00     0.049 C 
HETATM   10  C10 UNL     1     -35.707  17.813  -4.331  1.00 20.00     0.313 C 
HETATM   11  N11 UNL     1     -34.651  16.826  -4.476  1.00 20.00     0.114 N 
ENDROOT
TORSDOF 0
ENDMDL
MODEL 6
REMARK VINA RESULT:      -3.9      1.287      3.807
REMARK  0 active torsions:
REMARK  status: ('A' for Active; 'I' for Inactive)
ROOT
HETATM    1  C1  UNL     1     -33.847  15.130  -7.358  1.00 20.00     0.015 C 
HETATM    2  C2  UNL     1     -34.374  15.405  -6.315  1.00 20.00    -0.076 C 
HETATM    3  C3  UNL     1     -34.662  14.684  -3.987  1.00 20.00     0.057 C 
HETATM    4  C4  UNL     1     -34.823  15.410  -2.664  1.00 20.00     0.044 C 
HETATM    5  C5  UNL     1     -35.022  15.743  -5.033  1.00 20.00     0.218 C 
HETATM    6  C6  UNL     1     -34.428  16.867  -2.971  1.00 20.00     0.154 C 
HETATM    7  C7  UNL     1     -36.544  15.821  -5.239  1.00 20.00     0.064 C 
HETATM    8  C8  UNL     1     -35.374  17.827  -2.233  1.00 20.00     0.049 C 
HETATM    9  C9  UNL     1     -32.987  17.129  -2.500  1.00 20.00     0.049 C 
HETATM   10  C10 UNL     1     -34.820  18.226  -5.034  1.00 20.00     0.313 C 
HETATM   11  N11 UNL     1     -34.425  16.956  -4.448  1.00 20.00     0.114 N 
ENDROOT
TORSDOF 0
ENDMDL
MODEL 7
REMARK VINA RESULT:      -3.9      1.569      2.540
REMARK  0 active torsions:
REMARK  status: ('A' for Active; 'I' for Inactive)
ROOT
HETATM    1  C1  UNL     1     -37.434  18.255  -3.650  1.00 20.00     0.015 C 
HETATM    2  C2  UNL     1     -36.643  17.361  -3.526  1.00 20.00    -0.076 C 
HETATM    3  C3  UNL     1     -36.323  14.943  -3.794  1.00 20.00     0.057 C 
HETATM    4  C4  UNL     1     -35.148  14.066  -4.188  1.00 20.00     0.044 C 
HETATM    5  C5  UNL     1     -35.669  16.262  -3.373  1.00 20.00     0.218 C 
HETATM    6  C6  UNL     1     -34.112  15.045  -4.772  1.00 20.00     0.154 C 
HETATM    7  C7  UNL     1     -35.198  16.202  -1.910  1.00 20.00     0.064 C 
HETATM    8  C8  UNL     1     -32.702  14.643  -4.312  1.00 20.00     0.049 C 
HETATM    9  C9  UNL     1     -34.163  15.005  -6.310  1.00 20.00     0.049 C 
HETATM   10  C10 UNL     1     -33.563  17.385  -4.084  1.00 20.00     0.313 C 
HETATM   11  N11 UNL     1     -34.581  16.385  -4.358  1.00 20.00     0.114 N 
ENDROOT
TORSDOF 0
ENDMDL
MODEL 8
REMARK VINA RESULT:      -3.8      1.474      2.405
REMARK  0 active torsions:
REMARK  status: ('A' for Active; 'I' for Inactive)
ROOT
HETATM    1  C1  UNL     1     -32.536  17.791  -2.166  1.00 20.00     0.015 C 
HETATM    2  C2  UNL     1     -33.421  17.227  -2.748  1.00 20.00    -0.076 C 
HETATM    3  C3  UNL     1     -35.487  17.567  -4.028  1.00 20.00     0.057 C 
HETATM    4  C4  UNL     1     -36.143  16.848  -5.194  1.00 20.00     0.044 C 
HETATM    5  C5  UNL     1     -34.509  16.532  -3.465  1.00 20.00     0.218 C 
HETATM    6  C6  UNL     1     -35.043  15.922  -5.747  1.00 20.00     0.154 C 
HETATM    7  C7  UNL     1     -35.220  15.570  -2.497  1.00 20.00     0.064 C 
HETATM    8  C8  UNL     1     -35.654  14.566  -6.136  1.00 20.00     0.049 C 
HETATM    9  C9  UNL     1     -34.404  16.555  -6.995  1.00 20.00     0.049 C 
HETATM   10  C10 UNL     1     -33.261  14.658  -4.530  1.00 20.00     0.313 C 
HETATM   11  N11 UNL     1     -34.004  15.896  -4.694  1.00 20.00     0.114 N 
ENDROOT
TORSDOF 0
ENDMDL
MODEL 9
REMARK VINA RESULT:      -3.7      1.423      2.584
REMARK  0 active torsions:
REMARK  status: ('A' for Active; 'I' for Inactive)
ROOT
HETATM    1  C1  UNL     1     -32.891  18.564  -3.805  1.00 20.00     0.015 C 
HETATM    2  C2  UNL     1     -33.715  17.698  -3.704  1.00 20.00    -0.076 C 
HETATM    3  C3  UNL     1     -36.095  17.179  -4.005  1.00 20.00     0.057 C 
HETATM    4  C4  UNL     1     -36.865  15.941  -4.429  1.00 20.00     0.044 C 
HETATM    5  C5  UNL     1     -34.729  16.632  -3.581  1.00 20.00     0.218 C 
HETATM    6  C6  UNL     1     -35.796  15.003  -5.020  1.00 20.00     0.154 C 
HETATM    7  C7  UNL     1     -34.763  16.130  -2.126  1.00 20.00     0.064 C 
HETATM    8  C8  UNL     1     -36.081  13.555  -4.589  1.00 20.00     0.049 C 
HETATM    9  C9  UNL     1     -35.825  15.078  -6.557  1.00 20.00     0.049 C 
HETATM   10  C10 UNL     1     -33.424  14.642  -4.316  1.00 20.00     0.313 C 
HETATM   11  N11 UNL     1     -34.504  15.576  -4.583  1.00 20.00     0.114 N 
ENDROOT
TORSDOF 0
ENDMDL
