MODEL 1
REMARK VINA RESULT:      -6.3      0.000      0.000
REMARK  2 active torsions:
REMARK  status: ('A' for Active; 'I' for Inactive)
REMARK    1  A    between atoms: C4_4  and  O11_11 
REMARK    2  A    between atoms: C10_10  and  O11_11 
ROOT
HETATM    1  C1  UNL     1     -33.253   8.786  -0.085  1.00 20.00     0.014 C 
HETATM    2  C2  UNL     1     -32.817   8.313   0.929  1.00 20.00    -0.091 C 
HETATM    3  C10 UNL     1     -32.283   7.740   2.165  1.00 20.00     0.268 C 
ENDROOT
BRANCH   3   4
HETATM    4  O11 UNL     1     -32.742   6.421   2.334  1.00 20.00    -0.344 OA
BRANCH   4   5
HETATM    5  C4  UNL     1     -33.406   6.241   3.531  1.00 20.00     0.047 C 
HETATM    6  C3  UNL     1     -33.173   7.020   4.601  1.00 20.00     0.006 C 
HETATM    7  C5  UNL     1     -33.888   6.863   5.910  1.00 20.00     0.029 C 
HETATM    8  C6  UNL     1     -34.694   5.568   6.017  1.00 20.00     0.004 C 
HETATM    9  C7  UNL     1     -35.413   5.251   4.708  1.00 20.00     0.011 C 
HETATM   10  C8  UNL     1     -34.434   5.135   3.523  1.00 20.00     0.038 C 
HETATM   11  C9  UNL     1     -33.743   3.768   3.505  1.00 20.00     0.017 C 
ENDBRANCH   4   5
ENDBRANCH   3   4
TORSDOF 2
ENDMDL
MODEL 2
REMARK VINA RESULT:      -4.6     15.023     16.016
REMARK  2 active torsions:
REMARK  status: ('A' for Active; 'I' for Inactive)
REMARK    1  A    between atoms: C4_4  and  O11_11 
REMARK    2  A    between atoms: C10_10  and  O11_11 
ROOT
HETATM    1  C1  UNL     1     -26.161  18.995   5.178  1.00 20.00     0.014 C 
HETATM    2  C2  UNL     1     -25.995  19.108   6.361  1.00 20.00    -0.091 C 
HETATM    3  C10 UNL     1     -25.796  19.248   7.804  1.00 20.00     0.268 C 
ENDROOT
BRANCH   3   4
HETATM    4  O11 UNL     1     -24.614  18.598   8.203  1.00 20.00    -0.344 OA
BRANCH   4   5
HETATM    5  C4  UNL     1     -24.619  18.266   9.543  1.00 20.00     0.047 C 
HETATM    6  C3  UNL     1     -25.406  18.895  10.432  1.00 20.00     0.006 C 
HETATM    7  C5  UNL     1     -25.448  18.549  11.890  1.00 20.00     0.029 C 
HETATM    8  C6  UNL     1     -24.319  17.618  12.332  1.00 20.00     0.004 C 
HETATM    9  C7  UNL     1     -24.056  16.530  11.293  1.00 20.00     0.011 C 
HETATM   10  C8  UNL     1     -23.707  17.120   9.912  1.00 20.00     0.038 C 
HETATM   11  C9  UNL     1     -22.243  17.567   9.854  1.00 20.00     0.017 C 
ENDBRANCH   4   5
ENDBRANCH   3   4
TORSDOF 2
ENDMDL
MODEL 3
REMARK VINA RESULT:      -4.5     11.398     12.641
REMARK  2 active torsions:
REMARK  status: ('A' for Active; 'I' for Inactive)
REMARK    1  A    between atoms: C4_4  and  O11_11 
REMARK    2  A    between atoms: C10_10  and  O11_11 
ROOT
HETATM    1  C1  UNL     1     -32.612  17.766   2.954  1.00 20.00     0.014 C 
HETATM    2  C2  UNL     1     -33.581  17.922   2.262  1.00 20.00    -0.091 C 
HETATM    3  C10 UNL     1     -34.764  18.111   1.422  1.00 20.00     0.268 C 
ENDROOT
BRANCH   3   4
HETATM    4  O11 UNL     1     -34.432  18.829   0.260  1.00 20.00    -0.344 OA
BRANCH   4   5
HETATM    5  C4  UNL     1     -34.160  18.003  -0.813  1.00 20.00     0.047 C 
HETATM    6  C3  UNL     1     -34.914  16.927  -1.095  1.00 20.00     0.006 C 
HETATM    7  C5  UNL     1     -34.658  16.019  -2.260  1.00 20.00     0.029 C 
HETATM    8  C6  UNL     1     -33.303  16.252  -2.931  1.00 20.00     0.004 C 
HETATM    9  C7  UNL     1     -32.981  17.741  -3.034  1.00 20.00     0.011 C 
HETATM   10  C8  UNL     1     -32.982  18.430  -1.655  1.00 20.00     0.038 C 
HETATM   11  C9  UNL     1     -31.671  18.171  -0.906  1.00 20.00     0.017 C 
ENDBRANCH   4   5
ENDBRANCH   3   4
TORSDOF 2
ENDMDL
MODEL 4
REMARK VINA RESULT:      -4.4     11.178     12.239
REMARK  2 active torsions:
REMARK  status: ('A' for Active; 'I' for Inactive)
REMARK    1  A    between atoms: C4_4  and  O11_11 
REMARK    2  A    between atoms: C10_10  and  O11_11 
ROOT
HETATM    1  C1  UNL     1     -31.018  18.510   0.169  1.00 20.00     0.014 C 
HETATM    2  C2  UNL     1     -31.715  18.317  -0.788  1.00 20.00    -0.091 C 
HETATM    3  C10 UNL     1     -32.564  18.083  -1.958  1.00 20.00     0.268 C 
ENDROOT
BRANCH   3   4
HETATM    4  O11 UNL     1     -33.652  17.260  -1.619  1.00 20.00    -0.344 OA
BRANCH   4   5
HETATM    5  C4  UNL     1     -33.938  16.330  -2.600  1.00 20.00     0.047 C 
HETATM    6  C3  UNL     1     -32.988  15.832  -3.409  1.00 20.00     0.006 C 
HETATM    7  C5  UNL     1     -33.259  14.810  -4.472  1.00 20.00     0.029 C 
HETATM    8  C6  UNL     1     -34.748  14.593  -4.748  1.00 20.00     0.004 C 
HETATM    9  C7  UNL     1     -35.559  14.588  -3.454  1.00 20.00     0.011 C 
HETATM   10  C8  UNL     1     -35.382  15.894  -2.655  1.00 20.00     0.038 C 
HETATM   11  C9  UNL     1     -36.254  17.017  -3.227  1.00 20.00     0.017 C 
ENDBRANCH   4   5
ENDBRANCH   3   4
TORSDOF 2
ENDMDL
MODEL 5
REMARK VINA RESULT:      -4.4     11.327     12.386
REMARK  2 active torsions:
REMARK  status: ('A' for Active; 'I' for Inactive)
REMARK    1  A    between atoms: C4_4  and  O11_11 
REMARK    2  A    between atoms: C10_10  and  O11_11 
ROOT
HETATM    1  C1  UNL     1     -34.058  15.350  -7.235  1.00 20.00     0.014 C 
HETATM    2  C2  UNL     1     -34.097  15.052  -6.073  1.00 20.00    -0.091 C 
HETATM    3  C10 UNL     1     -34.147  14.685  -4.657  1.00 20.00     0.268 C 
ENDROOT
BRANCH   3   4
HETATM    4  O11 UNL     1     -33.137  15.351  -3.941  1.00 20.00    -0.344 OA
BRANCH   4   5
HETATM    5  C4  UNL     1     -33.641  16.148  -2.932  1.00 20.00     0.047 C 
HETATM    6  C3  UNL     1     -34.788  15.856  -2.297  1.00 20.00     0.006 C 
HETATM    7  C5  UNL     1     -35.356  16.689  -1.187  1.00 20.00     0.029 C 
HETATM    8  C6  UNL     1     -34.672  18.048  -1.031  1.00 20.00     0.004 C 
HETATM    9  C7  UNL     1     -33.160  17.934  -1.209  1.00 20.00     0.011 C 
HETATM   10  C8  UNL     1     -32.781  17.338  -2.579  1.00 20.00     0.038 C 
HETATM   11  C9  UNL     1     -32.858  18.396  -3.685  1.00 20.00     0.017 C 
ENDBRANCH   4   5
ENDBRANCH   3   4
TORSDOF 2
ENDMDL
MODEL 6
REMARK VINA RESULT:      -4.4     11.209     12.496
REMARK  2 active torsions:
REMARK  status: ('A' for Active; 'I' for Inactive)
REMARK    1  A    between atoms: C4_4  and  O11_11 
REMARK    2  A    between atoms: C10_10  and  O11_11 
ROOT
HETATM    1  C1  UNL     1     -33.883  17.602  -7.877  1.00 20.00     0.014 C 
HETATM    2  C2  UNL     1     -34.223  16.491  -7.575  1.00 20.00    -0.091 C 
HETATM    3  C10 UNL     1     -34.640  15.137  -7.209  1.00 20.00     0.268 C 
ENDROOT
BRANCH   3   4
HETATM    4  O11 UNL     1     -33.821  14.630  -6.185  1.00 20.00    -0.344 OA
BRANCH   4   5
HETATM    5  C4  UNL     1     -34.177  15.106  -4.938  1.00 20.00     0.047 C 
HETATM    6  C3  UNL     1     -33.273  15.609  -4.081  1.00 20.00     0.006 C 
HETATM    7  C5  UNL     1     -33.626  16.149  -2.727  1.00 20.00     0.029 C 
HETATM    8  C6  UNL     1     -35.055  15.820  -2.291  1.00 20.00     0.004 C 
HETATM    9  C7  UNL     1     -36.037  15.957  -3.452  1.00 20.00     0.011 C 
HETATM   10  C8  UNL     1     -35.657  15.054  -4.641  1.00 20.00     0.038 C 
HETATM   11  C9  UNL     1     -36.100  13.607  -4.403  1.00 20.00     0.017 C 
ENDBRANCH   4   5
ENDBRANCH   3   4
TORSDOF 2
ENDMDL
MODEL 7
REMARK VINA RESULT:      -4.3     15.421     16.539
REMARK  2 active torsions:
REMARK  status: ('A' for Active; 'I' for Inactive)
REMARK    1  A    between atoms: C4_4  and  O11_11 
REMARK    2  A    between atoms: C10_10  and  O11_11 
ROOT
HETATM    1  C1  UNL     1     -26.783  18.702   6.129  1.00 20.00     0.014 C 
HETATM    2  C2  UNL     1     -25.914  18.886   6.937  1.00 20.00    -0.091 C 
HETATM    3  C10 UNL     1     -24.853  19.112   7.918  1.00 20.00     0.268 C 
ENDROOT
BRANCH   3   4
HETATM    4  O11 UNL     1     -25.223  18.594   9.172  1.00 20.00    -0.344 OA
BRANCH   4   5
HETATM    5  C4  UNL     1     -24.133  18.321   9.975  1.00 20.00     0.047 C 
HETATM    6  C3  UNL     1     -22.873  18.381   9.513  1.00 20.00     0.006 C 
HETATM    7  C5  UNL     1     -21.667  18.108  10.361  1.00 20.00     0.029 C 
HETATM    8  C6  UNL     1     -22.000  17.478  11.714  1.00 20.00     0.004 C 
HETATM    9  C7  UNL     1     -23.244  18.112  12.332  1.00 20.00     0.011 C 
HETATM   10  C8  UNL     1     -24.473  17.994  11.409  1.00 20.00     0.038 C 
HETATM   11  C9  UNL     1     -25.104  16.601  11.502  1.00 20.00     0.017 C 
ENDBRANCH   4   5
ENDBRANCH   3   4
TORSDOF 2
ENDMDL
MODEL 8
REMARK VINA RESULT:      -4.2     11.344     12.334
REMARK  2 active torsions:
REMARK  status: ('A' for Active; 'I' for Inactive)
REMARK    1  A    between atoms: C4_4  and  O11_11 
REMARK    2  A    between atoms: C10_10  and  O11_11 
ROOT
HETATM    1  C1  UNL     1     -38.193  16.635  -6.128  1.00 20.00     0.014 C 
HETATM    2  C2  UNL     1     -38.017  15.836  -5.249  1.00 20.00    -0.091 C 
HETATM    3  C10 UNL     1     -37.805  14.864  -4.176  1.00 20.00     0.268 C 
ENDROOT
BRANCH   3   4
HETATM    4  O11 UNL     1     -36.643  14.110  -4.418  1.00 20.00    -0.344 OA
BRANCH   4   5
HETATM    5  C4  UNL     1     -35.498  14.748  -3.983  1.00 20.00     0.047 C 
HETATM    6  C3  UNL     1     -35.466  15.459  -2.844  1.00 20.00     0.006 C 
HETATM    7  C5  UNL     1     -34.237  16.150  -2.333  1.00 20.00     0.029 C 
HETATM    8  C6  UNL     1     -33.103  16.217  -3.357  1.00 20.00     0.004 C 
HETATM    9  C7  UNL     1     -32.980  14.911  -4.138  1.00 20.00     0.011 C 
HETATM   10  C8  UNL     1     -34.289  14.545  -4.865  1.00 20.00     0.038 C 
HETATM   11  C9  UNL     1     -34.441  15.340  -6.166  1.00 20.00     0.017 C 
ENDBRANCH   4   5
ENDBRANCH   3   4
TORSDOF 2
ENDMDL
MODEL 9
REMARK VINA RESULT:      -4.2      0.908      2.213
REMARK  2 active torsions:
REMARK  status: ('A' for Active; 'I' for Inactive)
REMARK    1  A    between atoms: C4_4  and  O11_11 
REMARK    2  A    between atoms: C10_10  and  O11_11 
ROOT
HETATM    1  C1  UNL     1     -32.953   9.116   0.484  1.00 20.00     0.014 C 
HETATM    2  C2  UNL     1     -32.657   8.190   1.189  1.00 20.00    -0.091 C 
HETATM    3  C10 UNL     1     -32.295   7.060   2.045  1.00 20.00     0.268 C 
ENDROOT
BRANCH   3   4
HETATM    4  O11 UNL     1     -32.483   7.390   3.399  1.00 20.00    -0.344 OA
BRANCH   4   5
HETATM    5  C4  UNL     1     -33.330   6.511   4.046  1.00 20.00     0.047 C 
HETATM    6  C3  UNL     1     -34.063   5.605   3.378  1.00 20.00     0.006 C 
HETATM    7  C5  UNL     1     -34.980   4.626   4.048  1.00 20.00     0.029 C 
HETATM    8  C6  UNL     1     -35.227   4.931   5.526  1.00 20.00     0.004 C 
HETATM    9  C7  UNL     1     -33.946   5.384   6.223  1.00 20.00     0.011 C 
HETATM   10  C8  UNL     1     -33.329   6.626   5.551  1.00 20.00     0.038 C 
HETATM   11  C9  UNL     1     -34.049   7.907   5.986  1.00 20.00     0.017 C 
ENDBRANCH   4   5
ENDBRANCH   3   4
TORSDOF 2
ENDMDL
