MODEL 1
REMARK VINA RESULT:      -4.5      0.000      0.000
REMARK  2 active torsions:
REMARK  status: ('A' for Active; 'I' for Inactive)
REMARK    1  A    between atoms: C3_3  and  C6_6 
REMARK    2  A    between atoms: C3_3  and  O10_10 
ROOT
HETATM    1  C1  UNL     1     -34.910  15.912  -2.365  1.00 20.00    -0.023 C 
HETATM    2  C2  UNL     1     -33.680  16.371  -2.618  1.00 20.00    -0.087 C 
HETATM    3  C4  UNL     1     -35.251  14.725  -3.203  1.00 20.00     0.042 C 
HETATM    4  C5  UNL     1     -32.992  15.565  -3.676  1.00 20.00     0.048 C 
HETATM    5  C6  UNL     1     -34.115  14.682  -4.231  1.00 20.00     0.093 C 
HETATM    6  C7  UNL     1     -32.997  17.511  -1.954  1.00 20.00     0.043 C 
ENDROOT
BRANCH   5   7
HETATM    7  C3  UNL     1     -34.597  15.205  -5.554  1.00 20.00     0.263 C 
HETATM    8  O9  UNL     1     -35.530  15.986  -5.683  1.00 20.00    -0.265 OA
BRANCH   7   9
HETATM    9  O10 UNL     1     -33.841  14.675  -6.556  1.00 20.00    -0.326 OA
HETATM   10  C8  UNL     1     -33.911  15.363  -7.810  1.00 20.00     0.213 C 
ENDBRANCH   7   9
ENDBRANCH   5   7
TORSDOF 2
ENDMDL
MODEL 2
REMARK VINA RESULT:      -4.4      2.026      2.981
REMARK  2 active torsions:
REMARK  status: ('A' for Active; 'I' for Inactive)
REMARK    1  A    between atoms: C3_3  and  C6_6 
REMARK    2  A    between atoms: C3_3  and  O10_10 
ROOT
HETATM    1  C1  UNL     1     -33.256  15.274  -3.660  1.00 20.00    -0.023 C 
HETATM    2  C2  UNL     1     -34.091  16.149  -3.089  1.00 20.00    -0.087 C 
HETATM    3  C4  UNL     1     -33.839  14.660  -4.889  1.00 20.00     0.042 C 
HETATM    4  C5  UNL     1     -35.378  16.264  -3.844  1.00 20.00     0.048 C 
HETATM    5  C6  UNL     1     -35.306  15.102  -4.841  1.00 20.00     0.093 C 
HETATM    6  C7  UNL     1     -33.833  16.968  -1.876  1.00 20.00     0.043 C 
ENDROOT
BRANCH   5   7
HETATM    7  C3  UNL     1     -36.174  13.962  -4.392  1.00 20.00     0.263 C 
HETATM    8  O9  UNL     1     -35.937  12.786  -4.631  1.00 20.00    -0.265 OA
BRANCH   7   9
HETATM    9  O10 UNL     1     -37.238  14.447  -3.693  1.00 20.00    -0.326 OA
HETATM   10  C8  UNL     1     -38.467  14.531  -4.422  1.00 20.00     0.213 C 
ENDBRANCH   7   9
ENDBRANCH   5   7
TORSDOF 2
ENDMDL
MODEL 3
REMARK VINA RESULT:      -4.4      2.283      3.447
REMARK  2 active torsions:
REMARK  status: ('A' for Active; 'I' for Inactive)
REMARK    1  A    between atoms: C3_3  and  C6_6 
REMARK    2  A    between atoms: C3_3  and  O10_10 
ROOT
HETATM    1  C1  UNL     1     -34.368  15.842  -5.403  1.00 20.00    -0.023 C 
HETATM    2  C2  UNL     1     -34.209  15.803  -4.075  1.00 20.00    -0.087 C 
HETATM    3  C4  UNL     1     -35.803  15.734  -5.801  1.00 20.00     0.042 C 
HETATM    4  C5  UNL     1     -35.517  15.658  -3.362  1.00 20.00     0.048 C 
HETATM    5  C6  UNL     1     -36.502  15.343  -4.494  1.00 20.00     0.093 C 
HETATM    6  C7  UNL     1     -32.931  15.916  -3.326  1.00 20.00     0.043 C 
ENDROOT
BRANCH   5   7
HETATM    7  C3  UNL     1     -36.842  13.881  -4.509  1.00 20.00     0.263 C 
HETATM    8  O9  UNL     1     -36.012  12.984  -4.573  1.00 20.00    -0.265 OA
BRANCH   7   9
HETATM    9  O10 UNL     1     -38.195  13.727  -4.442  1.00 20.00    -0.326 OA
HETATM   10  C8  UNL     1     -38.938  14.921  -4.176  1.00 20.00     0.213 C 
ENDBRANCH   7   9
ENDBRANCH   5   7
TORSDOF 2
ENDMDL
MODEL 4
REMARK VINA RESULT:      -4.2      1.646      2.234
REMARK  2 active torsions:
REMARK  status: ('A' for Active; 'I' for Inactive)
REMARK    1  A    between atoms: C3_3  and  C6_6 
REMARK    2  A    between atoms: C3_3  and  O10_10 
ROOT
HETATM    1  C1  UNL     1     -33.579  16.134  -2.713  1.00 20.00    -0.023 C 
HETATM    2  C2  UNL     1     -34.835  16.341  -2.302  1.00 20.00    -0.087 C 
HETATM    3  C4  UNL     1     -33.511  15.799  -4.166  1.00 20.00     0.042 C 
HETATM    4  C5  UNL     1     -35.820  16.173  -3.416  1.00 20.00     0.048 C 
HETATM    5  C6  UNL     1     -34.977  15.561  -4.541  1.00 20.00     0.093 C 
HETATM    6  C7  UNL     1     -35.276  16.724  -0.936  1.00 20.00     0.043 C 
ENDROOT
BRANCH   5   7
HETATM    7  C3  UNL     1     -35.245  14.088  -4.663  1.00 20.00     0.263 C 
HETATM    8  O9  UNL     1     -34.821  13.247  -3.882  1.00 20.00    -0.265 OA
BRANCH   7   9
HETATM    9  O10 UNL     1     -36.019  13.855  -5.761  1.00 20.00    -0.326 OA
HETATM   10  C8  UNL     1     -35.777  14.715  -6.879  1.00 20.00     0.213 C 
ENDBRANCH   7   9
ENDBRANCH   5   7
TORSDOF 2
ENDMDL
MODEL 5
REMARK VINA RESULT:      -4.2      1.916      2.533
REMARK  2 active torsions:
REMARK  status: ('A' for Active; 'I' for Inactive)
REMARK    1  A    between atoms: C3_3  and  C6_6 
REMARK    2  A    between atoms: C3_3  and  O10_10 
ROOT
HETATM    1  C1  UNL     1     -33.372  17.634  -3.823  1.00 20.00    -0.023 C 
HETATM    2  C2  UNL     1     -33.345  17.247  -2.543  1.00 20.00    -0.087 C 
HETATM    3  C4  UNL     1     -34.333  16.828  -4.634  1.00 20.00     0.042 C 
HETATM    4  C5  UNL     1     -34.285  16.111  -2.285  1.00 20.00     0.048 C 
HETATM    5  C6  UNL     1     -34.709  15.678  -3.693  1.00 20.00     0.093 C 
HETATM    6  C7  UNL     1     -32.536  17.840  -1.447  1.00 20.00     0.043 C 
ENDROOT
BRANCH   5   7
HETATM    7  C3  UNL     1     -33.993  14.423  -4.102  1.00 20.00     0.263 C 
HETATM    8  O9  UNL     1     -32.813  14.382  -4.426  1.00 20.00    -0.265 OA
BRANCH   7   9
HETATM    9  O10 UNL     1     -34.855  13.369  -4.051  1.00 20.00    -0.326 OA
HETATM   10  C8  UNL     1     -36.171  13.626  -4.551  1.00 20.00     0.213 C 
ENDBRANCH   7   9
ENDBRANCH   5   7
TORSDOF 2
ENDMDL
MODEL 6
REMARK VINA RESULT:      -4.1     11.990     13.167
REMARK  2 active torsions:
REMARK  status: ('A' for Active; 'I' for Inactive)
REMARK    1  A    between atoms: C3_3  and  C6_6 
REMARK    2  A    between atoms: C3_3  and  O10_10 
ROOT
HETATM    1  C1  UNL     1     -42.460   6.876   1.080  1.00 20.00    -0.023 C 
HETATM    2  C2  UNL     1     -41.750   7.612   0.219  1.00 20.00    -0.087 C 
HETATM    3  C4  UNL     1     -42.423   5.423   0.742  1.00 20.00     0.042 C 
HETATM    4  C5  UNL     1     -41.119   6.770  -0.846  1.00 20.00     0.048 C 
HETATM    5  C6  UNL     1     -41.784   5.402  -0.651  1.00 20.00     0.093 C 
HETATM    6  C7  UNL     1     -41.538   9.082   0.264  1.00 20.00     0.043 C 
ENDROOT
BRANCH   5   7
HETATM    7  C3  UNL     1     -42.836   5.169  -1.697  1.00 20.00     0.263 C 
HETATM    8  O9  UNL     1     -43.415   6.064  -2.298  1.00 20.00    -0.265 OA
BRANCH   7   9
HETATM    9  O10 UNL     1     -43.030   3.830  -1.859  1.00 20.00    -0.326 OA
HETATM   10  C8  UNL     1     -42.419   3.254  -3.018  1.00 20.00     0.213 C 
ENDBRANCH   7   9
ENDBRANCH   5   7
TORSDOF 2
ENDMDL
MODEL 7
REMARK VINA RESULT:      -4.1      1.684      2.151
REMARK  2 active torsions:
REMARK  status: ('A' for Active; 'I' for Inactive)
REMARK    1  A    between atoms: C3_3  and  C6_6 
REMARK    2  A    between atoms: C3_3  and  O10_10 
ROOT
HETATM    1  C1  UNL     1     -34.399  17.284  -1.480  1.00 20.00    -0.023 C 
HETATM    2  C2  UNL     1     -33.244  17.411  -2.142  1.00 20.00    -0.087 C 
HETATM    3  C4  UNL     1     -35.133  16.042  -1.863  1.00 20.00     0.042 C 
HETATM    4  C5  UNL     1     -33.014  16.271  -3.084  1.00 20.00     0.048 C 
HETATM    5  C6  UNL     1     -34.364  15.543  -3.090  1.00 20.00     0.093 C 
HETATM    6  C7  UNL     1     -32.244  18.500  -1.992  1.00 20.00     0.043 C 
ENDROOT
BRANCH   5   7
HETATM    7  C3  UNL     1     -35.131  15.856  -4.342  1.00 20.00     0.263 C 
HETATM    8  O9  UNL     1     -34.685  16.514  -5.273  1.00 20.00    -0.265 OA
BRANCH   7   9
HETATM    9  O10 UNL     1     -36.373  15.300  -4.268  1.00 20.00    -0.326 OA
HETATM   10  C8  UNL     1     -36.459  13.929  -4.671  1.00 20.00     0.213 C 
ENDBRANCH   7   9
ENDBRANCH   5   7
TORSDOF 2
ENDMDL
MODEL 8
REMARK VINA RESULT:      -4.1      3.398      5.218
REMARK  2 active torsions:
REMARK  status: ('A' for Active; 'I' for Inactive)
REMARK    1  A    between atoms: C3_3  and  C6_6 
REMARK    2  A    between atoms: C3_3  and  O10_10 
ROOT
HETATM    1  C1  UNL     1     -34.517  15.915  -2.260  1.00 20.00    -0.023 C 
HETATM    2  C2  UNL     1     -33.587  16.014  -3.215  1.00 20.00    -0.087 C 
HETATM    3  C4  UNL     1     -34.752  17.216  -1.566  1.00 20.00     0.042 C 
HETATM    4  C5  UNL     1     -33.039  17.403  -3.317  1.00 20.00     0.048 C 
HETATM    5  C6  UNL     1     -33.603  18.096  -2.071  1.00 20.00     0.093 C 
HETATM    6  C7  UNL     1     -33.123  14.935  -4.125  1.00 20.00     0.043 C 
ENDROOT
BRANCH   5   7
HETATM    7  C3  UNL     1     -32.547  18.224  -1.011  1.00 20.00     0.263 C 
HETATM    8  O9  UNL     1     -31.356  18.375  -1.245  1.00 20.00    -0.265 OA
BRANCH   7   9
HETATM    9  O10 UNL     1     -33.126  18.143   0.221  1.00 20.00    -0.326 OA
HETATM   10  C8  UNL     1     -32.275  18.475   1.323  1.00 20.00     0.213 C 
ENDBRANCH   7   9
ENDBRANCH   5   7
TORSDOF 2
ENDMDL
MODEL 9
REMARK VINA RESULT:      -4.0     11.713     12.682
REMARK  2 active torsions:
REMARK  status: ('A' for Active; 'I' for Inactive)
REMARK    1  A    between atoms: C3_3  and  C6_6 
REMARK    2  A    between atoms: C3_3  and  O10_10 
ROOT
HETATM    1  C1  UNL     1     -33.630   6.609   5.920  1.00 20.00    -0.023 C 
HETATM    2  C2  UNL     1     -34.534   5.684   5.581  1.00 20.00    -0.087 C 
HETATM    3  C4  UNL     1     -33.316   7.530   4.788  1.00 20.00     0.042 C 
HETATM    4  C5  UNL     1     -34.974   5.831   4.158  1.00 20.00     0.048 C 
HETATM    5  C6  UNL     1     -33.982   6.850   3.587  1.00 20.00     0.093 C 
HETATM    6  C7  UNL     1     -35.105   4.630   6.459  1.00 20.00     0.043 C 
ENDROOT
BRANCH   5   7
HETATM    7  C3  UNL     1     -32.946   6.167   2.741  1.00 20.00     0.263 C 
HETATM    8  O9  UNL     1     -32.925   4.963   2.523  1.00 20.00    -0.265 OA
BRANCH   7   9
HETATM    9  O10 UNL     1     -32.058   7.089   2.273  1.00 20.00    -0.326 OA
HETATM   10  C8  UNL     1     -32.562   7.972   1.266  1.00 20.00     0.213 C 
ENDBRANCH   7   9
ENDBRANCH   5   7
TORSDOF 2
ENDMDL
