MODEL 1
REMARK VINA RESULT:      -4.8      0.000      0.000
REMARK  1 active torsions:
REMARK  status: ('A' for Active; 'I' for Inactive)
REMARK    1  A    between atoms: C1_1  and  C6_6 
ROOT
HETATM    1  C2  UNL     1     -33.087  18.090  -3.412  1.00 20.00     0.005 A 
HETATM    2  C3  UNL     1     -34.328  18.295  -2.534  1.00 20.00     0.005 A 
HETATM    3  C4  UNL     1     -33.209  15.480  -3.693  1.00 20.00     0.018 C 
HETATM    4  C5  UNL     1     -35.119  15.805  -2.287  1.00 20.00     0.018 C 
HETATM    5  C6  UNL     1     -34.734  15.407  -3.709  1.00 20.00     0.073 C 
HETATM    6  C7  UNL     1     -32.889  16.684  -2.810  1.00 20.00    -0.010 A 
HETATM    7  C8  UNL     1     -34.123  16.900  -1.910  1.00 20.00    -0.010 A 
ENDROOT
BRANCH   5   8
HETATM    8  C1  UNL     1     -35.210  14.035  -4.056  1.00 20.00     0.223 C 
HETATM    9  O9  UNL     1     -34.464  13.062  -4.008  1.00 20.00    -0.279 OA
HETATM   10 CL10 UNL     1     -36.886  14.021  -4.513  1.00 20.00    -0.043 Cl
ENDBRANCH   5   8
TORSDOF 1
ENDMDL
MODEL 2
REMARK VINA RESULT:      -4.6      1.255      1.295
REMARK  1 active torsions:
REMARK  status: ('A' for Active; 'I' for Inactive)
REMARK    1  A    between atoms: C1_1  and  C6_6 
ROOT
HETATM    1  C2  UNL     1     -33.126  17.392  -3.373  1.00 20.00     0.005 A 
HETATM    2  C3  UNL     1     -34.405  17.546  -2.540  1.00 20.00     0.005 A 
HETATM    3  C4  UNL     1     -33.567  14.999  -4.366  1.00 20.00     0.018 C 
HETATM    4  C5  UNL     1     -35.539  15.230  -3.029  1.00 20.00     0.018 C 
HETATM    5  C6  UNL     1     -35.080  15.168  -4.483  1.00 20.00     0.073 C 
HETATM    6  C7  UNL     1     -33.173  15.864  -3.170  1.00 20.00    -0.010 A 
HETATM    7  C8  UNL     1     -34.447  16.021  -2.314  1.00 20.00    -0.010 A 
ENDROOT
BRANCH   5   8
HETATM    8  C1  UNL     1     -35.700  14.025  -5.220  1.00 20.00     0.223 C 
HETATM    9  O9  UNL     1     -35.996  12.978  -4.653  1.00 20.00    -0.279 OA
HETATM   10 CL10 UNL     1     -35.928  14.381  -6.904  1.00 20.00    -0.043 Cl
ENDBRANCH   5   8
TORSDOF 1
ENDMDL
MODEL 3
REMARK VINA RESULT:      -4.5      1.497      2.173
REMARK  1 active torsions:
REMARK  status: ('A' for Active; 'I' for Inactive)
REMARK    1  A    between atoms: C1_1  and  C6_6 
ROOT
HETATM    1  C2  UNL     1     -36.175  17.446  -1.849  1.00 20.00     0.005 A 
HETATM    2  C3  UNL     1     -34.969  16.720  -1.240  1.00 20.00     0.005 A 
HETATM    3  C4  UNL     1     -36.222  16.270  -4.198  1.00 20.00     0.018 C 
HETATM    4  C5  UNL     1     -34.313  15.173  -3.257  1.00 20.00     0.018 C 
HETATM    5  C6  UNL     1     -35.753  14.910  -3.689  1.00 20.00     0.073 C 
HETATM    6  C7  UNL     1     -35.570  17.281  -3.257  1.00 20.00    -0.010 A 
HETATM    7  C8  UNL     1     -34.345  16.571  -2.643  1.00 20.00    -0.010 A 
ENDROOT
BRANCH   5   8
HETATM    8  C1  UNL     1     -35.837  13.869  -4.757  1.00 20.00     0.223 C 
HETATM    9  O9  UNL     1     -35.974  12.679  -4.489  1.00 20.00    -0.279 OA
HETATM   10 CL10 UNL     1     -35.720  14.555  -6.349  1.00 20.00    -0.043 Cl
ENDBRANCH   5   8
TORSDOF 1
ENDMDL
MODEL 4
REMARK VINA RESULT:      -4.5      2.157      2.897
REMARK  1 active torsions:
REMARK  status: ('A' for Active; 'I' for Inactive)
REMARK    1  A    between atoms: C1_1  and  C6_6 
ROOT
HETATM    1  C2  UNL     1     -33.306  14.748  -4.545  1.00 20.00     0.005 A 
HETATM    2  C3  UNL     1     -33.485  16.052  -3.758  1.00 20.00     0.005 A 
HETATM    3  C4  UNL     1     -35.766  13.834  -4.394  1.00 20.00     0.018 C 
HETATM    4  C5  UNL     1     -36.026  15.850  -3.130  1.00 20.00     0.018 C 
HETATM    5  C6  UNL     1     -36.433  15.206  -4.451  1.00 20.00     0.073 C 
HETATM    6  C7  UNL     1     -34.423  14.086  -3.712  1.00 20.00    -0.010 A 
HETATM    7  C8  UNL     1     -34.587  15.391  -2.905  1.00 20.00    -0.010 A 
ENDROOT
BRANCH   5   8
HETATM    8  C1  UNL     1     -37.917  15.085  -4.583  1.00 20.00     0.223 C 
HETATM    9  O9  UNL     1     -38.499  14.027  -4.364  1.00 20.00    -0.279 OA
HETATM   10 CL10 UNL     1     -38.654  16.582  -5.066  1.00 20.00    -0.043 Cl
ENDBRANCH   5   8
TORSDOF 1
ENDMDL
MODEL 5
REMARK VINA RESULT:      -4.4      0.849      1.765
REMARK  1 active torsions:
REMARK  status: ('A' for Active; 'I' for Inactive)
REMARK    1  A    between atoms: C1_1  and  C6_6 
ROOT
HETATM    1  C2  UNL     1     -34.015  17.717  -0.970  1.00 20.00     0.005 A 
HETATM    2  C3  UNL     1     -32.676  17.600  -1.708  1.00 20.00     0.005 A 
HETATM    3  C4  UNL     1     -35.504  16.279  -2.589  1.00 20.00     0.018 C 
HETATM    4  C5  UNL     1     -33.420  16.139  -3.758  1.00 20.00     0.018 C 
HETATM    5  C6  UNL     1     -34.403  15.289  -2.958  1.00 20.00     0.073 C 
HETATM    6  C7  UNL     1     -34.769  17.588  -2.309  1.00 20.00    -0.010 A 
HETATM    7  C8  UNL     1     -33.421  17.494  -3.054  1.00 20.00    -0.010 A 
ENDROOT
BRANCH   5   8
HETATM    8  C1  UNL     1     -34.941  14.149  -3.760  1.00 20.00     0.223 C 
HETATM    9  O9  UNL     1     -34.236  13.197  -4.081  1.00 20.00    -0.279 OA
HETATM   10 CL10 UNL     1     -36.621  14.359  -4.149  1.00 20.00    -0.043 Cl
ENDBRANCH   5   8
TORSDOF 1
ENDMDL
MODEL 6
REMARK VINA RESULT:      -4.4      2.652      3.931
REMARK  1 active torsions:
REMARK  status: ('A' for Active; 'I' for Inactive)
REMARK    1  A    between atoms: C1_1  and  C6_6 
ROOT
HETATM    1  C2  UNL     1     -35.471  14.734  -5.274  1.00 20.00     0.005 A 
HETATM    2  C3  UNL     1     -34.043  14.994  -5.771  1.00 20.00     0.005 A 
HETATM    3  C4  UNL     1     -35.144  15.349  -2.740  1.00 20.00     0.018 C 
HETATM    4  C5  UNL     1     -32.908  15.711  -3.515  1.00 20.00     0.018 C 
HETATM    5  C6  UNL     1     -34.128  16.461  -2.991  1.00 20.00     0.073 C 
HETATM    6  C7  UNL     1     -34.923  14.359  -3.882  1.00 20.00    -0.010 A 
HETATM    7  C8  UNL     1     -33.485  14.599  -4.388  1.00 20.00    -0.010 A 
ENDROOT
BRANCH   5   8
HETATM    8  C1  UNL     1     -33.827  17.217  -1.738  1.00 20.00     0.223 C 
HETATM    9  O9  UNL     1     -32.790  17.860  -1.606  1.00 20.00    -0.279 OA
HETATM   10 CL10 UNL     1     -35.093  17.059  -0.559  1.00 20.00    -0.043 Cl
ENDBRANCH   5   8
TORSDOF 1
ENDMDL
MODEL 7
REMARK VINA RESULT:      -4.4     11.012     11.796
REMARK  1 active torsions:
REMARK  status: ('A' for Active; 'I' for Inactive)
REMARK    1  A    between atoms: C1_1  and  C6_6 
ROOT
HETATM    1  C2  UNL     1     -32.804   7.448   1.052  1.00 20.00     0.005 A 
HETATM    2  C3  UNL     1     -32.641   8.546   2.110  1.00 20.00     0.005 A 
HETATM    3  C4  UNL     1     -33.292   5.413   2.641  1.00 20.00     0.018 C 
HETATM    4  C5  UNL     1     -32.992   7.123   4.288  1.00 20.00     0.018 C 
HETATM    5  C6  UNL     1     -34.063   6.222   3.680  1.00 20.00     0.073 C 
HETATM    6  C7  UNL     1     -32.283   6.398   2.054  1.00 20.00    -0.010 A 
HETATM    7  C8  UNL     1     -32.098   7.506   3.112  1.00 20.00    -0.010 A 
ENDROOT
BRANCH   5   8
HETATM    8  C1  UNL     1     -34.696   5.334   4.702  1.00 20.00     0.223 C 
HETATM    9  O9  UNL     1     -35.189   4.252   4.399  1.00 20.00    -0.279 OA
HETATM   10 CL10 UNL     1     -34.634   6.023   6.295  1.00 20.00    -0.043 Cl
ENDBRANCH   5   8
TORSDOF 1
ENDMDL
MODEL 8
REMARK VINA RESULT:      -4.4      1.903      2.084
REMARK  1 active torsions:
REMARK  status: ('A' for Active; 'I' for Inactive)
REMARK    1  A    between atoms: C1_1  and  C6_6 
ROOT
HETATM    1  C2  UNL     1     -33.410  17.192  -2.755  1.00 20.00     0.005 A 
HETATM    2  C3  UNL     1     -34.875  17.133  -2.303  1.00 20.00     0.005 A 
HETATM    3  C4  UNL     1     -33.456  15.270  -4.547  1.00 20.00     0.018 C 
HETATM    4  C5  UNL     1     -35.728  15.157  -3.805  1.00 20.00     0.018 C 
HETATM    5  C6  UNL     1     -34.883  15.542  -5.015  1.00 20.00     0.073 C 
HETATM    6  C7  UNL     1     -33.445  15.684  -3.077  1.00 20.00    -0.010 A 
HETATM    7  C8  UNL     1     -34.912  15.620  -2.601  1.00 20.00    -0.010 A 
ENDROOT
BRANCH   5   8
HETATM    8  C1  UNL     1     -35.225  14.729  -6.221  1.00 20.00     0.223 C 
HETATM    9  O9  UNL     1     -36.048  13.820  -6.173  1.00 20.00    -0.279 OA
HETATM   10 CL10 UNL     1     -34.335  15.234  -7.624  1.00 20.00    -0.043 Cl
ENDBRANCH   5   8
TORSDOF 1
ENDMDL
MODEL 9
REMARK VINA RESULT:      -4.3      3.255      4.302
REMARK  1 active torsions:
REMARK  status: ('A' for Active; 'I' for Inactive)
REMARK    1  A    between atoms: C1_1  and  C6_6 
ROOT
HETATM    1  C2  UNL     1     -36.038  15.924  -3.754  1.00 20.00     0.005 A 
HETATM    2  C3  UNL     1     -34.866  15.760  -4.729  1.00 20.00     0.005 A 
HETATM    3  C4  UNL     1     -34.699  16.681  -1.623  1.00 20.00     0.018 C 
HETATM    4  C5  UNL     1     -32.871  16.379  -3.139  1.00 20.00     0.018 C 
HETATM    5  C6  UNL     1     -33.638  17.466  -2.390  1.00 20.00     0.073 C 
HETATM    6  C7  UNL     1     -35.114  15.561  -2.574  1.00 20.00    -0.010 A 
HETATM    7  C8  UNL     1     -33.940  15.373  -3.557  1.00 20.00    -0.010 A 
ENDROOT
BRANCH   5   8
HETATM    8  C1  UNL     1     -32.756  18.239  -1.464  1.00 20.00     0.223 C 
HETATM    9  O9  UNL     1     -31.730  18.787  -1.858  1.00 20.00    -0.279 OA
HETATM   10 CL10 UNL     1     -33.364  18.247   0.163  1.00 20.00    -0.043 Cl
ENDBRANCH   5   8
TORSDOF 1
ENDMDL
