MODEL 1
REMARK VINA RESULT:      -4.8      0.000      0.000
REMARK  0 active torsions:
REMARK  status: ('A' for Active; 'I' for Inactive)
ROOT
HETATM    1  C1  UNL     1     -35.052   5.342   5.960  1.00 20.00     0.003 A 
HETATM    2  C2  UNL     1     -34.360   6.476   6.158  1.00 20.00     0.013 A 
HETATM    3  C3  UNL     1     -34.745   4.802   4.645  1.00 20.00     0.030 A 
HETATM    4  C4  UNL     1     -32.688   7.637   4.691  1.00 20.00    -0.011 C 
HETATM    5  C5  UNL     1     -33.581   6.680   4.960  1.00 20.00    -0.013 A 
HETATM    6  C6  UNL     1     -33.866   5.606   4.020  1.00 20.00     0.039 A 
HETATM    7  C7  UNL     1     -31.937   7.633   3.388  1.00 20.00     0.048 C 
HETATM    8  C8  UNL     1     -32.600   6.802   2.274  1.00 20.00     0.126 C 
HETATM    9  C9  UNL     1     -33.528   4.543   1.800  1.00 20.00     0.149 C 
HETATM   10  N10 UNL     1     -33.260   5.587   2.781  1.00 20.00    -0.384 N 
ENDROOT
TORSDOF 0
ENDMDL
MODEL 2
REMARK VINA RESULT:      -4.7      0.815      2.496
REMARK  0 active torsions:
REMARK  status: ('A' for Active; 'I' for Inactive)
ROOT
HETATM    1  C1  UNL     1     -34.351   6.614   6.395  1.00 20.00     0.003 A 
HETATM    2  C2  UNL     1     -34.721   5.377   6.025  1.00 20.00     0.013 A 
HETATM    3  C3  UNL     1     -33.648   7.264   5.300  1.00 20.00     0.030 A 
HETATM    4  C4  UNL     1     -34.438   4.180   3.838  1.00 20.00    -0.011 C 
HETATM    5  C5  UNL     1     -34.263   5.214   4.667  1.00 20.00    -0.013 A 
HETATM    6  C6  UNL     1     -33.574   6.427   4.250  1.00 20.00     0.039 A 
HETATM    7  C7  UNL     1     -33.922   4.240   2.427  1.00 20.00     0.048 C 
HETATM    8  C8  UNL     1     -32.819   5.290   2.196  1.00 20.00     0.126 C 
HETATM    9  C9  UNL     1     -32.304   7.699   2.535  1.00 20.00     0.149 C 
HETATM   10  N10 UNL     1     -33.019   6.514   2.991  1.00 20.00    -0.384 N 
ENDROOT
TORSDOF 0
ENDMDL
MODEL 3
REMARK VINA RESULT:      -4.7     16.282     16.919
REMARK  0 active torsions:
REMARK  status: ('A' for Active; 'I' for Inactive)
ROOT
HETATM    1  C1  UNL     1     -24.342  18.843   7.749  1.00 20.00     0.003 A 
HETATM    2  C2  UNL     1     -23.245  18.240   8.237  1.00 20.00     0.013 A 
HETATM    3  C3  UNL     1     -25.281  19.103   8.829  1.00 20.00     0.030 A 
HETATM    4  C4  UNL     1     -22.638  17.628  10.593  1.00 20.00    -0.011 C 
HETATM    5  C5  UNL     1     -23.462  18.109   9.657  1.00 20.00    -0.013 A 
HETATM    6  C6  UNL     1     -24.771  18.654   9.990  1.00 20.00     0.039 A 
HETATM    7  C7  UNL     1     -23.043  17.635  12.041  1.00 20.00     0.048 C 
HETATM    8  C8  UNL     1     -24.561  17.756  12.277  1.00 20.00     0.126 C 
HETATM    9  C9  UNL     1     -26.535  19.140  11.669  1.00 20.00     0.149 C 
HETATM   10  N10 UNL     1     -25.226  18.624  11.291  1.00 20.00    -0.384 N 
ENDROOT
TORSDOF 0
ENDMDL
MODEL 4
REMARK VINA RESULT:      -4.4     16.335     16.918
REMARK  0 active torsions:
REMARK  status: ('A' for Active; 'I' for Inactive)
ROOT
HETATM    1  C1  UNL     1     -26.793  18.731  11.811  1.00 20.00     0.003 A 
HETATM    2  C2  UNL     1     -26.685  19.136  10.535  1.00 20.00     0.013 A 
HETATM    3  C3  UNL     1     -25.498  18.276  12.293  1.00 20.00     0.030 A 
HETATM    4  C4  UNL     1     -24.679  19.263   9.033  1.00 20.00    -0.011 C 
HETATM    5  C5  UNL     1     -25.299  18.953  10.176  1.00 20.00    -0.013 A 
HETATM    6  C6  UNL     1     -24.585  18.390  11.312  1.00 20.00     0.039 A 
HETATM    7  C7  UNL     1     -23.199  19.038   8.885  1.00 20.00     0.048 C 
HETATM    8  C8  UNL     1     -22.605  18.029   9.886  1.00 20.00     0.126 C 
HETATM    9  C9  UNL     1     -22.488  17.517  12.317  1.00 20.00     0.149 C 
HETATM   10  N10 UNL     1     -23.241  18.097  11.213  1.00 20.00    -0.384 N 
ENDROOT
TORSDOF 0
ENDMDL
MODEL 5
REMARK VINA RESULT:      -4.4     11.992     12.741
REMARK  0 active torsions:
REMARK  status: ('A' for Active; 'I' for Inactive)
ROOT
HETATM    1  C1  UNL     1     -34.345  15.450  -3.305  1.00 20.00     0.003 A 
HETATM    2  C2  UNL     1     -33.173  16.107  -3.316  1.00 20.00     0.013 A 
HETATM    3  C3  UNL     1     -35.162  15.924  -2.199  1.00 20.00     0.030 A 
HETATM    4  C4  UNL     1     -32.324  17.945  -1.835  1.00 20.00    -0.011 C 
HETATM    5  C5  UNL     1     -33.224  17.030  -2.208  1.00 20.00    -0.013 A 
HETATM    6  C6  UNL     1     -34.495  16.871  -1.516  1.00 20.00     0.039 A 
HETATM    7  C7  UNL     1     -32.603  18.854  -0.669  1.00 20.00     0.048 C 
HETATM    8  C8  UNL     1     -33.690  18.341   0.293  1.00 20.00     0.126 C 
HETATM    9  C9  UNL     1     -36.027  17.492   0.337  1.00 20.00     0.149 C 
HETATM   10  N10 UNL     1     -34.777  17.628  -0.399  1.00 20.00    -0.384 N 
ENDROOT
TORSDOF 0
ENDMDL
MODEL 6
REMARK VINA RESULT:      -4.3     16.373     16.913
REMARK  0 active torsions:
REMARK  status: ('A' for Active; 'I' for Inactive)
ROOT
HETATM    1  C1  UNL     1     -23.583  18.604   7.837  1.00 20.00     0.003 A 
HETATM    2  C2  UNL     1     -24.775  19.168   8.097  1.00 20.00     0.013 A 
HETATM    3  C3  UNL     1     -23.052  18.001   9.050  1.00 20.00     0.030 A 
HETATM    4  C4  UNL     1     -26.116  19.237  10.216  1.00 20.00    -0.011 C 
HETATM    5  C5  UNL     1     -25.034  18.925   9.495  1.00 20.00    -0.013 A 
HETATM    6  C6  UNL     1     -23.911  18.196  10.067  1.00 20.00     0.039 A 
HETATM    7  C7  UNL     1     -26.207  18.836  11.663  1.00 20.00     0.048 C 
HETATM    8  C8  UNL     1     -24.852  18.521  12.323  1.00 20.00     0.126 C 
HETATM    9  C9  UNL     1     -22.798  17.150  12.025  1.00 20.00     0.149 C 
HETATM   10  N10 UNL     1     -23.907  17.863  11.404  1.00 20.00    -0.384 N 
ENDROOT
TORSDOF 0
ENDMDL
MODEL 7
REMARK VINA RESULT:      -4.3     16.257     16.908
REMARK  0 active torsions:
REMARK  status: ('A' for Active; 'I' for Inactive)
ROOT
HETATM    1  C1  UNL     1     -25.290  19.263   8.066  1.00 20.00     0.003 A 
HETATM    2  C2  UNL     1     -25.787  19.255   9.314  1.00 20.00     0.013 A 
HETATM    3  C3  UNL     1     -23.959  18.674   8.065  1.00 20.00     0.030 A 
HETATM    4  C4  UNL     1     -24.817  18.356  11.446  1.00 20.00    -0.011 C 
HETATM    5  C5  UNL     1     -24.775  18.645  10.142  1.00 20.00    -0.013 A 
HETATM    6  C6  UNL     1     -23.626  18.307   9.315  1.00 20.00     0.039 A 
HETATM    7  C7  UNL     1     -23.661  17.661  12.110  1.00 20.00     0.048 C 
HETATM    8  C8  UNL     1     -22.330  17.765  11.342  1.00 20.00     0.126 C 
HETATM    9  C9  UNL     1     -21.327  17.391   9.097  1.00 20.00     0.149 C 
HETATM   10  N10 UNL     1     -22.508  17.730   9.880  1.00 20.00    -0.384 N 
ENDROOT
TORSDOF 0
ENDMDL
MODEL 8
REMARK VINA RESULT:      -4.3     12.029     12.860
REMARK  0 active torsions:
REMARK  status: ('A' for Active; 'I' for Inactive)
ROOT
HETATM    1  C1  UNL     1     -34.064  15.745  -3.321  1.00 20.00     0.003 A 
HETATM    2  C2  UNL     1     -35.121  15.750  -2.492  1.00 20.00     0.013 A 
HETATM    3  C3  UNL     1     -33.056  16.674  -2.835  1.00 20.00     0.030 A 
HETATM    4  C4  UNL     1     -35.506  17.003  -0.352  1.00 20.00    -0.011 C 
HETATM    5  C5  UNL     1     -34.801  16.688  -1.444  1.00 20.00    -0.013 A 
HETATM    6  C6  UNL     1     -33.490  17.265  -1.707  1.00 20.00     0.039 A 
HETATM    7  C7  UNL     1     -34.956  17.976   0.654  1.00 20.00     0.048 C 
HETATM    8  C8  UNL     1     -33.843  18.892   0.112  1.00 20.00     0.126 C 
HETATM    9  C9  UNL     1     -31.665  18.831  -1.088  1.00 20.00     0.149 C 
HETATM   10  N10 UNL     1     -32.964  18.214  -0.856  1.00 20.00    -0.384 N 
ENDROOT
TORSDOF 0
ENDMDL
MODEL 9
REMARK VINA RESULT:      -4.2     12.182     12.355
REMARK  0 active torsions:
REMARK  status: ('A' for Active; 'I' for Inactive)
ROOT
HETATM    1  C1  UNL     1     -34.703  17.347  -1.261  1.00 20.00     0.003 A 
HETATM    2  C2  UNL     1     -33.510  17.096  -1.825  1.00 20.00     0.013 A 
HETATM    3  C3  UNL     1     -35.740  16.597  -1.952  1.00 20.00     0.030 A 
HETATM    4  C4  UNL     1     -32.893  15.564  -3.714  1.00 20.00    -0.011 C 
HETATM    5  C5  UNL     1     -33.764  16.162  -2.894  1.00 20.00    -0.013 A 
HETATM    6  C6  UNL     1     -35.192  15.884  -2.952  1.00 20.00     0.039 A 
HETATM    7  C7  UNL     1     -33.369  14.569  -4.735  1.00 20.00     0.048 C 
HETATM    8  C8  UNL     1     -34.868  14.673  -5.076  1.00 20.00     0.126 C 
HETATM    9  C9  UNL     1     -37.119  14.738  -4.021  1.00 20.00     0.149 C 
HETATM   10  N10 UNL     1     -35.696  15.032  -3.913  1.00 20.00    -0.384 N 
ENDROOT
TORSDOF 0
ENDMDL
