MODEL 1
REMARK VINA RESULT:      -5.1      0.000      0.000
REMARK  2 active torsions:
REMARK  status: ('A' for Active; 'I' for Inactive)
REMARK    1  A    between atoms: C2_2  and  C8_8 
REMARK    2  A    between atoms: C3_3  and  C7_7 
ROOT
HETATM    1  C1  UNL     1     -34.386  15.150  -3.356  1.00 20.00    -0.062 A 
HETATM    2  C2  UNL     1     -34.161  16.142  -2.522  1.00 20.00    -0.076 C 
HETATM    3  C4  UNL     1     -33.904  14.423  -4.460  1.00 20.00     0.055 A 
HETATM    4  C7  UNL     1     -35.263  14.108  -3.732  1.00 20.00     0.120 A 
HETATM    5  C9  UNL     1     -35.124  16.513  -1.414  1.00 20.00     0.044 C 
ENDROOT
BRANCH   2   6
HETATM    6  C8  UNL     1     -32.920  17.005  -2.591  1.00 20.00     0.014 A 
HETATM    7  C5  UNL     1     -33.122  18.452  -2.809  1.00 20.00     0.010 A 
HETATM    8  C6  UNL     1     -32.689  17.937  -1.469  1.00 20.00     0.010 A 
ENDBRANCH   2   6
BRANCH   4   9
HETATM    9  C3  UNL     1     -36.479  14.538  -4.386  1.00 20.00     0.181 C 
HETATM   10  O10 UNL     1     -36.497  15.748  -4.748  1.00 20.00    -0.647 OA
HETATM   11  O11 UNL     1     -37.361  13.642  -4.507  1.00 20.00    -0.647 OA
ENDBRANCH   4   9
TORSDOF 2
ENDMDL
MODEL 2
REMARK VINA RESULT:      -5.0      1.258      2.063
REMARK  2 active torsions:
REMARK  status: ('A' for Active; 'I' for Inactive)
REMARK    1  A    between atoms: C2_2  and  C8_8 
REMARK    2  A    between atoms: C3_3  and  C7_7 
ROOT
HETATM    1  C1  UNL     1     -35.651  15.844  -3.755  1.00 20.00    -0.062 A 
HETATM    2  C2  UNL     1     -34.421  15.822  -3.291  1.00 20.00    -0.076 C 
HETATM    3  C4  UNL     1     -36.949  16.367  -3.597  1.00 20.00     0.055 A 
HETATM    4  C7  UNL     1     -36.542  15.368  -4.744  1.00 20.00     0.120 A 
HETATM    5  C9  UNL     1     -33.322  14.994  -3.923  1.00 20.00     0.044 C 
ENDROOT
BRANCH   2   6
HETATM    6  C8  UNL     1     -33.988  16.620  -2.080  1.00 20.00     0.014 A 
HETATM    7  C5  UNL     1     -32.760  17.429  -2.216  1.00 20.00     0.010 A 
HETATM    8  C6  UNL     1     -34.105  18.090  -2.170  1.00 20.00     0.010 A 
ENDBRANCH   2   6
BRANCH   4   9
HETATM    9  C3  UNL     1     -36.943  13.987  -4.592  1.00 20.00     0.181 C 
HETATM   10  O10 UNL     1     -36.011  13.141  -4.693  1.00 20.00    -0.647 OA
HETATM   11  O11 UNL     1     -38.175  13.815  -4.379  1.00 20.00    -0.647 OA
ENDBRANCH   4   9
TORSDOF 2
ENDMDL
MODEL 3
REMARK VINA RESULT:      -4.7      2.180      4.580
REMARK  2 active torsions:
REMARK  status: ('A' for Active; 'I' for Inactive)
REMARK    1  A    between atoms: C2_2  and  C8_8 
REMARK    2  A    between atoms: C3_3  and  C7_7 
ROOT
HETATM    1  C1  UNL     1     -34.052  15.909  -2.805  1.00 20.00    -0.062 A 
HETATM    2  C2  UNL     1     -34.165  14.920  -3.665  1.00 20.00    -0.076 C 
HETATM    3  C4  UNL     1     -34.700  16.677  -1.819  1.00 20.00     0.055 A 
HETATM    4  C7  UNL     1     -33.203  16.895  -2.254  1.00 20.00     0.120 A 
HETATM    5  C9  UNL     1     -33.026  14.481  -4.561  1.00 20.00     0.044 C 
ENDROOT
BRANCH   2   6
HETATM    6  C8  UNL     1     -35.443  14.129  -3.841  1.00 20.00     0.014 A 
HETATM    7  C5  UNL     1     -36.678  14.898  -4.094  1.00 20.00     0.010 A 
HETATM    8  C6  UNL     1     -36.036  14.106  -5.193  1.00 20.00     0.010 A 
ENDBRANCH   2   6
BRANCH   4   9
HETATM    9  C3  UNL     1     -32.922  18.016  -3.123  1.00 20.00     0.181 C 
HETATM   10  O10 UNL     1     -33.521  17.998  -4.235  1.00 20.00    -0.647 OA
HETATM   11  O11 UNL     1     -32.115  18.864  -2.650  1.00 20.00    -0.647 OA
ENDBRANCH   4   9
TORSDOF 2
ENDMDL
MODEL 4
REMARK VINA RESULT:      -4.6      1.630      2.379
REMARK  2 active torsions:
REMARK  status: ('A' for Active; 'I' for Inactive)
REMARK    1  A    between atoms: C2_2  and  C8_8 
REMARK    2  A    between atoms: C3_3  and  C7_7 
ROOT
HETATM    1  C1  UNL     1     -35.464  15.534  -3.251  1.00 20.00    -0.062 A 
HETATM    2  C2  UNL     1     -34.691  16.199  -2.421  1.00 20.00    -0.076 C 
HETATM    3  C4  UNL     1     -36.773  15.098  -3.529  1.00 20.00     0.055 A 
HETATM    4  C7  UNL     1     -35.535  14.794  -4.453  1.00 20.00     0.120 A 
HETATM    5  C9  UNL     1     -33.202  16.365  -2.644  1.00 20.00     0.044 C 
ENDROOT
BRANCH   2   6
HETATM    6  C8  UNL     1     -35.215  16.863  -1.165  1.00 20.00     0.014 A 
HETATM    7  C5  UNL     1     -34.554  18.114  -0.743  1.00 20.00     0.010 A 
HETATM    8  C6  UNL     1     -35.931  18.143  -1.334  1.00 20.00     0.010 A 
ENDBRANCH   2   6
BRANCH   4   9
HETATM    9  C3  UNL     1     -34.970  13.464  -4.385  1.00 20.00     0.181 C 
HETATM   10  O10 UNL     1     -33.716  13.417  -4.249  1.00 20.00    -0.647 OA
HETATM   11  O11 UNL     1     -35.812  12.526  -4.471  1.00 20.00    -0.647 OA
ENDBRANCH   4   9
TORSDOF 2
ENDMDL
MODEL 5
REMARK VINA RESULT:      -4.5     10.380     11.288
REMARK  2 active torsions:
REMARK  status: ('A' for Active; 'I' for Inactive)
REMARK    1  A    between atoms: C2_2  and  C8_8 
REMARK    2  A    between atoms: C3_3  and  C7_7 
ROOT
HETATM    1  C1  UNL     1     -32.960   6.019   2.430  1.00 20.00    -0.062 A 
HETATM    2  C2  UNL     1     -32.357   7.183   2.324  1.00 20.00    -0.076 C 
HETATM    3  C4  UNL     1     -33.621   4.981   1.747  1.00 20.00     0.055 A 
HETATM    4  C7  UNL     1     -33.364   4.982   3.300  1.00 20.00     0.120 A 
HETATM    5  C9  UNL     1     -31.777   7.917   3.515  1.00 20.00     0.044 C 
ENDROOT
BRANCH   2   6
HETATM    6  C8  UNL     1     -32.185   7.900   1.001  1.00 20.00     0.014 A 
HETATM    7  C5  UNL     1     -33.394   8.072   0.171  1.00 20.00     0.010 A 
HETATM    8  C6  UNL     1     -32.788   9.243   0.884  1.00 20.00     0.010 A 
ENDBRANCH   2   6
BRANCH   4   9
HETATM    9  C3  UNL     1     -34.485   5.303   4.155  1.00 20.00     0.181 C 
HETATM   10  O10 UNL     1     -34.561   6.512   4.513  1.00 20.00    -0.647 OA
HETATM   11  O11 UNL     1     -35.239   4.328   4.429  1.00 20.00    -0.647 OA
ENDBRANCH   4   9
TORSDOF 2
ENDMDL
MODEL 6
REMARK VINA RESULT:      -4.4      3.726      5.310
REMARK  2 active torsions:
REMARK  status: ('A' for Active; 'I' for Inactive)
REMARK    1  A    between atoms: C2_2  and  C8_8 
REMARK    2  A    between atoms: C3_3  and  C7_7 
ROOT
HETATM    1  C1  UNL     1     -33.272  18.220  -1.769  1.00 20.00    -0.062 A 
HETATM    2  C2  UNL     1     -34.247  17.339  -1.820  1.00 20.00    -0.076 C 
HETATM    3  C4  UNL     1     -32.257  18.879  -2.488  1.00 20.00     0.055 A 
HETATM    4  C7  UNL     1     -32.556  19.134  -0.963  1.00 20.00     0.120 A 
HETATM    5  C9  UNL     1     -35.097  16.987  -0.617  1.00 20.00     0.044 C 
ENDROOT
BRANCH   2   6
HETATM    6  C8  UNL     1     -34.612  16.593  -3.086  1.00 20.00     0.014 A 
HETATM    7  C5  UNL     1     -33.669  15.555  -3.547  1.00 20.00     0.010 A 
HETATM    8  C6  UNL     1     -34.986  15.172  -2.941  1.00 20.00     0.010 A 
ENDBRANCH   2   6
BRANCH   4   9
HETATM    9  C3  UNL     1     -31.659  18.530  -0.003  1.00 20.00     0.181 C 
HETATM   10  O10 UNL     1     -30.466  18.391  -0.394  1.00 20.00    -0.647 OA
HETATM   11  O11 UNL     1     -32.192  18.224   1.100  1.00 20.00    -0.647 OA
ENDBRANCH   4   9
TORSDOF 2
ENDMDL
MODEL 7
REMARK VINA RESULT:      -4.4      1.685      2.614
REMARK  2 active torsions:
REMARK  status: ('A' for Active; 'I' for Inactive)
REMARK    1  A    between atoms: C2_2  and  C8_8 
REMARK    2  A    between atoms: C3_3  and  C7_7 
ROOT
HETATM    1  C1  UNL     1     -35.416  16.090  -3.922  1.00 20.00    -0.062 A 
HETATM    2  C2  UNL     1     -34.604  16.276  -2.905  1.00 20.00    -0.076 C 
HETATM    3  C4  UNL     1     -36.753  15.928  -4.333  1.00 20.00     0.055 A 
HETATM    4  C7  UNL     1     -35.528  15.930  -5.322  1.00 20.00     0.120 A 
HETATM    5  C9  UNL     1     -33.102  16.388  -3.067  1.00 20.00     0.044 C 
ENDROOT
BRANCH   2   6
HETATM    6  C8  UNL     1     -35.092  16.396  -1.477  1.00 20.00     0.014 A 
HETATM    7  C5  UNL     1     -34.525  17.491  -0.665  1.00 20.00     0.010 A 
HETATM    8  C6  UNL     1     -35.940  17.562  -1.156  1.00 20.00     0.010 A 
ENDBRANCH   2   6
BRANCH   4   9
HETATM    9  C3  UNL     1     -35.084  14.650  -5.828  1.00 20.00     0.181 C 
HETATM   10  O10 UNL     1     -36.002  13.887  -6.242  1.00 20.00    -0.647 OA
HETATM   11  O11 UNL     1     -33.835  14.469  -5.789  1.00 20.00    -0.647 OA
ENDBRANCH   4   9
TORSDOF 2
ENDMDL
MODEL 8
REMARK VINA RESULT:      -4.3     10.796     11.901
REMARK  2 active torsions:
REMARK  status: ('A' for Active; 'I' for Inactive)
REMARK    1  A    between atoms: C2_2  and  C8_8 
REMARK    2  A    between atoms: C3_3  and  C7_7 
ROOT
HETATM    1  C1  UNL     1     -32.962   6.763   3.350  1.00 20.00    -0.062 A 
HETATM    2  C2  UNL     1     -33.845   5.797   3.484  1.00 20.00    -0.076 C 
HETATM    3  C4  UNL     1     -32.442   7.952   3.895  1.00 20.00     0.055 A 
HETATM    4  C7  UNL     1     -31.907   7.290   2.570  1.00 20.00     0.120 A 
HETATM    5  C9  UNL     1     -33.970   4.660   2.492  1.00 20.00     0.044 C 
ENDROOT
BRANCH   2   6
HETATM    6  C8  UNL     1     -34.818   5.731   4.641  1.00 20.00     0.014 A 
HETATM    7  C5  UNL     1     -34.572   4.695   5.664  1.00 20.00     0.010 A 
HETATM    8  C6  UNL     1     -34.311   6.140   5.967  1.00 20.00     0.010 A 
ENDBRANCH   2   6
BRANCH   4   9
HETATM    9  C3  UNL     1     -32.313   7.893   1.320  1.00 20.00     0.181 C 
HETATM   10  O10 UNL     1     -33.362   8.594   1.375  1.00 20.00    -0.647 OA
HETATM   11  O11 UNL     1     -31.559   7.636   0.340  1.00 20.00    -0.647 OA
ENDBRANCH   4   9
TORSDOF 2
ENDMDL
MODEL 9
REMARK VINA RESULT:      -4.3      3.370      5.132
REMARK  2 active torsions:
REMARK  status: ('A' for Active; 'I' for Inactive)
REMARK    1  A    between atoms: C2_2  and  C8_8 
REMARK    2  A    between atoms: C3_3  and  C7_7 
ROOT
HETATM    1  C1  UNL     1     -33.220  17.793  -1.542  1.00 20.00    -0.062 A 
HETATM    2  C2  UNL     1     -33.924  16.813  -2.064  1.00 20.00    -0.076 C 
HETATM    3  C4  UNL     1     -31.995  18.487  -1.558  1.00 20.00     0.055 A 
HETATM    4  C7  UNL     1     -33.193  18.848  -0.602  1.00 20.00     0.120 A 
HETATM    5  C9  UNL     1     -35.332  16.486  -1.614  1.00 20.00     0.044 C 
ENDROOT
BRANCH   2   6
HETATM    6  C8  UNL     1     -33.394  15.919  -3.165  1.00 20.00     0.014 A 
HETATM    7  C5  UNL     1     -34.298  14.863  -3.664  1.00 20.00     0.010 A 
HETATM    8  C6  UNL     1     -34.002  16.071  -4.502  1.00 20.00     0.010 A 
ENDBRANCH   2   6
BRANCH   4   9
HETATM    9  C3  UNL     1     -33.085  18.434   0.779  1.00 20.00     0.181 C 
HETATM   10  O10 UNL     1     -31.971  18.669   1.326  1.00 20.00    -0.647 OA
HETATM   11  O11 UNL     1     -34.123  17.893   1.253  1.00 20.00    -0.647 OA
ENDBRANCH   4   9
TORSDOF 2
ENDMDL
