MODEL 1
REMARK VINA RESULT:      -4.9      0.000      0.000
REMARK  0 active torsions:
REMARK  status: ('A' for Active; 'I' for Inactive)
ROOT
HETATM    1  C1  UNL     1     -24.803  19.262   6.355  1.00 20.00     0.017 C 
HETATM    2  C2  UNL     1     -24.539  18.893   7.467  1.00 20.00    -0.082 C 
HETATM    3  C3  UNL     1     -24.225  18.454   8.787  1.00 20.00     0.000 C 
HETATM    4  C4  UNL     1     -23.047  17.859   9.070  1.00 20.00    -0.041 C 
HETATM    5  C5  UNL     1     -25.256  18.696   9.869  1.00 20.00     0.083 C 
HETATM    6  C6  UNL     1     -22.730  17.382  10.478  1.00 20.00     0.307 C 
HETATM    7  C7  UNL     1     -24.699  18.508  11.294  1.00 20.00     0.223 C 
HETATM    8  C8  UNL     1     -21.941  17.615   8.076  1.00 20.00     0.046 C 
HETATM    9  C9  UNL     1     -25.824  18.571  12.332  1.00 20.00     0.043 C 
HETATM   10  C10 UNL     1     -24.599  16.039  11.243  1.00 20.00     0.310 C 
HETATM   11  N11 UNL     1     -23.867  17.296  11.411  1.00 20.00     0.092 N 
ENDROOT
TORSDOF 0
ENDMDL
MODEL 2
REMARK VINA RESULT:      -4.8     14.743     16.829
REMARK  0 active torsions:
REMARK  status: ('A' for Active; 'I' for Inactive)
ROOT
HETATM    1  C1  UNL     1     -35.673  17.424   0.268  1.00 20.00     0.017 C 
HETATM    2  C2  UNL     1     -35.253  16.947  -0.751  1.00 20.00    -0.082 C 
HETATM    3  C3  UNL     1     -34.755  16.383  -1.962  1.00 20.00     0.000 C 
HETATM    4  C4  UNL     1     -33.533  16.705  -2.438  1.00 20.00    -0.041 C 
HETATM    5  C5  UNL     1     -35.638  15.391  -2.687  1.00 20.00     0.083 C 
HETATM    6  C6  UNL     1     -33.019  16.107  -3.738  1.00 20.00     0.307 C 
HETATM    7  C7  UNL     1     -34.892  14.591  -3.773  1.00 20.00     0.223 C 
HETATM    8  C8  UNL     1     -32.563  17.643  -1.768  1.00 20.00     0.046 C 
HETATM    9  C9  UNL     1     -35.869  13.752  -4.602  1.00 20.00     0.043 C 
HETATM   10  C10 UNL     1     -34.731  16.421  -5.426  1.00 20.00     0.310 C 
HETATM   11  N11 UNL     1     -34.018  15.448  -4.596  1.00 20.00     0.092 N 
ENDROOT
TORSDOF 0
ENDMDL
MODEL 3
REMARK VINA RESULT:      -4.2     15.156     17.554
REMARK  0 active torsions:
REMARK  status: ('A' for Active; 'I' for Inactive)
ROOT
HETATM    1  C1  UNL     1     -35.315  17.334   0.419  1.00 20.00     0.017 C 
HETATM    2  C2  UNL     1     -35.348  16.985  -0.729  1.00 20.00    -0.082 C 
HETATM    3  C3  UNL     1     -35.388  16.570  -2.093  1.00 20.00     0.000 C 
HETATM    4  C4  UNL     1     -36.390  16.947  -2.915  1.00 20.00    -0.041 C 
HETATM    5  C5  UNL     1     -34.254  15.703  -2.595  1.00 20.00     0.083 C 
HETATM    6  C6  UNL     1     -36.430  16.486  -4.363  1.00 20.00     0.307 C 
HETATM    7  C7  UNL     1     -34.202  15.596  -4.131  1.00 20.00     0.223 C 
HETATM    8  C8  UNL     1     -37.538  17.843  -2.525  1.00 20.00     0.046 C 
HETATM    9  C9  UNL     1     -33.166  14.557  -4.572  1.00 20.00     0.043 C 
HETATM   10  C10 UNL     1     -36.138  14.079  -4.382  1.00 20.00     0.310 C 
HETATM   11  N11 UNL     1     -35.536  15.371  -4.719  1.00 20.00     0.092 N 
ENDROOT
TORSDOF 0
ENDMDL
MODEL 4
REMARK VINA RESULT:      -4.2     14.323     16.846
REMARK  0 active torsions:
REMARK  status: ('A' for Active; 'I' for Inactive)
ROOT
HETATM    1  C1  UNL     1     -31.837  18.166  -1.160  1.00 20.00     0.017 C 
HETATM    2  C2  UNL     1     -32.681  17.604  -1.802  1.00 20.00    -0.082 C 
HETATM    3  C3  UNL     1     -33.685  16.934  -2.563  1.00 20.00     0.000 C 
HETATM    4  C4  UNL     1     -34.879  16.609  -2.023  1.00 20.00    -0.041 C 
HETATM    5  C5  UNL     1     -33.371  16.618  -4.009  1.00 20.00     0.083 C 
HETATM    6  C6  UNL     1     -35.934  15.883  -2.840  1.00 20.00     0.307 C 
HETATM    7  C7  UNL     1     -34.614  16.218  -4.829  1.00 20.00     0.223 C 
HETATM    8  C8  UNL     1     -35.303  16.922  -0.611  1.00 20.00     0.046 C 
HETATM    9  C9  UNL     1     -34.213  15.720  -6.221  1.00 20.00     0.043 C 
HETATM   10  C10 UNL     1     -34.881  13.956  -3.868  1.00 20.00     0.310 C 
HETATM   11  N11 UNL     1     -35.480  15.271  -4.101  1.00 20.00     0.092 N 
ENDROOT
TORSDOF 0
ENDMDL
MODEL 5
REMARK VINA RESULT:      -4.1     12.208     14.251
REMARK  0 active torsions:
REMARK  status: ('A' for Active; 'I' for Inactive)
ROOT
HETATM    1  C1  UNL     1     -34.916  15.514  -2.796  1.00 20.00     0.017 C 
HETATM    2  C2  UNL     1     -34.749  16.311  -1.914  1.00 20.00    -0.082 C 
HETATM    3  C3  UNL     1     -34.547  17.257  -0.866  1.00 20.00     0.000 C 
HETATM    4  C4  UNL     1     -33.525  18.138  -0.898  1.00 20.00    -0.041 C 
HETATM    5  C5  UNL     1     -35.536  17.252   0.280  1.00 20.00     0.083 C 
HETATM    6  C6  UNL     1     -33.313  19.131   0.232  1.00 20.00     0.307 C 
HETATM    7  C7  UNL     1     -35.444  18.507   1.170  1.00 20.00     0.223 C 
HETATM    8  C8  UNL     1     -32.518  18.252  -2.014  1.00 20.00     0.046 C 
HETATM    9  C9  UNL     1     -36.321  18.359   2.416  1.00 20.00     0.043 C 
HETATM   10  C10 UNL     1     -33.343  17.896   2.319  1.00 20.00     0.310 C 
HETATM   11  N11 UNL     1     -34.048  18.868   1.481  1.00 20.00     0.092 N 
ENDROOT
TORSDOF 0
ENDMDL
MODEL 6
REMARK VINA RESULT:      -4.0     13.828     16.208
REMARK  0 active torsions:
REMARK  status: ('A' for Active; 'I' for Inactive)
ROOT
HETATM    1  C1  UNL     1     -32.779  14.431  -4.598  1.00 20.00     0.017 C 
HETATM    2  C2  UNL     1     -33.330  15.182  -3.841  1.00 20.00    -0.082 C 
HETATM    3  C3  UNL     1     -33.985  16.076  -2.944  1.00 20.00     0.000 C 
HETATM    4  C4  UNL     1     -35.327  16.065  -2.793  1.00 20.00    -0.041 C 
HETATM    5  C5  UNL     1     -33.120  17.028  -2.148  1.00 20.00     0.083 C 
HETATM    6  C6  UNL     1     -36.015  17.032  -1.844  1.00 20.00     0.307 C 
HETATM    7  C7  UNL     1     -33.867  17.698  -0.978  1.00 20.00     0.223 C 
HETATM    8  C8  UNL     1     -36.269  15.127  -3.503  1.00 20.00     0.046 C 
HETATM    9  C9  UNL     1     -33.007  18.790  -0.334  1.00 20.00     0.043 C 
HETATM   10  C10 UNL     1     -35.205  19.263  -2.344  1.00 20.00     0.310 C 
HETATM   11  N11 UNL     1     -35.208  18.170  -1.370  1.00 20.00     0.092 N 
ENDROOT
TORSDOF 0
ENDMDL
MODEL 7
REMARK VINA RESULT:      -4.0     13.357     15.916
REMARK  0 active torsions:
REMARK  status: ('A' for Active; 'I' for Inactive)
ROOT
HETATM    1  C1  UNL     1     -31.096  18.439  -0.365  1.00 20.00     0.017 C 
HETATM    2  C2  UNL     1     -32.083  18.102  -0.960  1.00 20.00    -0.082 C 
HETATM    3  C3  UNL     1     -33.256  17.701  -1.665  1.00 20.00     0.000 C 
HETATM    4  C4  UNL     1     -34.428  17.499  -1.026  1.00 20.00    -0.041 C 
HETATM    5  C5  UNL     1     -33.146  17.527  -3.164  1.00 20.00     0.083 C 
HETATM    6  C6  UNL     1     -35.667  17.057  -1.787  1.00 20.00     0.307 C 
HETATM    7  C7  UNL     1     -34.514  17.434  -3.869  1.00 20.00     0.223 C 
HETATM    8  C8  UNL     1     -34.650  17.689   0.452  1.00 20.00     0.046 C 
HETATM    9  C9  UNL     1     -34.343  17.063  -5.346  1.00 20.00     0.043 C 
HETATM   10  C10 UNL     1     -35.062  15.137  -3.139  1.00 20.00     0.310 C 
HETATM   11  N11 UNL     1     -35.450  16.548  -3.152  1.00 20.00     0.092 N 
ENDROOT
TORSDOF 0
ENDMDL
MODEL 8
REMARK VINA RESULT:      -3.9     15.812     18.111
REMARK  0 active torsions:
REMARK  status: ('A' for Active; 'I' for Inactive)
ROOT
HETATM    1  C1  UNL     1     -33.307  17.386  -1.644  1.00 20.00     0.017 C 
HETATM    2  C2  UNL     1     -33.950  16.720  -2.408  1.00 20.00    -0.082 C 
HETATM    3  C3  UNL     1     -34.713  15.930  -3.318  1.00 20.00     0.000 C 
HETATM    4  C4  UNL     1     -34.122  15.053  -4.157  1.00 20.00    -0.041 C 
HETATM    5  C5  UNL     1     -36.217  16.094  -3.296  1.00 20.00     0.083 C 
HETATM    6  C6  UNL     1     -34.945  14.227  -5.131  1.00 20.00     0.307 C 
HETATM    7  C7  UNL     1     -36.963  14.975  -4.048  1.00 20.00     0.223 C 
HETATM    8  C8  UNL     1     -32.640  14.784  -4.223  1.00 20.00     0.046 C 
HETATM    9  C9  UNL     1     -38.457  15.296  -4.162  1.00 20.00     0.043 C 
HETATM   10  C10 UNL     1     -36.410  15.741  -6.332  1.00 20.00     0.310 C 
HETATM   11  N11 UNL     1     -36.336  14.662  -5.345  1.00 20.00     0.092 N 
ENDROOT
TORSDOF 0
ENDMDL
MODEL 9
REMARK VINA RESULT:      -3.8     12.950     15.182
REMARK  0 active torsions:
REMARK  status: ('A' for Active; 'I' for Inactive)
ROOT
HETATM    1  C1  UNL     1     -31.093  18.456  -0.428  1.00 20.00     0.017 C 
HETATM    2  C2  UNL     1     -32.245  18.168  -0.602  1.00 20.00    -0.082 C 
HETATM    3  C3  UNL     1     -33.614  17.827  -0.812  1.00 20.00     0.000 C 
HETATM    4  C4  UNL     1     -34.003  17.101  -1.881  1.00 20.00    -0.041 C 
HETATM    5  C5  UNL     1     -34.617  18.292   0.221  1.00 20.00     0.083 C 
HETATM    6  C6  UNL     1     -35.467  16.756  -2.101  1.00 20.00     0.307 C 
HETATM    7  C7  UNL     1     -35.986  17.597   0.098  1.00 20.00     0.223 C 
HETATM    8  C8  UNL     1     -33.078  16.554  -2.938  1.00 20.00     0.046 C 
HETATM    9  C9  UNL     1     -37.014  18.243   1.033  1.00 20.00     0.043 C 
HETATM   10  C10 UNL     1     -36.747  18.807  -1.918  1.00 20.00     0.310 C 
HETATM   11  N11 UNL     1     -36.445  17.514  -1.301  1.00 20.00     0.092 N 
ENDROOT
TORSDOF 0
ENDMDL
