MODEL 1
REMARK VINA RESULT:      -5.7      0.000      0.000
REMARK  2 active torsions:
REMARK  status: ('A' for Active; 'I' for Inactive)
REMARK    1  A    between atoms: C3_3  and  C6_6 
REMARK    2  A    between atoms: C7_7  and  O11_11 
ROOT
HETATM    1  C1  UNL     1     -34.755  16.624  -2.154  1.00 20.00    -0.023 C 
HETATM    2  C2  UNL     1     -33.462  16.753  -2.497  1.00 20.00    -0.085 C 
HETATM    3  C4  UNL     1     -35.678  15.609  -2.757  1.00 20.00     0.042 C 
HETATM    4  C5  UNL     1     -32.830  15.887  -3.557  1.00 20.00     0.071 C 
HETATM    5  C6  UNL     1     -34.961  14.538  -3.592  1.00 20.00     0.084 C 
HETATM    6  C7  UNL     1     -33.835  15.137  -4.464  1.00 20.00     0.068 C 
HETATM    7  C8  UNL     1     -32.565  17.760  -1.842  1.00 20.00     0.043 C 
HETATM    8  C9  UNL     1     -34.354  16.063  -5.574  1.00 20.00     0.047 C 
ENDROOT
BRANCH   6   9
HETATM    9  O11 UNL     1     -33.094  14.076  -5.080  1.00 20.00    -0.389 OA
HETATM   10  H25 UNL     1     -33.740  13.559  -5.579  1.00 20.00     0.210 HD
ENDBRANCH   6   9
BRANCH   5  11
HETATM   11  C3  UNL     1     -35.975  13.771  -4.397  1.00 20.00     0.238 C 
HETATM   12  O10 UNL     1     -35.884  12.572  -4.635  1.00 20.00    -0.306 OA
ENDBRANCH   5  11
TORSDOF 2
ENDMDL
MODEL 2
REMARK VINA RESULT:      -4.7      1.683      2.237
REMARK  2 active torsions:
REMARK  status: ('A' for Active; 'I' for Inactive)
REMARK    1  A    between atoms: C3_3  and  C6_6 
REMARK    2  A    between atoms: C7_7  and  O11_11 
ROOT
HETATM    1  C1  UNL     1     -35.197  16.860  -3.374  1.00 20.00    -0.023 C 
HETATM    2  C2  UNL     1     -34.207  15.954  -3.437  1.00 20.00    -0.085 C 
HETATM    3  C4  UNL     1     -36.628  16.554  -3.697  1.00 20.00     0.042 C 
HETATM    4  C5  UNL     1     -34.458  14.532  -3.871  1.00 20.00     0.071 C 
HETATM    5  C6  UNL     1     -36.926  15.052  -3.828  1.00 20.00     0.084 C 
HETATM    6  C7  UNL     1     -35.809  14.303  -4.589  1.00 20.00     0.068 C 
HETATM    7  C8  UNL     1     -32.794  16.296  -3.072  1.00 20.00     0.043 C 
HETATM    8  C9  UNL     1     -35.708  14.704  -6.069  1.00 20.00     0.047 C 
ENDROOT
BRANCH   6   9
HETATM    9  O11 UNL     1     -36.055  12.893  -4.526  1.00 20.00    -0.389 OA
HETATM   10  H25 UNL     1     -36.879  12.747  -5.009  1.00 20.00     0.210 HD
ENDBRANCH   6   9
BRANCH   5  11
HETATM   11  C3  UNL     1     -38.282  14.865  -4.452  1.00 20.00     0.238 C 
HETATM   12  O10 UNL     1     -38.883  13.797  -4.457  1.00 20.00    -0.306 OA
ENDBRANCH   5  11
TORSDOF 2
ENDMDL
MODEL 3
REMARK VINA RESULT:      -4.4     10.841     12.543
REMARK  2 active torsions:
REMARK  status: ('A' for Active; 'I' for Inactive)
REMARK    1  A    between atoms: C3_3  and  C6_6 
REMARK    2  A    between atoms: C7_7  and  O11_11 
ROOT
HETATM    1  C1  UNL     1     -42.705   8.125  -1.166  1.00 20.00    -0.023 C 
HETATM    2  C2  UNL     1     -41.925   8.287  -0.084  1.00 20.00    -0.085 C 
HETATM    3  C4  UNL     1     -43.267   6.804  -1.597  1.00 20.00     0.042 C 
HETATM    4  C5  UNL     1     -41.524   7.124   0.788  1.00 20.00     0.071 C 
HETATM    5  C6  UNL     1     -43.119   5.695  -0.544  1.00 20.00     0.084 C 
HETATM    6  C7  UNL     1     -41.739   5.732   0.149  1.00 20.00     0.068 C 
HETATM    7  C8  UNL     1     -41.413   9.634   0.330  1.00 20.00     0.043 C 
HETATM    8  C9  UNL     1     -40.576   5.386  -0.794  1.00 20.00     0.047 C 
ENDROOT
BRANCH   6   9
HETATM    9  O11 UNL     1     -41.726   4.795   1.233  1.00 20.00    -0.389 OA
HETATM   10  H25 UNL     1     -41.071   5.126   1.861  1.00 20.00     0.210 HD
ENDBRANCH   6   9
BRANCH   5  11
HETATM   11  C3  UNL     1     -43.417   4.363  -1.178  1.00 20.00     0.238 C 
HETATM   12  O10 UNL     1     -43.352   4.159  -2.385  1.00 20.00    -0.306 OA
ENDBRANCH   5  11
TORSDOF 2
ENDMDL
MODEL 4
REMARK VINA RESULT:      -4.3      1.426      2.115
REMARK  2 active torsions:
REMARK  status: ('A' for Active; 'I' for Inactive)
REMARK    1  A    between atoms: C3_3  and  C6_6 
REMARK    2  A    between atoms: C7_7  and  O11_11 
ROOT
HETATM    1  C1  UNL     1     -34.138  17.618  -3.944  1.00 20.00    -0.023 C 
HETATM    2  C2  UNL     1     -34.110  16.926  -2.794  1.00 20.00    -0.085 C 
HETATM    3  C4  UNL     1     -34.513  17.022  -5.267  1.00 20.00     0.042 C 
HETATM    4  C5  UNL     1     -34.438  15.454  -2.744  1.00 20.00     0.071 C 
HETATM    5  C6  UNL     1     -35.143  15.624  -5.159  1.00 20.00     0.084 C 
HETATM    6  C7  UNL     1     -34.423  14.741  -4.116  1.00 20.00     0.068 C 
HETATM    7  C8  UNL     1     -33.762  17.572  -1.486  1.00 20.00     0.043 C 
HETATM    8  C9  UNL     1     -32.985  14.376  -4.518  1.00 20.00     0.047 C 
ENDROOT
BRANCH   6   9
HETATM    9  O11 UNL     1     -35.157  13.524  -3.936  1.00 20.00    -0.389 OA
HETATM   10  H25 UNL     1     -35.121  13.332  -2.989  1.00 20.00     0.210 HD
ENDBRANCH   6   9
BRANCH   5  11
HETATM   11  C3  UNL     1     -35.190  14.993  -6.524  1.00 20.00     0.238 C 
HETATM   12  O10 UNL     1     -35.889  14.023  -6.797  1.00 20.00    -0.306 OA
ENDBRANCH   5  11
TORSDOF 2
ENDMDL
MODEL 5
REMARK VINA RESULT:      -4.3      1.640      2.859
REMARK  2 active torsions:
REMARK  status: ('A' for Active; 'I' for Inactive)
REMARK    1  A    between atoms: C3_3  and  C6_6 
REMARK    2  A    between atoms: C7_7  and  O11_11 
ROOT
HETATM    1  C1  UNL     1     -33.704  16.043  -2.632  1.00 20.00    -0.023 C 
HETATM    2  C2  UNL     1     -34.975  16.334  -2.306  1.00 20.00    -0.085 C 
HETATM    3  C4  UNL     1     -33.278  15.587  -3.994  1.00 20.00     0.042 C 
HETATM    4  C5  UNL     1     -36.101  16.200  -3.300  1.00 20.00     0.071 C 
HETATM    5  C6  UNL     1     -34.361  15.755  -5.071  1.00 20.00     0.084 C 
HETATM    6  C7  UNL     1     -35.762  15.359  -4.553  1.00 20.00     0.068 C 
HETATM    7  C8  UNL     1     -35.352  16.821  -0.939  1.00 20.00     0.043 C 
HETATM    8  C9  UNL     1     -35.894  13.859  -4.247  1.00 20.00     0.047 C 
ENDROOT
BRANCH   6   9
HETATM    9  O11 UNL     1     -36.746  15.701  -5.536  1.00 20.00    -0.389 OA
HETATM   10  H25 UNL     1     -36.964  16.629  -5.380  1.00 20.00     0.210 HD
ENDBRANCH   6   9
BRANCH   5  11
HETATM   11  C3  UNL     1     -33.959  14.994  -6.305  1.00 20.00     0.238 C 
HETATM   12  O10 UNL     1     -34.520  15.117  -7.388  1.00 20.00    -0.306 OA
ENDBRANCH   5  11
TORSDOF 2
ENDMDL
MODEL 6
REMARK VINA RESULT:      -4.2      3.314      4.893
REMARK  2 active torsions:
REMARK  status: ('A' for Active; 'I' for Inactive)
REMARK    1  A    between atoms: C3_3  and  C6_6 
REMARK    2  A    between atoms: C7_7  and  O11_11 
ROOT
HETATM    1  C1  UNL     1     -32.981  16.489  -3.004  1.00 20.00    -0.023 C 
HETATM    2  C2  UNL     1     -34.075  15.710  -3.048  1.00 20.00    -0.085 C 
HETATM    3  C4  UNL     1     -32.813  17.636  -2.055  1.00 20.00     0.042 C 
HETATM    4  C5  UNL     1     -35.256  15.948  -2.142  1.00 20.00     0.071 C 
HETATM    5  C6  UNL     1     -33.868  17.675  -0.938  1.00 20.00     0.084 C 
HETATM    6  C7  UNL     1     -35.282  17.337  -1.462  1.00 20.00     0.068 C 
HETATM    7  C8  UNL     1     -34.186  14.550  -3.992  1.00 20.00     0.043 C 
HETATM    8  C9  UNL     1     -35.843  18.397  -2.422  1.00 20.00     0.047 C 
ENDROOT
BRANCH   6   9
HETATM    9  O11 UNL     1     -36.183  17.217  -0.354  1.00 20.00    -0.389 OA
HETATM   10  H25 UNL     1     -36.128  18.056   0.122  1.00 20.00     0.210 HD
ENDBRANCH   6   9
BRANCH   5  11
HETATM   11  C3  UNL     1     -33.808  19.008  -0.242  1.00 20.00     0.238 C 
HETATM   12  O10 UNL     1     -34.340  19.231   0.839  1.00 20.00    -0.306 OA
ENDBRANCH   5  11
TORSDOF 2
ENDMDL
MODEL 7
REMARK VINA RESULT:      -4.1      1.745      2.155
REMARK  2 active torsions:
REMARK  status: ('A' for Active; 'I' for Inactive)
REMARK    1  A    between atoms: C3_3  and  C6_6 
REMARK    2  A    between atoms: C7_7  and  O11_11 
ROOT
HETATM    1  C1  UNL     1     -33.567  16.022  -3.049  1.00 20.00    -0.023 C 
HETATM    2  C2  UNL     1     -33.696  17.205  -3.671  1.00 20.00    -0.085 C 
HETATM    3  C4  UNL     1     -34.362  14.803  -3.406  1.00 20.00     0.042 C 
HETATM    4  C5  UNL     1     -34.691  17.414  -4.785  1.00 20.00     0.071 C 
HETATM    5  C6  UNL     1     -35.133  14.931  -4.728  1.00 20.00     0.084 C 
HETATM    6  C7  UNL     1     -35.784  16.324  -4.889  1.00 20.00     0.068 C 
HETATM    7  C8  UNL     1     -32.854  18.391  -3.304  1.00 20.00     0.043 C 
HETATM    8  C9  UNL     1     -36.909  16.589  -3.876  1.00 20.00     0.047 C 
ENDROOT
BRANCH   6   9
HETATM    9  O11 UNL     1     -36.334  16.442  -6.207  1.00 20.00    -0.389 OA
HETATM   10  H25 UNL     1     -35.584  16.376  -6.813  1.00 20.00     0.210 HD
ENDBRANCH   6   9
BRANCH   5  11
HETATM   11  C3  UNL     1     -36.128  13.808  -4.837  1.00 20.00     0.238 C 
HETATM   12  O10 UNL     1     -35.898  12.663  -4.465  1.00 20.00    -0.306 OA
ENDBRANCH   5  11
TORSDOF 2
ENDMDL
MODEL 8
REMARK VINA RESULT:      -4.1     10.965     12.816
REMARK  2 active torsions:
REMARK  status: ('A' for Active; 'I' for Inactive)
REMARK    1  A    between atoms: C3_3  and  C6_6 
REMARK    2  A    between atoms: C7_7  and  O11_11 
ROOT
HETATM    1  C1  UNL     1     -43.417   6.160  -2.019  1.00 20.00    -0.023 C 
HETATM    2  C2  UNL     1     -42.656   5.149  -1.570  1.00 20.00    -0.085 C 
HETATM    3  C4  UNL     1     -43.355   7.555  -1.475  1.00 20.00     0.042 C 
HETATM    4  C5  UNL     1     -41.674   5.334  -0.440  1.00 20.00     0.071 C 
HETATM    5  C6  UNL     1     -42.148   7.808  -0.558  1.00 20.00     0.084 C 
HETATM    6  C7  UNL     1     -41.881   6.620   0.393  1.00 20.00     0.068 C 
HETATM    7  C8  UNL     1     -42.728   3.775  -2.168  1.00 20.00     0.043 C 
HETATM    8  C9  UNL     1     -42.993   6.414   1.435  1.00 20.00     0.047 C 
ENDROOT
BRANCH   6   9
HETATM    9  O11 UNL     1     -40.651   6.838   1.094  1.00 20.00    -0.389 OA
HETATM   10  H25 UNL     1     -40.828   7.550   1.724  1.00 20.00     0.210 HD
ENDBRANCH   6   9
BRANCH   5  11
HETATM   11  C3  UNL     1     -42.343   9.108   0.175  1.00 20.00     0.238 C 
HETATM   12  O10 UNL     1     -41.425   9.871   0.453  1.00 20.00    -0.306 OA
ENDBRANCH   5  11
TORSDOF 2
ENDMDL
MODEL 9
REMARK VINA RESULT:      -4.1      2.544      4.382
REMARK  2 active torsions:
REMARK  status: ('A' for Active; 'I' for Inactive)
REMARK    1  A    between atoms: C3_3  and  C6_6 
REMARK    2  A    between atoms: C7_7  and  O11_11 
ROOT
HETATM    1  C1  UNL     1     -33.946  14.671  -4.191  1.00 20.00    -0.023 C 
HETATM    2  C2  UNL     1     -35.271  14.635  -3.970  1.00 20.00    -0.085 C 
HETATM    3  C4  UNL     1     -33.024  15.671  -3.562  1.00 20.00     0.042 C 
HETATM    4  C5  UNL     1     -35.954  15.635  -3.071  1.00 20.00     0.071 C 
HETATM    5  C6  UNL     1     -33.667  16.473  -2.420  1.00 20.00     0.084 C 
HETATM    6  C7  UNL     1     -35.116  16.894  -2.749  1.00 20.00     0.068 C 
HETATM    7  C8  UNL     1     -36.151  13.594  -4.594  1.00 20.00     0.043 C 
HETATM    8  C9  UNL     1     -35.207  17.911  -3.898  1.00 20.00     0.047 C 
ENDROOT
BRANCH   6   9
HETATM    9  O11 UNL     1     -35.716  17.480  -1.588  1.00 20.00    -0.389 OA
HETATM   10  H25 UNL     1     -36.671  17.386  -1.707  1.00 20.00     0.210 HD
ENDBRANCH   6   9
BRANCH   5  11
HETATM   11  C3  UNL     1     -32.784  17.642  -2.074  1.00 20.00     0.238 C 
HETATM   12  O10 UNL     1     -32.822  18.221  -0.994  1.00 20.00    -0.306 OA
ENDBRANCH   5  11
TORSDOF 2
ENDMDL
