MODEL 1
REMARK VINA RESULT:      -4.5      0.000      0.000
REMARK  2 active torsions:
REMARK  status: ('A' for Active; 'I' for Inactive)
REMARK    1  A    between atoms: C4_4  and  C6_6 
REMARK    2  A    between atoms: C7_7  and  O10_10 
ROOT
HETATM    1  C1  UNL     1     -24.496  19.140   6.903  1.00 20.00     0.218 C 
HETATM    2  C4  UNL     1     -25.029  19.004   8.082  1.00 20.00     0.043 C 
HETATM    3  O9  UNL     1     -24.015  19.263   5.837  1.00 20.00    -0.284 OA
ENDROOT
BRANCH   2   4
HETATM    4  C6  UNL     1     -24.263  18.968   9.366  1.00 20.00     0.064 C 
HETATM    5  C3  UNL     1     -22.815  18.643   9.145  1.00 20.00    -0.020 C 
HETATM    6  C2  UNL     1     -22.497  17.419   9.579  1.00 20.00    -0.027 C 
HETATM    7  C5  UNL     1     -23.675  16.707  10.154  1.00 20.00     0.059 C 
HETATM    8  C7  UNL     1     -24.714  17.826  10.298  1.00 20.00     0.135 C 
BRANCH   8   9
HETATM    9  O10 UNL     1     -24.703  18.285  11.651  1.00 20.00    -0.389 OA
HETATM   10  C8  UNL     1     -25.910  18.958  11.975  1.00 20.00     0.202 C 
ENDBRANCH   8   9
ENDBRANCH   2   4
TORSDOF 2
ENDMDL
MODEL 2
REMARK VINA RESULT:      -4.3     15.487     17.157
REMARK  2 active torsions:
REMARK  status: ('A' for Active; 'I' for Inactive)
REMARK    1  A    between atoms: C4_4  and  C6_6 
REMARK    2  A    between atoms: C7_7  and  O10_10 
ROOT
HETATM    1  C1  UNL     1     -35.156  13.484  -4.184  1.00 20.00     0.218 C 
HETATM    2  C4  UNL     1     -34.257  14.364  -3.853  1.00 20.00     0.043 C 
HETATM    3  O9  UNL     1     -35.968  12.687  -4.483  1.00 20.00    -0.284 OA
ENDROOT
BRANCH   2   4
HETATM    4  C6  UNL     1     -34.495  15.838  -3.772  1.00 20.00     0.064 C 
HETATM    5  C3  UNL     1     -33.338  16.557  -3.142  1.00 20.00    -0.020 C 
HETATM    6  C2  UNL     1     -33.629  17.016  -1.921  1.00 20.00    -0.027 C 
HETATM    7  C5  UNL     1     -35.024  16.676  -1.514  1.00 20.00     0.059 C 
HETATM    8  C7  UNL     1     -35.657  16.205  -2.829  1.00 20.00     0.135 C 
BRANCH   8   9
HETATM    9  O10 UNL     1     -36.400  17.289  -3.389  1.00 20.00    -0.389 OA
HETATM   10  C8  UNL     1     -36.714  17.047  -4.752  1.00 20.00     0.202 C 
ENDBRANCH   8   9
ENDBRANCH   2   4
TORSDOF 2
ENDMDL
MODEL 3
REMARK VINA RESULT:      -4.3     15.712     16.214
REMARK  2 active torsions:
REMARK  status: ('A' for Active; 'I' for Inactive)
REMARK    1  A    between atoms: C4_4  and  C6_6 
REMARK    2  A    between atoms: C7_7  and  O10_10 
ROOT
HETATM    1  C1  UNL     1     -32.831   8.339   1.242  1.00 20.00     0.218 C 
HETATM    2  C4  UNL     1     -32.871   7.055   1.449  1.00 20.00     0.043 C 
HETATM    3  O9  UNL     1     -32.794   9.499   1.054  1.00 20.00    -0.284 OA
ENDROOT
BRANCH   2   4
HETATM    4  C6  UNL     1     -32.699   6.399   2.781  1.00 20.00     0.064 C 
HETATM    5  C3  UNL     1     -32.918   4.917   2.707  1.00 20.00    -0.020 C 
HETATM    6  C2  UNL     1     -34.054   4.540   3.302  1.00 20.00    -0.027 C 
HETATM    7  C5  UNL     1     -34.800   5.702   3.868  1.00 20.00     0.059 C 
HETATM    8  C7  UNL     1     -33.767   6.834   3.804  1.00 20.00     0.135 C 
BRANCH   8   9
HETATM    9  O10 UNL     1     -33.164   6.972   5.091  1.00 20.00    -0.389 OA
HETATM   10  C8  UNL     1     -34.088   6.674   6.127  1.00 20.00     0.202 C 
ENDBRANCH   8   9
ENDBRANCH   2   4
TORSDOF 2
ENDMDL
MODEL 4
REMARK VINA RESULT:      -4.2     15.307     17.153
REMARK  2 active torsions:
REMARK  status: ('A' for Active; 'I' for Inactive)
REMARK    1  A    between atoms: C4_4  and  C6_6 
REMARK    2  A    between atoms: C7_7  and  O10_10 
ROOT
HETATM    1  C1  UNL     1     -37.149  14.696  -4.115  1.00 20.00     0.218 C 
HETATM    2  C4  UNL     1     -36.378  15.687  -3.775  1.00 20.00     0.043 C 
HETATM    3  O9  UNL     1     -37.846  13.800  -4.423  1.00 20.00    -0.284 OA
ENDROOT
BRANCH   2   4
HETATM    4  C6  UNL     1     -35.052  15.545  -3.098  1.00 20.00     0.064 C 
HETATM    5  C3  UNL     1     -35.055  16.156  -1.728  1.00 20.00    -0.020 C 
HETATM    6  C2  UNL     1     -34.328  17.276  -1.669  1.00 20.00    -0.027 C 
HETATM    7  C5  UNL     1     -33.721  17.618  -2.989  1.00 20.00     0.059 C 
HETATM    8  C7  UNL     1     -33.933  16.336  -3.804  1.00 20.00     0.135 C 
BRANCH   8   9
HETATM    9  O10 UNL     1     -32.725  15.575  -3.778  1.00 20.00    -0.389 OA
HETATM   10  C8  UNL     1     -32.887  14.328  -4.435  1.00 20.00     0.202 C 
ENDBRANCH   8   9
ENDBRANCH   2   4
TORSDOF 2
ENDMDL
MODEL 5
REMARK VINA RESULT:      -4.1     15.967     17.823
REMARK  2 active torsions:
REMARK  status: ('A' for Active; 'I' for Inactive)
REMARK    1  A    between atoms: C4_4  and  C6_6 
REMARK    2  A    between atoms: C7_7  and  O10_10 
ROOT
HETATM    1  C1  UNL     1     -36.292  13.830  -4.359  1.00 20.00     0.218 C 
HETATM    2  C4  UNL     1     -35.021  14.040  -4.181  1.00 20.00     0.043 C 
HETATM    3  O9  UNL     1     -37.441  13.640  -4.520  1.00 20.00    -0.284 OA
ENDROOT
BRANCH   2   4
HETATM    4  C6  UNL     1     -34.315  15.322  -4.489  1.00 20.00     0.064 C 
HETATM    5  C3  UNL     1     -33.152  15.554  -3.571  1.00 20.00    -0.020 C 
HETATM    6  C2  UNL     1     -33.378  16.545  -2.703  1.00 20.00    -0.027 C 
HETATM    7  C5  UNL     1     -34.734  17.143  -2.879  1.00 20.00     0.059 C 
HETATM    8  C7  UNL     1     -35.190  16.563  -4.224  1.00 20.00     0.135 C 
BRANCH   8   9
HETATM    9  O10 UNL     1     -34.953  17.537  -5.242  1.00 20.00    -0.389 OA
HETATM   10  C8  UNL     1     -34.961  16.945  -6.532  1.00 20.00     0.202 C 
ENDBRANCH   8   9
ENDBRANCH   2   4
TORSDOF 2
ENDMDL
MODEL 6
REMARK VINA RESULT:      -4.1     12.840     15.144
REMARK  2 active torsions:
REMARK  status: ('A' for Active; 'I' for Inactive)
REMARK    1  A    between atoms: C4_4  and  C6_6 
REMARK    2  A    between atoms: C7_7  and  O10_10 
ROOT
HETATM    1  C1  UNL     1     -31.745  18.206  -0.663  1.00 20.00     0.218 C 
HETATM    2  C4  UNL     1     -33.022  17.960  -0.677  1.00 20.00     0.043 C 
HETATM    3  O9  UNL     1     -30.590  18.428  -0.650  1.00 20.00    -0.284 OA
ENDROOT
BRANCH   2   4
HETATM    4  C6  UNL     1     -33.847  17.793  -1.913  1.00 20.00     0.064 C 
HETATM    5  C3  UNL     1     -34.891  16.728  -1.749  1.00 20.00    -0.020 C 
HETATM    6  C2  UNL     1     -34.619  15.634  -2.466  1.00 20.00    -0.027 C 
HETATM    7  C5  UNL     1     -33.341  15.767  -3.225  1.00 20.00     0.059 C 
HETATM    8  C7  UNL     1     -33.031  17.264  -3.109  1.00 20.00     0.135 C 
BRANCH   8   9
HETATM    9  O10 UNL     1     -33.466  17.914  -4.305  1.00 20.00    -0.389 OA
HETATM   10  C8  UNL     1     -33.025  19.262  -4.347  1.00 20.00     0.202 C 
ENDBRANCH   8   9
ENDBRANCH   2   4
TORSDOF 2
ENDMDL
MODEL 7
REMARK VINA RESULT:      -4.1     15.751     17.620
REMARK  2 active torsions:
REMARK  status: ('A' for Active; 'I' for Inactive)
REMARK    1  A    between atoms: C4_4  and  C6_6 
REMARK    2  A    between atoms: C7_7  and  O10_10 
ROOT
HETATM    1  C1  UNL     1     -36.655  14.000  -4.418  1.00 20.00     0.218 C 
HETATM    2  C4  UNL     1     -35.419  14.402  -4.383  1.00 20.00     0.043 C 
HETATM    3  O9  UNL     1     -37.773  13.635  -4.450  1.00 20.00    -0.284 OA
ENDROOT
BRANCH   2   4
HETATM    4  C6  UNL     1     -34.988  15.824  -4.213  1.00 20.00     0.064 C 
HETATM    5  C3  UNL     1     -33.566  15.926  -3.749  1.00 20.00    -0.020 C 
HETATM    6  C2  UNL     1     -33.473  16.340  -2.481  1.00 20.00    -0.027 C 
HETATM    7  C5  UNL     1     -34.814  16.578  -1.872  1.00 20.00     0.059 C 
HETATM    8  C7  UNL     1     -35.750  16.549  -3.086  1.00 20.00     0.135 C 
BRANCH   8   9
HETATM    9  O10 UNL     1     -36.020  17.894  -3.484  1.00 20.00    -0.389 OA
HETATM   10  C8  UNL     1     -36.768  17.934  -4.690  1.00 20.00     0.202 C 
ENDBRANCH   8   9
ENDBRANCH   2   4
TORSDOF 2
ENDMDL
MODEL 8
REMARK VINA RESULT:      -4.0      1.999      3.007
REMARK  2 active torsions:
REMARK  status: ('A' for Active; 'I' for Inactive)
REMARK    1  A    between atoms: C4_4  and  C6_6 
REMARK    2  A    between atoms: C7_7  and  O10_10 
ROOT
HETATM    1  C1  UNL     1     -25.382  19.075   8.104  1.00 20.00     0.218 C 
HETATM    2  C4  UNL     1     -24.578  18.918   9.114  1.00 20.00     0.043 C 
HETATM    3  O9  UNL     1     -26.109  19.218   7.190  1.00 20.00    -0.284 OA
ENDROOT
BRANCH   2   4
HETATM    4  C6  UNL     1     -23.684  17.738   9.319  1.00 20.00     0.064 C 
HETATM    5  C3  UNL     1     -24.252  16.773  10.317  1.00 20.00    -0.020 C 
HETATM    6  C2  UNL     1     -23.572  16.772  11.468  1.00 20.00    -0.027 C 
HETATM    7  C5  UNL     1     -22.439  17.743  11.447  1.00 20.00     0.059 C 
HETATM    8  C7  UNL     1     -22.335  18.114   9.963  1.00 20.00     0.135 C 
BRANCH   8   9
HETATM    9  O10 UNL     1     -21.293  17.337   9.371  1.00 20.00    -0.389 OA
HETATM   10  C8  UNL     1     -21.442  17.265   7.961  1.00 20.00     0.202 C 
ENDBRANCH   8   9
ENDBRANCH   2   4
TORSDOF 2
ENDMDL
MODEL 9
REMARK VINA RESULT:      -4.0     22.930     23.674
REMARK  2 active torsions:
REMARK  status: ('A' for Active; 'I' for Inactive)
REMARK    1  A    between atoms: C4_4  and  C6_6 
REMARK    2  A    between atoms: C7_7  and  O10_10 
ROOT
HETATM    1  C1  UNL     1     -41.512   8.991  -0.219  1.00 20.00     0.218 C 
HETATM    2  C4  UNL     1     -41.583   7.886  -0.903  1.00 20.00     0.043 C 
HETATM    3  O9  UNL     1     -41.447   9.989   0.399  1.00 20.00    -0.284 OA
ENDROOT
BRANCH   2   4
HETATM    4  C6  UNL     1     -41.670   6.517  -0.308  1.00 20.00     0.064 C 
HETATM    5  C3  UNL     1     -40.738   5.554  -0.983  1.00 20.00    -0.020 C 
HETATM    6  C2  UNL     1     -41.388   4.655  -1.727  1.00 20.00    -0.027 C 
HETATM    7  C5  UNL     1     -42.866   4.864  -1.692  1.00 20.00     0.059 C 
HETATM    8  C7  UNL     1     -43.042   5.853  -0.534  1.00 20.00     0.135 C 
BRANCH   8   9
HETATM    9  O10 UNL     1     -43.415   5.123   0.636  1.00 20.00    -0.389 OA
HETATM   10  C8  UNL     1     -43.407   5.954   1.786  1.00 20.00     0.202 C 
ENDBRANCH   8   9
ENDBRANCH   2   4
TORSDOF 2
ENDMDL
