MODEL 1
REMARK VINA RESULT:      -4.7      0.000      0.000
REMARK  3 active torsions:
REMARK  status: ('A' for Active; 'I' for Inactive)
REMARK    1  A    between atoms: C1_1  and  C4_4 
REMARK    2  A    between atoms: C3_3  and  C10_10 
REMARK    3  A    between atoms: C5_5  and  C10_10 
ROOT
HETATM    1  C1  UNL     1     -24.311  18.797   8.791  1.00 20.00    -0.101 C 
HETATM    2  C2  UNL     1     -25.157  18.855   7.941  1.00 20.00    -0.111 C 
HETATM    3  C7  UNL     1     -26.187  18.925   6.904  1.00 20.00     0.112 C 
ENDROOT
BRANCH   1   4
HETATM    4  C4  UNL     1     -23.301  18.728   9.807  1.00 20.00     0.078 A 
HETATM    5  C5  UNL     1     -22.220  17.670   9.753  1.00 20.00     0.017 A 
HETATM    6  C6  UNL     1     -23.294  17.593  10.824  1.00 20.00    -0.028 A 
HETATM    7  C8  UNL     1     -24.340  16.507  10.768  1.00 20.00     0.016 C 
HETATM    8  C9  UNL     1     -22.877  17.937  12.235  1.00 20.00     0.016 C 
BRANCH   5   9
HETATM    9  C10 UNL     1     -22.111  16.677   8.644  1.00 20.00     0.076 C 
BRANCH   9  10
HETATM   10  C3  UNL     1     -21.293  17.171   7.465  1.00 20.00     0.231 C 
HETATM   11  O11 UNL     1     -21.293  16.637   6.361  1.00 20.00    -0.307 OA
ENDBRANCH   9  10
ENDBRANCH   5   9
ENDBRANCH   1   4
TORSDOF 3
ENDMDL
MODEL 2
REMARK VINA RESULT:      -4.1     13.262     15.829
REMARK  3 active torsions:
REMARK  status: ('A' for Active; 'I' for Inactive)
REMARK    1  A    between atoms: C1_1  and  C4_4 
REMARK    2  A    between atoms: C3_3  and  C10_10 
REMARK    3  A    between atoms: C5_5  and  C10_10 
ROOT
HETATM    1  C1  UNL     1     -35.245  16.870  -1.408  1.00 20.00    -0.101 C 
HETATM    2  C2  UNL     1     -36.046  17.487  -0.761  1.00 20.00    -0.111 C 
HETATM    3  C7  UNL     1     -37.022  18.240   0.027  1.00 20.00     0.112 C 
ENDROOT
BRANCH   1   4
HETATM    4  C4  UNL     1     -34.289  16.132  -2.182  1.00 20.00     0.078 A 
HETATM    5  C5  UNL     1     -32.981  16.765  -2.603  1.00 20.00     0.017 A 
HETATM    6  C6  UNL     1     -34.044  16.472  -3.648  1.00 20.00    -0.028 A 
HETATM    7  C8  UNL     1     -34.788  17.607  -4.307  1.00 20.00     0.016 C 
HETATM    8  C9  UNL     1     -33.780  15.317  -4.586  1.00 20.00     0.016 C 
BRANCH   5   9
HETATM    9  C10 UNL     1     -32.588  18.151  -2.216  1.00 20.00     0.076 C 
BRANCH   9  10
HETATM   10  C3  UNL     1     -31.877  18.230  -0.877  1.00 20.00     0.231 C 
HETATM   11  O11 UNL     1     -30.674  18.434  -0.753  1.00 20.00    -0.307 OA
ENDBRANCH   9  10
ENDBRANCH   5   9
ENDBRANCH   1   4
TORSDOF 3
ENDMDL
MODEL 3
REMARK VINA RESULT:      -4.1     15.890     18.424
REMARK  3 active torsions:
REMARK  status: ('A' for Active; 'I' for Inactive)
REMARK    1  A    between atoms: C1_1  and  C4_4 
REMARK    2  A    between atoms: C3_3  and  C10_10 
REMARK    3  A    between atoms: C5_5  and  C10_10 
ROOT
HETATM    1  C1  UNL     1     -34.201  15.226  -5.250  1.00 20.00    -0.101 C 
HETATM    2  C2  UNL     1     -34.036  15.163  -6.437  1.00 20.00    -0.111 C 
HETATM    3  C7  UNL     1     -33.834  15.086  -7.884  1.00 20.00     0.112 C 
ENDROOT
BRANCH   1   4
HETATM    4  C4  UNL     1     -34.398  15.301  -3.831  1.00 20.00     0.078 A 
HETATM    5  C5  UNL     1     -35.748  15.670  -3.256  1.00 20.00     0.017 A 
HETATM    6  C6  UNL     1     -34.591  16.646  -3.141  1.00 20.00    -0.028 A 
HETATM    7  C8  UNL     1     -34.599  17.925  -3.942  1.00 20.00     0.016 C 
HETATM    8  C9  UNL     1     -33.970  16.811  -1.773  1.00 20.00     0.016 C 
BRANCH   5   9
HETATM    9  C10 UNL     1     -36.947  15.933  -4.104  1.00 20.00     0.076 C 
BRANCH   9  10
HETATM   10  C3  UNL     1     -37.880  14.742  -4.226  1.00 20.00     0.231 C 
HETATM   11  O11 UNL     1     -37.503  13.602  -4.478  1.00 20.00    -0.307 OA
ENDBRANCH   9  10
ENDBRANCH   5   9
ENDBRANCH   1   4
TORSDOF 3
ENDMDL
MODEL 4
REMARK VINA RESULT:      -4.1     13.174     16.341
REMARK  3 active torsions:
REMARK  status: ('A' for Active; 'I' for Inactive)
REMARK    1  A    between atoms: C1_1  and  C4_4 
REMARK    2  A    between atoms: C3_3  and  C10_10 
REMARK    3  A    between atoms: C5_5  and  C10_10 
ROOT
HETATM    1  C1  UNL     1     -33.607  17.579  -1.179  1.00 20.00    -0.101 C 
HETATM    2  C2  UNL     1     -32.627  18.164  -0.809  1.00 20.00    -0.111 C 
HETATM    3  C7  UNL     1     -31.431  18.878  -0.359  1.00 20.00     0.112 C 
ENDROOT
BRANCH   1   4
HETATM    4  C4  UNL     1     -34.779  16.880  -1.622  1.00 20.00     0.078 A 
HETATM    5  C5  UNL     1     -34.707  15.899  -2.771  1.00 20.00     0.017 A 
HETATM    6  C6  UNL     1     -35.433  17.221  -2.956  1.00 20.00    -0.028 A 
HETATM    7  C8  UNL     1     -34.846  18.287  -3.848  1.00 20.00     0.016 C 
HETATM    8  C9  UNL     1     -36.942  17.169  -3.014  1.00 20.00     0.016 C 
BRANCH   5   9
HETATM    9  C10 UNL     1     -33.435  15.569  -3.479  1.00 20.00     0.076 C 
BRANCH   9  10
HETATM   10  C3  UNL     1     -33.563  14.409  -4.449  1.00 20.00     0.231 C 
HETATM   11  O11 UNL     1     -34.010  13.308  -4.143  1.00 20.00    -0.307 OA
ENDBRANCH   9  10
ENDBRANCH   5   9
ENDBRANCH   1   4
TORSDOF 3
ENDMDL
MODEL 5
REMARK VINA RESULT:      -4.0     15.831     17.405
REMARK  3 active torsions:
REMARK  status: ('A' for Active; 'I' for Inactive)
REMARK    1  A    between atoms: C1_1  and  C4_4 
REMARK    2  A    between atoms: C3_3  and  C10_10 
REMARK    3  A    between atoms: C5_5  and  C10_10 
ROOT
HETATM    1  C1  UNL     1     -34.290  16.723  -1.854  1.00 20.00    -0.101 C 
HETATM    2  C2  UNL     1     -34.954  17.010  -0.896  1.00 20.00    -0.111 C 
HETATM    3  C7  UNL     1     -35.763  17.360   0.272  1.00 20.00     0.112 C 
ENDROOT
BRANCH   1   4
HETATM    4  C4  UNL     1     -33.496  16.379  -2.998  1.00 20.00     0.078 A 
HETATM    5  C5  UNL     1     -34.006  16.636  -4.399  1.00 20.00     0.017 A 
HETATM    6  C6  UNL     1     -33.886  15.209  -3.894  1.00 20.00    -0.028 A 
HETATM    7  C8  UNL     1     -35.128  14.403  -3.605  1.00 20.00     0.016 C 
HETATM    8  C9  UNL     1     -32.762  14.376  -4.463  1.00 20.00     0.016 C 
BRANCH   5   9
HETATM    9  C10 UNL     1     -35.320  17.288  -4.678  1.00 20.00     0.076 C 
BRANCH   9  10
HETATM   10  C3  UNL     1     -35.787  17.123  -6.113  1.00 20.00     0.231 C 
HETATM   11  O11 UNL     1     -36.115  16.048  -6.605  1.00 20.00    -0.307 OA
ENDBRANCH   9  10
ENDBRANCH   5   9
ENDBRANCH   1   4
TORSDOF 3
ENDMDL
MODEL 6
REMARK VINA RESULT:      -4.0     15.019     16.564
REMARK  3 active torsions:
REMARK  status: ('A' for Active; 'I' for Inactive)
REMARK    1  A    between atoms: C1_1  and  C4_4 
REMARK    2  A    between atoms: C3_3  and  C10_10 
REMARK    3  A    between atoms: C5_5  and  C10_10 
ROOT
HETATM    1  C1  UNL     1     -34.378  15.346  -3.318  1.00 20.00    -0.101 C 
HETATM    2  C2  UNL     1     -35.089  14.536  -3.847  1.00 20.00    -0.111 C 
HETATM    3  C7  UNL     1     -35.956  13.549  -4.490  1.00 20.00     0.112 C 
ENDROOT
BRANCH   1   4
HETATM    4  C4  UNL     1     -33.529  16.314  -2.686  1.00 20.00     0.078 A 
HETATM    5  C5  UNL     1     -34.016  17.112  -1.497  1.00 20.00     0.017 A 
HETATM    6  C6  UNL     1     -33.805  17.806  -2.832  1.00 20.00    -0.028 A 
HETATM    7  C8  UNL     1     -34.992  18.292  -3.626  1.00 20.00     0.016 C 
HETATM    8  C9  UNL     1     -32.606  18.718  -2.945  1.00 20.00     0.016 C 
BRANCH   5   9
HETATM    9  C10 UNL     1     -35.366  16.921  -0.889  1.00 20.00     0.076 C 
BRANCH   9  10
HETATM   10  C3  UNL     1     -35.410  17.224   0.598  1.00 20.00     0.231 C 
HETATM   11  O11 UNL     1     -36.365  17.750   1.160  1.00 20.00    -0.307 OA
ENDBRANCH   9  10
ENDBRANCH   5   9
ENDBRANCH   1   4
TORSDOF 3
ENDMDL
MODEL 7
REMARK VINA RESULT:      -3.9     14.927     18.154
REMARK  3 active torsions:
REMARK  status: ('A' for Active; 'I' for Inactive)
REMARK    1  A    between atoms: C1_1  and  C4_4 
REMARK    2  A    between atoms: C3_3  and  C10_10 
REMARK    3  A    between atoms: C5_5  and  C10_10 
ROOT
HETATM    1  C1  UNL     1     -33.818  17.174  -3.512  1.00 20.00    -0.101 C 
HETATM    2  C2  UNL     1     -33.436  17.501  -2.422  1.00 20.00    -0.111 C 
HETATM    3  C7  UNL     1     -32.970  17.900  -1.094  1.00 20.00     0.112 C 
ENDROOT
BRANCH   1   4
HETATM    4  C4  UNL     1     -34.275  16.784  -4.814  1.00 20.00     0.078 A 
HETATM    5  C5  UNL     1     -35.600  16.075  -4.989  1.00 20.00     0.017 A 
HETATM    6  C6  UNL     1     -34.305  15.316  -5.222  1.00 20.00    -0.028 A 
HETATM    7  C8  UNL     1     -33.875  14.242  -4.254  1.00 20.00     0.016 C 
HETATM    8  C9  UNL     1     -33.951  14.994  -6.655  1.00 20.00     0.016 C 
BRANCH   5   9
HETATM    9  C10 UNL     1     -36.518  15.778  -3.851  1.00 20.00     0.076 C 
BRANCH   9  10
HETATM   10  C3  UNL     1     -37.637  14.816  -4.209  1.00 20.00     0.231 C 
HETATM   11  O11 UNL     1     -37.459  13.636  -4.491  1.00 20.00    -0.307 OA
ENDBRANCH   9  10
ENDBRANCH   5   9
ENDBRANCH   1   4
TORSDOF 3
ENDMDL
MODEL 8
REMARK VINA RESULT:      -3.9     15.198     17.538
REMARK  3 active torsions:
REMARK  status: ('A' for Active; 'I' for Inactive)
REMARK    1  A    between atoms: C1_1  and  C4_4 
REMARK    2  A    between atoms: C3_3  and  C10_10 
REMARK    3  A    between atoms: C5_5  and  C10_10 
ROOT
HETATM    1  C1  UNL     1     -36.079  17.473  -3.948  1.00 20.00    -0.101 C 
HETATM    2  C2  UNL     1     -37.234  17.740  -4.137  1.00 20.00    -0.111 C 
HETATM    3  C7  UNL     1     -38.642  18.065  -4.367  1.00 20.00     0.112 C 
ENDROOT
BRANCH   1   4
HETATM    4  C4  UNL     1     -34.699  17.154  -3.722  1.00 20.00     0.078 A 
HETATM    5  C5  UNL     1     -34.282  15.752  -3.335  1.00 20.00     0.017 A 
HETATM    6  C6  UNL     1     -34.184  16.873  -2.315  1.00 20.00    -0.028 A 
HETATM    7  C8  UNL     1     -35.123  16.905  -1.134  1.00 20.00     0.016 C 
HETATM    8  C9  UNL     1     -32.797  17.371  -1.979  1.00 20.00     0.016 C 
BRANCH   5   9
HETATM    9  C10 UNL     1     -35.250  14.624  -3.206  1.00 20.00     0.076 C 
BRANCH   9  10
HETATM   10  C3  UNL     1     -35.439  13.835  -4.489  1.00 20.00     0.231 C 
HETATM   11  O11 UNL     1     -35.891  12.696  -4.531  1.00 20.00    -0.307 OA
ENDBRANCH   9  10
ENDBRANCH   5   9
ENDBRANCH   1   4
TORSDOF 3
ENDMDL
MODEL 9
REMARK VINA RESULT:      -3.9     15.229     18.331
REMARK  3 active torsions:
REMARK  status: ('A' for Active; 'I' for Inactive)
REMARK    1  A    between atoms: C1_1  and  C4_4 
REMARK    2  A    between atoms: C3_3  and  C10_10 
REMARK    3  A    between atoms: C5_5  and  C10_10 
ROOT
HETATM    1  C1  UNL     1     -34.255  15.884  -2.821  1.00 20.00    -0.101 C 
HETATM    2  C2  UNL     1     -33.539  16.711  -2.326  1.00 20.00    -0.111 C 
HETATM    3  C7  UNL     1     -32.666  17.718  -1.723  1.00 20.00     0.112 C 
ENDROOT
BRANCH   1   4
HETATM    4  C4  UNL     1     -35.111  14.896  -3.411  1.00 20.00     0.078 A 
HETATM    5  C5  UNL     1     -35.036  14.593  -4.891  1.00 20.00     0.017 A 
HETATM    6  C6  UNL     1     -36.255  15.305  -4.331  1.00 20.00    -0.028 A 
HETATM    7  C8  UNL     1     -36.496  16.759  -4.656  1.00 20.00     0.016 C 
HETATM    8  C9  UNL     1     -37.532  14.503  -4.238  1.00 20.00     0.016 C 
BRANCH   5   9
HETATM    9  C10 UNL     1     -34.062  15.255  -5.808  1.00 20.00     0.076 C 
BRANCH   9  10
HETATM   10  C3  UNL     1     -34.484  15.227  -7.266  1.00 20.00     0.231 C 
HETATM   11  O11 UNL     1     -35.584  14.846  -7.652  1.00 20.00    -0.307 OA
ENDBRANCH   9  10
ENDBRANCH   5   9
ENDBRANCH   1   4
TORSDOF 3
ENDMDL
