MODEL 1
REMARK VINA RESULT:      -5.1      0.000      0.000
REMARK  1 active torsions:
REMARK  status: ('A' for Active; 'I' for Inactive)
REMARK    1  A    between atoms: C3_3  and  C4_4 
ROOT
HETATM    1  C1  UNL     1     -35.195   5.124   4.277  1.00 20.00    -0.018 A 
HETATM    2  C2  UNL     1     -34.854   5.033   5.575  1.00 20.00    -0.025 A 
HETATM    3  C4  UNL     1     -34.242   6.269   3.997  1.00 20.00     0.084 A 
HETATM    4  C5  UNL     1     -33.780   6.099   5.473  1.00 20.00     0.018 A 
HETATM    5  C7  UNL     1     -33.963   7.311   6.372  1.00 20.00     0.015 C 
ENDROOT
BRANCH   3   6
HETATM    6  C3  UNL     1     -33.266   5.906   2.873  1.00 20.00     0.131 C 
HETATM    7  C6  UNL     1     -32.479   7.037   2.270  1.00 20.00     0.091 C 
HETATM    8  O8  UNL     1     -33.131   4.746   2.485  1.00 20.00    -0.298 OA
ENDBRANCH   3   6
TORSDOF 1
ENDMDL
MODEL 2
REMARK VINA RESULT:      -4.2     11.590     12.281
REMARK  1 active torsions:
REMARK  status: ('A' for Active; 'I' for Inactive)
REMARK    1  A    between atoms: C3_3  and  C4_4 
ROOT
HETATM    1  C1  UNL     1     -33.455  14.793  -4.088  1.00 20.00    -0.018 A 
HETATM    2  C2  UNL     1     -33.467  16.089  -3.731  1.00 20.00    -0.025 A 
HETATM    3  C4  UNL     1     -34.804  14.499  -3.463  1.00 20.00     0.084 A 
HETATM    4  C5  UNL     1     -34.860  16.019  -3.136  1.00 20.00     0.018 A 
HETATM    5  C7  UNL     1     -34.969  16.379  -1.663  1.00 20.00     0.015 C 
ENDROOT
BRANCH   3   6
HETATM    6  C3  UNL     1     -35.778  13.933  -4.502  1.00 20.00     0.131 C 
HETATM    7  C6  UNL     1     -36.497  14.930  -5.368  1.00 20.00     0.091 C 
HETATM    8  O8  UNL     1     -35.959  12.722  -4.624  1.00 20.00    -0.298 OA
ENDBRANCH   3   6
TORSDOF 1
ENDMDL
MODEL 3
REMARK VINA RESULT:      -4.1     16.073     17.030
REMARK  1 active torsions:
REMARK  status: ('A' for Active; 'I' for Inactive)
REMARK    1  A    between atoms: C3_3  and  C4_4 
ROOT
HETATM    1  C1  UNL     1     -24.636  16.198  11.342  1.00 20.00    -0.018 A 
HETATM    2  C2  UNL     1     -25.466  16.572  12.332  1.00 20.00    -0.025 A 
HETATM    3  C4  UNL     1     -24.167  17.610  11.056  1.00 20.00     0.084 A 
HETATM    4  C5  UNL     1     -25.053  18.030  12.264  1.00 20.00     0.018 A 
HETATM    5  C7  UNL     1     -26.167  19.020  11.960  1.00 20.00     0.015 C 
ENDROOT
BRANCH   3   6
HETATM    6  C3  UNL     1     -22.644  17.718  11.188  1.00 20.00     0.131 C 
HETATM    7  C6  UNL     1     -21.865  17.886   9.912  1.00 20.00     0.091 C 
HETATM    8  O8  UNL     1     -22.087  17.673  12.284  1.00 20.00    -0.298 OA
ENDBRANCH   3   6
TORSDOF 1
ENDMDL
MODEL 4
REMARK VINA RESULT:      -4.1      1.744      2.336
REMARK  1 active torsions:
REMARK  status: ('A' for Active; 'I' for Inactive)
REMARK    1  A    between atoms: C3_3  and  C4_4 
ROOT
HETATM    1  C1  UNL     1     -33.158   4.765   2.221  1.00 20.00    -0.018 A 
HETATM    2  C2  UNL     1     -33.504   4.189   3.385  1.00 20.00    -0.025 A 
HETATM    3  C4  UNL     1     -33.678   6.132   2.620  1.00 20.00     0.084 A 
HETATM    4  C5  UNL     1     -33.991   5.487   4.001  1.00 20.00     0.018 A 
HETATM    5  C7  UNL     1     -35.448   5.509   4.432  1.00 20.00     0.015 C 
ENDROOT
BRANCH   3   6
HETATM    6  C3  UNL     1     -32.570   7.187   2.533  1.00 20.00     0.131 C 
HETATM    7  C6  UNL     1     -32.506   7.999   1.269  1.00 20.00     0.091 C 
HETATM    8  O8  UNL     1     -31.774   7.362   3.454  1.00 20.00    -0.298 OA
ENDBRANCH   3   6
TORSDOF 1
ENDMDL
MODEL 5
REMARK VINA RESULT:      -4.1      1.248      3.344
REMARK  1 active torsions:
REMARK  status: ('A' for Active; 'I' for Inactive)
REMARK    1  A    between atoms: C3_3  and  C4_4 
ROOT
HETATM    1  C1  UNL     1     -32.840   7.216   4.374  1.00 20.00    -0.018 A 
HETATM    2  C2  UNL     1     -31.817   7.660   3.623  1.00 20.00    -0.025 A 
HETATM    3  C4  UNL     1     -33.621   6.686   3.188  1.00 20.00     0.084 A 
HETATM    4  C5  UNL     1     -32.394   7.114   2.331  1.00 20.00     0.018 A 
HETATM    5  C7  UNL     1     -32.668   8.140   1.242  1.00 20.00     0.015 C 
ENDROOT
BRANCH   3   6
HETATM    6  C3  UNL     1     -33.919   5.192   3.352  1.00 20.00     0.131 C 
HETATM    7  C6  UNL     1     -34.870   4.809   4.452  1.00 20.00     0.091 C 
HETATM    8  O8  UNL     1     -33.408   4.348   2.617  1.00 20.00    -0.298 OA
ENDBRANCH   3   6
TORSDOF 1
ENDMDL
MODEL 6
REMARK VINA RESULT:      -4.1      1.619      3.224
REMARK  1 active torsions:
REMARK  status: ('A' for Active; 'I' for Inactive)
REMARK    1  A    between atoms: C3_3  and  C4_4 
ROOT
HETATM    1  C1  UNL     1     -33.439   4.832   2.625  1.00 20.00    -0.018 A 
HETATM    2  C2  UNL     1     -33.083   5.917   1.915  1.00 20.00    -0.025 A 
HETATM    3  C4  UNL     1     -33.443   5.568   3.950  1.00 20.00     0.084 A 
HETATM    4  C5  UNL     1     -33.126   6.843   3.115  1.00 20.00     0.018 A 
HETATM    5  C7  UNL     1     -31.823   7.551   3.452  1.00 20.00     0.015 C 
ENDROOT
BRANCH   3   6
HETATM    6  C3  UNL     1     -34.810   5.457   4.633  1.00 20.00     0.131 C 
HETATM    7  C6  UNL     1     -34.810   5.341   6.132  1.00 20.00     0.091 C 
HETATM    8  O8  UNL     1     -35.857   5.466   3.987  1.00 20.00    -0.298 OA
ENDBRANCH   3   6
TORSDOF 1
ENDMDL
MODEL 7
REMARK VINA RESULT:      -4.1     15.916     17.060
REMARK  1 active torsions:
REMARK  status: ('A' for Active; 'I' for Inactive)
REMARK    1  A    between atoms: C3_3  and  C4_4 
ROOT
HETATM    1  C1  UNL     1     -24.436  18.350   9.583  1.00 20.00    -0.018 A 
HETATM    2  C2  UNL     1     -23.434  19.038   9.007  1.00 20.00    -0.025 A 
HETATM    3  C4  UNL     1     -23.588  17.119   9.834  1.00 20.00     0.084 A 
HETATM    4  C5  UNL     1     -22.407  17.950   9.255  1.00 20.00     0.018 A 
HETATM    5  C7  UNL     1     -21.735  17.379   8.016  1.00 20.00     0.015 C 
ENDROOT
BRANCH   3   6
HETATM    6  C3  UNL     1     -23.575  16.757  11.323  1.00 20.00     0.131 C 
HETATM    7  C6  UNL     1     -24.595  15.754  11.785  1.00 20.00     0.091 C 
HETATM    8  O8  UNL     1     -22.767  17.262  12.101  1.00 20.00    -0.298 OA
ENDBRANCH   3   6
TORSDOF 1
ENDMDL
MODEL 8
REMARK VINA RESULT:      -4.0     11.927     12.663
REMARK  1 active torsions:
REMARK  status: ('A' for Active; 'I' for Inactive)
REMARK    1  A    between atoms: C3_3  and  C4_4 
ROOT
HETATM    1  C1  UNL     1     -35.445  15.709  -3.301  1.00 20.00    -0.018 A 
HETATM    2  C2  UNL     1     -34.847  15.964  -2.124  1.00 20.00    -0.025 A 
HETATM    3  C4  UNL     1     -34.213  16.040  -4.120  1.00 20.00     0.084 A 
HETATM    4  C5  UNL     1     -33.495  16.240  -2.754  1.00 20.00     0.018 A 
HETATM    5  C7  UNL     1     -32.918  17.624  -2.503  1.00 20.00     0.015 C 
ENDROOT
BRANCH   3   6
HETATM    6  C3  UNL     1     -33.806  14.853  -4.999  1.00 20.00     0.131 C 
HETATM    7  C6  UNL     1     -34.010  15.006  -6.481  1.00 20.00     0.091 C 
HETATM    8  O8  UNL     1     -33.332  13.825  -4.516  1.00 20.00    -0.298 OA
ENDBRANCH   3   6
TORSDOF 1
ENDMDL
MODEL 9
REMARK VINA RESULT:      -4.0      9.215      9.746
REMARK  1 active torsions:
REMARK  status: ('A' for Active; 'I' for Inactive)
REMARK    1  A    between atoms: C3_3  and  C4_4 
ROOT
HETATM    1  C1  UNL     1     -43.009   6.454   1.288  1.00 20.00    -0.018 A 
HETATM    2  C2  UNL     1     -43.149   5.559   0.294  1.00 20.00    -0.025 A 
HETATM    3  C4  UNL     1     -41.884   7.201   0.599  1.00 20.00     0.084 A 
HETATM    4  C5  UNL     1     -42.113   6.225  -0.591  1.00 20.00     0.018 A 
HETATM    5  C7  UNL     1     -40.923   5.362  -0.982  1.00 20.00     0.015 C 
ENDROOT
BRANCH   3   6
HETATM    6  C3  UNL     1     -42.240   8.680   0.417  1.00 20.00     0.131 C 
HETATM    7  C6  UNL     1     -41.098   9.658   0.430  1.00 20.00     0.091 C 
HETATM    8  O8  UNL     1     -43.404   9.049   0.264  1.00 20.00    -0.298 OA
ENDBRANCH   3   6
TORSDOF 1
ENDMDL
