MODEL 1
REMARK VINA RESULT:      -4.9      0.000      0.000
REMARK  2 active torsions:
REMARK  status: ('A' for Active; 'I' for Inactive)
REMARK    1  A    between atoms: C1_1  and  C8_8 
REMARK    2  A    between atoms: C3_3  and  C9_9 
ROOT
HETATM    1  C4  UNL     1     -35.144  15.701  -2.577  1.00 20.00     0.009 C 
HETATM    2  C5  UNL     1     -33.441  14.835  -4.256  1.00 20.00     0.009 C 
HETATM    3  C6  UNL     1     -36.075  16.094  -3.725  1.00 20.00     0.012 C 
HETATM    4  C7  UNL     1     -34.381  15.213  -5.403  1.00 20.00     0.012 C 
HETATM    5  C8  UNL     1     -33.676  15.632  -2.979  1.00 20.00     0.008 C 
HETATM    6  C9  UNL     1     -35.847  15.290  -4.999  1.00 20.00     0.047 C 
ENDROOT
BRANCH   5   7
HETATM    7  C1  UNL     1     -33.138  17.044  -3.147  1.00 20.00    -0.026 C 
HETATM    8  C2  UNL     1     -32.874  17.869  -2.124  1.00 20.00    -0.035 C 
HETATM    9  C10 UNL     1     -32.345  19.256  -2.290  1.00 20.00     0.036 C 
ENDBRANCH   5   7
BRANCH   6  10
HETATM   10  C3  UNL     1     -36.409  13.891  -4.804  1.00 20.00     0.235 C 
HETATM   11  O11 UNL     1     -37.555  13.669  -4.425  1.00 20.00    -0.306 OA
ENDBRANCH   6  10
TORSDOF 2
ENDMDL
MODEL 2
REMARK VINA RESULT:      -4.7     10.874     13.194
REMARK  2 active torsions:
REMARK  status: ('A' for Active; 'I' for Inactive)
REMARK    1  A    between atoms: C1_1  and  C8_8 
REMARK    2  A    between atoms: C3_3  and  C9_9 
ROOT
HETATM    1  C4  UNL     1     -42.523   6.126   0.780  1.00 20.00     0.009 C 
HETATM    2  C5  UNL     1     -43.329   7.045  -1.450  1.00 20.00     0.009 C 
HETATM    3  C6  UNL     1     -41.160   6.783   0.559  1.00 20.00     0.012 C 
HETATM    4  C7  UNL     1     -41.970   7.716  -1.663  1.00 20.00     0.012 C 
HETATM    5  C8  UNL     1     -43.283   5.846  -0.511  1.00 20.00     0.008 C 
HETATM    6  C9  UNL     1     -41.207   7.988  -0.373  1.00 20.00     0.047 C 
ENDROOT
BRANCH   5   7
HETATM    7  C1  UNL     1     -42.645   4.662  -1.218  1.00 20.00    -0.026 C 
HETATM    8  C2  UNL     1     -43.089   4.157  -2.378  1.00 20.00    -0.035 C 
HETATM    9  C10 UNL     1     -42.462   2.995  -3.074  1.00 20.00     0.036 C 
ENDBRANCH   5   7
BRANCH   6  10
HETATM   10  C3  UNL     1     -41.834   9.157   0.369  1.00 20.00     0.235 C 
HETATM   11  O11 UNL     1     -41.357  10.288   0.375  1.00 20.00    -0.306 OA
ENDBRANCH   6  10
TORSDOF 2
ENDMDL
MODEL 3
REMARK VINA RESULT:      -4.5      1.572      2.725
REMARK  2 active torsions:
REMARK  status: ('A' for Active; 'I' for Inactive)
REMARK    1  A    between atoms: C1_1  and  C8_8 
REMARK    2  A    between atoms: C3_3  and  C9_9 
ROOT
HETATM    1  C4  UNL     1     -33.070  17.359  -3.581  1.00 20.00     0.009 C 
HETATM    2  C5  UNL     1     -35.242  17.371  -2.259  1.00 20.00     0.009 C 
HETATM    3  C6  UNL     1     -33.011  15.834  -3.473  1.00 20.00     0.012 C 
HETATM    4  C7  UNL     1     -35.192  15.844  -2.166  1.00 20.00     0.012 C 
HETATM    5  C8  UNL     1     -33.880  18.020  -2.473  1.00 20.00     0.008 C 
HETATM    6  C9  UNL     1     -34.375  15.185  -3.269  1.00 20.00     0.047 C 
ENDROOT
BRANCH   5   7
HETATM    7  C1  UNL     1     -33.082  17.979  -1.180  1.00 20.00    -0.026 C 
HETATM    8  C2  UNL     1     -31.804  18.372  -1.078  1.00 20.00    -0.035 C 
HETATM    9  C10 UNL     1     -31.021  18.333   0.192  1.00 20.00     0.036 C 
ENDBRANCH   5   7
BRANCH   6  10
HETATM   10  C3  UNL     1     -35.139  15.227  -4.582  1.00 20.00     0.235 C 
HETATM   11  O11 UNL     1     -34.986  14.406  -5.481  1.00 20.00    -0.306 OA
ENDBRANCH   6  10
TORSDOF 2
ENDMDL
MODEL 4
REMARK VINA RESULT:      -4.5      1.374      1.667
REMARK  2 active torsions:
REMARK  status: ('A' for Active; 'I' for Inactive)
REMARK    1  A    between atoms: C1_1  and  C8_8 
REMARK    2  A    between atoms: C3_3  and  C9_9 
ROOT
HETATM    1  C4  UNL     1     -35.255  17.071  -3.913  1.00 20.00     0.009 C 
HETATM    2  C5  UNL     1     -34.386  14.719  -3.491  1.00 20.00     0.009 C 
HETATM    3  C6  UNL     1     -34.591  17.069  -5.292  1.00 20.00     0.012 C 
HETATM    4  C7  UNL     1     -33.737  14.711  -4.877  1.00 20.00     0.012 C 
HETATM    5  C8  UNL     1     -34.605  16.115  -2.921  1.00 20.00     0.008 C 
HETATM    6  C9  UNL     1     -34.382  15.673  -5.866  1.00 20.00     0.047 C 
ENDROOT
BRANCH   5   7
HETATM    7  C1  UNL     1     -33.279  16.698  -2.463  1.00 20.00    -0.026 C 
HETATM    8  C2  UNL     1     -33.169  17.704  -1.583  1.00 20.00    -0.035 C 
HETATM    9  C10 UNL     1     -31.865  18.276  -1.133  1.00 20.00     0.036 C 
ENDBRANCH   5   7
BRANCH   6  10
HETATM   10  C3  UNL     1     -35.722  15.127  -6.329  1.00 20.00     0.235 C 
HETATM   11  O11 UNL     1     -35.951  13.930  -6.473  1.00 20.00    -0.306 OA
ENDBRANCH   6  10
TORSDOF 2
ENDMDL
MODEL 5
REMARK VINA RESULT:      -4.5     11.373     12.179
REMARK  2 active torsions:
REMARK  status: ('A' for Active; 'I' for Inactive)
REMARK    1  A    between atoms: C1_1  and  C8_8 
REMARK    2  A    between atoms: C3_3  and  C9_9 
ROOT
HETATM    1  C4  UNL     1     -33.049   7.073   4.041  1.00 20.00     0.009 C 
HETATM    2  C5  UNL     1     -32.822   4.920   2.707  1.00 20.00     0.009 C 
HETATM    3  C6  UNL     1     -34.544   6.803   4.222  1.00 20.00     0.012 C 
HETATM    4  C7  UNL     1     -34.314   4.642   2.904  1.00 20.00     0.012 C 
HETATM    5  C8  UNL     1     -32.450   6.393   2.816  1.00 20.00     0.008 C 
HETATM    6  C9  UNL     1     -34.914   5.328   4.123  1.00 20.00     0.047 C 
ENDROOT
BRANCH   5   7
HETATM    7  C1  UNL     1     -32.900   7.131   1.566  1.00 20.00    -0.026 C 
HETATM    8  C2  UNL     1     -32.644   8.426   1.330  1.00 20.00    -0.035 C 
HETATM    9  C10 UNL     1     -33.085   9.151   0.102  1.00 20.00     0.036 C 
ENDBRANCH   5   7
BRANCH   6  10
HETATM   10  C3  UNL     1     -34.466   4.624   5.393  1.00 20.00     0.235 C 
HETATM   11  O11 UNL     1     -34.578   5.111   6.513  1.00 20.00    -0.306 OA
ENDBRANCH   6  10
TORSDOF 2
ENDMDL
MODEL 6
REMARK VINA RESULT:      -4.4      1.952      2.443
REMARK  2 active torsions:
REMARK  status: ('A' for Active; 'I' for Inactive)
REMARK    1  A    between atoms: C1_1  and  C8_8 
REMARK    2  A    between atoms: C3_3  and  C9_9 
ROOT
HETATM    1  C4  UNL     1     -34.701  14.129  -3.862  1.00 20.00     0.009 C 
HETATM    2  C5  UNL     1     -34.469  16.599  -4.418  1.00 20.00     0.009 C 
HETATM    3  C6  UNL     1     -36.115  14.130  -4.443  1.00 20.00     0.012 C 
HETATM    4  C7  UNL     1     -35.877  16.596  -5.015  1.00 20.00     0.012 C 
HETATM    5  C8  UNL     1     -34.232  15.499  -3.390  1.00 20.00     0.008 C 
HETATM    6  C9  UNL     1     -36.348  15.224  -5.479  1.00 20.00     0.047 C 
ENDROOT
BRANCH   5   7
HETATM    7  C1  UNL     1     -34.941  15.848  -2.091  1.00 20.00    -0.026 C 
HETATM    8  C2  UNL     1     -34.713  16.970  -1.394  1.00 20.00    -0.035 C 
HETATM    9  C10 UNL     1     -35.410  17.313  -0.119  1.00 20.00     0.036 C 
ENDBRANCH   5   7
BRANCH   6  10
HETATM   10  C3  UNL     1     -35.642  14.837  -6.768  1.00 20.00     0.235 C 
HETATM   11  O11 UNL     1     -36.233  14.500  -7.788  1.00 20.00    -0.306 OA
ENDBRANCH   6  10
TORSDOF 2
ENDMDL
MODEL 7
REMARK VINA RESULT:      -4.3      2.019      2.978
REMARK  2 active torsions:
REMARK  status: ('A' for Active; 'I' for Inactive)
REMARK    1  A    between atoms: C1_1  and  C8_8 
REMARK    2  A    between atoms: C3_3  and  C9_9 
ROOT
HETATM    1  C4  UNL     1     -33.912  17.062  -3.438  1.00 20.00     0.009 C 
HETATM    2  C5  UNL     1     -35.984  15.591  -3.544  1.00 20.00     0.009 C 
HETATM    3  C6  UNL     1     -33.024  15.819  -3.520  1.00 20.00     0.012 C 
HETATM    4  C7  UNL     1     -35.095  14.349  -3.644  1.00 20.00     0.012 C 
HETATM    5  C8  UNL     1     -35.304  16.784  -2.884  1.00 20.00     0.008 C 
HETATM    6  C9  UNL     1     -33.701  14.630  -4.190  1.00 20.00     0.047 C 
ENDROOT
BRANCH   5   7
HETATM    7  C1  UNL     1     -35.206  16.555  -1.384  1.00 20.00    -0.026 C 
HETATM    8  C2  UNL     1     -35.441  17.505  -0.467  1.00 20.00    -0.035 C 
HETATM    9  C10 UNL     1     -35.346  17.280   1.005  1.00 20.00     0.036 C 
ENDBRANCH   5   7
BRANCH   6  10
HETATM   10  C3  UNL     1     -33.767  14.882  -5.687  1.00 20.00     0.235 C 
HETATM   11  O11 UNL     1     -34.675  14.470  -6.403  1.00 20.00    -0.306 OA
ENDBRANCH   6  10
TORSDOF 2
ENDMDL
MODEL 8
REMARK VINA RESULT:      -4.1      2.825      5.040
REMARK  2 active torsions:
REMARK  status: ('A' for Active; 'I' for Inactive)
REMARK    1  A    between atoms: C1_1  and  C8_8 
REMARK    2  A    between atoms: C3_3  and  C9_9 
ROOT
HETATM    1  C4  UNL     1     -33.294  16.065  -3.073  1.00 20.00     0.009 C 
HETATM    2  C5  UNL     1     -35.041  16.628  -1.313  1.00 20.00     0.009 C 
HETATM    3  C6  UNL     1     -33.008  17.555  -3.266  1.00 20.00     0.012 C 
HETATM    4  C7  UNL     1     -34.741  18.118  -1.494  1.00 20.00     0.012 C 
HETATM    5  C8  UNL     1     -34.686  15.776  -2.525  1.00 20.00     0.008 C 
HETATM    6  C9  UNL     1     -33.352  18.405  -2.050  1.00 20.00     0.047 C 
ENDROOT
BRANCH   5   7
HETATM    7  C1  UNL     1     -35.710  15.997  -3.626  1.00 20.00    -0.026 C 
HETATM    8  C2  UNL     1     -35.631  15.439  -4.843  1.00 20.00    -0.035 C 
HETATM    9  C10 UNL     1     -36.637  15.655  -5.924  1.00 20.00     0.036 C 
ENDBRANCH   5   7
BRANCH   6  10
HETATM   10  C3  UNL     1     -32.302  18.175  -0.976  1.00 20.00     0.235 C 
HETATM   11  O11 UNL     1     -31.143  18.568  -1.067  1.00 20.00    -0.306 OA
ENDBRANCH   6  10
TORSDOF 2
ENDMDL
MODEL 9
REMARK VINA RESULT:      -3.9      1.817      2.316
REMARK  2 active torsions:
REMARK  status: ('A' for Active; 'I' for Inactive)
REMARK    1  A    between atoms: C1_1  and  C8_8 
REMARK    2  A    between atoms: C3_3  and  C9_9 
ROOT
HETATM    1  C4  UNL     1     -35.848  15.175  -3.429  1.00 20.00     0.009 C 
HETATM    2  C5  UNL     1     -33.488  16.088  -3.178  1.00 20.00     0.009 C 
HETATM    3  C6  UNL     1     -36.106  16.156  -4.575  1.00 20.00     0.012 C 
HETATM    4  C7  UNL     1     -33.740  17.056  -4.335  1.00 20.00     0.012 C 
HETATM    5  C8  UNL     1     -34.757  15.631  -2.469  1.00 20.00     0.008 C 
HETATM    6  C9  UNL     1     -34.837  16.605  -5.290  1.00 20.00     0.047 C 
ENDROOT
BRANCH   5   7
HETATM    7  C1  UNL     1     -35.295  16.756  -1.601  1.00 20.00    -0.026 C 
HETATM    8  C2  UNL     1     -34.530  17.515  -0.803  1.00 20.00    -0.035 C 
HETATM    9  C10 UNL     1     -35.059  18.621   0.049  1.00 20.00     0.036 C 
ENDBRANCH   5   7
BRANCH   6  10
HETATM   10  C3  UNL     1     -34.335  15.464  -6.161  1.00 20.00     0.235 C 
HETATM   11  O11 UNL     1     -35.015  14.486  -6.452  1.00 20.00    -0.306 OA
ENDBRANCH   6  10
TORSDOF 2
ENDMDL
