MODEL 1
REMARK VINA RESULT:      -4.7      0.000      0.000
REMARK  1 active torsions:
REMARK  status: ('A' for Active; 'I' for Inactive)
REMARK    1  A    between atoms: C3_3  and  C4_4 
ROOT
HETATM    1  C1  UNL     1     -24.422  18.518   9.155  1.00 20.00     0.061 C 
HETATM    2  C2  UNL     1     -25.386  18.876  10.005  1.00 20.00     0.087 C 
HETATM    3  C4  UNL     1     -23.420  17.659   9.848  1.00 20.00     0.376 C 
HETATM    4  C5  UNL     1     -25.127  18.287  11.347  1.00 20.00     0.463 C 
HETATM    5  C6  UNL     1     -23.574  16.507  12.020  1.00 20.00     0.324 C 
HETATM    6  N7  UNL     1     -23.758  17.744  11.281  1.00 20.00     0.211 N 
HETATM    7  F9  UNL     1     -23.486  16.380   9.387  1.00 20.00    -0.195 F 
HETATM    8  F10 UNL     1     -25.204  19.216  12.332  1.00 20.00    -0.169 F 
HETATM    9  F11 UNL     1     -26.042  17.324  11.633  1.00 20.00    -0.169 F 
ENDROOT
BRANCH   3  10
HETATM   10  C3  UNL     1     -22.061  18.243   9.657  1.00 20.00     0.312 C 
HETATM   11  O8  UNL     1     -21.840  19.230   8.962  1.00 20.00    -0.301 OA
ENDBRANCH   3  10
TORSDOF 1
ENDMDL
MODEL 2
REMARK VINA RESULT:      -4.6     17.906     18.686
REMARK  1 active torsions:
REMARK  status: ('A' for Active; 'I' for Inactive)
REMARK    1  A    between atoms: C3_3  and  C4_4 
ROOT
HETATM    1  C1  UNL     1     -34.172  14.799  -4.415  1.00 20.00     0.061 C 
HETATM    2  C2  UNL     1     -33.794  15.456  -3.316  1.00 20.00     0.087 C 
HETATM    3  C4  UNL     1     -35.628  15.005  -4.660  1.00 20.00     0.376 C 
HETATM    4  C5  UNL     1     -34.959  16.170  -2.725  1.00 20.00     0.463 C 
HETATM    5  C6  UNL     1     -37.167  16.659  -3.680  1.00 20.00     0.324 C 
HETATM    6  N7  UNL     1     -36.140  15.659  -3.442  1.00 20.00     0.211 N 
HETATM    7  F9  UNL     1     -35.822  15.772  -5.767  1.00 20.00    -0.195 F 
HETATM    8  F10 UNL     1     -35.085  15.918  -1.397  1.00 20.00    -0.169 F 
HETATM    9  F11 UNL     1     -34.819  17.514  -2.865  1.00 20.00    -0.169 F 
ENDROOT
BRANCH   3  10
HETATM   10  C3  UNL     1     -36.293  13.676  -4.787  1.00 20.00     0.312 C 
HETATM   11  O8  UNL     1     -35.761  12.619  -4.465  1.00 20.00    -0.301 OA
ENDBRANCH   3  10
TORSDOF 1
ENDMDL
MODEL 3
REMARK VINA RESULT:      -4.6     17.694     18.567
REMARK  1 active torsions:
REMARK  status: ('A' for Active; 'I' for Inactive)
REMARK    1  A    between atoms: C3_3  and  C4_4 
ROOT
HETATM    1  C1  UNL     1     -35.325  15.320  -2.522  1.00 20.00     0.061 C 
HETATM    2  C2  UNL     1     -34.382  16.265  -2.521  1.00 20.00     0.087 C 
HETATM    3  C4  UNL     1     -35.402  14.676  -3.864  1.00 20.00     0.376 C 
HETATM    4  C5  UNL     1     -33.733  16.338  -3.858  1.00 20.00     0.463 C 
HETATM    5  C6  UNL     1     -33.817  14.769  -5.746  1.00 20.00     0.324 C 
HETATM    6  N7  UNL     1     -34.568  15.510  -4.747  1.00 20.00     0.211 N 
HETATM    7  F9  UNL     1     -34.952  13.393  -3.804  1.00 20.00    -0.195 F 
HETATM    8  F10 UNL     1     -33.685  17.610  -4.328  1.00 20.00    -0.169 F 
HETATM    9  F11 UNL     1     -32.453  15.886  -3.796  1.00 20.00    -0.169 F 
ENDROOT
BRANCH   3  10
HETATM   10  C3  UNL     1     -36.809  14.743  -4.356  1.00 20.00     0.312 C 
HETATM   11  O8  UNL     1     -37.543  13.764  -4.448  1.00 20.00    -0.301 OA
ENDBRANCH   3  10
TORSDOF 1
ENDMDL
MODEL 4
REMARK VINA RESULT:      -4.5     16.429     16.838
REMARK  1 active torsions:
REMARK  status: ('A' for Active; 'I' for Inactive)
REMARK    1  A    between atoms: C3_3  and  C4_4 
ROOT
HETATM    1  C1  UNL     1     -33.061   5.379   2.336  1.00 20.00     0.061 C 
HETATM    2  C2  UNL     1     -33.986   4.618   2.924  1.00 20.00     0.087 C 
HETATM    3  C4  UNL     1     -32.888   6.652   3.091  1.00 20.00     0.376 C 
HETATM    4  C5  UNL     1     -34.517   5.306   4.133  1.00 20.00     0.463 C 
HETATM    5  C6  UNL     1     -33.651   7.253   5.354  1.00 20.00     0.324 C 
HETATM    6  N7  UNL     1     -33.996   6.683   4.063  1.00 20.00     0.211 N 
HETATM    7  F9  UNL     1     -31.674   6.684   3.704  1.00 20.00    -0.195 F 
HETATM    8  F10 UNL     1     -35.874   5.330   4.146  1.00 20.00    -0.169 F 
HETATM    9  F11 UNL     1     -34.117   4.668   5.263  1.00 20.00    -0.169 F 
ENDROOT
BRANCH   3  10
HETATM   10  C3  UNL     1     -33.062   7.801   2.155  1.00 20.00     0.312 C 
HETATM   11  O8  UNL     1     -32.440   7.918   1.104  1.00 20.00    -0.301 OA
ENDBRANCH   3  10
TORSDOF 1
ENDMDL
MODEL 5
REMARK VINA RESULT:      -4.4     18.013     18.902
REMARK  1 active torsions:
REMARK  status: ('A' for Active; 'I' for Inactive)
REMARK    1  A    between atoms: C3_3  and  C4_4 
ROOT
HETATM    1  C1  UNL     1     -35.023  14.961  -6.015  1.00 20.00     0.061 C 
HETATM    2  C2  UNL     1     -33.727  15.232  -5.844  1.00 20.00     0.087 C 
HETATM    3  C4  UNL     1     -35.714  14.908  -4.695  1.00 20.00     0.376 C 
HETATM    4  C5  UNL     1     -33.428  15.395  -4.395  1.00 20.00     0.463 C 
HETATM    5  C6  UNL     1     -34.948  15.689  -2.488  1.00 20.00     0.324 C 
HETATM    6  N7  UNL     1     -34.636  14.932  -3.689  1.00 20.00     0.211 N 
HETATM    7  F9  UNL     1     -36.561  15.964  -4.557  1.00 20.00    -0.195 F 
HETATM    8  F10 UNL     1     -32.361  14.650  -4.012  1.00 20.00    -0.169 F 
HETATM    9  F11 UNL     1     -33.135  16.690  -4.107  1.00 20.00    -0.169 F 
ENDROOT
BRANCH   3  10
HETATM   10  C3  UNL     1     -36.432  13.606  -4.573  1.00 20.00     0.312 C 
HETATM   11  O8  UNL     1     -35.862  12.528  -4.437  1.00 20.00    -0.301 OA
ENDBRANCH   3  10
TORSDOF 1
ENDMDL
MODEL 6
REMARK VINA RESULT:      -4.3     18.946     19.856
REMARK  1 active torsions:
REMARK  status: ('A' for Active; 'I' for Inactive)
REMARK    1  A    between atoms: C3_3  and  C4_4 
ROOT
HETATM    1  C1  UNL     1     -35.212  14.445  -3.446  1.00 20.00     0.061 C 
HETATM    2  C2  UNL     1     -34.147  15.169  -3.796  1.00 20.00     0.087 C 
HETATM    3  C4  UNL     1     -36.121  14.272  -4.615  1.00 20.00     0.376 C 
HETATM    4  C5  UNL     1     -34.238  15.545  -5.233  1.00 20.00     0.463 C 
HETATM    5  C6  UNL     1     -35.699  14.678  -7.007  1.00 20.00     0.324 C 
HETATM    6  N7  UNL     1     -35.605  15.187  -5.649  1.00 20.00     0.211 N 
HETATM    7  F9  UNL     1     -36.117  12.978  -5.035  1.00 20.00    -0.195 F 
HETATM    8  F10 UNL     1     -34.034  16.873  -5.423  1.00 20.00    -0.169 F 
HETATM    9  F11 UNL     1     -33.297  14.888  -5.961  1.00 20.00    -0.169 F 
ENDROOT
BRANCH   3  10
HETATM   10  C3  UNL     1     -37.491  14.724  -4.237  1.00 20.00     0.312 C 
HETATM   11  O8  UNL     1     -38.490  14.019  -4.339  1.00 20.00    -0.301 OA
ENDBRANCH   3  10
TORSDOF 1
ENDMDL
MODEL 7
REMARK VINA RESULT:      -4.3     18.126     18.873
REMARK  1 active torsions:
REMARK  status: ('A' for Active; 'I' for Inactive)
REMARK    1  A    between atoms: C3_3  and  C4_4 
ROOT
HETATM    1  C1  UNL     1     -35.001  15.423  -2.817  1.00 20.00     0.061 C 
HETATM    2  C2  UNL     1     -34.989  16.743  -3.007  1.00 20.00     0.087 C 
HETATM    3  C4  UNL     1     -34.861  14.716  -4.122  1.00 20.00     0.376 C 
HETATM    4  C5  UNL     1     -34.834  17.048  -4.456  1.00 20.00     0.463 C 
HETATM    5  C6  UNL     1     -34.165  15.592  -6.316  1.00 20.00     0.324 C 
HETATM    6  N7  UNL     1     -35.016  15.761  -5.150  1.00 20.00     0.211 N 
HETATM    7  F9  UNL     1     -33.652  14.098  -4.205  1.00 20.00    -0.195 F 
HETATM    8  F10 UNL     1     -35.764  17.937  -4.888  1.00 20.00    -0.169 F 
HETATM    9  F11 UNL     1     -33.614  17.593  -4.704  1.00 20.00    -0.169 F 
ENDROOT
BRANCH   3  10
HETATM   10  C3  UNL     1     -35.986  13.748  -4.275  1.00 20.00     0.312 C 
HETATM   11  O8  UNL     1     -35.826  12.555  -4.511  1.00 20.00    -0.301 OA
ENDBRANCH   3  10
TORSDOF 1
ENDMDL
MODEL 8
REMARK VINA RESULT:      -4.2     17.933     18.802
REMARK  1 active torsions:
REMARK  status: ('A' for Active; 'I' for Inactive)
REMARK    1  A    between atoms: C3_3  and  C4_4 
ROOT
HETATM    1  C1  UNL     1     -33.576  14.690  -5.441  1.00 20.00     0.061 C 
HETATM    2  C2  UNL     1     -33.090  14.796  -4.203  1.00 20.00     0.087 C 
HETATM    3  C4  UNL     1     -34.612  15.736  -5.676  1.00 20.00     0.376 C 
HETATM    4  C5  UNL     1     -33.748  15.926  -3.492  1.00 20.00     0.463 C 
HETATM    5  C6  UNL     1     -35.124  17.761  -4.371  1.00 20.00     0.324 C 
HETATM    6  N7  UNL     1     -34.874  16.329  -4.352  1.00 20.00     0.211 N 
HETATM    7  F9  UNL     1     -34.164  16.661  -6.566  1.00 20.00    -0.195 F 
HETATM    8  F10 UNL     1     -34.212  15.556  -2.272  1.00 20.00    -0.169 F 
HETATM    9  F11 UNL     1     -32.870  16.944  -3.294  1.00 20.00    -0.169 F 
ENDROOT
BRANCH   3  10
HETATM   10  C3  UNL     1     -35.867  15.081  -6.147  1.00 20.00     0.312 C 
HETATM   11  O8  UNL     1     -36.029  13.865  -6.173  1.00 20.00    -0.301 OA
ENDBRANCH   3  10
TORSDOF 1
ENDMDL
MODEL 9
REMARK VINA RESULT:      -4.1     18.448     19.314
REMARK  1 active torsions:
REMARK  status: ('A' for Active; 'I' for Inactive)
REMARK    1  A    between atoms: C3_3  and  C4_4 
ROOT
HETATM    1  C1  UNL     1     -33.501  14.766  -4.931  1.00 20.00     0.061 C 
HETATM    2  C2  UNL     1     -33.951  15.038  -6.157  1.00 20.00     0.087 C 
HETATM    3  C4  UNL     1     -34.646  14.584  -3.993  1.00 20.00     0.376 C 
HETATM    4  C5  UNL     1     -35.439  15.058  -6.161  1.00 20.00     0.463 C 
HETATM    5  C6  UNL     1     -37.036  14.248  -4.480  1.00 20.00     0.324 C 
HETATM    6  N7  UNL     1     -35.837  15.025  -4.742  1.00 20.00     0.211 N 
HETATM    7  F9  UNL     1     -34.743  13.284  -3.604  1.00 20.00    -0.195 F 
HETATM    8  F10 UNL     1     -35.929  16.178  -6.748  1.00 20.00    -0.169 F 
HETATM    9  F11 UNL     1     -35.932  13.996  -6.852  1.00 20.00    -0.169 F 
ENDROOT
BRANCH   3  10
HETATM   10  C3  UNL     1     -34.469  15.497  -2.826  1.00 20.00     0.312 C 
HETATM   11  O8  UNL     1     -33.462  16.173  -2.641  1.00 20.00    -0.301 OA
ENDBRANCH   3  10
TORSDOF 1
ENDMDL
