MODEL 1
REMARK VINA RESULT:      -4.8      0.000      0.000
REMARK  2 active torsions:
REMARK  status: ('A' for Active; 'I' for Inactive)
REMARK    1  A    between atoms: C1_1  and  C4_4 
REMARK    2  A    between atoms: C3_3  and  C5_5 
ROOT
HETATM    1  C4  UNL     1     -34.308  15.795  -3.770  1.00 20.00     0.029 A 
HETATM    2  C5  UNL     1     -34.686  14.332  -3.736  1.00 20.00     0.089 A 
HETATM    3  C6  UNL     1     -33.625  14.817  -4.709  1.00 20.00    -0.028 A 
HETATM    4  C8  UNL     1     -32.205  14.374  -4.451  1.00 20.00     0.016 C 
HETATM    5  C9  UNL     1     -33.954  14.936  -6.177  1.00 20.00     0.016 C 
ENDROOT
BRANCH   1   6
HETATM    6  C1  UNL     1     -33.598  16.366  -2.635  1.00 20.00    -0.025 C 
HETATM    7  C2  UNL     1     -34.203  16.963  -1.599  1.00 20.00    -0.034 C 
HETATM    8  C7  UNL     1     -35.684  17.118  -1.479  1.00 20.00     0.036 C 
ENDBRANCH   1   6
BRANCH   2   9
HETATM    9  C3  UNL     1     -36.015  13.923  -4.212  1.00 20.00     0.224 C 
HETATM   10  O10 UNL     1     -36.263  12.757  -4.508  1.00 20.00    -0.279 OA
HETATM   11 CL11 UNL     1     -37.122  15.259  -4.290  1.00 20.00    -0.043 Cl
ENDBRANCH   2   9
TORSDOF 2
ENDMDL
MODEL 2
REMARK VINA RESULT:      -4.7      1.129      1.425
REMARK  2 active torsions:
REMARK  status: ('A' for Active; 'I' for Inactive)
REMARK    1  A    between atoms: C1_1  and  C4_4 
REMARK    2  A    between atoms: C3_3  and  C5_5 
ROOT
HETATM    1  C4  UNL     1     -34.848  16.063  -3.454  1.00 20.00     0.029 A 
HETATM    2  C5  UNL     1     -35.493  14.709  -3.632  1.00 20.00     0.089 A 
HETATM    3  C6  UNL     1     -34.366  15.136  -4.556  1.00 20.00    -0.028 A 
HETATM    4  C8  UNL     1     -33.053  14.403  -4.420  1.00 20.00     0.016 C 
HETATM    5  C9  UNL     1     -34.676  15.545  -5.975  1.00 20.00     0.016 C 
ENDROOT
BRANCH   1   6
HETATM    6  C1  UNL     1     -34.035  16.306  -2.270  1.00 20.00    -0.025 C 
HETATM    7  C2  UNL     1     -33.141  17.298  -2.169  1.00 20.00    -0.034 C 
HETATM    8  C7  UNL     1     -32.863  18.281  -3.259  1.00 20.00     0.036 C 
ENDBRANCH   1   6
BRANCH   2   9
HETATM    9  C3  UNL     1     -36.878  14.633  -4.118  1.00 20.00     0.224 C 
HETATM   10  O10 UNL     1     -37.363  13.579  -4.522  1.00 20.00    -0.279 OA
HETATM   11 CL11 UNL     1     -37.684  16.170  -4.041  1.00 20.00    -0.043 Cl
ENDBRANCH   2   9
TORSDOF 2
ENDMDL
MODEL 3
REMARK VINA RESULT:      -4.3      2.033      2.748
REMARK  2 active torsions:
REMARK  status: ('A' for Active; 'I' for Inactive)
REMARK    1  A    between atoms: C1_1  and  C4_4 
REMARK    2  A    between atoms: C3_3  and  C5_5 
ROOT
HETATM    1  C4  UNL     1     -35.818  16.371  -4.330  1.00 20.00     0.029 A 
HETATM    2  C5  UNL     1     -36.115  14.962  -3.872  1.00 20.00     0.089 A 
HETATM    3  C6  UNL     1     -34.918  15.705  -3.305  1.00 20.00    -0.028 A 
HETATM    4  C8  UNL     1     -34.986  16.106  -1.851  1.00 20.00     0.016 C 
HETATM    5  C9  UNL     1     -33.526  15.337  -3.756  1.00 20.00     0.016 C 
ENDROOT
BRANCH   1   6
HETATM    6  C1  UNL     1     -36.727  17.442  -3.947  1.00 20.00    -0.025 C 
HETATM    7  C2  UNL     1     -36.443  18.745  -4.077  1.00 20.00    -0.034 C 
HETATM    8  C7  UNL     1     -35.156  19.263  -4.632  1.00 20.00     0.036 C 
ENDBRANCH   1   6
BRANCH   2   9
HETATM    9  C3  UNL     1     -35.933  13.848  -4.815  1.00 20.00     0.224 C 
HETATM   10  O10 UNL     1     -35.899  12.681  -4.435  1.00 20.00    -0.279 OA
HETATM   11 CL11 UNL     1     -35.782  14.398  -6.456  1.00 20.00    -0.043 Cl
ENDBRANCH   2   9
TORSDOF 2
ENDMDL
MODEL 4
REMARK VINA RESULT:      -4.3      2.239      3.068
REMARK  2 active torsions:
REMARK  status: ('A' for Active; 'I' for Inactive)
REMARK    1  A    between atoms: C1_1  and  C4_4 
REMARK    2  A    between atoms: C3_3  and  C5_5 
ROOT
HETATM    1  C4  UNL     1     -35.833  16.357  -4.324  1.00 20.00     0.029 A 
HETATM    2  C5  UNL     1     -36.112  14.946  -3.863  1.00 20.00     0.089 A 
HETATM    3  C6  UNL     1     -34.922  15.703  -3.301  1.00 20.00    -0.028 A 
HETATM    4  C8  UNL     1     -34.990  16.106  -1.847  1.00 20.00     0.016 C 
HETATM    5  C9  UNL     1     -33.527  15.349  -3.756  1.00 20.00     0.016 C 
ENDROOT
BRANCH   1   6
HETATM    6  C1  UNL     1     -36.752  17.419  -3.940  1.00 20.00    -0.025 C 
HETATM    7  C2  UNL     1     -37.831  17.767  -4.655  1.00 20.00    -0.034 C 
HETATM    8  C7  UNL     1     -38.226  17.110  -5.936  1.00 20.00     0.036 C 
ENDBRANCH   1   6
BRANCH   2   9
HETATM    9  C3  UNL     1     -35.922  13.832  -4.804  1.00 20.00     0.224 C 
HETATM   10  O10 UNL     1     -35.872  12.667  -4.422  1.00 20.00    -0.279 OA
HETATM   11 CL11 UNL     1     -35.786  14.380  -6.447  1.00 20.00    -0.043 Cl
ENDBRANCH   2   9
TORSDOF 2
ENDMDL
MODEL 5
REMARK VINA RESULT:      -4.3      2.104      3.083
REMARK  2 active torsions:
REMARK  status: ('A' for Active; 'I' for Inactive)
REMARK    1  A    between atoms: C1_1  and  C4_4 
REMARK    2  A    between atoms: C3_3  and  C5_5 
ROOT
HETATM    1  C4  UNL     1     -34.956  15.185  -3.107  1.00 20.00     0.029 A 
HETATM    2  C5  UNL     1     -34.840  15.625  -4.548  1.00 20.00     0.089 A 
HETATM    3  C6  UNL     1     -36.037  14.804  -4.102  1.00 20.00    -0.028 A 
HETATM    4  C8  UNL     1     -37.377  15.499  -4.081  1.00 20.00     0.016 C 
HETATM    5  C9  UNL     1     -36.129  13.346  -4.485  1.00 20.00     0.016 C 
ENDROOT
BRANCH   1   6
HETATM    6  C1  UNL     1     -35.201  16.189  -2.081  1.00 20.00    -0.025 C 
HETATM    7  C2  UNL     1     -34.288  17.085  -1.681  1.00 20.00    -0.034 C 
HETATM    8  C7  UNL     1     -32.904  17.166  -2.236  1.00 20.00     0.036 C 
ENDBRANCH   1   6
BRANCH   2   9
HETATM    9  C3  UNL     1     -33.795  15.035  -5.397  1.00 20.00     0.224 C 
HETATM   10  O10 UNL     1     -33.856  15.083  -6.622  1.00 20.00    -0.279 OA
HETATM   11 CL11 UNL     1     -32.529  14.301  -4.461  1.00 20.00    -0.043 Cl
ENDBRANCH   2   9
TORSDOF 2
ENDMDL
MODEL 6
REMARK VINA RESULT:      -4.1      1.628      2.338
REMARK  2 active torsions:
REMARK  status: ('A' for Active; 'I' for Inactive)
REMARK    1  A    between atoms: C1_1  and  C4_4 
REMARK    2  A    between atoms: C3_3  and  C5_5 
ROOT
HETATM    1  C4  UNL     1     -35.121  16.335  -2.540  1.00 20.00     0.029 A 
HETATM    2  C5  UNL     1     -34.032  15.422  -3.052  1.00 20.00     0.089 A 
HETATM    3  C6  UNL     1     -34.008  16.899  -3.405  1.00 20.00    -0.028 A 
HETATM    4  C8  UNL     1     -32.909  17.733  -2.790  1.00 20.00     0.016 C 
HETATM    5  C9  UNL     1     -34.383  17.342  -4.798  1.00 20.00     0.016 C 
ENDROOT
BRANCH   1   6
HETATM    6  C1  UNL     1     -35.183  16.626  -1.114  1.00 20.00    -0.025 C 
HETATM    7  C2  UNL     1     -35.948  17.590  -0.582  1.00 20.00    -0.034 C 
HETATM    8  C7  UNL     1     -36.831  18.487  -1.384  1.00 20.00     0.036 C 
ENDBRANCH   1   6
BRANCH   2   9
HETATM    9  C3  UNL     1     -34.362  14.411  -4.067  1.00 20.00     0.224 C 
HETATM   10  O10 UNL     1     -33.493  13.872  -4.746  1.00 20.00    -0.279 OA
HETATM   11 CL11 UNL     1     -36.070  14.107  -4.156  1.00 20.00    -0.043 Cl
ENDBRANCH   2   9
TORSDOF 2
ENDMDL
MODEL 7
REMARK VINA RESULT:      -4.1      1.918      2.778
REMARK  2 active torsions:
REMARK  status: ('A' for Active; 'I' for Inactive)
REMARK    1  A    between atoms: C1_1  and  C4_4 
REMARK    2  A    between atoms: C3_3  and  C5_5 
ROOT
HETATM    1  C4  UNL     1     -34.182  16.075  -2.806  1.00 20.00     0.029 A 
HETATM    2  C5  UNL     1     -33.949  16.074  -4.299  1.00 20.00     0.089 A 
HETATM    3  C6  UNL     1     -35.338  16.350  -3.750  1.00 20.00    -0.028 A 
HETATM    4  C8  UNL     1     -35.875  17.752  -3.916  1.00 20.00     0.016 C 
HETATM    5  C9  UNL     1     -36.407  15.289  -3.849  1.00 20.00     0.016 C 
ENDROOT
BRANCH   1   6
HETATM    6  C1  UNL     1     -33.600  17.142  -2.003  1.00 20.00    -0.025 C 
HETATM    7  C2  UNL     1     -34.124  17.579  -0.850  1.00 20.00    -0.034 C 
HETATM    8  C7  UNL     1     -35.372  17.028  -0.243  1.00 20.00     0.036 C 
ENDBRANCH   1   6
BRANCH   2   9
HETATM    9  C3  UNL     1     -33.645  14.805  -4.976  1.00 20.00     0.224 C 
HETATM   10  O10 UNL     1     -33.267  13.817  -4.353  1.00 20.00    -0.279 OA
HETATM   11 CL11 UNL     1     -33.886  14.906  -6.693  1.00 20.00    -0.043 Cl
ENDBRANCH   2   9
TORSDOF 2
ENDMDL
MODEL 8
REMARK VINA RESULT:      -4.0      3.545      5.006
REMARK  2 active torsions:
REMARK  status: ('A' for Active; 'I' for Inactive)
REMARK    1  A    between atoms: C1_1  and  C4_4 
REMARK    2  A    between atoms: C3_3  and  C5_5 
ROOT
HETATM    1  C4  UNL     1     -33.254  16.864  -3.398  1.00 20.00     0.029 A 
HETATM    2  C5  UNL     1     -32.937  17.345  -2.001  1.00 20.00     0.089 A 
HETATM    3  C6  UNL     1     -34.383  17.235  -2.453  1.00 20.00    -0.028 A 
HETATM    4  C8  UNL     1     -35.224  16.161  -1.806  1.00 20.00     0.016 C 
HETATM    5  C9  UNL     1     -35.162  18.486  -2.778  1.00 20.00     0.016 C 
ENDROOT
BRANCH   1   6
HETATM    6  C1  UNL     1     -32.990  15.474  -3.741  1.00 20.00    -0.025 C 
HETATM    7  C2  UNL     1     -33.553  14.841  -4.779  1.00 20.00    -0.034 C 
HETATM    8  C7  UNL     1     -34.524  15.483  -5.715  1.00 20.00     0.036 C 
ENDBRANCH   1   6
BRANCH   2   9
HETATM    9  C3  UNL     1     -32.301  18.658  -1.821  1.00 20.00     0.224 C 
HETATM   10  O10 UNL     1     -31.794  19.263  -2.761  1.00 20.00    -0.279 OA
HETATM   11 CL11 UNL     1     -32.370  19.198  -0.171  1.00 20.00    -0.043 Cl
ENDBRANCH   2   9
TORSDOF 2
ENDMDL
MODEL 9
REMARK VINA RESULT:      -4.0      2.541      3.138
REMARK  2 active torsions:
REMARK  status: ('A' for Active; 'I' for Inactive)
REMARK    1  A    between atoms: C1_1  and  C4_4 
REMARK    2  A    between atoms: C3_3  and  C5_5 
ROOT
HETATM    1  C4  UNL     1     -34.245  16.276  -2.737  1.00 20.00     0.029 A 
HETATM    2  C5  UNL     1     -34.787  16.613  -4.106  1.00 20.00     0.089 A 
HETATM    3  C6  UNL     1     -34.257  15.219  -3.826  1.00 20.00    -0.028 A 
HETATM    4  C8  UNL     1     -35.265  14.095  -3.791  1.00 20.00     0.016 C 
HETATM    5  C9  UNL     1     -32.918  14.800  -4.385  1.00 20.00     0.016 C 
ENDROOT
BRANCH   1   6
HETATM    6  C1  UNL     1     -35.168  16.205  -1.612  1.00 20.00    -0.025 C 
HETATM    7  C2  UNL     1     -35.151  17.057  -0.578  1.00 20.00    -0.034 C 
HETATM    8  C7  UNL     1     -34.184  18.188  -0.449  1.00 20.00     0.036 C 
ENDBRANCH   1   6
BRANCH   2   9
HETATM    9  C3  UNL     1     -34.041  17.545  -4.964  1.00 20.00     0.224 C 
HETATM   10  O10 UNL     1     -34.229  17.597  -6.176  1.00 20.00    -0.279 OA
HETATM   11 CL11 UNL     1     -32.917  18.511  -4.058  1.00 20.00    -0.043 Cl
ENDBRANCH   2   9
TORSDOF 2
ENDMDL
