MODEL 1
REMARK VINA RESULT:      -4.9      0.000      0.000
REMARK  1 active torsions:
REMARK  status: ('A' for Active; 'I' for Inactive)
REMARK    1  A    between atoms: C9_9  and  N10_10 
ROOT
HETATM    1  C1  UNL     1     -36.381  13.713  -4.853  1.00 20.00     0.072 A 
HETATM    2  C2  UNL     1     -37.149  14.789  -4.655  1.00 20.00    -0.002 A 
HETATM    3  C5  UNL     1     -35.164  13.900  -4.040  1.00 20.00     0.243 A 
HETATM    4  C8  UNL     1     -36.544  15.775  -3.719  1.00 20.00     0.154 A 
HETATM    5  N10 UNL     1     -35.302  15.119  -3.393  1.00 20.00    -0.340 N 
HETATM    6  O11 UNL     1     -34.247  13.097  -3.989  1.00 20.00    -0.268 OA
ENDROOT
BRANCH   5   7
HETATM    7  C9  UNL     1     -34.319  15.668  -2.500  1.00 20.00     0.094 C 
HETATM    8  C6  UNL     1     -33.203  16.416  -3.238  1.00 20.00     0.052 C 
HETATM    9  C3  UNL     1     -32.891  17.542  -2.310  1.00 20.00    -0.029 C 
HETATM   10  C4  UNL     1     -33.827  17.682  -1.366  1.00 20.00    -0.029 C 
HETATM   11  C7  UNL     1     -34.918  16.673  -1.510  1.00 20.00     0.052 C 
ENDBRANCH   5   7
TORSDOF 1
ENDMDL
MODEL 2
REMARK VINA RESULT:      -4.7      1.787      1.991
REMARK  1 active torsions:
REMARK  status: ('A' for Active; 'I' for Inactive)
REMARK    1  A    between atoms: C9_9  and  N10_10 
ROOT
HETATM    1  C1  UNL     1     -34.044  15.049  -6.354  1.00 20.00     0.072 A 
HETATM    2  C2  UNL     1     -34.508  16.302  -6.401  1.00 20.00    -0.002 A 
HETATM    3  C5  UNL     1     -33.709  14.768  -4.945  1.00 20.00     0.243 A 
HETATM    4  C8  UNL     1     -34.529  16.968  -5.070  1.00 20.00     0.154 A 
HETATM    5  N10 UNL     1     -34.008  15.919  -4.229  1.00 20.00    -0.340 N 
HETATM    6  O11 UNL     1     -33.257  13.707  -4.549  1.00 20.00    -0.268 OA
ENDROOT
BRANCH   5   7
HETATM    7  C9  UNL     1     -33.821  16.050  -2.810  1.00 20.00     0.094 C 
HETATM    8  C6  UNL     1     -33.035  17.311  -2.434  1.00 20.00     0.052 C 
HETATM    9  C3  UNL     1     -33.676  17.728  -1.152  1.00 20.00    -0.029 C 
HETATM   10  C4  UNL     1     -34.828  17.086  -0.941  1.00 20.00    -0.029 C 
HETATM   11  C7  UNL     1     -35.147  16.135  -2.047  1.00 20.00     0.052 C 
ENDBRANCH   5   7
TORSDOF 1
ENDMDL
MODEL 3
REMARK VINA RESULT:      -4.6      1.670      1.747
REMARK  1 active torsions:
REMARK  status: ('A' for Active; 'I' for Inactive)
REMARK    1  A    between atoms: C9_9  and  N10_10 
ROOT
HETATM    1  C1  UNL     1     -35.932  14.358  -6.637  1.00 20.00     0.072 A 
HETATM    2  C2  UNL     1     -35.327  15.501  -6.974  1.00 20.00    -0.002 A 
HETATM    3  C5  UNL     1     -35.651  14.129  -5.207  1.00 20.00     0.243 A 
HETATM    4  C8  UNL     1     -34.601  16.134  -5.840  1.00 20.00     0.154 A 
HETATM    5  N10 UNL     1     -34.870  15.192  -4.781  1.00 20.00    -0.340 N 
HETATM    6  O11 UNL     1     -36.059  13.167  -4.578  1.00 20.00    -0.268 OA
ENDROOT
BRANCH   5   7
HETATM    7  C9  UNL     1     -34.383  15.340  -3.437  1.00 20.00     0.094 C 
HETATM    8  C6  UNL     1     -33.140  16.234  -3.355  1.00 20.00     0.052 C 
HETATM    9  C3  UNL     1     -33.333  16.948  -2.059  1.00 20.00    -0.029 C 
HETATM   10  C4  UNL     1     -34.576  16.804  -1.592  1.00 20.00    -0.029 C 
HETATM   11  C7  UNL     1     -35.419  15.971  -2.501  1.00 20.00     0.052 C 
ENDBRANCH   5   7
TORSDOF 1
ENDMDL
MODEL 4
REMARK VINA RESULT:      -4.5      1.679      2.206
REMARK  1 active torsions:
REMARK  status: ('A' for Active; 'I' for Inactive)
REMARK    1  A    between atoms: C9_9  and  N10_10 
ROOT
HETATM    1  C1  UNL     1     -38.841  15.572  -4.568  1.00 20.00     0.072 A 
HETATM    2  C2  UNL     1     -38.637  16.835  -4.181  1.00 20.00    -0.002 A 
HETATM    3  C5  UNL     1     -37.622  14.815  -4.224  1.00 20.00     0.243 A 
HETATM    4  C8  UNL     1     -37.302  17.047  -3.557  1.00 20.00     0.154 A 
HETATM    5  N10 UNL     1     -36.748  15.717  -3.635  1.00 20.00    -0.340 N 
HETATM    6  O11 UNL     1     -37.474  13.625  -4.443  1.00 20.00    -0.268 OA
ENDROOT
BRANCH   5   7
HETATM    7  C9  UNL     1     -35.439  15.367  -3.156  1.00 20.00     0.094 C 
HETATM    8  C6  UNL     1     -34.419  15.211  -4.289  1.00 20.00     0.052 C 
HETATM    9  C3  UNL     1     -33.163  15.736  -3.675  1.00 20.00    -0.029 C 
HETATM   10  C4  UNL     1     -33.403  16.395  -2.539  1.00 20.00    -0.029 C 
HETATM   11  C7  UNL     1     -34.859  16.421  -2.206  1.00 20.00     0.052 C 
ENDBRANCH   5   7
TORSDOF 1
ENDMDL
MODEL 5
REMARK VINA RESULT:      -4.5     15.013     16.813
REMARK  1 active torsions:
REMARK  status: ('A' for Active; 'I' for Inactive)
REMARK    1  A    between atoms: C9_9  and  N10_10 
ROOT
HETATM    1  C1  UNL     1     -24.437  19.063   6.832  1.00 20.00     0.072 A 
HETATM    2  C2  UNL     1     -25.697  19.254   7.231  1.00 20.00    -0.002 A 
HETATM    3  C5  UNL     1     -23.689  18.558   7.999  1.00 20.00     0.243 A 
HETATM    4  C8  UNL     1     -25.916  18.908   8.662  1.00 20.00     0.154 A 
HETATM    5  N10 UNL     1     -24.593  18.483   9.047  1.00 20.00    -0.340 N 
HETATM    6  O11 UNL     1     -22.502  18.278   7.979  1.00 20.00    -0.268 OA
ENDROOT
BRANCH   5   7
HETATM    7  C9  UNL     1     -24.252  18.033  10.369  1.00 20.00     0.094 C 
HETATM    8  C6  UNL     1     -25.315  18.400  11.410  1.00 20.00     0.052 C 
HETATM    9  C3  UNL     1     -25.293  17.226  12.331  1.00 20.00    -0.029 C 
HETATM   10  C4  UNL     1     -24.624  16.195  11.807  1.00 20.00    -0.029 C 
HETATM   11  C7  UNL     1     -24.090  16.511  10.449  1.00 20.00     0.052 C 
ENDBRANCH   5   7
TORSDOF 1
ENDMDL
MODEL 6
REMARK VINA RESULT:      -4.4     13.584     15.419
REMARK  1 active torsions:
REMARK  status: ('A' for Active; 'I' for Inactive)
REMARK    1  A    between atoms: C9_9  and  N10_10 
ROOT
HETATM    1  C1  UNL     1     -26.083  19.262   5.255  1.00 20.00     0.072 A 
HETATM    2  C2  UNL     1     -27.112  19.217   6.106  1.00 20.00    -0.002 A 
HETATM    3  C5  UNL     1     -24.852  19.234   6.067  1.00 20.00     0.243 A 
HETATM    4  C8  UNL     1     -26.690  19.157   7.531  1.00 20.00     0.154 A 
HETATM    5  N10 UNL     1     -25.254  19.173   7.394  1.00 20.00    -0.340 N 
HETATM    6  O11 UNL     1     -23.726  19.263   5.601  1.00 20.00    -0.268 OA
ENDROOT
BRANCH   5   7
HETATM    7  C9  UNL     1     -24.344  19.130   8.505  1.00 20.00     0.094 C 
HETATM    8  C6  UNL     1     -25.061  18.958   9.849  1.00 20.00     0.052 C 
HETATM    9  C3  UNL     1     -24.116  18.097  10.619  1.00 20.00    -0.029 C 
HETATM   10  C4  UNL     1     -23.181  17.558   9.832  1.00 20.00    -0.029 C 
HETATM   11  C7  UNL     1     -23.349  17.968   8.406  1.00 20.00     0.052 C 
ENDBRANCH   5   7
TORSDOF 1
ENDMDL
MODEL 7
REMARK VINA RESULT:      -4.2      3.420      5.757
REMARK  1 active torsions:
REMARK  status: ('A' for Active; 'I' for Inactive)
REMARK    1  A    between atoms: C9_9  and  N10_10 
ROOT
HETATM    1  C1  UNL     1     -31.162  18.676   1.478  1.00 20.00     0.072 A 
HETATM    2  C2  UNL     1     -32.263  18.505   2.215  1.00 20.00    -0.002 A 
HETATM    3  C5  UNL     1     -31.552  18.469   0.070  1.00 20.00     0.243 A 
HETATM    4  C8  UNL     1     -33.466  18.175   1.403  1.00 20.00     0.154 A 
HETATM    5  N10 UNL     1     -32.908  18.178   0.073  1.00 20.00    -0.340 N 
HETATM    6  O11 UNL     1     -30.780  18.552  -0.871  1.00 20.00    -0.268 OA
ENDROOT
BRANCH   5   7
HETATM    7  C9  UNL     1     -33.672  17.910  -1.115  1.00 20.00     0.094 C 
HETATM    8  C6  UNL     1     -32.892  17.082  -2.143  1.00 20.00     0.052 C 
HETATM    9  C3  UNL     1     -33.952  16.220  -2.743  1.00 20.00    -0.029 C 
HETATM   10  C4  UNL     1     -35.078  16.243  -2.024  1.00 20.00    -0.029 C 
HETATM   11  C7  UNL     1     -34.955  17.123  -0.825  1.00 20.00     0.052 C 
ENDBRANCH   5   7
TORSDOF 1
ENDMDL
MODEL 8
REMARK VINA RESULT:      -4.1      1.577      2.257
REMARK  1 active torsions:
REMARK  status: ('A' for Active; 'I' for Inactive)
REMARK    1  A    between atoms: C9_9  and  N10_10 
ROOT
HETATM    1  C1  UNL     1     -37.071  14.240  -4.467  1.00 20.00     0.072 A 
HETATM    2  C2  UNL     1     -35.907  13.586  -4.396  1.00 20.00    -0.002 A 
HETATM    3  C5  UNL     1     -36.832  15.599  -3.944  1.00 20.00     0.243 A 
HETATM    4  C8  UNL     1     -34.805  14.414  -3.834  1.00 20.00     0.154 A 
HETATM    5  N10 UNL     1     -35.494  15.656  -3.585  1.00 20.00    -0.340 N 
HETATM    6  O11 UNL     1     -37.691  16.461  -3.868  1.00 20.00    -0.268 OA
ENDROOT
BRANCH   5   7
HETATM    7  C9  UNL     1     -34.863  16.822  -3.028  1.00 20.00     0.094 C 
HETATM    8  C6  UNL     1     -35.052  16.925  -1.510  1.00 20.00     0.052 C 
HETATM    9  C3  UNL     1     -33.756  17.513  -1.058  1.00 20.00    -0.029 C 
HETATM   10  C4  UNL     1     -32.828  17.469  -2.017  1.00 20.00    -0.029 C 
HETATM   11  C7  UNL     1     -33.350  16.844  -3.269  1.00 20.00     0.052 C 
ENDBRANCH   5   7
TORSDOF 1
ENDMDL
MODEL 9
REMARK VINA RESULT:      -4.1      2.718      4.910
REMARK  1 active torsions:
REMARK  status: ('A' for Active; 'I' for Inactive)
REMARK    1  A    between atoms: C9_9  and  N10_10 
ROOT
HETATM    1  C1  UNL     1     -32.525  18.897   0.383  1.00 20.00     0.072 A 
HETATM    2  C2  UNL     1     -33.616  18.391   0.965  1.00 20.00    -0.002 A 
HETATM    3  C5  UNL     1     -32.560  18.481  -1.032  1.00 20.00     0.243 A 
HETATM    4  C8  UNL     1     -34.468  17.607   0.029  1.00 20.00     0.154 A 
HETATM    5  N10 UNL     1     -33.714  17.728  -1.195  1.00 20.00    -0.340 N 
HETATM    6  O11 UNL     1     -31.707  18.775  -1.852  1.00 20.00    -0.268 OA
ENDROOT
BRANCH   5   7
HETATM    7  C9  UNL     1     -34.113  17.134  -2.442  1.00 20.00     0.094 C 
HETATM    8  C6  UNL     1     -32.982  16.342  -3.107  1.00 20.00     0.052 C 
HETATM    9  C3  UNL     1     -33.707  15.200  -3.738  1.00 20.00    -0.029 C 
HETATM   10  C4  UNL     1     -34.960  15.097  -3.287  1.00 20.00    -0.029 C 
HETATM   11  C7  UNL     1     -35.278  16.152  -2.280  1.00 20.00     0.052 C 
ENDBRANCH   5   7
TORSDOF 1
ENDMDL
