MODEL 1
REMARK VINA RESULT:      -5.3      0.000      0.000
REMARK  3 active torsions:
REMARK  status: ('A' for Active; 'I' for Inactive)
REMARK    1  A    between atoms: C1_1  and  C5_5 
REMARK    2  A    between atoms: C6_6  and  C8_8 
REMARK    3  A    between atoms: C8_8  and  C9_9 
ROOT
HETATM    1  C2  UNL     1     -35.119  16.062  -4.734  1.00 20.00     0.030 C 
HETATM    2  C3  UNL     1     -33.728  14.583  -4.103  1.00 20.00     0.030 C 
HETATM    3  C4  UNL     1     -35.148  15.364  -2.725  1.00 20.00     0.030 C 
HETATM    4  C5  UNL     1     -35.275  14.659  -4.099  1.00 20.00     0.050 C 
HETATM    5  C6  UNL     1     -34.019  16.054  -3.595  1.00 20.00    -0.037 C 
ENDROOT
BRANCH   4   6
HETATM    6  C1  UNL     1     -36.204  13.624  -4.467  1.00 20.00     0.181 C 
HETATM    7  O10 UNL     1     -37.352  14.026  -4.808  1.00 20.00    -0.647 OA
HETATM    8  O11 UNL     1     -35.745  12.450  -4.399  1.00 20.00    -0.647 OA
ENDBRANCH   4   6
BRANCH   5   9
HETATM    9  C8  UNL     1     -33.064  17.117  -3.212  1.00 20.00     0.009 C 
BRANCH   9  10
HETATM   10  C9  UNL     1     -33.220  17.564  -1.743  1.00 20.00    -0.004 C 
HETATM   11  C7  UNL     1     -31.971  18.231  -1.190  1.00 20.00     0.005 C 
ENDBRANCH   9  10
ENDBRANCH   5   9
TORSDOF 3
ENDMDL
MODEL 2
REMARK VINA RESULT:      -5.3      0.072      1.104
REMARK  3 active torsions:
REMARK  status: ('A' for Active; 'I' for Inactive)
REMARK    1  A    between atoms: C1_1  and  C5_5 
REMARK    2  A    between atoms: C6_6  and  C8_8 
REMARK    3  A    between atoms: C8_8  and  C9_9 
ROOT
HETATM    1  C2  UNL     1     -33.691  14.557  -4.131  1.00 20.00     0.030 C 
HETATM    2  C3  UNL     1     -35.062  15.334  -2.704  1.00 20.00     0.030 C 
HETATM    3  C4  UNL     1     -35.072  16.072  -4.699  1.00 20.00     0.030 C 
HETATM    4  C5  UNL     1     -35.235  14.658  -4.086  1.00 20.00     0.050 C 
HETATM    5  C6  UNL     1     -33.943  16.023  -3.588  1.00 20.00    -0.037 C 
ENDROOT
BRANCH   4   6
HETATM    6  C1  UNL     1     -36.194  13.652  -4.456  1.00 20.00     0.181 C 
HETATM    7  O10 UNL     1     -37.341  14.084  -4.758  1.00 20.00    -0.647 OA
HETATM    8  O11 UNL     1     -35.757  12.467  -4.428  1.00 20.00    -0.647 OA
ENDBRANCH   4   6
BRANCH   5   9
HETATM    9  C8  UNL     1     -32.960  17.061  -3.210  1.00 20.00     0.009 C 
BRANCH   9  10
HETATM   10  C9  UNL     1     -33.214  17.646  -1.805  1.00 20.00    -0.004 C 
HETATM   11  C7  UNL     1     -31.964  18.239  -1.175  1.00 20.00     0.005 C 
ENDBRANCH   9  10
ENDBRANCH   5   9
TORSDOF 3
ENDMDL
MODEL 3
REMARK VINA RESULT:      -5.3      0.086      1.134
REMARK  3 active torsions:
REMARK  status: ('A' for Active; 'I' for Inactive)
REMARK    1  A    between atoms: C1_1  and  C5_5 
REMARK    2  A    between atoms: C6_6  and  C8_8 
REMARK    3  A    between atoms: C8_8  and  C9_9 
ROOT
HETATM    1  C2  UNL     1     -35.043  15.284  -2.681  1.00 20.00     0.030 C 
HETATM    2  C3  UNL     1     -35.112  16.080  -4.652  1.00 20.00     0.030 C 
HETATM    3  C4  UNL     1     -33.707  14.558  -4.169  1.00 20.00     0.030 C 
HETATM    4  C5  UNL     1     -35.251  14.648  -4.078  1.00 20.00     0.050 C 
HETATM    5  C6  UNL     1     -33.953  16.006  -3.575  1.00 20.00    -0.037 C 
ENDROOT
BRANCH   4   6
HETATM    6  C1  UNL     1     -36.208  13.642  -4.453  1.00 20.00     0.181 C 
HETATM    7  O10 UNL     1     -37.358  14.074  -4.745  1.00 20.00    -0.647 OA
HETATM    8  O11 UNL     1     -35.766  12.459  -4.441  1.00 20.00    -0.647 OA
ENDBRANCH   4   6
BRANCH   5   9
HETATM    9  C8  UNL     1     -32.966  17.038  -3.192  1.00 20.00     0.009 C 
BRANCH   9  10
HETATM   10  C9  UNL     1     -33.248  17.654  -1.806  1.00 20.00    -0.004 C 
HETATM   11  C7  UNL     1     -32.004  18.234  -1.151  1.00 20.00     0.005 C 
ENDBRANCH   9  10
ENDBRANCH   5   9
TORSDOF 3
ENDMDL
MODEL 4
REMARK VINA RESULT:      -5.2     17.191     17.951
REMARK  3 active torsions:
REMARK  status: ('A' for Active; 'I' for Inactive)
REMARK    1  A    between atoms: C1_1  and  C5_5 
REMARK    2  A    between atoms: C6_6  and  C8_8 
REMARK    3  A    between atoms: C8_8  and  C9_9 
ROOT
HETATM    1  C2  UNL     1     -24.129  18.631   9.691  1.00 20.00     0.030 C 
HETATM    2  C3  UNL     1     -22.472  17.983  10.855  1.00 20.00     0.030 C 
HETATM    3  C4  UNL     1     -23.945  16.582  10.230  1.00 20.00     0.030 C 
HETATM    4  C5  UNL     1     -23.025  17.568   9.469  1.00 20.00     0.050 C 
HETATM    5  C6  UNL     1     -24.035  17.906  11.095  1.00 20.00    -0.037 C 
ENDROOT
BRANCH   4   6
HETATM    6  C1  UNL     1     -22.276  17.314   8.267  1.00 20.00     0.181 C 
HETATM    7  O10 UNL     1     -22.637  17.979   7.256  1.00 20.00    -0.647 OA
HETATM    8  O11 UNL     1     -21.356  16.457   8.386  1.00 20.00    -0.647 OA
ENDBRANCH   4   6
BRANCH   5   9
HETATM    9  C8  UNL     1     -24.804  18.162  12.332  1.00 20.00     0.009 C 
BRANCH   9  10
HETATM   10  C9  UNL     1     -26.164  18.839  12.064  1.00 20.00    -0.004 C 
HETATM   11  C7  UNL     1     -27.346  17.914  12.308  1.00 20.00     0.005 C 
ENDBRANCH   9  10
ENDBRANCH   5   9
TORSDOF 3
ENDMDL
MODEL 5
REMARK VINA RESULT:      -4.6      0.866      1.624
REMARK  3 active torsions:
REMARK  status: ('A' for Active; 'I' for Inactive)
REMARK    1  A    between atoms: C1_1  and  C5_5 
REMARK    2  A    between atoms: C6_6  and  C8_8 
REMARK    3  A    between atoms: C8_8  and  C9_9 
ROOT
HETATM    1  C2  UNL     1     -34.535  15.493  -4.797  1.00 20.00     0.030 C 
HETATM    2  C3  UNL     1     -35.333  15.507  -2.826  1.00 20.00     0.030 C 
HETATM    3  C4  UNL     1     -36.428  16.387  -4.423  1.00 20.00     0.030 C 
HETATM    4  C5  UNL     1     -35.856  14.968  -4.182  1.00 20.00     0.050 C 
HETATM    5  C6  UNL     1     -34.983  16.672  -3.840  1.00 20.00    -0.037 C 
ENDROOT
BRANCH   4   6
HETATM    6  C1  UNL     1     -36.505  13.710  -4.433  1.00 20.00     0.181 C 
HETATM    7  O10 UNL     1     -35.732  12.721  -4.570  1.00 20.00    -0.647 OA
HETATM    8  O11 UNL     1     -37.766  13.764  -4.484  1.00 20.00    -0.647 OA
ENDBRANCH   4   6
BRANCH   5   9
HETATM    9  C8  UNL     1     -34.320  17.968  -3.581  1.00 20.00     0.009 C 
BRANCH   9  10
HETATM   10  C9  UNL     1     -32.833  17.816  -3.200  1.00 20.00    -0.004 C 
HETATM   11  C7  UNL     1     -32.605  17.805  -1.696  1.00 20.00     0.005 C 
ENDBRANCH   9  10
ENDBRANCH   5   9
TORSDOF 3
ENDMDL
MODEL 6
REMARK VINA RESULT:      -4.6      1.490      1.804
REMARK  3 active torsions:
REMARK  status: ('A' for Active; 'I' for Inactive)
REMARK    1  A    between atoms: C1_1  and  C5_5 
REMARK    2  A    between atoms: C6_6  and  C8_8 
REMARK    3  A    between atoms: C8_8  and  C9_9 
ROOT
HETATM    1  C2  UNL     1     -34.366  17.030  -4.191  1.00 20.00     0.030 C 
HETATM    2  C3  UNL     1     -32.911  15.629  -3.527  1.00 20.00     0.030 C 
HETATM    3  C4  UNL     1     -34.928  15.457  -2.874  1.00 20.00     0.030 C 
HETATM    4  C5  UNL     1     -34.261  15.487  -4.272  1.00 20.00     0.050 C 
HETATM    5  C6  UNL     1     -33.864  16.623  -2.745  1.00 20.00    -0.037 C 
ENDROOT
BRANCH   4   6
HETATM    6  C1  UNL     1     -34.555  14.643  -5.399  1.00 20.00     0.181 C 
HETATM    7  O10 UNL     1     -33.717  14.690  -6.343  1.00 20.00    -0.647 OA
HETATM    8  O11 UNL     1     -35.617  13.966  -5.292  1.00 20.00    -0.647 OA
ENDBRANCH   4   6
BRANCH   5   9
HETATM    9  C8  UNL     1     -33.563  17.487  -1.584  1.00 20.00     0.009 C 
BRANCH   9  10
HETATM   10  C9  UNL     1     -32.278  18.320  -1.771  1.00 20.00    -0.004 C 
HETATM   11  C7  UNL     1     -31.366  18.284  -0.556  1.00 20.00     0.005 C 
ENDBRANCH   9  10
ENDBRANCH   5   9
TORSDOF 3
ENDMDL
MODEL 7
REMARK VINA RESULT:      -4.5      1.327      2.069
REMARK  3 active torsions:
REMARK  status: ('A' for Active; 'I' for Inactive)
REMARK    1  A    between atoms: C1_1  and  C5_5 
REMARK    2  A    between atoms: C6_6  and  C8_8 
REMARK    3  A    between atoms: C8_8  and  C9_9 
ROOT
HETATM    1  C2  UNL     1     -32.959  16.159  -3.260  1.00 20.00     0.030 C 
HETATM    2  C3  UNL     1     -34.845  15.789  -2.351  1.00 20.00     0.030 C 
HETATM    3  C4  UNL     1     -34.730  16.962  -4.122  1.00 20.00     0.030 C 
HETATM    4  C5  UNL     1     -34.277  15.524  -3.767  1.00 20.00     0.050 C 
HETATM    5  C6  UNL     1     -34.073  17.129  -2.690  1.00 20.00    -0.037 C 
ENDROOT
BRANCH   4   6
HETATM    6  C1  UNL     1     -34.431  14.337  -4.566  1.00 20.00     0.181 C 
HETATM    7  O10 UNL     1     -34.840  13.317  -3.943  1.00 20.00    -0.647 OA
HETATM    8  O11 UNL     1     -34.137  14.477  -5.786  1.00 20.00    -0.647 OA
ENDBRANCH   4   6
BRANCH   5   9
HETATM    9  C8  UNL     1     -33.918  18.351  -1.872  1.00 20.00     0.009 C 
BRANCH   9  10
HETATM   10  C9  UNL     1     -33.129  18.106  -0.569  1.00 20.00    -0.004 C 
HETATM   11  C7  UNL     1     -31.646  18.412  -0.707  1.00 20.00     0.005 C 
ENDBRANCH   9  10
ENDBRANCH   5   9
TORSDOF 3
ENDMDL
MODEL 8
REMARK VINA RESULT:      -4.4      1.993      2.479
REMARK  3 active torsions:
REMARK  status: ('A' for Active; 'I' for Inactive)
REMARK    1  A    between atoms: C1_1  and  C5_5 
REMARK    2  A    between atoms: C6_6  and  C8_8 
REMARK    3  A    between atoms: C8_8  and  C9_9 
ROOT
HETATM    1  C2  UNL     1     -33.174  15.482  -3.754  1.00 20.00     0.030 C 
HETATM    2  C3  UNL     1     -35.177  14.978  -3.252  1.00 20.00     0.030 C 
HETATM    3  C4  UNL     1     -34.765  16.786  -4.294  1.00 20.00     0.030 C 
HETATM    4  C5  UNL     1     -34.464  15.296  -4.590  1.00 20.00     0.050 C 
HETATM    5  C6  UNL     1     -34.275  16.229  -2.895  1.00 20.00    -0.037 C 
ENDROOT
BRANCH   4   6
HETATM    6  C1  UNL     1     -34.607  14.607  -5.845  1.00 20.00     0.181 C 
HETATM    7  O10 UNL     1     -33.643  14.743  -6.648  1.00 20.00    -0.647 OA
HETATM    8  O11 UNL     1     -35.683  13.958  -5.974  1.00 20.00    -0.647 OA
ENDBRANCH   4   6
BRANCH   5   9
HETATM    9  C8  UNL     1     -34.130  16.939  -1.606  1.00 20.00     0.009 C 
BRANCH   9  10
HETATM   10  C9  UNL     1     -35.477  17.156  -0.885  1.00 20.00    -0.004 C 
HETATM   11  C7  UNL     1     -35.329  17.282   0.622  1.00 20.00     0.005 C 
ENDBRANCH   9  10
ENDBRANCH   5   9
TORSDOF 3
ENDMDL
MODEL 9
REMARK VINA RESULT:      -4.3      1.492      1.891
REMARK  3 active torsions:
REMARK  status: ('A' for Active; 'I' for Inactive)
REMARK    1  A    between atoms: C1_1  and  C5_5 
REMARK    2  A    between atoms: C6_6  and  C8_8 
REMARK    3  A    between atoms: C8_8  and  C9_9 
ROOT
HETATM    1  C2  UNL     1     -35.560  15.342  -3.464  1.00 20.00     0.030 C 
HETATM    2  C3  UNL     1     -34.502  16.782  -4.617  1.00 20.00     0.030 C 
HETATM    3  C4  UNL     1     -33.521  15.010  -3.970  1.00 20.00     0.030 C 
HETATM    4  C5  UNL     1     -34.796  15.273  -4.809  1.00 20.00     0.050 C 
HETATM    5  C6  UNL     1     -34.244  16.175  -3.178  1.00 20.00    -0.037 C 
ENDROOT
BRANCH   4   6
HETATM    6  C1  UNL     1     -35.199  14.605  -6.018  1.00 20.00     0.181 C 
HETATM    7  O10 UNL     1     -35.990  13.633  -5.859  1.00 20.00    -0.647 OA
HETATM    8  O11 UNL     1     -34.706  15.083  -7.078  1.00 20.00    -0.647 OA
ENDBRANCH   4   6
BRANCH   5   9
HETATM    9  C8  UNL     1     -33.825  16.860  -1.936  1.00 20.00     0.009 C 
BRANCH   9  10
HETATM   10  C9  UNL     1     -32.659  17.846  -2.158  1.00 20.00    -0.004 C 
HETATM   11  C7  UNL     1     -31.896  18.160  -0.881  1.00 20.00     0.005 C 
ENDBRANCH   9  10
ENDBRANCH   5   9
TORSDOF 3
ENDMDL
