MODEL 1
REMARK VINA RESULT:      -4.1      0.000      0.000
REMARK  1 active torsions:
REMARK  status: ('A' for Active; 'I' for Inactive)
REMARK    1  A    between atoms: C1_1  and  C4_4 
ROOT
HETATM    1  C1  UNL     1     -34.821  15.572  -2.962  1.00 20.00    -0.068 C 
HETATM    2  C2  UNL     1     -34.998  16.168  -1.934  1.00 20.00    -0.108 C 
HETATM    3  C6  UNL     1     -35.215  16.893  -0.684  1.00 20.00     0.112 C 
ENDROOT
BRANCH   1   4
HETATM    4  C4  UNL     1     -34.606  14.853  -4.204  1.00 20.00     0.129 C 
HETATM    5  C5  UNL     1     -35.419  15.363  -5.451  1.00 20.00     0.016 C 
HETATM    6  C3  UNL     1     -35.864  13.887  -5.543  1.00 20.00     0.182 C 
HETATM    7  C8  UNL     1     -34.619  15.854  -6.656  1.00 20.00     0.021 C 
HETATM    8  C9  UNL     1     -36.601  16.299  -5.174  1.00 20.00     0.021 C 
HETATM    9  O10 UNL     1     -35.394  13.625  -4.197  1.00 20.00    -0.366 OA
HETATM   10  C7  UNL     1     -33.127  14.507  -4.375  1.00 20.00     0.061 C 
ENDBRANCH   1   4
TORSDOF 1
ENDMDL
MODEL 2
REMARK VINA RESULT:      -4.0     16.103     18.654
REMARK  1 active torsions:
REMARK  status: ('A' for Active; 'I' for Inactive)
REMARK    1  A    between atoms: C1_1  and  C4_4 
ROOT
HETATM    1  C1  UNL     1     -24.762  18.395   9.397  1.00 20.00    -0.068 C 
HETATM    2  C2  UNL     1     -24.881  18.788   8.268  1.00 20.00    -0.108 C 
HETATM    3  C6  UNL     1     -25.026  19.263   6.894  1.00 20.00     0.112 C 
ENDROOT
BRANCH   1   4
HETATM    4  C4  UNL     1     -24.616  17.923  10.761  1.00 20.00     0.129 C 
HETATM    5  C5  UNL     1     -23.177  17.445  11.181  1.00 20.00     0.016 C 
HETATM    6  C3  UNL     1     -23.919  16.160  11.607  1.00 20.00     0.182 C 
HETATM    7  C8  UNL     1     -22.499  18.188  12.330  1.00 20.00     0.021 C 
HETATM    8  C9  UNL     1     -22.177  17.178  10.050  1.00 20.00     0.021 C 
HETATM    9  O10 UNL     1     -25.095  16.548  10.853  1.00 20.00    -0.366 OA
HETATM   10  C7  UNL     1     -25.412  18.805  11.722  1.00 20.00     0.061 C 
ENDBRANCH   1   4
TORSDOF 1
ENDMDL
MODEL 3
REMARK VINA RESULT:      -3.9     15.930     18.332
REMARK  1 active torsions:
REMARK  status: ('A' for Active; 'I' for Inactive)
REMARK    1  A    between atoms: C1_1  and  C4_4 
ROOT
HETATM    1  C1  UNL     1     -24.547  18.087   9.107  1.00 20.00    -0.068 C 
HETATM    2  C2  UNL     1     -24.762  18.612   8.048  1.00 20.00    -0.108 C 
HETATM    3  C6  UNL     1     -25.022  19.250   6.759  1.00 20.00     0.112 C 
ENDROOT
BRANCH   1   4
HETATM    4  C4  UNL     1     -24.288  17.454  10.387  1.00 20.00     0.129 C 
HETATM    5  C5  UNL     1     -25.245  17.859  11.569  1.00 20.00     0.016 C 
HETATM    6  C3  UNL     1     -23.922  18.174  12.300  1.00 20.00     0.182 C 
HETATM    7  C8  UNL     1     -26.070  16.748  12.214  1.00 20.00     0.021 C 
HETATM    8  C9  UNL     1     -26.101  19.115  11.369  1.00 20.00     0.021 C 
HETATM    9  O10 UNL     1     -23.184  18.140  11.053  1.00 20.00    -0.366 OA
HETATM   10  C7  UNL     1     -23.931  15.981  10.195  1.00 20.00     0.061 C 
ENDBRANCH   1   4
TORSDOF 1
ENDMDL
MODEL 4
REMARK VINA RESULT:      -3.8      1.485      1.564
REMARK  1 active torsions:
REMARK  status: ('A' for Active; 'I' for Inactive)
REMARK    1  A    between atoms: C1_1  and  C4_4 
ROOT
HETATM    1  C1  UNL     1     -33.912  15.820  -3.698  1.00 20.00    -0.068 C 
HETATM    2  C2  UNL     1     -33.377  16.531  -2.890  1.00 20.00    -0.108 C 
HETATM    3  C6  UNL     1     -32.727  17.396  -1.908  1.00 20.00     0.112 C 
ENDROOT
BRANCH   1   4
HETATM    4  C4  UNL     1     -34.557  14.962  -4.674  1.00 20.00     0.129 C 
HETATM    5  C5  UNL     1     -36.105  15.171  -4.867  1.00 20.00     0.016 C 
HETATM    6  C3  UNL     1     -36.165  13.651  -4.597  1.00 20.00     0.182 C 
HETATM    7  C8  UNL     1     -36.589  15.582  -6.255  1.00 20.00     0.021 C 
HETATM    8  C9  UNL     1     -36.838  15.972  -3.784  1.00 20.00     0.021 C 
HETATM    9  O10 UNL     1     -34.812  13.655  -4.078  1.00 20.00    -0.366 OA
HETATM   10  C7  UNL     1     -33.674  14.796  -5.909  1.00 20.00     0.061 C 
ENDBRANCH   1   4
TORSDOF 1
ENDMDL
MODEL 5
REMARK VINA RESULT:      -3.8      2.062      3.056
REMARK  1 active torsions:
REMARK  status: ('A' for Active; 'I' for Inactive)
REMARK    1  A    between atoms: C1_1  and  C4_4 
ROOT
HETATM    1  C1  UNL     1     -33.602  17.041  -2.671  1.00 20.00    -0.068 C 
HETATM    2  C2  UNL     1     -32.786  17.556  -1.955  1.00 20.00    -0.108 C 
HETATM    3  C6  UNL     1     -31.793  18.181  -1.084  1.00 20.00     0.112 C 
ENDROOT
BRANCH   1   4
HETATM    4  C4  UNL     1     -34.589  16.421  -3.535  1.00 20.00     0.129 C 
HETATM    5  C5  UNL     1     -34.155  15.078  -4.233  1.00 20.00     0.016 C 
HETATM    6  C3  UNL     1     -34.585  15.815  -5.521  1.00 20.00     0.182 C 
HETATM    7  C8  UNL     1     -34.975  13.829  -3.921  1.00 20.00     0.021 C 
HETATM    8  C9  UNL     1     -32.658  14.751  -4.236  1.00 20.00     0.021 C 
HETATM    9  O10 UNL     1     -34.589  17.091  -4.832  1.00 20.00    -0.366 OA
HETATM   10  C7  UNL     1     -35.982  16.515  -2.913  1.00 20.00     0.061 C 
ENDBRANCH   1   4
TORSDOF 1
ENDMDL
MODEL 6
REMARK VINA RESULT:      -3.8      2.680      3.893
REMARK  1 active torsions:
REMARK  status: ('A' for Active; 'I' for Inactive)
REMARK    1  A    between atoms: C1_1  and  C4_4 
ROOT
HETATM    1  C1  UNL     1     -32.679  17.779  -1.667  1.00 20.00    -0.068 C 
HETATM    2  C2  UNL     1     -31.889  18.187  -0.860  1.00 20.00    -0.108 C 
HETATM    3  C6  UNL     1     -30.926  18.682   0.122  1.00 20.00     0.112 C 
ENDROOT
BRANCH   1   4
HETATM    4  C4  UNL     1     -33.636  17.287  -2.642  1.00 20.00     0.129 C 
HETATM    5  C5  UNL     1     -35.091  17.012  -2.109  1.00 20.00     0.016 C 
HETATM    6  C3  UNL     1     -34.866  15.618  -2.735  1.00 20.00     0.182 C 
HETATM    7  C8  UNL     1     -36.230  17.807  -2.741  1.00 20.00     0.021 C 
HETATM    8  C9  UNL     1     -35.270  16.933  -0.589  1.00 20.00     0.021 C 
HETATM    9  O10 UNL     1     -33.439  15.854  -2.835  1.00 20.00    -0.366 OA
HETATM   10  C7  UNL     1     -33.461  18.010  -3.977  1.00 20.00     0.061 C 
ENDBRANCH   1   4
TORSDOF 1
ENDMDL
MODEL 7
REMARK VINA RESULT:      -3.7      1.834      2.819
REMARK  1 active torsions:
REMARK  status: ('A' for Active; 'I' for Inactive)
REMARK    1  A    between atoms: C1_1  and  C4_4 
ROOT
HETATM    1  C1  UNL     1     -35.324  16.504  -1.858  1.00 20.00    -0.068 C 
HETATM    2  C2  UNL     1     -35.427  16.851  -0.713  1.00 20.00    -0.108 C 
HETATM    3  C6  UNL     1     -35.550  17.271   0.682  1.00 20.00     0.112 C 
ENDROOT
BRANCH   1   4
HETATM    4  C4  UNL     1     -35.202  16.085  -3.242  1.00 20.00     0.129 C 
HETATM    5  C5  UNL     1     -33.741  16.026  -3.824  1.00 20.00     0.016 C 
HETATM    6  C3  UNL     1     -34.333  16.927  -4.929  1.00 20.00     0.182 C 
HETATM    7  C8  UNL     1     -33.238  14.673  -4.319  1.00 20.00     0.021 C 
HETATM    8  C9  UNL     1     -32.647  16.746  -3.026  1.00 20.00     0.021 C 
HETATM    9  O10 UNL     1     -35.501  17.212  -4.119  1.00 20.00    -0.366 OA
HETATM   10  C7  UNL     1     -36.164  14.937  -3.542  1.00 20.00     0.061 C 
ENDBRANCH   1   4
TORSDOF 1
ENDMDL
MODEL 8
REMARK VINA RESULT:      -3.7      1.569      3.814
REMARK  1 active torsions:
REMARK  status: ('A' for Active; 'I' for Inactive)
REMARK    1  A    between atoms: C1_1  and  C4_4 
ROOT
HETATM    1  C1  UNL     1     -35.863  15.493  -6.005  1.00 20.00    -0.068 C 
HETATM    2  C2  UNL     1     -36.477  16.062  -6.867  1.00 20.00    -0.108 C 
HETATM    3  C6  UNL     1     -37.224  16.754  -7.915  1.00 20.00     0.112 C 
ENDROOT
BRANCH   1   4
HETATM    4  C4  UNL     1     -35.120  14.806  -4.965  1.00 20.00     0.129 C 
HETATM    5  C5  UNL     1     -34.285  15.716  -3.991  1.00 20.00     0.016 C 
HETATM    6  C3  UNL     1     -33.123  14.785  -4.398  1.00 20.00     0.182 C 
HETATM    7  C8  UNL     1     -34.640  15.665  -2.507  1.00 20.00     0.021 C 
HETATM    8  C9  UNL     1     -34.039  17.163  -4.434  1.00 20.00     0.021 C 
HETATM    9  O10 UNL     1     -33.881  14.274  -5.524  1.00 20.00    -0.366 OA
HETATM   10  C7  UNL     1     -35.947  13.661  -4.382  1.00 20.00     0.061 C 
ENDBRANCH   1   4
TORSDOF 1
ENDMDL
MODEL 9
REMARK VINA RESULT:      -3.6      3.149      4.722
REMARK  1 active torsions:
REMARK  status: ('A' for Active; 'I' for Inactive)
REMARK    1  A    between atoms: C1_1  and  C4_4 
ROOT
HETATM    1  C1  UNL     1     -33.066  18.145  -0.415  1.00 20.00    -0.068 C 
HETATM    2  C2  UNL     1     -32.000  18.412   0.072  1.00 20.00    -0.108 C 
HETATM    3  C6  UNL     1     -30.705  18.736   0.665  1.00 20.00     0.112 C 
ENDROOT
BRANCH   1   4
HETATM    4  C4  UNL     1     -34.353  17.824  -1.004  1.00 20.00     0.129 C 
HETATM    5  C5  UNL     1     -34.316  17.076  -2.388  1.00 20.00     0.016 C 
HETATM    6  C3  UNL     1     -35.237  18.231  -2.838  1.00 20.00     0.182 C 
HETATM    7  C8  UNL     1     -34.962  15.695  -2.455  1.00 20.00     0.021 C 
HETATM    8  C9  UNL     1     -32.982  17.082  -3.144  1.00 20.00     0.021 C 
HETATM    9  O10 UNL     1     -34.894  19.008  -1.664  1.00 20.00    -0.366 OA
HETATM   10  C7  UNL     1     -35.331  17.347   0.069  1.00 20.00     0.061 C 
ENDBRANCH   1   4
TORSDOF 1
ENDMDL
