MODEL 1
REMARK VINA RESULT:      -4.6      0.000      0.000
REMARK  1 active torsions:
REMARK  status: ('A' for Active; 'I' for Inactive)
REMARK    1  A    between atoms: C1_1  and  C6_6 
ROOT
HETATM    1  C2  UNL     1     -34.017  16.279  -2.456  1.00 20.00     0.002 C 
HETATM    2  C3  UNL     1     -35.472  16.165  -2.891  1.00 20.00     0.013 C 
HETATM    3  C4  UNL     1     -33.030  15.874  -3.554  1.00 20.00     0.020 C 
HETATM    4  C5  UNL     1     -34.667  13.972  -3.968  1.00 20.00     0.033 C 
HETATM    5  C6  UNL     1     -35.824  14.732  -3.300  1.00 20.00     0.073 C 
HETATM    6  C7  UNL     1     -33.585  14.870  -4.572  1.00 20.00     0.083 C 
HETATM    7 CL10 UNL     1     -34.212  15.723  -6.020  1.00 20.00    -0.125 Cl
ENDROOT
BRANCH   5   8
HETATM    8  C1  UNL     1     -37.031  14.730  -4.193  1.00 20.00     0.223 C 
HETATM    9  O8  UNL     1     -37.638  13.697  -4.456  1.00 20.00    -0.279 OA
HETATM   10 CL9  UNL     1     -37.421  16.323  -4.768  1.00 20.00    -0.043 Cl
ENDBRANCH   5   8
TORSDOF 1
ENDMDL
MODEL 2
REMARK VINA RESULT:      -4.4      1.076      1.167
REMARK  1 active torsions:
REMARK  status: ('A' for Active; 'I' for Inactive)
REMARK    1  A    between atoms: C1_1  and  C6_6 
ROOT
HETATM    1  C2  UNL     1     -34.234  16.488  -2.182  1.00 20.00     0.002 C 
HETATM    2  C3  UNL     1     -35.413  15.666  -2.682  1.00 20.00     0.013 C 
HETATM    3  C4  UNL     1     -33.311  16.961  -3.309  1.00 20.00     0.020 C 
HETATM    4  C5  UNL     1     -33.639  14.609  -4.217  1.00 20.00     0.033 C 
HETATM    5  C6  UNL     1     -34.946  14.414  -3.430  1.00 20.00     0.073 C 
HETATM    6  C7  UNL     1     -33.314  16.066  -4.553  1.00 20.00     0.083 C 
HETATM    7 CL10 UNL     1     -34.460  16.698  -5.780  1.00 20.00    -0.125 Cl
ENDROOT
BRANCH   5   8
HETATM    8  C1  UNL     1     -36.031  13.918  -4.340  1.00 20.00     0.223 C 
HETATM    9  O8  UNL     1     -36.001  12.792  -4.827  1.00 20.00    -0.279 OA
HETATM   10 CL9  UNL     1     -37.271  15.111  -4.588  1.00 20.00    -0.043 Cl
ENDBRANCH   5   8
TORSDOF 1
ENDMDL
MODEL 3
REMARK VINA RESULT:      -4.4     12.232     12.794
REMARK  1 active torsions:
REMARK  status: ('A' for Active; 'I' for Inactive)
REMARK    1  A    between atoms: C1_1  and  C6_6 
ROOT
HETATM    1  C2  UNL     1     -34.111   6.800   6.131  1.00 20.00     0.002 C 
HETATM    2  C3  UNL     1     -33.180   6.902   4.931  1.00 20.00     0.013 C 
HETATM    3  C4  UNL     1     -34.839   5.455   6.213  1.00 20.00     0.020 C 
HETATM    4  C5  UNL     1     -35.123   5.746   3.702  1.00 20.00     0.033 C 
HETATM    5  C6  UNL     1     -33.941   6.726   3.614  1.00 20.00     0.073 C 
HETATM    6  C7  UNL     1     -35.036   4.754   4.864  1.00 20.00     0.083 C 
HETATM    7 CL10 UNL     1     -33.725   3.563   4.576  1.00 20.00    -0.125 Cl
ENDROOT
BRANCH   5   8
HETATM    8  C1  UNL     1     -32.999   6.307   2.523  1.00 20.00     0.223 C 
HETATM    9  O8  UNL     1     -32.780   5.125   2.279  1.00 20.00    -0.279 OA
HETATM   10 CL9  UNL     1     -32.302   7.671   1.702  1.00 20.00    -0.043 Cl
ENDBRANCH   5   8
TORSDOF 1
ENDMDL
MODEL 4
REMARK VINA RESULT:      -4.4      1.908      2.402
REMARK  1 active torsions:
REMARK  status: ('A' for Active; 'I' for Inactive)
REMARK    1  A    between atoms: C1_1  and  C6_6 
ROOT
HETATM    1  C2  UNL     1     -35.040  16.266  -1.676  1.00 20.00     0.002 C 
HETATM    2  C3  UNL     1     -35.523  15.627  -2.970  1.00 20.00     0.013 C 
HETATM    3  C4  UNL     1     -33.953  17.322  -1.898  1.00 20.00     0.020 C 
HETATM    4  C5  UNL     1     -33.020  15.641  -3.563  1.00 20.00     0.033 C 
HETATM    5  C6  UNL     1     -34.379  14.938  -3.717  1.00 20.00     0.073 C 
HETATM    6  C7  UNL     1     -33.113  17.116  -3.164  1.00 20.00     0.083 C 
HETATM    7 CL10 UNL     1     -33.765  18.093  -4.519  1.00 20.00    -0.125 Cl
ENDROOT
BRANCH   5   8
HETATM    8  C1  UNL     1     -34.724  14.788  -5.171  1.00 20.00     0.223 C 
HETATM    9  O8  UNL     1     -33.871  14.525  -6.013  1.00 20.00    -0.279 OA
HETATM   10 CL9  UNL     1     -36.419  15.029  -5.467  1.00 20.00    -0.043 Cl
ENDBRANCH   5   8
TORSDOF 1
ENDMDL
MODEL 5
REMARK VINA RESULT:      -4.3      1.622      2.250
REMARK  1 active torsions:
REMARK  status: ('A' for Active; 'I' for Inactive)
REMARK    1  A    between atoms: C1_1  and  C6_6 
ROOT
HETATM    1  C2  UNL     1     -33.469  14.558  -4.331  1.00 20.00     0.002 C 
HETATM    2  C3  UNL     1     -34.914  14.081  -4.317  1.00 20.00     0.013 C 
HETATM    3  C4  UNL     1     -33.240  15.802  -3.467  1.00 20.00     0.020 C 
HETATM    4  C5  UNL     1     -35.433  16.595  -4.481  1.00 20.00     0.033 C 
HETATM    5  C6  UNL     1     -35.867  15.163  -4.833  1.00 20.00     0.073 C 
HETATM    6  C7  UNL     1     -34.476  16.692  -3.291  1.00 20.00     0.083 C 
HETATM    7 CL10 UNL     1     -35.328  16.291  -1.765  1.00 20.00    -0.125 Cl
ENDROOT
BRANCH   5   8
HETATM    8  C1  UNL     1     -37.260  14.906  -4.337  1.00 20.00     0.223 C 
HETATM    9  O8  UNL     1     -37.737  13.775  -4.309  1.00 20.00    -0.279 OA
HETATM   10 CL9  UNL     1     -38.055  16.367  -3.835  1.00 20.00    -0.043 Cl
ENDBRANCH   5   8
TORSDOF 1
ENDMDL
MODEL 6
REMARK VINA RESULT:      -4.1      1.620      1.923
REMARK  1 active torsions:
REMARK  status: ('A' for Active; 'I' for Inactive)
REMARK    1  A    between atoms: C1_1  and  C6_6 
ROOT
HETATM    1  C2  UNL     1     -34.643  17.807  -4.322  1.00 20.00     0.002 C 
HETATM    2  C3  UNL     1     -35.486  16.767  -5.048  1.00 20.00     0.013 C 
HETATM    3  C4  UNL     1     -33.454  17.199  -3.572  1.00 20.00     0.020 C 
HETATM    4  C5  UNL     1     -35.128  15.409  -2.892  1.00 20.00     0.033 C 
HETATM    5  C6  UNL     1     -36.055  15.730  -4.077  1.00 20.00     0.073 C 
HETATM    6  C7  UNL     1     -33.655  15.743  -3.134  1.00 20.00     0.083 C 
HETATM    7 CL10 UNL     1     -32.945  14.619  -4.339  1.00 20.00    -0.125 Cl
ENDROOT
BRANCH   5   8
HETATM    8  C1  UNL     1     -36.412  14.471  -4.813  1.00 20.00     0.223 C 
HETATM    9  O8  UNL     1     -37.106  13.599  -4.301  1.00 20.00    -0.279 OA
HETATM   10 CL9  UNL     1     -35.734  14.436  -6.412  1.00 20.00    -0.043 Cl
ENDBRANCH   5   8
TORSDOF 1
ENDMDL
MODEL 7
REMARK VINA RESULT:      -4.0      2.916      4.126
REMARK  1 active torsions:
REMARK  status: ('A' for Active; 'I' for Inactive)
REMARK    1  A    between atoms: C1_1  and  C6_6 
ROOT
HETATM    1  C2  UNL     1     -34.296  14.305  -4.025  1.00 20.00     0.002 C 
HETATM    2  C3  UNL     1     -33.317  15.468  -3.945  1.00 20.00     0.013 C 
HETATM    3  C4  UNL     1     -35.759  14.743  -3.908  1.00 20.00     0.020 C 
HETATM    4  C5  UNL     1     -34.887  16.271  -2.071  1.00 20.00     0.033 C 
HETATM    5  C6  UNL     1     -33.451  16.224  -2.620  1.00 20.00     0.073 C 
HETATM    6  C7  UNL     1     -35.974  16.043  -3.124  1.00 20.00     0.083 C 
HETATM    7 CL10 UNL     1     -36.071  17.443  -4.240  1.00 20.00    -0.125 Cl
ENDROOT
BRANCH   5   8
HETATM    8  C1  UNL     1     -32.902  17.614  -2.758  1.00 20.00     0.223 C 
HETATM    9  O8  UNL     1     -32.886  18.197  -3.837  1.00 20.00    -0.279 OA
HETATM   10 CL9  UNL     1     -32.324  18.241  -1.244  1.00 20.00    -0.043 Cl
ENDBRANCH   5   8
TORSDOF 1
ENDMDL
MODEL 8
REMARK VINA RESULT:      -4.0      1.939      2.376
REMARK  1 active torsions:
REMARK  status: ('A' for Active; 'I' for Inactive)
REMARK    1  A    between atoms: C1_1  and  C6_6 
ROOT
HETATM    1  C2  UNL     1     -33.937  17.524  -1.090  1.00 20.00     0.002 C 
HETATM    2  C3  UNL     1     -35.123  16.781  -1.689  1.00 20.00     0.013 C 
HETATM    3  C4  UNL     1     -32.997  18.107  -2.150  1.00 20.00     0.020 C 
HETATM    4  C5  UNL     1     -33.351  15.877  -3.320  1.00 20.00     0.033 C 
HETATM    5  C6  UNL     1     -34.667  15.615  -2.570  1.00 20.00     0.073 C 
HETATM    6  C7  UNL     1     -33.002  17.358  -3.487  1.00 20.00     0.083 C 
HETATM    7 CL10 UNL     1     -34.128  18.141  -4.643  1.00 20.00    -0.125 Cl
ENDROOT
BRANCH   5   8
HETATM    8  C1  UNL     1     -35.752  15.242  -3.538  1.00 20.00     0.223 C 
HETATM    9  O8  UNL     1     -36.652  16.022  -3.831  1.00 20.00    -0.279 OA
HETATM   10 CL9  UNL     1     -35.554  13.628  -4.151  1.00 20.00    -0.043 Cl
ENDBRANCH   5   8
TORSDOF 1
ENDMDL
MODEL 9
REMARK VINA RESULT:      -3.9      2.197      3.472
REMARK  1 active torsions:
REMARK  status: ('A' for Active; 'I' for Inactive)
REMARK    1  A    between atoms: C1_1  and  C6_6 
ROOT
HETATM    1  C2  UNL     1     -34.423  15.075  -6.336  1.00 20.00     0.002 C 
HETATM    2  C3  UNL     1     -34.060  15.913  -5.118  1.00 20.00     0.013 C 
HETATM    3  C4  UNL     1     -35.787  14.392  -6.210  1.00 20.00     0.020 C 
HETATM    4  C5  UNL     1     -35.040  13.916  -3.825  1.00 20.00     0.033 C 
HETATM    5  C6  UNL     1     -34.015  15.062  -3.846  1.00 20.00     0.073 C 
HETATM    6  C7  UNL     1     -36.229  14.115  -4.768  1.00 20.00     0.083 C 
HETATM    7 CL10 UNL     1     -37.291  15.431  -4.171  1.00 20.00    -0.125 Cl
ENDROOT
BRANCH   5   8
HETATM    8  C1  UNL     1     -34.184  15.932  -2.634  1.00 20.00     0.223 C 
HETATM    9  O8  UNL     1     -35.131  15.794  -1.868  1.00 20.00    -0.279 OA
HETATM   10 CL9  UNL     1     -32.906  17.101  -2.486  1.00 20.00    -0.043 Cl
ENDBRANCH   5   8
TORSDOF 1
ENDMDL
