MODEL 1
REMARK VINA RESULT:      -4.5      0.000      0.000
REMARK  4 active torsions:
REMARK  status: ('A' for Active; 'I' for Inactive)
REMARK    1  A    between atoms: C1_1  and  C7_7 
REMARK    2  A    between atoms: C6_6  and  O10_10 
REMARK    3  A    between atoms: C7_7  and  C8_8 
REMARK    4  A    between atoms: C7_7  and  O10_10 
ROOT
HETATM    1  C7  UNL     1     -35.018  14.933  -4.600  1.00 20.00     0.193 C 
ENDROOT
BRANCH   1   2
HETATM    2  C1  UNL     1     -36.122  13.886  -4.493  1.00 20.00     0.152 C 
HETATM    3  C2  UNL     1     -37.542  14.385  -4.423  1.00 20.00     0.093 C 
HETATM    4  O9  UNL     1     -35.878  12.679  -4.469  1.00 20.00    -0.296 OA
ENDBRANCH   1   2
BRANCH   1   5
HETATM    5  C8  UNL     1     -34.292  15.167  -3.263  1.00 20.00     0.014 C 
HETATM    6  C4  UNL     1     -32.964  15.913  -3.439  1.00 20.00     0.012 C 
HETATM    7  C5  UNL     1     -35.187  15.949  -2.295  1.00 20.00     0.012 C 
ENDBRANCH   1   5
BRANCH   1   8
HETATM    8  O10 UNL     1     -34.089  14.522  -5.593  1.00 20.00    -0.378 OA
BRANCH   8   9
HETATM    9  C6  UNL     1     -34.401  15.079  -6.864  1.00 20.00     0.164 C 
HETATM   10  C3  UNL     1     -34.631  16.566  -6.706  1.00 20.00     0.033 C 
ENDBRANCH   8   9
ENDBRANCH   1   8
TORSDOF 4
ENDMDL
MODEL 2
REMARK VINA RESULT:      -4.0      1.240      1.300
REMARK  4 active torsions:
REMARK  status: ('A' for Active; 'I' for Inactive)
REMARK    1  A    between atoms: C1_1  and  C7_7 
REMARK    2  A    between atoms: C6_6  and  O10_10 
REMARK    3  A    between atoms: C7_7  and  C8_8 
REMARK    4  A    between atoms: C7_7  and  O10_10 
ROOT
HETATM    1  C7  UNL     1     -35.652  14.981  -4.958  1.00 20.00     0.193 C 
ENDROOT
BRANCH   1   2
HETATM    2  C1  UNL     1     -37.106  14.749  -4.557  1.00 20.00     0.152 C 
HETATM    3  C2  UNL     1     -37.968  15.968  -4.349  1.00 20.00     0.093 C 
HETATM    4  O9  UNL     1     -37.571  13.618  -4.410  1.00 20.00    -0.296 OA
ENDBRANCH   1   2
BRANCH   1   5
HETATM    5  C8  UNL     1     -34.662  14.595  -3.845  1.00 20.00     0.014 C 
HETATM    6  C4  UNL     1     -33.220  14.489  -4.354  1.00 20.00     0.012 C 
HETATM    7  C5  UNL     1     -34.721  15.608  -2.696  1.00 20.00     0.012 C 
ENDBRANCH   1   5
BRANCH   1   8
HETATM    8  O10 UNL     1     -35.377  14.237  -6.135  1.00 20.00    -0.378 OA
BRANCH   8   9
HETATM    9  C6  UNL     1     -35.594  15.013  -7.307  1.00 20.00     0.164 C 
HETATM   10  C3  UNL     1     -34.893  16.346  -7.152  1.00 20.00     0.033 C 
ENDBRANCH   8   9
ENDBRANCH   1   8
TORSDOF 4
ENDMDL
MODEL 3
REMARK VINA RESULT:      -3.9      0.881      1.040
REMARK  4 active torsions:
REMARK  status: ('A' for Active; 'I' for Inactive)
REMARK    1  A    between atoms: C1_1  and  C7_7 
REMARK    2  A    between atoms: C6_6  and  O10_10 
REMARK    3  A    between atoms: C7_7  and  C8_8 
REMARK    4  A    between atoms: C7_7  and  O10_10 
ROOT
HETATM    1  C7  UNL     1     -34.870  15.571  -4.075  1.00 20.00     0.193 C 
ENDROOT
BRANCH   1   2
HETATM    2  C1  UNL     1     -35.551  14.209  -4.170  1.00 20.00     0.152 C 
HETATM    3  C2  UNL     1     -37.040  14.196  -4.407  1.00 20.00     0.093 C 
HETATM    4  O9  UNL     1     -34.922  13.156  -4.063  1.00 20.00    -0.296 OA
ENDBRANCH   1   2
BRANCH   1   5
HETATM    5  C8  UNL     1     -34.188  15.799  -2.715  1.00 20.00     0.014 C 
HETATM    6  C4  UNL     1     -32.985  16.745  -2.812  1.00 20.00     0.012 C 
HETATM    7  C5  UNL     1     -35.190  16.357  -1.697  1.00 20.00     0.012 C 
ENDBRANCH   1   5
BRANCH   1   8
HETATM    8  O10 UNL     1     -33.918  15.683  -5.122  1.00 20.00    -0.378 OA
BRANCH   8   9
HETATM    9  C6  UNL     1     -34.530  16.069  -6.347  1.00 20.00     0.164 C 
HETATM   10  C3  UNL     1     -33.932  15.254  -7.474  1.00 20.00     0.033 C 
ENDBRANCH   8   9
ENDBRANCH   1   8
TORSDOF 4
ENDMDL
MODEL 4
REMARK VINA RESULT:      -3.8      0.984      3.001
REMARK  4 active torsions:
REMARK  status: ('A' for Active; 'I' for Inactive)
REMARK    1  A    between atoms: C1_1  and  C7_7 
REMARK    2  A    between atoms: C6_6  and  O10_10 
REMARK    3  A    between atoms: C7_7  and  C8_8 
REMARK    4  A    between atoms: C7_7  and  O10_10 
ROOT
HETATM    1  C7  UNL     1     -35.033  14.884  -4.815  1.00 20.00     0.193 C 
ENDROOT
BRANCH   1   2
HETATM    2  C1  UNL     1     -36.127  13.853  -4.550  1.00 20.00     0.152 C 
HETATM    3  C2  UNL     1     -37.524  14.370  -4.325  1.00 20.00     0.093 C 
HETATM    4  O9  UNL     1     -35.891  12.644  -4.523  1.00 20.00    -0.296 OA
ENDBRANCH   1   2
BRANCH   1   5
HETATM    5  C8  UNL     1     -35.076  15.437  -6.251  1.00 20.00     0.014 C 
HETATM    6  C4  UNL     1     -35.227  16.962  -6.287  1.00 20.00     0.012 C 
HETATM    7  C5  UNL     1     -33.812  15.035  -7.019  1.00 20.00     0.012 C 
ENDBRANCH   1   5
BRANCH   1   8
HETATM    8  O10 UNL     1     -35.166  15.944  -3.880  1.00 20.00    -0.378 OA
BRANCH   8   9
HETATM    9  C6  UNL     1     -34.362  15.729  -2.727  1.00 20.00     0.164 C 
HETATM   10  C3  UNL     1     -33.126  16.597  -2.819  1.00 20.00     0.033 C 
ENDBRANCH   8   9
ENDBRANCH   1   8
TORSDOF 4
ENDMDL
MODEL 5
REMARK VINA RESULT:      -3.7      1.844      2.466
REMARK  4 active torsions:
REMARK  status: ('A' for Active; 'I' for Inactive)
REMARK    1  A    between atoms: C1_1  and  C7_7 
REMARK    2  A    between atoms: C6_6  and  O10_10 
REMARK    3  A    between atoms: C7_7  and  C8_8 
REMARK    4  A    between atoms: C7_7  and  O10_10 
ROOT
HETATM    1  C7  UNL     1     -36.043  15.108  -3.781  1.00 20.00     0.193 C 
ENDROOT
BRANCH   1   2
HETATM    2  C1  UNL     1     -35.925  14.002  -4.824  1.00 20.00     0.152 C 
HETATM    3  C2  UNL     1     -35.783  14.422  -6.264  1.00 20.00     0.093 C 
HETATM    4  O9  UNL     1     -35.940  12.809  -4.516  1.00 20.00    -0.296 OA
ENDBRANCH   1   2
BRANCH   1   5
HETATM    5  C8  UNL     1     -34.773  15.254  -2.925  1.00 20.00     0.014 C 
HETATM    6  C4  UNL     1     -33.561  15.708  -3.746  1.00 20.00     0.012 C 
HETATM    7  C5  UNL     1     -35.007  16.244  -1.778  1.00 20.00     0.012 C 
ENDBRANCH   1   5
BRANCH   1   8
HETATM    8  O10 UNL     1     -36.329  16.333  -4.440  1.00 20.00    -0.378 OA
BRANCH   8   9
HETATM    9  C6  UNL     1     -37.664  16.759  -4.196  1.00 20.00     0.164 C 
HETATM   10  C3  UNL     1     -37.639  18.174  -3.657  1.00 20.00     0.033 C 
ENDBRANCH   8   9
ENDBRANCH   1   8
TORSDOF 4
ENDMDL
MODEL 6
REMARK VINA RESULT:      -3.5      1.630      3.040
REMARK  4 active torsions:
REMARK  status: ('A' for Active; 'I' for Inactive)
REMARK    1  A    between atoms: C1_1  and  C7_7 
REMARK    2  A    between atoms: C6_6  and  O10_10 
REMARK    3  A    between atoms: C7_7  and  C8_8 
REMARK    4  A    between atoms: C7_7  and  O10_10 
ROOT
HETATM    1  C7  UNL     1     -35.638  15.026  -3.752  1.00 20.00     0.193 C 
ENDROOT
BRANCH   1   2
HETATM    2  C1  UNL     1     -37.068  14.702  -4.173  1.00 20.00     0.152 C 
HETATM    3  C2  UNL     1     -38.055  15.840  -4.201  1.00 20.00     0.093 C 
HETATM    4  O9  UNL     1     -37.415  13.562  -4.484  1.00 20.00    -0.296 OA
ENDBRANCH   1   2
BRANCH   1   5
HETATM    5  C8  UNL     1     -34.643  14.949  -4.924  1.00 20.00     0.014 C 
HETATM    6  C4  UNL     1     -34.505  16.284  -5.665  1.00 20.00     0.012 C 
HETATM    7  C5  UNL     1     -33.264  14.498  -4.430  1.00 20.00     0.012 C 
ENDBRANCH   1   5
BRANCH   1   8
HETATM    8  O10 UNL     1     -35.612  16.323  -3.176  1.00 20.00    -0.378 OA
BRANCH   8   9
HETATM    9  C6  UNL     1     -35.085  16.299  -1.855  1.00 20.00     0.164 C 
HETATM   10  C3  UNL     1     -33.815  17.121  -1.816  1.00 20.00     0.033 C 
ENDBRANCH   8   9
ENDBRANCH   1   8
TORSDOF 4
ENDMDL
MODEL 7
REMARK VINA RESULT:      -3.5      1.182      3.500
REMARK  4 active torsions:
REMARK  status: ('A' for Active; 'I' for Inactive)
REMARK    1  A    between atoms: C1_1  and  C7_7 
REMARK    2  A    between atoms: C6_6  and  O10_10 
REMARK    3  A    between atoms: C7_7  and  C8_8 
REMARK    4  A    between atoms: C7_7  and  O10_10 
ROOT
HETATM    1  C7  UNL     1     -34.838  15.276  -5.217  1.00 20.00     0.193 C 
ENDROOT
BRANCH   1   2
HETATM    2  C1  UNL     1     -33.621  14.957  -4.353  1.00 20.00     0.152 C 
HETATM    3  C2  UNL     1     -33.236  15.966  -3.302  1.00 20.00     0.093 C 
HETATM    4  O9  UNL     1     -32.973  13.919  -4.496  1.00 20.00    -0.296 OA
ENDBRANCH   1   2
BRANCH   1   5
HETATM    5  C8  UNL     1     -34.483  16.130  -6.448  1.00 20.00     0.014 C 
HETATM    6  C4  UNL     1     -33.958  15.286  -7.615  1.00 20.00     0.012 C 
HETATM    7  C5  UNL     1     -35.702  16.935  -6.913  1.00 20.00     0.012 C 
ENDBRANCH   1   5
BRANCH   1   8
HETATM    8  O10 UNL     1     -35.443  14.059  -5.626  1.00 20.00    -0.378 OA
BRANCH   8   9
HETATM    9  C6  UNL     1     -36.355  13.574  -4.649  1.00 20.00     0.164 C 
HETATM   10  C3  UNL     1     -37.380  14.649  -4.355  1.00 20.00     0.033 C 
ENDBRANCH   8   9
ENDBRANCH   1   8
TORSDOF 4
ENDMDL
MODEL 8
REMARK VINA RESULT:      -3.5      1.524      2.001
REMARK  4 active torsions:
REMARK  status: ('A' for Active; 'I' for Inactive)
REMARK    1  A    between atoms: C1_1  and  C7_7 
REMARK    2  A    between atoms: C6_6  and  O10_10 
REMARK    3  A    between atoms: C7_7  and  C8_8 
REMARK    4  A    between atoms: C7_7  and  O10_10 
ROOT
HETATM    1  C7  UNL     1     -35.007  15.955  -4.060  1.00 20.00     0.193 C 
ENDROOT
BRANCH   1   2
HETATM    2  C1  UNL     1     -34.997  14.606  -4.772  1.00 20.00     0.152 C 
HETATM    3  C2  UNL     1     -36.182  13.701  -4.556  1.00 20.00     0.093 C 
HETATM    4  O9  UNL     1     -34.066  14.259  -5.501  1.00 20.00    -0.296 OA
ENDBRANCH   1   2
BRANCH   1   5
HETATM    5  C8  UNL     1     -34.236  15.927  -2.728  1.00 20.00     0.014 C 
HETATM    6  C4  UNL     1     -32.974  16.798  -2.762  1.00 20.00     0.012 C 
HETATM    7  C5  UNL     1     -35.137  16.386  -1.576  1.00 20.00     0.012 C 
ENDBRANCH   1   5
BRANCH   1   8
HETATM    8  O10 UNL     1     -34.451  16.935  -4.924  1.00 20.00    -0.378 OA
BRANCH   8   9
HETATM    9  C6  UNL     1     -35.457  17.589  -5.688  1.00 20.00     0.164 C 
HETATM   10  C3  UNL     1     -36.586  18.000  -4.767  1.00 20.00     0.033 C 
ENDBRANCH   8   9
ENDBRANCH   1   8
TORSDOF 4
ENDMDL
MODEL 9
REMARK VINA RESULT:      -3.3      1.195      2.851
REMARK  4 active torsions:
REMARK  status: ('A' for Active; 'I' for Inactive)
REMARK    1  A    between atoms: C1_1  and  C7_7 
REMARK    2  A    between atoms: C6_6  and  O10_10 
REMARK    3  A    between atoms: C7_7  and  C8_8 
REMARK    4  A    between atoms: C7_7  and  O10_10 
ROOT
HETATM    1  C7  UNL     1     -35.105  14.890  -3.946  1.00 20.00     0.193 C 
ENDROOT
BRANCH   1   2
HETATM    2  C1  UNL     1     -34.503  15.249  -5.302  1.00 20.00     0.152 C 
HETATM    3  C2  UNL     1     -34.885  16.580  -5.897  1.00 20.00     0.093 C 
HETATM    4  O9  UNL     1     -33.732  14.493  -5.894  1.00 20.00    -0.296 OA
ENDBRANCH   1   2
BRANCH   1   5
HETATM    5  C8  UNL     1     -34.309  15.482  -2.769  1.00 20.00     0.014 C 
HETATM    6  C4  UNL     1     -33.082  16.276  -3.231  1.00 20.00     0.012 C 
HETATM    7  C5  UNL     1     -35.205  16.386  -1.915  1.00 20.00     0.012 C 
ENDBRANCH   1   5
BRANCH   1   8
HETATM    8  O10 UNL     1     -36.448  15.348  -3.905  1.00 20.00    -0.378 OA
BRANCH   8   9
HETATM    9  C6  UNL     1     -37.355  14.351  -4.360  1.00 20.00     0.164 C 
HETATM   10  C3  UNL     1     -38.770  14.867  -4.211  1.00 20.00     0.033 C 
ENDBRANCH   8   9
ENDBRANCH   1   8
TORSDOF 4
ENDMDL
