MODEL 1
REMARK VINA RESULT:      -6.1      0.000      0.000
REMARK  0 active torsions:
REMARK  status: ('A' for Active; 'I' for Inactive)
ROOT
HETATM    1  C1  UNL     1     -33.292   7.237   5.214  1.00 20.00     0.044 A 
HETATM    2  C2  UNL     1     -34.176   6.519   5.929  1.00 20.00     0.014 A 
HETATM    3  C3  UNL     1     -32.940   6.834   3.871  1.00 20.00     0.156 A 
HETATM    4  C4  UNL     1     -33.483   5.743   3.303  1.00 20.00     0.202 A 
HETATM    5  C5  UNL     1     -34.826   5.294   5.419  1.00 20.00     0.224 A 
HETATM    6  C6  UNL     1     -34.452   4.879   3.995  1.00 20.00     0.293 A 
HETATM    7  O7  UNL     1     -35.775   5.307   4.343  1.00 20.00    -0.328 OA
HETATM    8  F8  UNL     1     -32.054   7.589   3.192  1.00 20.00    -0.203 F 
HETATM    9  F9  UNL     1     -33.120   5.421   2.042  1.00 20.00    -0.201 F 
HETATM   10  F10 UNL     1     -34.293   3.513   3.789  1.00 20.00    -0.200 F 
ENDROOT
TORSDOF 0
ENDMDL
MODEL 2
REMARK VINA RESULT:      -5.7      1.934      3.643
REMARK  0 active torsions:
REMARK  status: ('A' for Active; 'I' for Inactive)
ROOT
HETATM    1  C1  UNL     1     -34.398   4.508   3.824  1.00 20.00     0.044 A 
HETATM    2  C2  UNL     1     -33.613   4.761   2.763  1.00 20.00     0.014 A 
HETATM    3  C3  UNL     1     -34.499   5.467   4.902  1.00 20.00     0.156 A 
HETATM    4  C4  UNL     1     -33.821   6.627   4.873  1.00 20.00     0.202 A 
HETATM    5  C5  UNL     1     -32.806   5.992   2.625  1.00 20.00     0.224 A 
HETATM    6  C6  UNL     1     -32.925   7.003   3.767  1.00 20.00     0.293 A 
HETATM    7  O7  UNL     1     -33.393   7.288   2.443  1.00 20.00    -0.328 OA
HETATM    8  F8  UNL     1     -35.305   5.172   5.942  1.00 20.00    -0.203 F 
HETATM    9  F9  UNL     1     -33.962   7.485   5.906  1.00 20.00    -0.201 F 
HETATM   10  F10 UNL     1     -31.741   7.630   4.140  1.00 20.00    -0.200 F 
ENDROOT
TORSDOF 0
ENDMDL
MODEL 3
REMARK VINA RESULT:      -5.4      0.969      1.300
REMARK  0 active torsions:
REMARK  status: ('A' for Active; 'I' for Inactive)
ROOT
HETATM    1  C1  UNL     1     -33.772   6.680   6.185  1.00 20.00     0.044 A 
HETATM    2  C2  UNL     1     -34.630   5.650   6.079  1.00 20.00     0.014 A 
HETATM    3  C3  UNL     1     -33.045   7.146   5.025  1.00 20.00     0.156 A 
HETATM    4  C4  UNL     1     -33.205   6.571   3.821  1.00 20.00     0.202 A 
HETATM    5  C5  UNL     1     -34.878   4.928   4.814  1.00 20.00     0.224 A 
HETATM    6  C6  UNL     1     -34.109   5.432   3.592  1.00 20.00     0.293 A 
HETATM    7  O7  UNL     1     -35.536   5.532   3.691  1.00 20.00    -0.328 OA
HETATM    8  F8  UNL     1     -32.200   8.185   5.179  1.00 20.00    -0.203 F 
HETATM    9  F9  UNL     1     -32.504   7.055   2.773  1.00 20.00    -0.201 F 
HETATM   10  F10 UNL     1     -33.630   4.447   2.736  1.00 20.00    -0.200 F 
ENDROOT
TORSDOF 0
ENDMDL
MODEL 4
REMARK VINA RESULT:      -5.2      1.793      2.696
REMARK  0 active torsions:
REMARK  status: ('A' for Active; 'I' for Inactive)
ROOT
HETATM    1  C1  UNL     1     -34.055   5.328   3.111  1.00 20.00     0.044 A 
HETATM    2  C2  UNL     1     -34.894   4.785   4.010  1.00 20.00     0.014 A 
HETATM    3  C3  UNL     1     -33.164   6.400   3.498  1.00 20.00     0.156 A 
HETATM    4  C4  UNL     1     -33.149   6.877   4.754  1.00 20.00     0.202 A 
HETATM    5  C5  UNL     1     -34.981   5.236   5.414  1.00 20.00     0.224 A 
HETATM    6  C6  UNL     1     -34.031   6.365   5.816  1.00 20.00     0.293 A 
HETATM    7  O7  UNL     1     -33.918   5.043   6.359  1.00 20.00    -0.328 OA
HETATM    8  F8  UNL     1     -32.337   6.908   2.563  1.00 20.00    -0.203 F 
HETATM    9  F9  UNL     1     -32.290   7.874   5.057  1.00 20.00    -0.201 F 
HETATM   10  F10 UNL     1     -34.565   7.325   6.667  1.00 20.00    -0.200 F 
ENDROOT
TORSDOF 0
ENDMDL
MODEL 5
REMARK VINA RESULT:      -5.1      1.905      2.605
REMARK  0 active torsions:
REMARK  status: ('A' for Active; 'I' for Inactive)
ROOT
HETATM    1  C1  UNL     1     -32.457   6.893   3.259  1.00 20.00     0.044 A 
HETATM    2  C2  UNL     1     -32.969   5.955   2.443  1.00 20.00     0.014 A 
HETATM    3  C3  UNL     1     -33.012   7.094   4.579  1.00 20.00     0.156 A 
HETATM    4  C4  UNL     1     -34.042   6.355   5.025  1.00 20.00     0.202 A 
HETATM    5  C5  UNL     1     -34.110   5.094   2.814  1.00 20.00     0.224 A 
HETATM    6  C6  UNL     1     -34.687   5.309   4.215  1.00 20.00     0.293 A 
HETATM    7  O7  UNL     1     -34.028   4.092   3.839  1.00 20.00    -0.328 OA
HETATM    8  F8  UNL     1     -32.461   8.042   5.363  1.00 20.00    -0.203 F 
HETATM    9  F9  UNL     1     -34.513   6.585   6.270  1.00 20.00    -0.201 F 
HETATM   10  F10 UNL     1     -36.072   5.242   4.311  1.00 20.00    -0.200 F 
ENDROOT
TORSDOF 0
ENDMDL
MODEL 6
REMARK VINA RESULT:      -4.8      1.667      3.048
REMARK  0 active torsions:
REMARK  status: ('A' for Active; 'I' for Inactive)
ROOT
HETATM    1  C1  UNL     1     -34.447   5.522   4.886  1.00 20.00     0.044 A 
HETATM    2  C2  UNL     1     -34.088   6.817   4.943  1.00 20.00     0.014 A 
HETATM    3  C3  UNL     1     -34.036   4.699   3.770  1.00 20.00     0.156 A 
HETATM    4  C4  UNL     1     -33.289   5.198   2.771  1.00 20.00     0.202 A 
HETATM    5  C5  UNL     1     -33.283   7.481   3.897  1.00 20.00     0.224 A 
HETATM    6  C6  UNL     1     -32.847   6.601   2.725  1.00 20.00     0.293 A 
HETATM    7  O7  UNL     1     -31.907   7.157   3.652  1.00 20.00    -0.328 OA
HETATM    8  F8  UNL     1     -34.416   3.406   3.761  1.00 20.00    -0.203 F 
HETATM    9  F9  UNL     1     -32.930   4.378   1.760  1.00 20.00    -0.201 F 
HETATM   10  F10 UNL     1     -32.891   7.203   1.473  1.00 20.00    -0.200 F 
ENDROOT
TORSDOF 0
ENDMDL
MODEL 7
REMARK VINA RESULT:      -4.6     17.101     17.594
REMARK  0 active torsions:
REMARK  status: ('A' for Active; 'I' for Inactive)
ROOT
HETATM    1  C1  UNL     1     -25.129  18.648  10.013  1.00 20.00     0.044 A 
HETATM    2  C2  UNL     1     -24.611  18.799   8.781  1.00 20.00     0.014 A 
HETATM    3  C3  UNL     1     -24.299  18.177  11.100  1.00 20.00     0.156 A 
HETATM    4  C4  UNL     1     -23.002  17.883  10.914  1.00 20.00     0.202 A 
HETATM    5  C5  UNL     1     -23.205  18.492   8.450  1.00 20.00     0.224 A 
HETATM    6  C6  UNL     1     -22.334  18.002   9.608  1.00 20.00     0.293 A 
HETATM    7  O7  UNL     1     -22.102  19.258   8.957  1.00 20.00    -0.328 OA
HETATM    8  F8  UNL     1     -24.862  18.048  12.319  1.00 20.00    -0.203 F 
HETATM    9  F9  UNL     1     -22.276  17.455  11.970  1.00 20.00    -0.201 F 
HETATM   10  F10 UNL     1     -21.438  16.985   9.297  1.00 20.00    -0.200 F 
ENDROOT
TORSDOF 0
ENDMDL
MODEL 8
REMARK VINA RESULT:      -4.5      1.474      2.347
REMARK  0 active torsions:
REMARK  status: ('A' for Active; 'I' for Inactive)
ROOT
HETATM    1  C1  UNL     1     -32.862   6.358   2.733  1.00 20.00     0.044 A 
HETATM    2  C2  UNL     1     -33.244   7.155   3.747  1.00 20.00     0.014 A 
HETATM    3  C3  UNL     1     -33.240   4.962   2.720  1.00 20.00     0.156 A 
HETATM    4  C4  UNL     1     -33.977   4.427   3.708  1.00 20.00     0.202 A 
HETATM    5  C5  UNL     1     -34.041   6.678   4.896  1.00 20.00     0.224 A 
HETATM    6  C6  UNL     1     -34.441   5.202   4.870  1.00 20.00     0.293 A 
HETATM    7  O7  UNL     1     -35.407   6.257   4.773  1.00 20.00    -0.328 OA
HETATM    8  F8  UNL     1     -32.839   4.205   1.679  1.00 20.00    -0.203 F 
HETATM    9  F9  UNL     1     -34.305   3.119   3.636  1.00 20.00    -0.201 F 
HETATM   10  F10 UNL     1     -34.386   4.543   6.093  1.00 20.00    -0.200 F 
ENDROOT
TORSDOF 0
ENDMDL
MODEL 9
REMARK VINA RESULT:      -4.5     16.909     17.457
REMARK  0 active torsions:
REMARK  status: ('A' for Active; 'I' for Inactive)
ROOT
HETATM    1  C1  UNL     1     -25.009  18.723  10.083  1.00 20.00     0.044 A 
HETATM    2  C2  UNL     1     -25.209  18.339  11.356  1.00 20.00     0.014 A 
HETATM    3  C3  UNL     1     -23.714  18.548   9.463  1.00 20.00     0.156 A 
HETATM    4  C4  UNL     1     -22.686  18.001  10.133  1.00 20.00     0.202 A 
HETATM    5  C5  UNL     1     -24.152  17.741  12.198  1.00 20.00     0.224 A 
HETATM    6  C6  UNL     1     -22.788  17.554  11.531  1.00 20.00     0.293 A 
HETATM    7  O7  UNL     1     -23.595  16.444  11.942  1.00 20.00    -0.328 OA
HETATM    8  F8  UNL     1     -23.564  18.943   8.183  1.00 20.00    -0.203 F 
HETATM    9  F9  UNL     1     -21.502  17.858   9.497  1.00 20.00    -0.201 F 
HETATM   10  F10 UNL     1     -21.685  17.830  12.332  1.00 20.00    -0.200 F 
ENDROOT
TORSDOF 0
ENDMDL
