MODEL 1
REMARK VINA RESULT:      -5.0      0.000      0.000
REMARK  1 active torsions:
REMARK  status: ('A' for Active; 'I' for Inactive)
REMARK    1  A    between atoms: C3_3  and  C6_6 
ROOT
HETATM    1  C1  UNL     1     -32.610   8.055   1.338  1.00 20.00    -0.154 C 
HETATM    2  C5  UNL     1     -33.014   8.766   0.328  1.00 20.00     0.096 C 
HETATM    3  C6  UNL     1     -32.201   7.346   2.347  1.00 20.00     0.061 C 
ENDROOT
BRANCH   3   4
HETATM    4  C3  UNL     1     -33.103   6.586   3.160  1.00 20.00    -0.010 A 
HETATM    5  C2  UNL     1     -33.454   5.308   3.001  1.00 20.00     0.023 A 
HETATM    6  C4  UNL     1     -34.435   5.014   4.057  1.00 20.00     0.290 A 
HETATM    7  C8  UNL     1     -33.049   4.284   2.008  1.00 20.00     0.055 C 
HETATM    8  O10 UNL     1     -34.982   3.939   4.237  1.00 20.00    -0.260 OA
HETATM    9  O11 UNL     1     -34.643   6.140   4.800  1.00 20.00    -0.308 OA
HETATM   10  C7  UNL     1     -33.806   7.200   4.316  1.00 20.00     0.162 A 
HETATM   11  C9  UNL     1     -32.890   7.640   5.449  1.00 20.00     0.045 C 
ENDBRANCH   3   4
TORSDOF 1
ENDMDL
MODEL 2
REMARK VINA RESULT:      -4.7     10.691     11.699
REMARK  1 active torsions:
REMARK  status: ('A' for Active; 'I' for Inactive)
REMARK    1  A    between atoms: C3_3  and  C6_6 
ROOT
HETATM    1  C1  UNL     1     -34.603  17.026  -1.500  1.00 20.00    -0.154 C 
HETATM    2  C5  UNL     1     -34.882  17.416  -0.292  1.00 20.00     0.096 C 
HETATM    3  C6  UNL     1     -34.320  16.640  -2.708  1.00 20.00     0.061 C 
ENDROOT
BRANCH   3   4
HETATM    4  C3  UNL     1     -35.002  15.549  -3.338  1.00 20.00    -0.010 A 
HETATM    5  C2  UNL     1     -36.293  15.486  -3.672  1.00 20.00     0.023 A 
HETATM    6  C4  UNL     1     -36.508  14.148  -4.242  1.00 20.00     0.290 A 
HETATM    7  C8  UNL     1     -37.401  16.463  -3.538  1.00 20.00     0.055 C 
HETATM    8  O10 UNL     1     -37.567  13.721  -4.668  1.00 20.00    -0.260 OA
HETATM    9  O11 UNL     1     -35.333  13.454  -4.212  1.00 20.00    -0.308 OA
HETATM   10  C7  UNL     1     -34.295  14.286  -3.672  1.00 20.00     0.162 A 
HETATM   11  C9  UNL     1     -33.205  14.433  -4.725  1.00 20.00     0.045 C 
ENDBRANCH   3   4
TORSDOF 1
ENDMDL
MODEL 3
REMARK VINA RESULT:      -4.7     11.206     11.836
REMARK  1 active torsions:
REMARK  status: ('A' for Active; 'I' for Inactive)
REMARK    1  A    between atoms: C3_3  and  C6_6 
ROOT
HETATM    1  C1  UNL     1     -35.409  17.093  -0.549  1.00 20.00    -0.154 C 
HETATM    2  C5  UNL     1     -35.170  17.311   0.709  1.00 20.00     0.096 C 
HETATM    3  C6  UNL     1     -35.653  16.877  -1.807  1.00 20.00     0.061 C 
ENDROOT
BRANCH   3   4
HETATM    4  C3  UNL     1     -34.721  16.200  -2.658  1.00 20.00    -0.010 A 
HETATM    5  C2  UNL     1     -34.978  15.205  -3.511  1.00 20.00     0.023 A 
HETATM    6  C4  UNL     1     -33.688  14.826  -4.106  1.00 20.00     0.290 A 
HETATM    7  C8  UNL     1     -36.237  14.510  -3.873  1.00 20.00     0.055 C 
HETATM    8  O10 UNL     1     -33.522  13.952  -4.940  1.00 20.00    -0.260 OA
HETATM    9  O11 UNL     1     -32.702  15.602  -3.570  1.00 20.00    -0.308 OA
HETATM   10  C7  UNL     1     -33.274  16.540  -2.646  1.00 20.00     0.162 A 
HETATM   11  C9  UNL     1     -32.953  17.946  -3.133  1.00 20.00     0.045 C 
ENDBRANCH   3   4
TORSDOF 1
ENDMDL
MODEL 4
REMARK VINA RESULT:      -4.6     11.087     12.233
REMARK  1 active torsions:
REMARK  status: ('A' for Active; 'I' for Inactive)
REMARK    1  A    between atoms: C3_3  and  C6_6 
ROOT
HETATM    1  C1  UNL     1     -33.880  16.825  -2.027  1.00 20.00    -0.154 C 
HETATM    2  C5  UNL     1     -32.953  17.726  -1.893  1.00 20.00     0.096 C 
HETATM    3  C6  UNL     1     -34.807  15.923  -2.155  1.00 20.00     0.061 C 
ENDROOT
BRANCH   3   4
HETATM    4  C3  UNL     1     -35.203  15.415  -3.435  1.00 20.00    -0.010 A 
HETATM    5  C2  UNL     1     -36.190  15.864  -4.214  1.00 20.00     0.023 A 
HETATM    6  C4  UNL     1     -36.223  14.981  -5.390  1.00 20.00     0.290 A 
HETATM    7  C8  UNL     1     -37.147  16.985  -4.054  1.00 20.00     0.055 C 
HETATM    8  O10 UNL     1     -36.992  15.082  -6.330  1.00 20.00    -0.260 OA
HETATM    9  O11 UNL     1     -35.260  14.024  -5.257  1.00 20.00    -0.308 OA
HETATM   10  C7  UNL     1     -34.529  14.238  -4.041  1.00 20.00     0.162 A 
HETATM   11  C9  UNL     1     -33.066  14.463  -4.396  1.00 20.00     0.045 C 
ENDBRANCH   3   4
TORSDOF 1
ENDMDL
MODEL 5
REMARK VINA RESULT:      -4.5     10.791     11.600
REMARK  1 active torsions:
REMARK  status: ('A' for Active; 'I' for Inactive)
REMARK    1  A    between atoms: C3_3  and  C6_6 
ROOT
HETATM    1  C1  UNL     1     -32.465  17.818  -2.022  1.00 20.00    -0.154 C 
HETATM    2  C5  UNL     1     -31.978  18.210  -0.883  1.00 20.00     0.096 C 
HETATM    3  C6  UNL     1     -32.949  17.430  -3.164  1.00 20.00     0.061 C 
ENDROOT
BRANCH   3   4
HETATM    4  C3  UNL     1     -33.869  16.337  -3.269  1.00 20.00    -0.010 A 
HETATM    5  C2  UNL     1     -33.641  15.135  -3.803  1.00 20.00     0.023 A 
HETATM    6  C4  UNL     1     -34.909  14.394  -3.712  1.00 20.00     0.290 A 
HETATM    7  C8  UNL     1     -32.431  14.536  -4.416  1.00 20.00     0.055 C 
HETATM    8  O10 UNL     1     -35.090  13.251  -4.095  1.00 20.00    -0.260 OA
HETATM    9  O11 UNL     1     -35.854  15.194  -3.139  1.00 20.00    -0.308 OA
HETATM   10  C7  UNL     1     -35.271  16.458  -2.791  1.00 20.00     0.162 A 
HETATM   11  C9  UNL     1     -35.410  16.650  -1.287  1.00 20.00     0.045 C 
ENDBRANCH   3   4
TORSDOF 1
ENDMDL
MODEL 6
REMARK VINA RESULT:      -4.4     11.617     12.332
REMARK  1 active torsions:
REMARK  status: ('A' for Active; 'I' for Inactive)
REMARK    1  A    between atoms: C3_3  and  C6_6 
ROOT
HETATM    1  C1  UNL     1     -34.228  16.747  -1.894  1.00 20.00    -0.154 C 
HETATM    2  C5  UNL     1     -33.550  17.733  -1.388  1.00 20.00     0.096 C 
HETATM    3  C6  UNL     1     -34.906  15.759  -2.396  1.00 20.00     0.061 C 
ENDROOT
BRANCH   3   4
HETATM    4  C3  UNL     1     -34.950  15.502  -3.805  1.00 20.00    -0.010 A 
HETATM    5  C2  UNL     1     -33.954  15.063  -4.578  1.00 20.00     0.023 A 
HETATM    6  C4  UNL     1     -34.487  15.010  -5.948  1.00 20.00     0.290 A 
HETATM    7  C8  UNL     1     -32.552  14.689  -4.273  1.00 20.00     0.055 C 
HETATM    8  O10 UNL     1     -33.870  14.649  -6.935  1.00 20.00    -0.260 OA
HETATM    9  O11 UNL     1     -35.783  15.438  -5.941  1.00 20.00    -0.308 OA
HETATM   10  C7  UNL     1     -36.181  15.751  -4.598  1.00 20.00     0.162 A 
HETATM   11  C9  UNL     1     -37.359  14.859  -4.229  1.00 20.00     0.045 C 
ENDBRANCH   3   4
TORSDOF 1
ENDMDL
MODEL 7
REMARK VINA RESULT:      -4.4     15.118     16.655
REMARK  1 active torsions:
REMARK  status: ('A' for Active; 'I' for Inactive)
REMARK    1  A    between atoms: C3_3  and  C6_6 
ROOT
HETATM    1  C1  UNL     1     -25.405  19.021   7.389  1.00 20.00    -0.154 C 
HETATM    2  C5  UNL     1     -26.486  18.811   6.699  1.00 20.00     0.096 C 
HETATM    3  C6  UNL     1     -24.322  19.235   8.074  1.00 20.00     0.061 C 
ENDROOT
BRANCH   3   4
HETATM    4  C3  UNL     1     -24.076  18.591   9.330  1.00 20.00    -0.010 A 
HETATM    5  C2  UNL     1     -22.891  18.289   9.865  1.00 20.00     0.023 A 
HETATM    6  C4  UNL     1     -23.174  17.597  11.132  1.00 20.00     0.290 A 
HETATM    7  C8  UNL     1     -21.503  18.515   9.395  1.00 20.00     0.055 C 
HETATM    8  O10 UNL     1     -22.337  17.171  11.910  1.00 20.00    -0.260 OA
HETATM    9  O11 UNL     1     -24.526  17.498  11.296  1.00 20.00    -0.308 OA
HETATM   10  C7  UNL     1     -25.193  18.137  10.198  1.00 20.00     0.162 A 
HETATM   11  C9  UNL     1     -26.057  19.262  10.753  1.00 20.00     0.045 C 
ENDBRANCH   3   4
TORSDOF 1
ENDMDL
MODEL 8
REMARK VINA RESULT:      -4.3     10.870     12.225
REMARK  1 active torsions:
REMARK  status: ('A' for Active; 'I' for Inactive)
REMARK    1  A    between atoms: C3_3  and  C6_6 
ROOT
HETATM    1  C1  UNL     1     -36.830  17.668  -2.476  1.00 20.00    -0.154 C 
HETATM    2  C5  UNL     1     -36.927  18.083  -1.249  1.00 20.00     0.096 C 
HETATM    3  C6  UNL     1     -36.733  17.257  -3.705  1.00 20.00     0.061 C 
ENDROOT
BRANCH   3   4
HETATM    4  C3  UNL     1     -36.776  15.868  -4.049  1.00 20.00    -0.010 A 
HETATM    5  C2  UNL     1     -35.813  14.960  -3.874  1.00 20.00     0.023 A 
HETATM    6  C4  UNL     1     -36.325  13.699  -4.432  1.00 20.00     0.290 A 
HETATM    7  C8  UNL     1     -34.457  15.055  -3.280  1.00 20.00     0.055 C 
HETATM    8  O10 UNL     1     -35.727  12.638  -4.450  1.00 20.00    -0.260 OA
HETATM    9  O11 UNL     1     -37.575  13.910  -4.938  1.00 20.00    -0.308 OA
HETATM   10  C7  UNL     1     -37.965  15.272  -4.712  1.00 20.00     0.162 A 
HETATM   11  C9  UNL     1     -39.227  15.272  -3.859  1.00 20.00     0.045 C 
ENDBRANCH   3   4
TORSDOF 1
ENDMDL
MODEL 9
REMARK VINA RESULT:      -4.3     15.138     16.673
REMARK  1 active torsions:
REMARK  status: ('A' for Active; 'I' for Inactive)
REMARK    1  A    between atoms: C3_3  and  C6_6 
ROOT
HETATM    1  C1  UNL     1     -25.405  18.882   7.304  1.00 20.00    -0.154 C 
HETATM    2  C5  UNL     1     -26.535  18.512   6.779  1.00 20.00     0.096 C 
HETATM    3  C6  UNL     1     -24.275  19.256   7.825  1.00 20.00     0.061 C 
ENDROOT
BRANCH   3   4
HETATM    4  C3  UNL     1     -23.761  18.671   9.027  1.00 20.00    -0.010 A 
HETATM    5  C2  UNL     1     -24.403  18.507  10.186  1.00 20.00     0.023 A 
HETATM    6  C4  UNL     1     -23.432  17.910  11.116  1.00 20.00     0.290 A 
HETATM    7  C8  UNL     1     -25.788  18.829  10.607  1.00 20.00     0.055 C 
HETATM    8  O10 UNL     1     -23.655  17.608  12.276  1.00 20.00    -0.260 OA
HETATM    9  O11 UNL     1     -22.236  17.755  10.476  1.00 20.00    -0.308 OA
HETATM   10  C7  UNL     1     -22.357  18.192   9.115  1.00 20.00     0.162 A 
HETATM   11  C9  UNL     1     -22.037  17.013   8.206  1.00 20.00     0.045 C 
ENDBRANCH   3   4
TORSDOF 1
ENDMDL
