MODEL 1
REMARK VINA RESULT:      -4.8      0.000      0.000
REMARK  1 active torsions:
REMARK  status: ('A' for Active; 'I' for Inactive)
REMARK    1  A    between atoms: C8_8  and  O11_11 
ROOT
HETATM    1  C1  UNL     1     -22.670  17.394  11.152  1.00 20.00     0.005 C 
HETATM    2  C2  UNL     1     -23.774  17.666  11.870  1.00 20.00     0.005 C 
HETATM    3  C3  UNL     1     -22.589  17.593   9.708  1.00 20.00    -0.063 C 
HETATM    4  C4  UNL     1     -21.426  17.467   9.053  1.00 20.00     0.019 C 
HETATM    5  C5  UNL     1     -25.327  19.263   7.612  1.00 20.00     0.001 C 
HETATM    6  C6  UNL     1     -23.921  18.652   7.696  1.00 20.00     0.010 C 
HETATM    7  C7  UNL     1     -25.911  19.218   9.031  1.00 20.00     0.008 C 
HETATM    8  C8  UNL     1     -25.027  18.259  11.272  1.00 20.00     0.145 C 
HETATM    9  C9  UNL     1     -23.903  17.923   9.040  1.00 20.00     0.024 C 
HETATM   10  C10 UNL     1     -24.715  18.883   9.914  1.00 20.00     0.026 C 
ENDROOT
BRANCH   8  11
HETATM   11  O11 UNL     1     -25.521  19.263  12.153  1.00 20.00    -0.391 OA
HETATM   12  H25 UNL     1     -25.886  19.968  11.594  1.00 20.00     0.210 HD
ENDBRANCH   8  11
TORSDOF 1
ENDMDL
MODEL 2
REMARK VINA RESULT:      -4.8     16.126     17.908
REMARK  1 active torsions:
REMARK  status: ('A' for Active; 'I' for Inactive)
REMARK    1  A    between atoms: C8_8  and  O11_11 
ROOT
HETATM    1  C1  UNL     1     -33.501  16.368  -2.615  1.00 20.00     0.005 C 
HETATM    2  C2  UNL     1     -32.864  15.605  -3.521  1.00 20.00     0.005 C 
HETATM    3  C3  UNL     1     -34.956  16.439  -2.515  1.00 20.00    -0.063 C 
HETATM    4  C4  UNL     1     -35.553  17.081  -1.500  1.00 20.00     0.019 C 
HETATM    5  C5  UNL     1     -37.360  14.235  -4.526  1.00 20.00     0.001 C 
HETATM    6  C6  UNL     1     -37.143  15.296  -3.436  1.00 20.00     0.010 C 
HETATM    7  C7  UNL     1     -35.967  13.843  -5.039  1.00 20.00     0.008 C 
HETATM    8  C8  UNL     1     -33.580  14.697  -4.492  1.00 20.00     0.145 C 
HETATM    9  C9  UNL     1     -35.702  15.762  -3.641  1.00 20.00     0.024 C 
HETATM   10  C10 UNL     1     -35.012  14.449  -4.018  1.00 20.00     0.026 C 
ENDROOT
BRANCH   8  11
HETATM   11  O11 UNL     1     -32.882  13.458  -4.557  1.00 20.00    -0.391 OA
HETATM   12  H25 UNL     1     -32.314  13.500  -5.344  1.00 20.00     0.210 HD
ENDBRANCH   8  11
TORSDOF 1
ENDMDL
MODEL 3
REMARK VINA RESULT:      -4.6     13.183     14.787
REMARK  1 active torsions:
REMARK  status: ('A' for Active; 'I' for Inactive)
REMARK    1  A    between atoms: C8_8  and  O11_11 
ROOT
HETATM    1  C1  UNL     1     -33.875  18.818   0.812  1.00 20.00     0.005 C 
HETATM    2  C2  UNL     1     -32.733  19.238   0.237  1.00 20.00     0.005 C 
HETATM    3  C3  UNL     1     -34.782  17.865   0.178  1.00 20.00    -0.063 C 
HETATM    4  C4  UNL     1     -35.823  17.347   0.846  1.00 20.00     0.019 C 
HETATM    5  C5  UNL     1     -34.020  16.020  -3.092  1.00 20.00     0.001 C 
HETATM    6  C6  UNL     1     -34.946  16.236  -1.886  1.00 20.00     0.010 C 
HETATM    7  C7  UNL     1     -32.816  16.951  -2.893  1.00 20.00     0.008 C 
HETATM    8  C8  UNL     1     -32.237  18.726  -1.093  1.00 20.00     0.145 C 
HETATM    9  C9  UNL     1     -34.458  17.544  -1.261  1.00 20.00     0.024 C 
HETATM   10  C10 UNL     1     -32.943  17.419  -1.449  1.00 20.00     0.026 C 
ENDROOT
BRANCH   8  11
HETATM   11  O11 UNL     1     -30.835  18.496  -0.999  1.00 20.00    -0.391 OA
HETATM   12  H25 UNL     1     -30.403  19.198  -1.512  1.00 20.00     0.210 HD
ENDBRANCH   8  11
TORSDOF 1
ENDMDL
MODEL 4
REMARK VINA RESULT:      -4.6     12.168     14.093
REMARK  1 active torsions:
REMARK  status: ('A' for Active; 'I' for Inactive)
REMARK    1  A    between atoms: C8_8  and  O11_11 
ROOT
HETATM    1  C1  UNL     1     -35.154  16.797  -1.138  1.00 20.00     0.005 C 
HETATM    2  C2  UNL     1     -35.633  17.276   0.024  1.00 20.00     0.005 C 
HETATM    3  C3  UNL     1     -33.821  17.115  -1.641  1.00 20.00    -0.063 C 
HETATM    4  C4  UNL     1     -33.317  16.492  -2.717  1.00 20.00     0.019 C 
HETATM    5  C5  UNL     1     -31.190  19.081   0.332  1.00 20.00     0.001 C 
HETATM    6  C6  UNL     1     -31.568  18.275  -0.919  1.00 20.00     0.010 C 
HETATM    7  C7  UNL     1     -32.426  19.084   1.242  1.00 20.00     0.008 C 
HETATM    8  C8  UNL     1     -34.827  18.144   0.960  1.00 20.00     0.145 C 
HETATM    9  C9  UNL     1     -33.094  18.193  -0.872  1.00 20.00     0.024 C 
HETATM   10  C10 UNL     1     -33.340  18.029   0.631  1.00 20.00     0.026 C 
ENDROOT
BRANCH   8  11
HETATM   11  O11 UNL     1     -35.052  17.706   2.295  1.00 20.00    -0.391 OA
HETATM   12  H25 UNL     1     -35.368  18.478   2.792  1.00 20.00     0.210 HD
ENDBRANCH   8  11
TORSDOF 1
ENDMDL
MODEL 5
REMARK VINA RESULT:      -4.5     16.408     18.405
REMARK  1 active torsions:
REMARK  status: ('A' for Active; 'I' for Inactive)
REMARK    1  A    between atoms: C8_8  and  O11_11 
ROOT
HETATM    1  C1  UNL     1     -33.768  15.313  -3.379  1.00 20.00     0.005 C 
HETATM    2  C2  UNL     1     -34.156  14.288  -4.160  1.00 20.00     0.005 C 
HETATM    3  C3  UNL     1     -34.658  16.405  -2.998  1.00 20.00    -0.063 C 
HETATM    4  C4  UNL     1     -34.287  17.319  -2.089  1.00 20.00     0.019 C 
HETATM    5  C5  UNL     1     -38.405  16.502  -3.790  1.00 20.00     0.001 C 
HETATM    6  C6  UNL     1     -37.188  17.131  -3.095  1.00 20.00     0.010 C 
HETATM    7  C7  UNL     1     -37.909  15.213  -4.461  1.00 20.00     0.008 C 
HETATM    8  C8  UNL     1     -35.564  14.127  -4.678  1.00 20.00     0.145 C 
HETATM    9  C9  UNL     1     -35.986  16.420  -3.717  1.00 20.00     0.024 C 
HETATM   10  C10 UNL     1     -36.524  14.994  -3.865  1.00 20.00     0.026 C 
ENDROOT
BRANCH   8  11
HETATM   11  O11 UNL     1     -35.941  12.760  -4.555  1.00 20.00    -0.391 OA
HETATM   12  H25 UNL     1     -36.777  12.745  -4.062  1.00 20.00     0.210 HD
ENDBRANCH   8  11
TORSDOF 1
ENDMDL
MODEL 6
REMARK VINA RESULT:      -4.5     16.672     18.642
REMARK  1 active torsions:
REMARK  status: ('A' for Active; 'I' for Inactive)
REMARK    1  A    between atoms: C8_8  and  O11_11 
ROOT
HETATM    1  C1  UNL     1     -34.634  14.259  -3.795  1.00 20.00     0.005 C 
HETATM    2  C2  UNL     1     -35.738  13.726  -4.350  1.00 20.00     0.005 C 
HETATM    3  C3  UNL     1     -34.479  15.689  -3.546  1.00 20.00    -0.063 C 
HETATM    4  C4  UNL     1     -33.438  16.164  -2.845  1.00 20.00     0.019 C 
HETATM    5  C5  UNL     1     -37.259  18.275  -4.055  1.00 20.00     0.001 C 
HETATM    6  C6  UNL     1     -35.837  17.946  -3.578  1.00 20.00     0.010 C 
HETATM    7  C7  UNL     1     -37.882  16.953  -4.523  1.00 20.00     0.008 C 
HETATM    8  C8  UNL     1     -36.955  14.539  -4.722  1.00 20.00     0.145 C 
HETATM    9  C9  UNL     1     -35.555  16.558  -4.153  1.00 20.00     0.024 C 
HETATM   10  C10 UNL     1     -36.923  15.887  -4.005  1.00 20.00     0.026 C 
ENDROOT
BRANCH   8  11
HETATM   11  O11 UNL     1     -38.119  13.821  -4.330  1.00 20.00    -0.391 OA
HETATM   12  H25 UNL     1     -38.118  13.798  -3.359  1.00 20.00     0.210 HD
ENDBRANCH   8  11
TORSDOF 1
ENDMDL
MODEL 7
REMARK VINA RESULT:      -4.4     16.410     17.059
REMARK  1 active torsions:
REMARK  status: ('A' for Active; 'I' for Inactive)
REMARK    1  A    between atoms: C8_8  and  O11_11 
ROOT
HETATM    1  C1  UNL     1     -32.716   5.855   2.200  1.00 20.00     0.005 C 
HETATM    2  C2  UNL     1     -33.469   4.744   2.288  1.00 20.00     0.005 C 
HETATM    3  C3  UNL     1     -32.693   6.886   3.234  1.00 20.00    -0.063 C 
HETATM    4  C4  UNL     1     -31.811   7.895   3.190  1.00 20.00     0.019 C 
HETATM    5  C5  UNL     1     -34.460   6.576   6.619  1.00 20.00     0.001 C 
HETATM    6  C6  UNL     1     -33.531   7.365   5.685  1.00 20.00     0.010 C 
HETATM    7  C7  UNL     1     -34.847   5.292   5.871  1.00 20.00     0.008 C 
HETATM    8  C8  UNL     1     -34.326   4.415   3.487  1.00 20.00     0.145 C 
HETATM    9  C9  UNL     1     -33.738   6.724   4.312  1.00 20.00     0.024 C 
HETATM   10  C10 UNL     1     -33.885   5.247   4.690  1.00 20.00     0.026 C 
ENDROOT
BRANCH   8  11
HETATM   11  O11 UNL     1     -34.176   3.032   3.788  1.00 20.00    -0.391 OA
HETATM   12  H25 UNL     1     -33.777   2.619   3.005  1.00 20.00     0.210 HD
ENDBRANCH   8  11
TORSDOF 1
ENDMDL
MODEL 8
REMARK VINA RESULT:      -4.4     16.210     18.441
REMARK  1 active torsions:
REMARK  status: ('A' for Active; 'I' for Inactive)
REMARK    1  A    between atoms: C8_8  and  O11_11 
ROOT
HETATM    1  C1  UNL     1     -36.707  15.092  -5.288  1.00 20.00     0.005 C 
HETATM    2  C2  UNL     1     -35.621  14.454  -5.761  1.00 20.00     0.005 C 
HETATM    3  C3  UNL     1     -36.676  15.942  -4.101  1.00 20.00    -0.063 C 
HETATM    4  C4  UNL     1     -37.735  16.690  -3.755  1.00 20.00     0.019 C 
HETATM    5  C5  UNL     1     -33.479  16.887  -2.214  1.00 20.00     0.001 C 
HETATM    6  C6  UNL     1     -34.996  17.042  -2.397  1.00 20.00     0.010 C 
HETATM    7  C7  UNL     1     -33.000  15.931  -3.315  1.00 20.00     0.008 C 
HETATM    8  C8  UNL     1     -34.246  14.591  -5.153  1.00 20.00     0.145 C 
HETATM    9  C9  UNL     1     -35.389  15.884  -3.314  1.00 20.00     0.024 C 
HETATM   10  C10 UNL     1     -34.189  15.832  -4.263  1.00 20.00     0.026 C 
ENDROOT
BRANCH   8  11
HETATM   11  O11 UNL     1     -33.294  14.718  -6.204  1.00 20.00    -0.391 OA
HETATM   12  H25 UNL     1     -33.001  15.643  -6.204  1.00 20.00     0.210 HD
ENDBRANCH   8  11
TORSDOF 1
ENDMDL
MODEL 9
REMARK VINA RESULT:      -4.4     13.318     15.305
REMARK  1 active torsions:
REMARK  status: ('A' for Active; 'I' for Inactive)
REMARK    1  A    between atoms: C8_8  and  O11_11 
ROOT
HETATM    1  C1  UNL     1     -35.443  16.375  -1.728  1.00 20.00     0.005 C 
HETATM    2  C2  UNL     1     -34.502  16.097  -2.647  1.00 20.00     0.005 C 
HETATM    3  C3  UNL     1     -35.202  17.242  -0.578  1.00 20.00    -0.063 C 
HETATM    4  C4  UNL     1     -36.206  17.626   0.225  1.00 20.00     0.019 C 
HETATM    5  C5  UNL     1     -31.983  19.245  -0.031  1.00 20.00     0.001 C 
HETATM    6  C6  UNL     1     -33.411  18.898   0.415  1.00 20.00     0.010 C 
HETATM    7  C7  UNL     1     -31.718  18.444  -1.314  1.00 20.00     0.008 C 
HETATM    8  C8  UNL     1     -33.115  16.695  -2.622  1.00 20.00     0.145 C 
HETATM    9  C9  UNL     1     -33.759  17.634  -0.372  1.00 20.00     0.024 C 
HETATM   10  C10 UNL     1     -33.092  17.927  -1.719  1.00 20.00     0.026 C 
ENDROOT
BRANCH   8  11
HETATM   11  O11 UNL     1     -32.759  17.072  -3.947  1.00 20.00    -0.391 OA
HETATM   12  H25 UNL     1     -32.063  17.745  -3.867  1.00 20.00     0.210 HD
ENDBRANCH   8  11
TORSDOF 1
ENDMDL
