MODEL 1
REMARK VINA RESULT:      -5.6      0.000      0.000
REMARK  1 active torsions:
REMARK  status: ('A' for Active; 'I' for Inactive)
REMARK    1  A    between atoms: C2_2  and  C3_3 
ROOT
HETATM    1  C1  UNL     1     -33.854  14.982  -4.328  1.00 20.00    -0.009 C 
HETATM    2  C2  UNL     1     -35.094  14.751  -3.798  1.00 20.00    -0.007 C 
HETATM    3  C4  UNL     1     -33.867  17.407  -1.490  1.00 20.00     0.002 C 
HETATM    4  C5  UNL     1     -32.956  17.063  -2.703  1.00 20.00     0.009 C 
HETATM    5  C6  UNL     1     -35.109  16.473  -1.631  1.00 20.00     0.015 C 
HETATM    6  C7  UNL     1     -33.515  15.717  -3.059  1.00 20.00     0.021 C 
HETATM    7  C8  UNL     1     -35.054  16.100  -3.103  1.00 20.00    -0.007 C 
HETATM    8  C10 UNL     1     -35.682  17.207  -3.975  1.00 20.00     0.021 C 
ENDROOT
BRANCH   2   9
HETATM    9  C3  UNL     1     -36.122  13.845  -4.287  1.00 20.00     0.152 C 
HETATM   10  C9  UNL     1     -37.537  14.363  -4.411  1.00 20.00     0.096 C 
HETATM   11  O11 UNL     1     -35.849  12.676  -4.590  1.00 20.00    -0.293 OA
ENDBRANCH   2   9
TORSDOF 1
ENDMDL
MODEL 2
REMARK VINA RESULT:      -5.2      2.782      4.759
REMARK  1 active torsions:
REMARK  status: ('A' for Active; 'I' for Inactive)
REMARK    1  A    between atoms: C2_2  and  C3_3 
ROOT
HETATM    1  C1  UNL     1     -34.389  17.306  -1.478  1.00 20.00    -0.009 C 
HETATM    2  C2  UNL     1     -33.113  17.408  -1.961  1.00 20.00    -0.007 C 
HETATM    3  C4  UNL     1     -34.395  14.604  -4.053  1.00 20.00     0.002 C 
HETATM    4  C5  UNL     1     -35.423  15.300  -3.117  1.00 20.00     0.009 C 
HETATM    5  C6  UNL     1     -33.049  15.357  -3.819  1.00 20.00     0.015 C 
HETATM    6  C7  UNL     1     -34.477  15.969  -2.164  1.00 20.00     0.021 C 
HETATM    7  C8  UNL     1     -33.526  16.671  -3.222  1.00 20.00    -0.007 C 
HETATM    8  C10 UNL     1     -33.976  17.646  -4.329  1.00 20.00     0.021 C 
ENDROOT
BRANCH   2   9
HETATM    9  C3  UNL     1     -32.091  18.374  -1.589  1.00 20.00     0.152 C 
HETATM   10  C9  UNL     1     -31.473  18.272  -0.213  1.00 20.00     0.096 C 
HETATM   11  O11 UNL     1     -31.736  19.262  -2.375  1.00 20.00    -0.293 OA
ENDBRANCH   2   9
TORSDOF 1
ENDMDL
MODEL 3
REMARK VINA RESULT:      -5.0      1.488      2.259
REMARK  1 active torsions:
REMARK  status: ('A' for Active; 'I' for Inactive)
REMARK    1  A    between atoms: C2_2  and  C3_3 
ROOT
HETATM    1  C1  UNL     1     -35.890  13.660  -4.665  1.00 20.00    -0.009 C 
HETATM    2  C2  UNL     1     -36.612  14.705  -4.160  1.00 20.00    -0.007 C 
HETATM    3  C4  UNL     1     -33.150  15.862  -3.409  1.00 20.00     0.002 C 
HETATM    4  C5  UNL     1     -33.283  14.554  -4.239  1.00 20.00     0.009 C 
HETATM    5  C6  UNL     1     -34.615  16.326  -3.136  1.00 20.00     0.015 C 
HETATM    6  C7  UNL     1     -34.702  14.194  -3.912  1.00 20.00     0.021 C 
HETATM    7  C8  UNL     1     -35.382  15.593  -4.223  1.00 20.00    -0.007 C 
HETATM    8  C10 UNL     1     -35.301  16.355  -5.563  1.00 20.00     0.021 C 
ENDROOT
BRANCH   2   9
HETATM    9  C3  UNL     1     -38.054  14.895  -4.191  1.00 20.00     0.152 C 
HETATM   10  C9  UNL     1     -38.604  16.275  -3.911  1.00 20.00     0.096 C 
HETATM   11  O11 UNL     1     -38.816  13.950  -4.436  1.00 20.00    -0.293 OA
ENDBRANCH   2   9
TORSDOF 1
ENDMDL
MODEL 4
REMARK VINA RESULT:      -4.7     15.567     17.556
REMARK  1 active torsions:
REMARK  status: ('A' for Active; 'I' for Inactive)
REMARK    1  A    between atoms: C2_2  and  C3_3 
ROOT
HETATM    1  C1  UNL     1     -25.398  18.488  10.079  1.00 20.00    -0.009 C 
HETATM    2  C2  UNL     1     -24.398  18.563   9.148  1.00 20.00    -0.007 C 
HETATM    3  C4  UNL     1     -22.425  17.644  12.172  1.00 20.00     0.002 C 
HETATM    4  C5  UNL     1     -23.971  17.670  12.332  1.00 20.00     0.009 C 
HETATM    5  C6  UNL     1     -22.158  18.028  10.683  1.00 20.00     0.015 C 
HETATM    6  C7  UNL     1     -24.330  18.507  11.139  1.00 20.00     0.021 C 
HETATM    7  C8  UNL     1     -23.499  17.723  10.038  1.00 20.00    -0.007 C 
HETATM    8  C10 UNL     1     -23.625  16.220   9.715  1.00 20.00     0.021 C 
ENDROOT
BRANCH   2   9
HETATM    9  C3  UNL     1     -24.520  18.833   7.724  1.00 20.00     0.152 C 
HETATM   10  C9  UNL     1     -25.868  19.257   7.185  1.00 20.00     0.096 C 
HETATM   11  O11 UNL     1     -23.548  18.714   6.967  1.00 20.00    -0.293 OA
ENDBRANCH   2   9
TORSDOF 1
ENDMDL
MODEL 5
REMARK VINA RESULT:      -4.6      1.862      2.751
REMARK  1 active torsions:
REMARK  status: ('A' for Active; 'I' for Inactive)
REMARK    1  A    between atoms: C2_2  and  C3_3 
ROOT
HETATM    1  C1  UNL     1     -35.918  14.698  -4.351  1.00 20.00    -0.009 C 
HETATM    2  C2  UNL     1     -35.192  15.273  -5.357  1.00 20.00    -0.007 C 
HETATM    3  C4  UNL     1     -33.736  17.017  -2.403  1.00 20.00     0.002 C 
HETATM    4  C5  UNL     1     -34.761  15.886  -2.108  1.00 20.00     0.009 C 
HETATM    5  C6  UNL     1     -33.617  17.069  -3.959  1.00 20.00     0.015 C 
HETATM    6  C7  UNL     1     -35.428  15.799  -3.449  1.00 20.00     0.021 C 
HETATM    7  C8  UNL     1     -34.131  15.696  -4.357  1.00 20.00    -0.007 C 
HETATM    8  C10 UNL     1     -33.021  14.633  -4.223  1.00 20.00     0.021 C 
ENDROOT
BRANCH   2   9
HETATM    9  C3  UNL     1     -35.243  14.976  -6.780  1.00 20.00     0.152 C 
HETATM   10  C9  UNL     1     -34.083  15.412  -7.648  1.00 20.00     0.096 C 
HETATM   11  O11 UNL     1     -36.213  14.386  -7.274  1.00 20.00    -0.293 OA
ENDBRANCH   2   9
TORSDOF 1
ENDMDL
MODEL 6
REMARK VINA RESULT:      -4.5      1.531      2.015
REMARK  1 active torsions:
REMARK  status: ('A' for Active; 'I' for Inactive)
REMARK    1  A    between atoms: C2_2  and  C3_3 
ROOT
HETATM    1  C1  UNL     1     -33.494  15.186  -4.052  1.00 20.00    -0.009 C 
HETATM    2  C2  UNL     1     -34.656  15.282  -4.767  1.00 20.00    -0.007 C 
HETATM    3  C4  UNL     1     -35.571  17.252  -1.739  1.00 20.00     0.002 C 
HETATM    4  C5  UNL     1     -34.098  16.764  -1.833  1.00 20.00     0.009 C 
HETATM    5  C6  UNL     1     -36.259  16.738  -3.042  1.00 20.00     0.015 C 
HETATM    6  C7  UNL     1     -34.261  15.677  -2.853  1.00 20.00     0.021 C 
HETATM    7  C8  UNL     1     -35.065  16.495  -3.950  1.00 20.00    -0.007 C 
HETATM    8  C10 UNL     1     -34.601  17.809  -4.612  1.00 20.00     0.021 C 
ENDROOT
BRANCH   2   9
HETATM    9  C3  UNL     1     -34.934  14.762  -6.097  1.00 20.00     0.152 C 
HETATM   10  C9  UNL     1     -34.043  15.196  -7.239  1.00 20.00     0.096 C 
HETATM   11  O11 UNL     1     -35.880  13.988  -6.294  1.00 20.00    -0.293 OA
ENDBRANCH   2   9
TORSDOF 1
ENDMDL
MODEL 7
REMARK VINA RESULT:      -4.4      1.214      1.876
REMARK  1 active torsions:
REMARK  status: ('A' for Active; 'I' for Inactive)
REMARK    1  A    between atoms: C2_2  and  C3_3 
ROOT
HETATM    1  C1  UNL     1     -35.349  16.552  -4.576  1.00 20.00    -0.009 C 
HETATM    2  C2  UNL     1     -34.660  15.510  -4.020  1.00 20.00    -0.007 C 
HETATM    3  C4  UNL     1     -32.915  18.390  -2.425  1.00 20.00     0.002 C 
HETATM    4  C5  UNL     1     -34.155  18.726  -3.300  1.00 20.00     0.009 C 
HETATM    5  C6  UNL     1     -32.781  16.836  -2.480  1.00 20.00     0.015 C 
HETATM    6  C7  UNL     1     -34.247  17.458  -4.097  1.00 20.00     0.021 C 
HETATM    7  C8  UNL     1     -34.179  16.417  -2.902  1.00 20.00    -0.007 C 
HETATM    8  C10 UNL     1     -35.131  16.377  -1.688  1.00 20.00     0.021 C 
ENDROOT
BRANCH   2   9
HETATM    9  C3  UNL     1     -34.897  14.086  -4.196  1.00 20.00     0.152 C 
HETATM   10  C9  UNL     1     -36.297  13.625  -4.533  1.00 20.00     0.096 C 
HETATM   11  O11 UNL     1     -33.977  13.266  -4.068  1.00 20.00    -0.293 OA
ENDBRANCH   2   9
TORSDOF 1
ENDMDL
MODEL 8
REMARK VINA RESULT:      -4.3      2.283      4.272
REMARK  1 active torsions:
REMARK  status: ('A' for Active; 'I' for Inactive)
REMARK    1  A    between atoms: C2_2  and  C3_3 
ROOT
HETATM    1  C1  UNL     1     -34.611  15.891  -2.360  1.00 20.00    -0.009 C 
HETATM    2  C2  UNL     1     -33.845  16.629  -3.220  1.00 20.00    -0.007 C 
HETATM    3  C4  UNL     1     -35.588  14.390  -5.635  1.00 20.00     0.002 C 
HETATM    4  C5  UNL     1     -36.031  14.290  -4.148  1.00 20.00     0.009 C 
HETATM    5  C6  UNL     1     -34.476  15.485  -5.660  1.00 20.00     0.015 C 
HETATM    6  C7  UNL     1     -34.842  14.925  -3.491  1.00 20.00     0.021 C 
HETATM    7  C8  UNL     1     -34.754  16.241  -4.372  1.00 20.00    -0.007 C 
HETATM    8  C10 UNL     1     -35.889  17.268  -4.571  1.00 20.00     0.021 C 
ENDROOT
BRANCH   2   9
HETATM    9  C3  UNL     1     -32.958  17.738  -2.902  1.00 20.00     0.152 C 
HETATM   10  C9  UNL     1     -32.484  17.892  -1.474  1.00 20.00     0.096 C 
HETATM   11  O11 UNL     1     -32.603  18.541  -3.775  1.00 20.00    -0.293 OA
ENDBRANCH   2   9
TORSDOF 1
ENDMDL
MODEL 9
REMARK VINA RESULT:      -4.2      1.466      2.345
REMARK  1 active torsions:
REMARK  status: ('A' for Active; 'I' for Inactive)
REMARK    1  A    between atoms: C2_2  and  C3_3 
ROOT
HETATM    1  C1  UNL     1     -35.108  15.990  -1.829  1.00 20.00    -0.009 C 
HETATM    2  C2  UNL     1     -35.408  16.041  -3.162  1.00 20.00    -0.007 C 
HETATM    3  C4  UNL     1     -32.592  18.478  -3.018  1.00 20.00     0.002 C 
HETATM    4  C5  UNL     1     -32.912  17.706  -1.707  1.00 20.00     0.009 C 
HETATM    5  C6  UNL     1     -33.617  17.947  -4.069  1.00 20.00     0.015 C 
HETATM    6  C7  UNL     1     -34.306  17.249  -2.022  1.00 20.00     0.021 C 
HETATM    7  C8  UNL     1     -34.036  16.622  -3.454  1.00 20.00    -0.007 C 
HETATM    8  C10 UNL     1     -33.008  15.517  -3.774  1.00 20.00     0.021 C 
ENDROOT
BRANCH   2   9
HETATM    9  C3  UNL     1     -36.402  15.264  -3.886  1.00 20.00     0.152 C 
HETATM   10  C9  UNL     1     -36.032  13.870  -4.342  1.00 20.00     0.096 C 
HETATM   11  O11 UNL     1     -37.522  15.731  -4.131  1.00 20.00    -0.293 OA
ENDBRANCH   2   9
TORSDOF 1
ENDMDL
