MODEL 1
REMARK VINA RESULT:      -5.1      0.000      0.000
REMARK  2 active torsions:
REMARK  status: ('A' for Active; 'I' for Inactive)
REMARK    1  A    between atoms: C3_3  and  C10_10 
REMARK    2  A    between atoms: C7_7  and  O11_11 
ROOT
HETATM    1  C1  UNL     1     -26.355  18.770   7.035  1.00 20.00     0.012 C 
HETATM    2  C2  UNL     1     -25.423  18.988   7.760  1.00 20.00    -0.113 C 
HETATM    3  C10 UNL     1     -24.282  19.263   8.635  1.00 20.00     0.127 C 
ENDROOT
BRANCH   3   4
HETATM    4  C3  UNL     1     -24.288  18.321   9.791  1.00 20.00    -0.060 C 
HETATM    5  C4  UNL     1     -25.109  18.313  10.855  1.00 20.00    -0.052 C 
HETATM    6  C7  UNL     1     -24.828  17.151  11.760  1.00 20.00     0.147 C 
HETATM    7  C8  UNL     1     -26.212  19.255  11.197  1.00 20.00     0.046 C 
HETATM    8  C5  UNL     1     -23.470  16.651  11.272  1.00 20.00     0.045 C 
HETATM    9  C6  UNL     1     -23.343  17.144   9.822  1.00 20.00     0.014 C 
HETATM   10  C9  UNL     1     -21.896  17.469   9.470  1.00 20.00     0.015 C 
BRANCH   6  11
HETATM   11  O11 UNL     1     -25.831  16.163  11.584  1.00 20.00    -0.391 OA
HETATM   12  H25 UNL     1     -25.974  16.072  10.628  1.00 20.00     0.210 HD
ENDBRANCH   6  11
ENDBRANCH   3   4
TORSDOF 2
ENDMDL
MODEL 2
REMARK VINA RESULT:      -4.9     15.212     16.369
REMARK  2 active torsions:
REMARK  status: ('A' for Active; 'I' for Inactive)
REMARK    1  A    between atoms: C3_3  and  C10_10 
REMARK    2  A    between atoms: C7_7  and  O11_11 
ROOT
HETATM    1  C1  UNL     1     -32.951   8.352   0.732  1.00 20.00     0.012 C 
HETATM    2  C2  UNL     1     -32.592   7.833   1.753  1.00 20.00    -0.113 C 
HETATM    3  C10 UNL     1     -32.144   7.205   2.998  1.00 20.00     0.127 C 
ENDROOT
BRANCH   3   4
HETATM    4  C3  UNL     1     -33.158   6.216   3.464  1.00 20.00    -0.060 C 
HETATM    5  C4  UNL     1     -33.858   6.220   4.611  1.00 20.00    -0.052 C 
HETATM    6  C7  UNL     1     -34.833   5.081   4.666  1.00 20.00     0.147 C 
HETATM    7  C8  UNL     1     -33.795   7.182   5.748  1.00 20.00     0.046 C 
HETATM    8  C5  UNL     1     -34.368   4.171   3.531  1.00 20.00     0.045 C 
HETATM    9  C6  UNL     1     -33.581   5.076   2.570  1.00 20.00     0.014 C 
HETATM   10  C9  UNL     1     -32.436   4.319   1.906  1.00 20.00     0.015 C 
BRANCH   6  11
HETATM   11  O11 UNL     1     -36.143   5.570   4.427  1.00 20.00    -0.391 OA
HETATM   12  H25 UNL     1     -36.121   6.032   3.573  1.00 20.00     0.210 HD
ENDBRANCH   6  11
ENDBRANCH   3   4
TORSDOF 2
ENDMDL
MODEL 3
REMARK VINA RESULT:      -4.6     15.890     17.729
REMARK  2 active torsions:
REMARK  status: ('A' for Active; 'I' for Inactive)
REMARK    1  A    between atoms: C3_3  and  C10_10 
REMARK    2  A    between atoms: C7_7  and  O11_11 
ROOT
HETATM    1  C1  UNL     1     -32.841  18.143  -3.146  1.00 20.00     0.012 C 
HETATM    2  C2  UNL     1     -33.533  17.272  -2.694  1.00 20.00    -0.113 C 
HETATM    3  C10 UNL     1     -34.373  16.213  -2.132  1.00 20.00     0.127 C 
ENDROOT
BRANCH   3   4
HETATM    4  C3  UNL     1     -35.089  15.496  -3.225  1.00 20.00    -0.060 C 
HETATM    5  C4  UNL     1     -34.584  14.641  -4.130  1.00 20.00    -0.052 C 
HETATM    6  C7  UNL     1     -35.655  14.080  -5.017  1.00 20.00     0.147 C 
HETATM    7  C8  UNL     1     -33.173  14.197  -4.318  1.00 20.00     0.046 C 
HETATM    8  C5  UNL     1     -36.845  15.000  -4.750  1.00 20.00     0.045 C 
HETATM    9  C6  UNL     1     -36.587  15.618  -3.366  1.00 20.00     0.014 C 
HETATM   10  C9  UNL     1     -37.128  17.041  -3.284  1.00 20.00     0.015 C 
BRANCH   6  11
HETATM   11  O11 UNL     1     -35.941  12.746  -4.628  1.00 20.00    -0.391 OA
HETATM   12  H25 UNL     1     -35.895  12.202  -5.431  1.00 20.00     0.210 HD
ENDBRANCH   6  11
ENDBRANCH   3   4
TORSDOF 2
ENDMDL
MODEL 4
REMARK VINA RESULT:      -4.6      1.135      2.659
REMARK  2 active torsions:
REMARK  status: ('A' for Active; 'I' for Inactive)
REMARK    1  A    between atoms: C3_3  and  C10_10 
REMARK    2  A    between atoms: C7_7  and  O11_11 
ROOT
HETATM    1  C1  UNL     1     -26.133  18.421   7.074  1.00 20.00     0.012 C 
HETATM    2  C2  UNL     1     -25.391  18.796   7.942  1.00 20.00    -0.113 C 
HETATM    3  C10 UNL     1     -24.485  19.263   8.992  1.00 20.00     0.127 C 
ENDROOT
BRANCH   3   4
HETATM    4  C3  UNL     1     -24.469  18.289  10.121  1.00 20.00    -0.060 C 
HETATM    5  C4  UNL     1     -23.810  17.120  10.202  1.00 20.00    -0.052 C 
HETATM    6  C7  UNL     1     -24.002  16.472  11.542  1.00 20.00     0.147 C 
HETATM    7  C8  UNL     1     -22.946  16.455   9.186  1.00 20.00     0.046 C 
HETATM    8  C5  UNL     1     -25.172  17.249  12.140  1.00 20.00     0.045 C 
HETATM    9  C6  UNL     1     -25.187  18.603  11.411  1.00 20.00     0.014 C 
HETATM   10  C9  UNL     1     -26.607  19.129  11.246  1.00 20.00     0.015 C 
BRANCH   6  11
HETATM   11  O11 UNL     1     -22.825  16.638  12.318  1.00 20.00    -0.391 OA
HETATM   12  H25 UNL     1     -22.638  17.590  12.348  1.00 20.00     0.210 HD
ENDBRANCH   6  11
ENDBRANCH   3   4
TORSDOF 2
ENDMDL
MODEL 5
REMARK VINA RESULT:      -4.3     15.427     17.751
REMARK  2 active torsions:
REMARK  status: ('A' for Active; 'I' for Inactive)
REMARK    1  A    between atoms: C3_3  and  C10_10 
REMARK    2  A    between atoms: C7_7  and  O11_11 
ROOT
HETATM    1  C1  UNL     1     -35.375  16.981  -0.329  1.00 20.00     0.012 C 
HETATM    2  C2  UNL     1     -34.860  16.816  -1.401  1.00 20.00    -0.113 C 
HETATM    3  C10 UNL     1     -34.224  16.623  -2.706  1.00 20.00     0.127 C 
ENDROOT
BRANCH   3   4
HETATM    4  C3  UNL     1     -35.016  15.659  -3.521  1.00 20.00    -0.060 C 
HETATM    5  C4  UNL     1     -34.571  14.606  -4.229  1.00 20.00    -0.052 C 
HETATM    6  C7  UNL     1     -35.703  13.844  -4.853  1.00 20.00     0.147 C 
HETATM    7  C8  UNL     1     -33.173  14.130  -4.428  1.00 20.00     0.046 C 
HETATM    8  C5  UNL     1     -36.885  14.801  -4.715  1.00 20.00     0.045 C 
HETATM    9  C6  UNL     1     -36.523  15.742  -3.554  1.00 20.00     0.014 C 
HETATM   10  C9  UNL     1     -37.086  17.140  -3.777  1.00 20.00     0.015 C 
BRANCH   6  11
HETATM   11  O11 UNL     1     -35.923  12.647  -4.123  1.00 20.00    -0.391 OA
HETATM   12  H25 UNL     1     -35.226  12.595  -3.448  1.00 20.00     0.210 HD
ENDBRANCH   6  11
ENDBRANCH   3   4
TORSDOF 2
ENDMDL
MODEL 6
REMARK VINA RESULT:      -4.3     12.139     14.773
REMARK  2 active torsions:
REMARK  status: ('A' for Active; 'I' for Inactive)
REMARK    1  A    between atoms: C3_3  and  C10_10 
REMARK    2  A    between atoms: C7_7  and  O11_11 
ROOT
HETATM    1  C1  UNL     1     -30.683  18.197   0.224  1.00 20.00     0.012 C 
HETATM    2  C2  UNL     1     -31.426  18.350  -0.708  1.00 20.00    -0.113 C 
HETATM    3  C10 UNL     1     -32.323  18.545  -1.848  1.00 20.00     0.127 C 
ENDROOT
BRANCH   3   4
HETATM    4  C3  UNL     1     -33.550  17.716  -1.678  1.00 20.00    -0.060 C 
HETATM    5  C4  UNL     1     -34.406  17.697  -0.642  1.00 20.00    -0.052 C 
HETATM    6  C7  UNL     1     -35.557  16.769  -0.895  1.00 20.00     0.147 C 
HETATM    7  C8  UNL     1     -34.353  18.465   0.634  1.00 20.00     0.046 C 
HETATM    8  C5  UNL     1     -35.087  15.950  -2.094  1.00 20.00     0.045 C 
HETATM    9  C6  UNL     1     -34.020  16.810  -2.791  1.00 20.00     0.014 C 
HETATM   10  C9  UNL     1     -32.933  15.945  -3.420  1.00 20.00     0.015 C 
BRANCH   6  11
HETATM   11  O11 UNL     1     -36.713  17.528  -1.213  1.00 20.00    -0.391 OA
HETATM   12  H25 UNL     1     -37.341  17.406  -0.482  1.00 20.00     0.210 HD
ENDBRANCH   6  11
ENDBRANCH   3   4
TORSDOF 2
ENDMDL
MODEL 7
REMARK VINA RESULT:      -4.3     15.383     17.563
REMARK  2 active torsions:
REMARK  status: ('A' for Active; 'I' for Inactive)
REMARK    1  A    between atoms: C3_3  and  C10_10 
REMARK    2  A    between atoms: C7_7  and  O11_11 
ROOT
HETATM    1  C1  UNL     1     -37.291  18.005  -4.971  1.00 20.00     0.012 C 
HETATM    2  C2  UNL     1     -36.824  17.325  -4.098  1.00 20.00    -0.113 C 
HETATM    3  C10 UNL     1     -36.263  16.500  -3.026  1.00 20.00     0.127 C 
ENDROOT
BRANCH   3   4
HETATM    4  C3  UNL     1     -35.015  15.833  -3.496  1.00 20.00    -0.060 C 
HETATM    5  C4  UNL     1     -34.887  14.642  -4.105  1.00 20.00    -0.052 C 
HETATM    6  C7  UNL     1     -33.461  14.366  -4.481  1.00 20.00     0.147 C 
HETATM    7  C8  UNL     1     -35.939  13.643  -4.447  1.00 20.00     0.046 C 
HETATM    8  C5  UNL     1     -32.683  15.412  -3.686  1.00 20.00     0.045 C 
HETATM    9  C6  UNL     1     -33.686  16.540  -3.393  1.00 20.00     0.014 C 
HETATM   10  C9  UNL     1     -33.407  17.196  -2.046  1.00 20.00     0.015 C 
BRANCH   6  11
HETATM   11  O11 UNL     1     -33.297  14.556  -5.877  1.00 20.00    -0.391 OA
HETATM   12  H25 UNL     1     -34.121  14.951  -6.208  1.00 20.00     0.210 HD
ENDBRANCH   6  11
ENDBRANCH   3   4
TORSDOF 2
ENDMDL
MODEL 8
REMARK VINA RESULT:      -4.3      1.452      2.112
REMARK  2 active torsions:
REMARK  status: ('A' for Active; 'I' for Inactive)
REMARK    1  A    between atoms: C3_3  and  C10_10 
REMARK    2  A    between atoms: C7_7  and  O11_11 
ROOT
HETATM    1  C1  UNL     1     -21.673  17.070   7.689  1.00 20.00     0.012 C 
HETATM    2  C2  UNL     1     -22.290  17.908   8.288  1.00 20.00    -0.113 C 
HETATM    3  C10 UNL     1     -23.039  18.937   9.012  1.00 20.00     0.127 C 
ENDROOT
BRANCH   3   4
HETATM    4  C3  UNL     1     -23.700  18.340  10.208  1.00 20.00    -0.060 C 
HETATM    5  C4  UNL     1     -24.980  18.463  10.598  1.00 20.00    -0.052 C 
HETATM    6  C7  UNL     1     -25.263  17.644  11.823  1.00 20.00     0.147 C 
HETATM    7  C8  UNL     1     -26.082  19.249   9.975  1.00 20.00     0.046 C 
HETATM    8  C5  UNL     1     -23.869  17.285  12.331  1.00 20.00     0.045 C 
HETATM    9  C6  UNL     1     -22.940  17.400  11.111  1.00 20.00     0.014 C 
HETATM   10  C9  UNL     1     -21.550  17.876  11.514  1.00 20.00     0.015 C 
BRANCH   6  11
HETATM   11  O11 UNL     1     -25.989  16.481  11.455  1.00 20.00    -0.391 OA
HETATM   12  H25 UNL     1     -26.556  16.252  12.210  1.00 20.00     0.210 HD
ENDBRANCH   6  11
ENDBRANCH   3   4
TORSDOF 2
ENDMDL
MODEL 9
REMARK VINA RESULT:      -4.3     15.589     18.086
REMARK  2 active torsions:
REMARK  status: ('A' for Active; 'I' for Inactive)
REMARK    1  A    between atoms: C3_3  and  C10_10 
REMARK    2  A    between atoms: C7_7  and  O11_11 
ROOT
HETATM    1  C1  UNL     1     -35.451  17.039  -0.321  1.00 20.00     0.012 C 
HETATM    2  C2  UNL     1     -34.962  16.659  -1.351  1.00 20.00    -0.113 C 
HETATM    3  C10 UNL     1     -34.357  16.200  -2.601  1.00 20.00     0.127 C 
ENDROOT
BRANCH   3   4
HETATM    4  C3  UNL     1     -35.420  15.785  -3.561  1.00 20.00    -0.060 C 
HETATM    5  C4  UNL     1     -35.611  14.579  -4.121  1.00 20.00    -0.052 C 
HETATM    6  C7  UNL     1     -36.842  14.558  -4.978  1.00 20.00     0.147 C 
HETATM    7  C8  UNL     1     -34.803  13.335  -3.973  1.00 20.00     0.046 C 
HETATM    8  C5  UNL     1     -37.176  16.039  -5.144  1.00 20.00     0.045 C 
HETATM    9  C6  UNL     1     -36.515  16.748  -3.951  1.00 20.00     0.014 C 
HETATM   10  C9  UNL     1     -36.039  18.146  -4.329  1.00 20.00     0.015 C 
BRANCH   6  11
HETATM   11  O11 UNL     1     -37.880  13.872  -4.297  1.00 20.00    -0.391 OA
HETATM   12  H25 UNL     1     -37.553  12.975  -4.115  1.00 20.00     0.210 HD
ENDBRANCH   6  11
ENDBRANCH   3   4
TORSDOF 2
ENDMDL
