MODEL 1
REMARK VINA RESULT:      -5.1      0.000      0.000
REMARK  0 active torsions:
REMARK  status: ('A' for Active; 'I' for Inactive)
ROOT
HETATM    1  C1  UNL     1     -32.525   7.099   2.490  1.00 20.00    -0.039 C 
HETATM    2  C2  UNL     1     -33.235   5.831   2.647  1.00 20.00     0.034 C 
HETATM    3  C3  UNL     1     -34.443   4.909   4.673  1.00 20.00     0.224 C 
HETATM    4  C4  UNL     1     -32.009   7.620   1.371  1.00 20.00     0.021 C 
HETATM    5  C5  UNL     1     -33.219   4.785   1.814  1.00 20.00     0.044 C 
HETATM    6  C6  UNL     1     -32.533   7.798   3.842  1.00 20.00     0.065 C 
HETATM    7  C7  UNL     1     -34.647   5.578   6.023  1.00 20.00     0.105 C 
HETATM    8  C8  UNL     1     -33.705   6.793   5.973  1.00 20.00     0.035 C 
HETATM    9  C9  UNL     1     -33.742   7.163   4.507  1.00 20.00     0.098 C 
HETATM   10  N10 UNL     1     -33.858   5.874   3.865  1.00 20.00    -0.313 N 
HETATM   11  O11 UNL     1     -34.737   3.752   4.417  1.00 20.00    -0.273 OA
ENDROOT
TORSDOF 0
ENDMDL
MODEL 2
REMARK VINA RESULT:      -5.1     16.364     16.961
REMARK  0 active torsions:
REMARK  status: ('A' for Active; 'I' for Inactive)
ROOT
HETATM    1  C1  UNL     1     -24.566  18.253  11.206  1.00 20.00    -0.039 C 
HETATM    2  C2  UNL     1     -24.739  18.531   9.781  1.00 20.00     0.034 C 
HETATM    3  C3  UNL     1     -23.141  18.117   7.861  1.00 20.00     0.224 C 
HETATM    4  C4  UNL     1     -25.477  18.360  12.181  1.00 20.00     0.021 C 
HETATM    5  C5  UNL     1     -25.701  19.263   9.209  1.00 20.00     0.044 C 
HETATM    6  C6  UNL     1     -23.152  17.727  11.401  1.00 20.00     0.065 C 
HETATM    7  C7  UNL     1     -21.769  17.462   7.912  1.00 20.00     0.105 C 
HETATM    8  C8  UNL     1     -21.457  17.389   9.416  1.00 20.00     0.035 C 
HETATM    9  C9  UNL     1     -22.831  17.191  10.016  1.00 20.00     0.098 C 
HETATM   10  N10 UNL     1     -23.668  17.972   9.136  1.00 20.00    -0.313 N 
HETATM   11  O11 UNL     1     -23.618  18.658   6.876  1.00 20.00    -0.273 OA
ENDROOT
TORSDOF 0
ENDMDL
MODEL 3
REMARK VINA RESULT:      -4.8     15.996     16.970
REMARK  0 active torsions:
REMARK  status: ('A' for Active; 'I' for Inactive)
ROOT
HETATM    1  C1  UNL     1     -23.400  18.006  11.125  1.00 20.00    -0.039 C 
HETATM    2  C2  UNL     1     -22.831  18.078   9.780  1.00 20.00     0.034 C 
HETATM    3  C3  UNL     1     -23.933  18.770   7.607  1.00 20.00     0.224 C 
HETATM    4  C4  UNL     1     -22.762  17.765  12.276  1.00 20.00     0.021 C 
HETATM    5  C5  UNL     1     -21.656  17.591   9.370  1.00 20.00     0.044 C 
HETATM    6  C6  UNL     1     -24.881  18.338  11.013  1.00 20.00     0.065 C 
HETATM    7  C7  UNL     1     -25.357  19.263   7.398  1.00 20.00     0.105 C 
HETATM    8  C8  UNL     1     -26.048  18.960   8.738  1.00 20.00     0.035 C 
HETATM    9  C9  UNL     1     -24.918  19.144   9.726  1.00 20.00     0.098 C 
HETATM   10  N10 UNL     1     -23.775  18.667   8.982  1.00 20.00    -0.313 N 
HETATM   11  O11 UNL     1     -23.145  18.515   6.711  1.00 20.00    -0.273 OA
ENDROOT
TORSDOF 0
ENDMDL
MODEL 4
REMARK VINA RESULT:      -4.7     16.057     16.607
REMARK  0 active torsions:
REMARK  status: ('A' for Active; 'I' for Inactive)
ROOT
HETATM    1  C1  UNL     1     -22.918  17.782   8.893  1.00 20.00    -0.039 C 
HETATM    2  C2  UNL     1     -24.222  18.442   8.914  1.00 20.00     0.034 C 
HETATM    3  C3  UNL     1     -25.789  18.838  10.863  1.00 20.00     0.224 C 
HETATM    4  C4  UNL     1     -22.052  17.703   7.876  1.00 20.00     0.021 C 
HETATM    5  C5  UNL     1     -24.968  18.795   7.862  1.00 20.00     0.044 C 
HETATM    6  C6  UNL     1     -22.656  17.244  10.292  1.00 20.00     0.065 C 
HETATM    7  C7  UNL     1     -25.569  18.481  12.325  1.00 20.00     0.105 C 
HETATM    8  C8  UNL     1     -24.330  17.570  12.296  1.00 20.00     0.035 C 
HETATM    9  C9  UNL     1     -23.545  18.141  11.136  1.00 20.00     0.098 C 
HETATM   10  N10 UNL     1     -24.588  18.554  10.228  1.00 20.00    -0.313 N 
HETATM   11  O11 UNL     1     -26.835  19.263  10.400  1.00 20.00    -0.273 OA
ENDROOT
TORSDOF 0
ENDMDL
MODEL 5
REMARK VINA RESULT:      -4.4     16.307     16.787
REMARK  0 active torsions:
REMARK  status: ('A' for Active; 'I' for Inactive)
ROOT
HETATM    1  C1  UNL     1     -24.256  18.868   8.016  1.00 20.00    -0.039 C 
HETATM    2  C2  UNL     1     -23.251  18.310   8.919  1.00 20.00     0.034 C 
HETATM    3  C3  UNL     1     -23.400  17.868  11.408  1.00 20.00     0.224 C 
HETATM    4  C4  UNL     1     -24.199  18.969   6.683  1.00 20.00     0.021 C 
HETATM    5  C5  UNL     1     -21.955  18.106   8.662  1.00 20.00     0.044 C 
HETATM    6  C6  UNL     1     -25.459  19.263   8.860  1.00 20.00     0.065 C 
HETATM    7  C7  UNL     1     -24.595  18.079  12.324  1.00 20.00     0.105 C 
HETATM    8  C8  UNL     1     -25.575  18.893  11.463  1.00 20.00     0.035 C 
HETATM    9  C9  UNL     1     -25.289  18.367  10.074  1.00 20.00     0.098 C 
HETATM   10  N10 UNL     1     -23.868  18.113  10.125  1.00 20.00    -0.313 N 
HETATM   11  O11 UNL     1     -22.279  17.564  11.784  1.00 20.00    -0.273 OA
ENDROOT
TORSDOF 0
ENDMDL
MODEL 6
REMARK VINA RESULT:      -4.4     11.382     12.642
REMARK  0 active torsions:
REMARK  status: ('A' for Active; 'I' for Inactive)
ROOT
HETATM    1  C1  UNL     1     -34.516  16.237  -3.097  1.00 20.00    -0.039 C 
HETATM    2  C2  UNL     1     -35.266  15.118  -3.663  1.00 20.00     0.034 C 
HETATM    3  C3  UNL     1     -37.737  14.946  -4.194  1.00 20.00     0.224 C 
HETATM    4  C4  UNL     1     -33.192  16.348  -2.949  1.00 20.00     0.021 C 
HETATM    5  C5  UNL     1     -34.843  13.860  -3.830  1.00 20.00     0.044 C 
HETATM    6  C6  UNL     1     -35.517  17.332  -2.757  1.00 20.00     0.065 C 
HETATM    7  C7  UNL     1     -38.802  16.021  -4.040  1.00 20.00     0.105 C 
HETATM    8  C8  UNL     1     -38.099  17.115  -3.219  1.00 20.00     0.035 C 
HETATM    9  C9  UNL     1     -36.667  16.995  -3.691  1.00 20.00     0.098 C 
HETATM   10  N10 UNL     1     -36.532  15.576  -3.915  1.00 20.00    -0.313 N 
HETATM   11  O11 UNL     1     -37.959  13.782  -4.486  1.00 20.00    -0.273 OA
ENDROOT
TORSDOF 0
ENDMDL
MODEL 7
REMARK VINA RESULT:      -4.2     12.459     13.172
REMARK  0 active torsions:
REMARK  status: ('A' for Active; 'I' for Inactive)
ROOT
HETATM    1  C1  UNL     1     -34.305  18.242   1.785  1.00 20.00    -0.039 C 
HETATM    2  C2  UNL     1     -32.928  18.515   1.377  1.00 20.00     0.034 C 
HETATM    3  C3  UNL     1     -31.835  18.208  -0.887  1.00 20.00     0.224 C 
HETATM    4  C4  UNL     1     -34.891  18.537   2.951  1.00 20.00     0.021 C 
HETATM    5  C5  UNL     1     -31.887  18.789   2.170  1.00 20.00     0.044 C 
HETATM    6  C6  UNL     1     -35.017  17.614   0.596  1.00 20.00     0.065 C 
HETATM    7  C7  UNL     1     -32.481  17.734  -2.180  1.00 20.00     0.105 C 
HETATM    8  C8  UNL     1     -33.853  17.205  -1.728  1.00 20.00     0.035 C 
HETATM    9  C9  UNL     1     -34.177  18.116  -0.565  1.00 20.00     0.098 C 
HETATM   10  N10 UNL     1     -32.877  18.348   0.018  1.00 20.00    -0.313 N 
HETATM   11  O11 UNL     1     -30.638  18.392  -0.733  1.00 20.00    -0.273 OA
ENDROOT
TORSDOF 0
ENDMDL
MODEL 8
REMARK VINA RESULT:      -4.2     12.173     12.894
REMARK  0 active torsions:
REMARK  status: ('A' for Active; 'I' for Inactive)
ROOT
HETATM    1  C1  UNL     1     -34.427  16.783  -1.834  1.00 20.00    -0.039 C 
HETATM    2  C2  UNL     1     -34.634  17.395  -0.523  1.00 20.00     0.034 C 
HETATM    3  C3  UNL     1     -33.031  18.767   0.877  1.00 20.00     0.224 C 
HETATM    4  C4  UNL     1     -35.332  16.175  -2.610  1.00 20.00     0.021 C 
HETATM    5  C5  UNL     1     -35.652  17.185   0.318  1.00 20.00     0.044 C 
HETATM    6  C6  UNL     1     -32.977  17.022  -2.226  1.00 20.00     0.065 C 
HETATM    7  C7  UNL     1     -31.615  19.197   0.525  1.00 20.00     0.105 C 
HETATM    8  C8  UNL     1     -31.283  18.364  -0.725  1.00 20.00     0.035 C 
HETATM    9  C9  UNL     1     -32.633  18.247  -1.396  1.00 20.00     0.098 C 
HETATM   10  N10 UNL     1     -33.533  18.169  -0.270  1.00 20.00    -0.313 N 
HETATM   11  O11 UNL     1     -33.556  18.926   1.968  1.00 20.00    -0.273 OA
ENDROOT
TORSDOF 0
ENDMDL
MODEL 9
REMARK VINA RESULT:      -4.2     11.234     12.516
REMARK  0 active torsions:
REMARK  status: ('A' for Active; 'I' for Inactive)
ROOT
HETATM    1  C1  UNL     1     -37.049  16.887  -3.569  1.00 20.00    -0.039 C 
HETATM    2  C2  UNL     1     -37.169  15.468  -3.898  1.00 20.00     0.034 C 
HETATM    3  C3  UNL     1     -35.351  13.725  -4.169  1.00 20.00     0.224 C 
HETATM    4  C4  UNL     1     -38.032  17.754  -3.303  1.00 20.00     0.021 C 
HETATM    5  C5  UNL     1     -38.257  14.826  -4.337  1.00 20.00     0.044 C 
HETATM    6  C6  UNL     1     -35.566  17.216  -3.499  1.00 20.00     0.065 C 
HETATM    7  C7  UNL     1     -33.852  13.901  -3.976  1.00 20.00     0.105 C 
HETATM    8  C8  UNL     1     -33.675  15.426  -3.877  1.00 20.00     0.035 C 
HETATM    9  C9  UNL     1     -34.962  15.852  -3.209  1.00 20.00     0.098 C 
HETATM   10  N10 UNL     1     -35.920  14.922  -3.759  1.00 20.00    -0.313 N 
HETATM   11  O11 UNL     1     -35.883  12.721  -4.615  1.00 20.00    -0.273 OA
ENDROOT
TORSDOF 0
ENDMDL
