MODEL 1
REMARK VINA RESULT:      -4.8      0.000      0.000
REMARK  1 active torsions:
REMARK  status: ('A' for Active; 'I' for Inactive)
REMARK    1  A    between atoms: C2_2  and  C3_3 
ROOT
HETATM    1  C1  UNL     1     -33.061  16.650  -3.476  1.00 20.00    -0.007 C 
HETATM    2  C2  UNL     1     -33.846  15.585  -3.654  1.00 20.00    -0.012 C 
HETATM    3  C4  UNL     1     -34.643  16.639  -1.699  1.00 20.00     0.022 C 
HETATM    4  C5  UNL     1     -35.003  15.533  -2.711  1.00 20.00     0.019 C 
HETATM    5  C6  UNL     1     -33.557  17.526  -2.359  1.00 20.00    -0.029 C 
HETATM    6  C8  UNL     1     -36.338  15.783  -3.401  1.00 20.00     0.015 C 
HETATM    7  C9  UNL     1     -34.149  18.826  -2.916  1.00 20.00     0.019 C 
HETATM    8  C10 UNL     1     -32.436  17.850  -1.367  1.00 20.00     0.019 C 
ENDROOT
BRANCH   2   9
HETATM    9  C3  UNL     1     -33.576  14.577  -4.666  1.00 20.00     0.151 C 
HETATM   10  C7  UNL     1     -33.842  14.921  -6.115  1.00 20.00     0.096 C 
HETATM   11  O11 UNL     1     -33.144  13.458  -4.355  1.00 20.00    -0.293 OA
ENDBRANCH   2   9
TORSDOF 1
ENDMDL
MODEL 2
REMARK VINA RESULT:      -4.6      2.108      3.696
REMARK  1 active torsions:
REMARK  status: ('A' for Active; 'I' for Inactive)
REMARK    1  A    between atoms: C2_2  and  C3_3 
ROOT
HETATM    1  C1  UNL     1     -35.330  15.036  -3.540  1.00 20.00    -0.007 C 
HETATM    2  C2  UNL     1     -36.265  15.306  -4.455  1.00 20.00    -0.012 C 
HETATM    3  C4  UNL     1     -34.360  16.533  -5.115  1.00 20.00     0.022 C 
HETATM    4  C5  UNL     1     -35.755  16.102  -5.611  1.00 20.00     0.019 C 
HETATM    5  C6  UNL     1     -33.994  15.612  -3.923  1.00 20.00    -0.029 C 
HETATM    6  C8  UNL     1     -35.695  15.294  -6.902  1.00 20.00     0.015 C 
HETATM    7  C9  UNL     1     -33.029  14.498  -4.343  1.00 20.00     0.019 C 
HETATM    8  C10 UNL     1     -33.387  16.420  -2.773  1.00 20.00     0.019 C 
ENDROOT
BRANCH   2   9
HETATM    9  C3  UNL     1     -37.644  14.870  -4.313  1.00 20.00     0.151 C 
HETATM   10  C7  UNL     1     -38.709  15.916  -4.066  1.00 20.00     0.096 C 
HETATM   11  O11 UNL     1     -37.946  13.670  -4.384  1.00 20.00    -0.293 OA
ENDBRANCH   2   9
TORSDOF 1
ENDMDL
MODEL 3
REMARK VINA RESULT:      -4.5      2.326      4.316
REMARK  1 active torsions:
REMARK  status: ('A' for Active; 'I' for Inactive)
REMARK    1  A    between atoms: C2_2  and  C3_3 
ROOT
HETATM    1  C1  UNL     1     -35.255  16.038  -2.456  1.00 20.00    -0.007 C 
HETATM    2  C2  UNL     1     -34.415  16.818  -1.771  1.00 20.00    -0.012 C 
HETATM    3  C4  UNL     1     -33.124  15.861  -3.500  1.00 20.00     0.022 C 
HETATM    4  C5  UNL     1     -33.070  16.947  -2.407  1.00 20.00     0.019 C 
HETATM    5  C6  UNL     1     -34.616  15.492  -3.703  1.00 20.00    -0.029 C 
HETATM    6  C8  UNL     1     -32.818  18.338  -2.976  1.00 20.00     0.015 C 
HETATM    7  C9  UNL     1     -35.202  16.167  -4.948  1.00 20.00     0.019 C 
HETATM    8  C10 UNL     1     -34.797  13.974  -3.800  1.00 20.00     0.019 C 
ENDROOT
BRANCH   2   9
HETATM    9  C3  UNL     1     -34.788  17.458  -0.521  1.00 20.00     0.151 C 
HETATM   10  C7  UNL     1     -36.258  17.660  -0.225  1.00 20.00     0.096 C 
HETATM   11  O11 UNL     1     -33.927  17.838   0.286  1.00 20.00    -0.293 OA
ENDBRANCH   2   9
TORSDOF 1
ENDMDL
MODEL 4
REMARK VINA RESULT:      -4.4      1.501      2.187
REMARK  1 active torsions:
REMARK  status: ('A' for Active; 'I' for Inactive)
REMARK    1  A    between atoms: C2_2  and  C3_3 
ROOT
HETATM    1  C1  UNL     1     -34.512  15.743  -2.327  1.00 20.00    -0.007 C 
HETATM    2  C2  UNL     1     -35.111  15.584  -3.510  1.00 20.00    -0.012 C 
HETATM    3  C4  UNL     1     -35.116  17.909  -3.106  1.00 20.00     0.022 C 
HETATM    4  C5  UNL     1     -35.398  16.871  -4.210  1.00 20.00     0.019 C 
HETATM    5  C6  UNL     1     -34.283  17.195  -2.011  1.00 20.00    -0.029 C 
HETATM    6  C8  UNL     1     -34.528  17.078  -5.444  1.00 20.00     0.015 C 
HETATM    7  C9  UNL     1     -32.793  17.540  -2.118  1.00 20.00     0.019 C 
HETATM    8  C10 UNL     1     -34.798  17.548  -0.613  1.00 20.00     0.019 C 
ENDROOT
BRANCH   2   9
HETATM    9  C3  UNL     1     -35.454  14.275  -4.041  1.00 20.00     0.151 C 
HETATM   10  C7  UNL     1     -36.853  14.059  -4.578  1.00 20.00     0.096 C 
HETATM   11  O11 UNL     1     -34.628  13.351  -4.050  1.00 20.00    -0.293 OA
ENDBRANCH   2   9
TORSDOF 1
ENDMDL
MODEL 5
REMARK VINA RESULT:      -4.3      1.909      4.304
REMARK  1 active torsions:
REMARK  status: ('A' for Active; 'I' for Inactive)
REMARK    1  A    between atoms: C2_2  and  C3_3 
ROOT
HETATM    1  C1  UNL     1     -36.313  16.084  -3.563  1.00 20.00    -0.007 C 
HETATM    2  C2  UNL     1     -35.139  15.708  -3.049  1.00 20.00    -0.012 C 
HETATM    3  C4  UNL     1     -35.851  13.900  -4.389  1.00 20.00     0.022 C 
HETATM    4  C5  UNL     1     -34.627  14.422  -3.609  1.00 20.00     0.019 C 
HETATM    5  C6  UNL     1     -36.813  15.100  -4.585  1.00 20.00    -0.029 C 
HETATM    6  C8  UNL     1     -33.404  14.611  -4.499  1.00 20.00     0.015 C 
HETATM    7  C9  UNL     1     -36.704  15.688  -5.997  1.00 20.00     0.019 C 
HETATM    8  C10 UNL     1     -38.261  14.694  -4.302  1.00 20.00     0.019 C 
ENDROOT
BRANCH   2   9
HETATM    9  C3  UNL     1     -34.449  16.482  -2.031  1.00 20.00     0.151 C 
HETATM   10  C7  UNL     1     -35.215  16.886  -0.790  1.00 20.00     0.096 C 
HETATM   11  O11 UNL     1     -33.263  16.814  -2.173  1.00 20.00    -0.293 OA
ENDBRANCH   2   9
TORSDOF 1
ENDMDL
MODEL 6
REMARK VINA RESULT:      -4.1      2.590      3.569
REMARK  1 active torsions:
REMARK  status: ('A' for Active; 'I' for Inactive)
REMARK    1  A    between atoms: C2_2  and  C3_3 
ROOT
HETATM    1  C1  UNL     1     -34.667  15.851  -5.239  1.00 20.00    -0.007 C 
HETATM    2  C2  UNL     1     -35.819  15.400  -5.743  1.00 20.00    -0.012 C 
HETATM    3  C4  UNL     1     -35.157  13.798  -4.140  1.00 20.00     0.022 C 
HETATM    4  C5  UNL     1     -36.350  14.199  -5.031  1.00 20.00     0.019 C 
HETATM    5  C6  UNL     1     -34.206  15.020  -4.074  1.00 20.00    -0.029 C 
HETATM    6  C8  UNL     1     -37.608  14.501  -4.224  1.00 20.00     0.015 C 
HETATM    7  C9  UNL     1     -34.371  15.795  -2.762  1.00 20.00     0.019 C 
HETATM    8  C10 UNL     1     -32.747  14.588  -4.242  1.00 20.00     0.019 C 
ENDROOT
BRANCH   2   9
HETATM    9  C3  UNL     1     -36.469  16.023  -6.883  1.00 20.00     0.151 C 
HETATM   10  C7  UNL     1     -36.779  17.502  -6.816  1.00 20.00     0.096 C 
HETATM   11  O11 UNL     1     -36.772  15.362  -7.887  1.00 20.00    -0.293 OA
ENDBRANCH   2   9
TORSDOF 1
ENDMDL
MODEL 7
REMARK VINA RESULT:      -4.1     11.620     12.620
REMARK  1 active torsions:
REMARK  status: ('A' for Active; 'I' for Inactive)
REMARK    1  A    between atoms: C2_2  and  C3_3 
ROOT
HETATM    1  C1  UNL     1     -34.028   6.577   4.178  1.00 20.00    -0.007 C 
HETATM    2  C2  UNL     1     -33.101   6.303   3.256  1.00 20.00    -0.012 C 
HETATM    3  C4  UNL     1     -33.937   4.209   3.953  1.00 20.00     0.022 C 
HETATM    4  C5  UNL     1     -33.044   4.860   2.877  1.00 20.00     0.019 C 
HETATM    5  C6  UNL     1     -34.779   5.342   4.594  1.00 20.00    -0.029 C 
HETATM    6  C8  UNL     1     -33.550   4.601   1.463  1.00 20.00     0.015 C 
HETATM    7  C9  UNL     1     -36.208   5.369   4.038  1.00 20.00     0.019 C 
HETATM    8  C10 UNL     1     -34.817   5.202   6.118  1.00 20.00     0.019 C 
ENDROOT
BRANCH   2   9
HETATM    9  C3  UNL     1     -32.231   7.325   2.698  1.00 20.00     0.151 C 
HETATM   10  C7  UNL     1     -32.581   7.911   1.347  1.00 20.00     0.096 C 
HETATM   11  O11 UNL     1     -31.220   7.706   3.305  1.00 20.00    -0.293 OA
ENDBRANCH   2   9
TORSDOF 1
ENDMDL
MODEL 8
REMARK VINA RESULT:      -4.0      2.708      4.775
REMARK  1 active torsions:
REMARK  status: ('A' for Active; 'I' for Inactive)
REMARK    1  A    between atoms: C2_2  and  C3_3 
ROOT
HETATM    1  C1  UNL     1     -32.656  17.556  -1.894  1.00 20.00    -0.007 C 
HETATM    2  C2  UNL     1     -32.645  18.192  -0.719  1.00 20.00    -0.012 C 
HETATM    3  C4  UNL     1     -34.880  18.287  -1.469  1.00 20.00     0.022 C 
HETATM    4  C5  UNL     1     -34.006  18.564  -0.230  1.00 20.00     0.019 C 
HETATM    5  C6  UNL     1     -34.055  17.381  -2.417  1.00 20.00    -0.029 C 
HETATM    6  C8  UNL     1     -34.438  17.752   0.986  1.00 20.00     0.015 C 
HETATM    7  C9  UNL     1     -34.487  15.913  -2.317  1.00 20.00     0.019 C 
HETATM    8  C10 UNL     1     -34.169  17.858  -3.868  1.00 20.00     0.019 C 
ENDROOT
BRANCH   2   9
HETATM    9  C3  UNL     1     -31.414  18.495  -0.008  1.00 20.00     0.151 C 
HETATM   10  C7  UNL     1     -31.504  19.263   1.293  1.00 20.00     0.096 C 
HETATM   11  O11 UNL     1     -30.313  18.143  -0.455  1.00 20.00    -0.293 OA
ENDBRANCH   2   9
TORSDOF 1
ENDMDL
MODEL 9
REMARK VINA RESULT:      -4.0      1.845      2.417
REMARK  1 active torsions:
REMARK  status: ('A' for Active; 'I' for Inactive)
REMARK    1  A    between atoms: C2_2  and  C3_3 
ROOT
HETATM    1  C1  UNL     1     -34.642  16.874  -5.018  1.00 20.00    -0.007 C 
HETATM    2  C2  UNL     1     -34.496  15.616  -5.443  1.00 20.00    -0.012 C 
HETATM    3  C4  UNL     1     -33.326  15.732  -3.397  1.00 20.00     0.022 C 
HETATM    4  C5  UNL     1     -33.834  14.723  -4.447  1.00 20.00     0.019 C 
HETATM    5  C6  UNL     1     -34.094  17.058  -3.630  1.00 20.00    -0.029 C 
HETATM    6  C8  UNL     1     -34.786  13.691  -3.854  1.00 20.00     0.015 C 
HETATM    7  C9  UNL     1     -35.234  17.237  -2.621  1.00 20.00     0.019 C 
HETATM    8  C10 UNL     1     -33.147  18.259  -3.561  1.00 20.00     0.019 C 
ENDROOT
BRANCH   2   9
HETATM    9  C3  UNL     1     -34.934  15.182  -6.759  1.00 20.00     0.151 C 
HETATM   10  C7  UNL     1     -33.966  15.304  -7.917  1.00 20.00     0.096 C 
HETATM   11  O11 UNL     1     -36.073  14.728  -6.938  1.00 20.00    -0.293 OA
ENDBRANCH   2   9
TORSDOF 1
ENDMDL
