MODEL 1
REMARK VINA RESULT:      -5.6      0.000      0.000
REMARK  1 active torsions:
REMARK  status: ('A' for Active; 'I' for Inactive)
REMARK    1  A    between atoms: C3_3  and  C9_9 
ROOT
HETATM    1  C1  UNL     1     -25.578  16.119  12.058  1.00 20.00    -0.030 C 
HETATM    2  C2  UNL     1     -24.305  15.856  11.722  1.00 20.00    -0.026 C 
HETATM    3  C4  UNL     1     -26.079  17.519  12.292  1.00 20.00     0.031 C 
HETATM    4  C5  UNL     1     -22.994  17.251  10.105  1.00 20.00     0.022 C 
HETATM    5  C6  UNL     1     -23.681  18.204  12.332  1.00 20.00     0.013 C 
HETATM    6  C7  UNL     1     -25.094  18.721  10.274  1.00 20.00     0.018 C 
HETATM    7  C8  UNL     1     -23.248  16.933  11.590  1.00 20.00     0.009 C 
HETATM    8  C9  UNL     1     -23.726  18.512   9.613  1.00 20.00     0.073 C 
HETATM    9  C10 UNL     1     -25.075  18.594  11.819  1.00 20.00    -0.010 C 
ENDROOT
BRANCH   8  10
HETATM   10  C3  UNL     1     -23.901  18.453   8.127  1.00 20.00     0.223 C 
HETATM   11  O11 UNL     1     -22.982  18.128   7.381  1.00 20.00    -0.279 OA
HETATM   12 CL12 UNL     1     -25.511  18.890   7.639  1.00 20.00    -0.043 Cl
ENDBRANCH   8  10
TORSDOF 1
ENDMDL
MODEL 2
REMARK VINA RESULT:      -5.2     16.785     18.060
REMARK  1 active torsions:
REMARK  status: ('A' for Active; 'I' for Inactive)
REMARK    1  A    between atoms: C3_3  and  C9_9 
ROOT
HETATM    1  C1  UNL     1     -34.171  18.367  -3.989  1.00 20.00    -0.030 C 
HETATM    2  C2  UNL     1     -35.454  18.121  -3.679  1.00 20.00    -0.026 C 
HETATM    3  C4  UNL     1     -33.032  17.580  -3.400  1.00 20.00     0.031 C 
HETATM    4  C5  UNL     1     -36.385  15.810  -3.410  1.00 20.00     0.022 C 
HETATM    5  C6  UNL     1     -34.695  16.693  -1.765  1.00 20.00     0.013 C 
HETATM    6  C7  UNL     1     -33.902  15.203  -3.675  1.00 20.00     0.018 C 
HETATM    7  C8  UNL     1     -35.872  17.064  -2.678  1.00 20.00     0.009 C 
HETATM    8  C9  UNL     1     -35.337  14.687  -3.511  1.00 20.00     0.073 C 
HETATM    9  C10 UNL     1     -33.510  16.309  -2.662  1.00 20.00    -0.010 C 
ENDROOT
BRANCH   8  10
HETATM   10  C3  UNL     1     -35.669  13.782  -4.658  1.00 20.00     0.223 C 
HETATM   11  O11 UNL     1     -35.866  12.581  -4.497  1.00 20.00    -0.279 OA
HETATM   12 CL12 UNL     1     -35.730  14.636  -6.170  1.00 20.00    -0.043 Cl
ENDBRANCH   8  10
TORSDOF 1
ENDMDL
MODEL 3
REMARK VINA RESULT:      -4.8     16.639     18.199
REMARK  1 active torsions:
REMARK  status: ('A' for Active; 'I' for Inactive)
REMARK    1  A    between atoms: C3_3  and  C9_9 
ROOT
HETATM    1  C1  UNL     1     -34.847  17.678  -1.944  1.00 20.00    -0.030 C 
HETATM    2  C2  UNL     1     -33.974  16.659  -1.993  1.00 20.00    -0.026 C 
HETATM    3  C4  UNL     1     -35.416  18.315  -3.183  1.00 20.00     0.031 C 
HETATM    4  C5  UNL     1     -34.166  14.762  -3.620  1.00 20.00     0.022 C 
HETATM    5  C6  UNL     1     -33.646  17.086  -4.440  1.00 20.00     0.013 C 
HETATM    6  C7  UNL     1     -36.052  16.250  -4.531  1.00 20.00     0.018 C 
HETATM    7  C8  UNL     1     -33.449  16.086  -3.293  1.00 20.00     0.009 C 
HETATM    8  C9  UNL     1     -35.301  14.918  -4.647  1.00 20.00     0.073 C 
HETATM    9  C10 UNL     1     -35.126  17.491  -4.458  1.00 20.00    -0.010 C 
ENDROOT
BRANCH   8  10
HETATM   10  C3  UNL     1     -36.276  13.789  -4.503  1.00 20.00     0.223 C 
HETATM   11  O11 UNL     1     -35.918  12.616  -4.552  1.00 20.00    -0.279 OA
HETATM   12 CL12 UNL     1     -37.903  14.355  -4.269  1.00 20.00    -0.043 Cl
ENDBRANCH   8  10
TORSDOF 1
ENDMDL
MODEL 4
REMARK VINA RESULT:      -4.8     16.178     17.839
REMARK  1 active torsions:
REMARK  status: ('A' for Active; 'I' for Inactive)
REMARK    1  A    between atoms: C3_3  and  C9_9 
ROOT
HETATM    1  C1  UNL     1     -35.444  15.393  -6.120  1.00 20.00    -0.030 C 
HETATM    2  C2  UNL     1     -34.145  15.162  -5.877  1.00 20.00    -0.026 C 
HETATM    3  C4  UNL     1     -36.524  15.064  -5.125  1.00 20.00     0.031 C 
HETATM    4  C5  UNL     1     -33.068  15.572  -3.651  1.00 20.00     0.022 C 
HETATM    5  C6  UNL     1     -34.787  13.750  -3.909  1.00 20.00     0.013 C 
HETATM    6  C7  UNL     1     -35.511  16.015  -2.991  1.00 20.00     0.018 C 
HETATM    7  C8  UNL     1     -33.648  14.510  -4.603  1.00 20.00     0.009 C 
HETATM    8  C9  UNL     1     -34.045  16.001  -2.542  1.00 20.00     0.073 C 
HETATM    9  C10 UNL     1     -35.958  14.726  -3.727  1.00 20.00    -0.010 C 
ENDROOT
BRANCH   8  10
HETATM   10  C3  UNL     1     -33.673  17.360  -2.032  1.00 20.00     0.223 C 
HETATM   11  O11 UNL     1     -33.963  17.725  -0.897  1.00 20.00    -0.279 OA
HETATM   12 CL12 UNL     1     -32.817  18.294  -3.222  1.00 20.00    -0.043 Cl
ENDBRANCH   8  10
TORSDOF 1
ENDMDL
MODEL 5
REMARK VINA RESULT:      -4.8     16.120     17.789
REMARK  1 active torsions:
REMARK  status: ('A' for Active; 'I' for Inactive)
REMARK    1  A    between atoms: C3_3  and  C9_9 
ROOT
HETATM    1  C1  UNL     1     -35.451  15.448  -6.107  1.00 20.00    -0.030 C 
HETATM    2  C2  UNL     1     -34.147  15.224  -5.884  1.00 20.00    -0.026 C 
HETATM    3  C4  UNL     1     -36.516  15.091  -5.105  1.00 20.00     0.031 C 
HETATM    4  C5  UNL     1     -33.046  15.606  -3.665  1.00 20.00     0.022 C 
HETATM    5  C6  UNL     1     -34.751  13.772  -3.933  1.00 20.00     0.013 C 
HETATM    6  C7  UNL     1     -35.485  16.014  -2.967  1.00 20.00     0.018 C 
HETATM    7  C8  UNL     1     -33.628  14.555  -4.628  1.00 20.00     0.009 C 
HETATM    8  C9  UNL     1     -34.013  16.006  -2.536  1.00 20.00     0.073 C 
HETATM    9  C10 UNL     1     -35.929  14.734  -3.720  1.00 20.00    -0.010 C 
ENDROOT
BRANCH   8  10
HETATM   10  C3  UNL     1     -33.648  17.360  -2.008  1.00 20.00     0.223 C 
HETATM   11  O11 UNL     1     -32.890  18.108  -2.619  1.00 20.00    -0.279 OA
HETATM   12 CL12 UNL     1     -34.412  17.696  -0.484  1.00 20.00    -0.043 Cl
ENDBRANCH   8  10
TORSDOF 1
ENDMDL
MODEL 6
REMARK VINA RESULT:      -4.7     16.604     17.972
REMARK  1 active torsions:
REMARK  status: ('A' for Active; 'I' for Inactive)
REMARK    1  A    between atoms: C3_3  and  C9_9 
ROOT
HETATM    1  C1  UNL     1     -35.239  18.529  -3.292  1.00 20.00    -0.030 C 
HETATM    2  C2  UNL     1     -35.615  17.631  -2.368  1.00 20.00    -0.026 C 
HETATM    3  C4  UNL     1     -33.966  18.389  -4.084  1.00 20.00     0.031 C 
HETATM    4  C5  UNL     1     -35.353  15.157  -2.668  1.00 20.00     0.022 C 
HETATM    5  C6  UNL     1     -33.321  16.627  -2.440  1.00 20.00     0.013 C 
HETATM    6  C7  UNL     1     -34.098  15.940  -4.768  1.00 20.00     0.018 C 
HETATM    7  C8  UNL     1     -34.778  16.422  -2.004  1.00 20.00     0.009 C 
HETATM    8  C9  UNL     1     -34.611  14.747  -3.953  1.00 20.00     0.073 C 
HETATM    9  C10 UNL     1     -33.325  16.991  -3.932  1.00 20.00    -0.010 C 
ENDROOT
BRANCH   8  10
HETATM   10  C3  UNL     1     -35.508  13.911  -4.814  1.00 20.00     0.223 C 
HETATM   11  O11 UNL     1     -35.875  12.791  -4.468  1.00 20.00    -0.279 OA
HETATM   12 CL12 UNL     1     -35.930  14.715  -6.295  1.00 20.00    -0.043 Cl
ENDBRANCH   8  10
TORSDOF 1
ENDMDL
MODEL 7
REMARK VINA RESULT:      -4.6     17.402     19.034
REMARK  1 active torsions:
REMARK  status: ('A' for Active; 'I' for Inactive)
REMARK    1  A    between atoms: C3_3  and  C9_9 
ROOT
HETATM    1  C1  UNL     1     -33.604  17.006  -3.393  1.00 20.00    -0.030 C 
HETATM    2  C2  UNL     1     -33.696  15.702  -3.087  1.00 20.00    -0.026 C 
HETATM    3  C4  UNL     1     -33.902  17.536  -4.769  1.00 20.00     0.031 C 
HETATM    4  C5  UNL     1     -35.536  14.221  -3.924  1.00 20.00     0.022 C 
HETATM    5  C6  UNL     1     -33.838  15.161  -5.529  1.00 20.00     0.013 C 
HETATM    6  C7  UNL     1     -36.088  16.333  -5.279  1.00 20.00     0.018 C 
HETATM    7  C8  UNL     1     -34.065  14.641  -4.103  1.00 20.00     0.009 C 
HETATM    8  C9  UNL     1     -36.493  14.898  -4.921  1.00 20.00     0.073 C 
HETATM    9  C10 UNL     1     -34.596  16.489  -5.669  1.00 20.00    -0.010 C 
ENDROOT
BRANCH   8  10
HETATM   10  C3  UNL     1     -37.885  14.902  -4.368  1.00 20.00     0.223 C 
HETATM   11  O11 UNL     1     -38.591  13.898  -4.388  1.00 20.00    -0.279 OA
HETATM   12 CL12 UNL     1     -38.332  16.455  -3.729  1.00 20.00    -0.043 Cl
ENDBRANCH   8  10
TORSDOF 1
ENDMDL
MODEL 8
REMARK VINA RESULT:      -4.6     13.302     15.063
REMARK  1 active torsions:
REMARK  status: ('A' for Active; 'I' for Inactive)
REMARK    1  A    between atoms: C3_3  and  C9_9 
ROOT
HETATM    1  C1  UNL     1     -34.120  15.796  -2.625  1.00 20.00    -0.030 C 
HETATM    2  C2  UNL     1     -35.026  16.279  -1.760  1.00 20.00    -0.026 C 
HETATM    3  C4  UNL     1     -33.103  16.674  -3.303  1.00 20.00     0.031 C 
HETATM    4  C5  UNL     1     -34.496  18.031  -0.049  1.00 20.00     0.022 C 
HETATM    5  C6  UNL     1     -34.463  18.605  -2.500  1.00 20.00     0.013 C 
HETATM    6  C7  UNL     1     -32.269  18.049  -1.329  1.00 20.00     0.018 C 
HETATM    7  C8  UNL     1     -35.139  17.751  -1.420  1.00 20.00     0.009 C 
HETATM    8  C9  UNL     1     -33.071  18.603  -0.145  1.00 20.00     0.073 C 
HETATM    9  C10 UNL     1     -33.029  18.085  -2.679  1.00 20.00    -0.010 C 
ENDROOT
BRANCH   8  10
HETATM   10  C3  UNL     1     -32.325  18.331   1.126  1.00 20.00     0.223 C 
HETATM   11  O11 UNL     1     -32.906  18.201   2.200  1.00 20.00    -0.279 OA
HETATM   12 CL12 UNL     1     -30.610  18.231   0.871  1.00 20.00    -0.043 Cl
ENDBRANCH   8  10
TORSDOF 1
ENDMDL
MODEL 9
REMARK VINA RESULT:      -4.6     17.564     19.173
REMARK  1 active torsions:
REMARK  status: ('A' for Active; 'I' for Inactive)
REMARK    1  A    between atoms: C3_3  and  C9_9 
ROOT
HETATM    1  C1  UNL     1     -33.203  14.826  -4.223  1.00 20.00    -0.030 C 
HETATM    2  C2  UNL     1     -33.775  14.829  -5.437  1.00 20.00    -0.026 C 
HETATM    3  C4  UNL     1     -33.504  15.872  -3.184  1.00 20.00     0.031 C 
HETATM    4  C5  UNL     1     -36.188  15.387  -5.818  1.00 20.00     0.022 C 
HETATM    5  C6  UNL     1     -34.588  17.162  -5.024  1.00 20.00     0.013 C 
HETATM    6  C7  UNL     1     -36.046  15.956  -3.317  1.00 20.00     0.018 C 
HETATM    7  C8  UNL     1     -34.739  15.905  -5.891  1.00 20.00     0.009 C 
HETATM    8  C9  UNL     1     -36.941  15.846  -4.557  1.00 20.00     0.073 C 
HETATM    9  C10 UNL     1     -34.729  16.738  -3.556  1.00 20.00    -0.010 C 
ENDROOT
BRANCH   8  10
HETATM   10  C3  UNL     1     -38.071  14.906  -4.268  1.00 20.00     0.223 C 
HETATM   11  O11 UNL     1     -37.944  13.691  -4.380  1.00 20.00    -0.279 OA
HETATM   12 CL12 UNL     1     -39.512  15.745  -3.776  1.00 20.00    -0.043 Cl
ENDBRANCH   8  10
TORSDOF 1
ENDMDL
