MODEL 1
REMARK VINA RESULT:      -5.0      0.000      0.000
REMARK  1 active torsions:
REMARK  status: ('A' for Active; 'I' for Inactive)
REMARK    1  A    between atoms: C1_1  and  C8_8 
ROOT
HETATM    1  C2  UNL     1     -34.118  16.304  -4.781  1.00 20.00     0.013 A 
HETATM    2  C3  UNL     1     -34.409  14.800  -3.250  1.00 20.00     0.013 A 
HETATM    3  C4  UNL     1     -35.813  16.440  -3.439  1.00 20.00     0.013 A 
HETATM    4  C5  UNL     1     -33.259  15.735  -3.645  1.00 20.00     0.006 A 
HETATM    5  C6  UNL     1     -34.667  17.379  -3.835  1.00 20.00     0.006 A 
HETATM    6  C7  UNL     1     -34.958  15.871  -2.298  1.00 20.00     0.006 A 
HETATM    7  C8  UNL     1     -35.265  15.368  -4.387  1.00 20.00     0.033 A 
HETATM    8  C9  UNL     1     -33.803  16.815  -2.687  1.00 20.00    -0.031 A 
HETATM    9  C11 UNL     1     -32.988  17.622  -1.740  1.00 20.00     0.016 C 
ENDROOT
BRANCH   7  10
HETATM   10  C1  UNL     1     -36.083  14.552  -5.340  1.00 20.00     0.133 C 
HETATM   11  C10 UNL     1     -35.779  14.714  -6.804  1.00 20.00     0.091 C 
HETATM   12  O12 UNL     1     -36.960  13.785  -4.943  1.00 20.00    -0.297 OA
ENDBRANCH   7  10
TORSDOF 1
ENDMDL
MODEL 2
REMARK VINA RESULT:      -5.0      1.206      2.108
REMARK  1 active torsions:
REMARK  status: ('A' for Active; 'I' for Inactive)
REMARK    1  A    between atoms: C1_1  and  C8_8 
ROOT
HETATM    1  C2  UNL     1     -34.742  15.428  -2.717  1.00 20.00     0.013 A 
HETATM    2  C3  UNL     1     -35.716  16.635  -4.229  1.00 20.00     0.013 A 
HETATM    3  C4  UNL     1     -34.055  15.354  -4.771  1.00 20.00     0.013 A 
HETATM    4  C5  UNL     1     -35.059  16.921  -2.873  1.00 20.00     0.006 A 
HETATM    5  C6  UNL     1     -33.392  15.636  -3.417  1.00 20.00     0.006 A 
HETATM    6  C7  UNL     1     -34.369  16.848  -4.932  1.00 20.00     0.006 A 
HETATM    7  C8  UNL     1     -35.402  15.144  -4.071  1.00 20.00     0.033 A 
HETATM    8  C9  UNL     1     -33.701  17.140  -3.573  1.00 20.00    -0.031 A 
HETATM    9  C11 UNL     1     -32.754  18.252  -3.296  1.00 20.00     0.016 C 
ENDROOT
BRANCH   7  10
HETATM   10  C1  UNL     1     -36.360  14.027  -4.350  1.00 20.00     0.133 C 
HETATM   11  C10 UNL     1     -37.823  14.376  -4.358  1.00 20.00     0.091 C 
HETATM   12  O12 UNL     1     -35.969  12.881  -4.565  1.00 20.00    -0.297 OA
ENDBRANCH   7  10
TORSDOF 1
ENDMDL
MODEL 3
REMARK VINA RESULT:      -5.0      1.000      1.029
REMARK  1 active torsions:
REMARK  status: ('A' for Active; 'I' for Inactive)
REMARK    1  A    between atoms: C1_1  and  C8_8 
ROOT
HETATM    1  C2  UNL     1     -34.037  16.838  -4.603  1.00 20.00     0.013 A 
HETATM    2  C3  UNL     1     -34.003  14.921  -3.595  1.00 20.00     0.013 A 
HETATM    3  C4  UNL     1     -35.876  15.981  -3.845  1.00 20.00     0.013 A 
HETATM    4  C5  UNL     1     -33.269  16.255  -3.410  1.00 20.00     0.006 A 
HETATM    5  C6  UNL     1     -35.148  17.318  -3.661  1.00 20.00     0.006 A 
HETATM    6  C7  UNL     1     -35.113  15.396  -2.648  1.00 20.00     0.006 A 
HETATM    7  C8  UNL     1     -34.767  15.503  -4.789  1.00 20.00     0.033 A 
HETATM    8  C9  UNL     1     -34.380  16.739  -2.454  1.00 20.00    -0.031 A 
HETATM    9  C11 UNL     1     -34.165  17.426  -1.154  1.00 20.00     0.016 C 
ENDROOT
BRANCH   7  10
HETATM   10  C1  UNL     1     -34.981  14.808  -6.097  1.00 20.00     0.133 C 
HETATM   11  C10 UNL     1     -34.040  15.164  -7.215  1.00 20.00     0.091 C 
HETATM   12  O12 UNL     1     -35.881  13.983  -6.249  1.00 20.00    -0.297 OA
ENDBRANCH   7  10
TORSDOF 1
ENDMDL
MODEL 4
REMARK VINA RESULT:      -5.0      0.995      1.697
REMARK  1 active torsions:
REMARK  status: ('A' for Active; 'I' for Inactive)
REMARK    1  A    between atoms: C1_1  and  C8_8 
ROOT
HETATM    1  C2  UNL     1     -34.023  14.927  -3.602  1.00 20.00     0.013 A 
HETATM    2  C3  UNL     1     -35.891  15.995  -3.852  1.00 20.00     0.013 A 
HETATM    3  C4  UNL     1     -34.047  16.847  -4.606  1.00 20.00     0.013 A 
HETATM    4  C5  UNL     1     -35.134  15.404  -2.656  1.00 20.00     0.006 A 
HETATM    5  C6  UNL     1     -33.284  16.258  -3.413  1.00 20.00     0.006 A 
HETATM    6  C7  UNL     1     -35.157  17.329  -3.663  1.00 20.00     0.006 A 
HETATM    7  C8  UNL     1     -34.783  15.516  -4.796  1.00 20.00     0.033 A 
HETATM    8  C9  UNL     1     -34.394  16.744  -2.458  1.00 20.00    -0.031 A 
HETATM    9  C11 UNL     1     -34.178  17.428  -1.155  1.00 20.00     0.016 C 
ENDROOT
BRANCH   7  10
HETATM   10  C1  UNL     1     -35.005  14.826  -6.106  1.00 20.00     0.133 C 
HETATM   11  C10 UNL     1     -34.085  15.203  -7.234  1.00 20.00     0.091 C 
HETATM   12  O12 UNL     1     -35.897  13.991  -6.251  1.00 20.00    -0.297 OA
ENDBRANCH   7  10
TORSDOF 1
ENDMDL
MODEL 5
REMARK VINA RESULT:      -5.0      1.006      1.886
REMARK  1 active torsions:
REMARK  status: ('A' for Active; 'I' for Inactive)
REMARK    1  A    between atoms: C1_1  and  C8_8 
ROOT
HETATM    1  C2  UNL     1     -35.890  15.984  -3.867  1.00 20.00     0.013 A 
HETATM    2  C3  UNL     1     -34.056  16.853  -4.624  1.00 20.00     0.013 A 
HETATM    3  C4  UNL     1     -34.013  14.931  -3.623  1.00 20.00     0.013 A 
HETATM    4  C5  UNL     1     -35.167  17.324  -3.679  1.00 20.00     0.006 A 
HETATM    5  C6  UNL     1     -35.124  15.397  -2.675  1.00 20.00     0.006 A 
HETATM    6  C7  UNL     1     -33.284  16.269  -3.433  1.00 20.00     0.006 A 
HETATM    7  C8  UNL     1     -34.780  15.515  -4.814  1.00 20.00     0.033 A 
HETATM    8  C9  UNL     1     -34.396  16.743  -2.475  1.00 20.00    -0.031 A 
HETATM    9  C11 UNL     1     -34.182  17.427  -1.172  1.00 20.00     0.016 C 
ENDROOT
BRANCH   7  10
HETATM   10  C1  UNL     1     -34.995  14.831  -6.128  1.00 20.00     0.133 C 
HETATM   11  C10 UNL     1     -34.056  15.199  -7.245  1.00 20.00     0.091 C 
HETATM   12  O12 UNL     1     -35.894  14.007  -6.287  1.00 20.00    -0.297 OA
ENDBRANCH   7  10
TORSDOF 1
ENDMDL
MODEL 6
REMARK VINA RESULT:      -5.0     11.258     12.358
REMARK  1 active torsions:
REMARK  status: ('A' for Active; 'I' for Inactive)
REMARK    1  A    between atoms: C1_1  and  C8_8 
ROOT
HETATM    1  C2  UNL     1     -41.171   6.528  -0.675  1.00 20.00     0.013 A 
HETATM    2  C3  UNL     1     -42.626   6.757   0.913  1.00 20.00     0.013 A 
HETATM    3  C4  UNL     1     -43.120   7.371  -1.106  1.00 20.00     0.013 A 
HETATM    4  C5  UNL     1     -41.176   7.209   0.700  1.00 20.00     0.006 A 
HETATM    5  C6  UNL     1     -41.672   7.825  -1.325  1.00 20.00     0.006 A 
HETATM    6  C7  UNL     1     -43.131   8.054   0.268  1.00 20.00     0.006 A 
HETATM    7  C8  UNL     1     -42.619   6.074  -0.459  1.00 20.00     0.033 A 
HETATM    8  C9  UNL     1     -41.676   8.518   0.053  1.00 20.00    -0.031 A 
HETATM    9  C11 UNL     1     -41.151   9.880   0.339  1.00 20.00     0.016 C 
ENDROOT
BRANCH   7  10
HETATM   10  C1  UNL     1     -43.147   4.702  -0.742  1.00 20.00     0.133 C 
HETATM   11  C10 UNL     1     -43.330   4.332  -2.189  1.00 20.00     0.091 C 
HETATM   12  O12 UNL     1     -43.417   3.916   0.165  1.00 20.00    -0.297 OA
ENDBRANCH   7  10
TORSDOF 1
ENDMDL
MODEL 7
REMARK VINA RESULT:      -4.5      2.426      4.421
REMARK  1 active torsions:
REMARK  status: ('A' for Active; 'I' for Inactive)
REMARK    1  A    between atoms: C1_1  and  C8_8 
ROOT
HETATM    1  C2  UNL     1     -33.152  16.330  -3.316  1.00 20.00     0.013 A 
HETATM    2  C3  UNL     1     -34.544  17.990  -3.326  1.00 20.00     0.013 A 
HETATM    3  C4  UNL     1     -34.779  16.387  -1.887  1.00 20.00     0.013 A 
HETATM    4  C5  UNL     1     -34.053  16.983  -4.373  1.00 20.00     0.006 A 
HETATM    5  C6  UNL     1     -34.289  15.375  -2.929  1.00 20.00     0.006 A 
HETATM    6  C7  UNL     1     -35.685  17.040  -2.940  1.00 20.00     0.006 A 
HETATM    7  C8  UNL     1     -33.642  17.340  -2.272  1.00 20.00     0.033 A 
HETATM    8  C9  UNL     1     -35.200  16.023  -3.993  1.00 20.00    -0.031 A 
HETATM    9  C11 UNL     1     -36.068  15.289  -4.952  1.00 20.00     0.016 C 
ENDROOT
BRANCH   7  10
HETATM   10  C1  UNL     1     -32.768  18.082  -1.309  1.00 20.00     0.133 C 
HETATM   11  C10 UNL     1     -33.316  18.297   0.076  1.00 20.00     0.091 C 
HETATM   12  O12 UNL     1     -31.655  18.495  -1.634  1.00 20.00    -0.297 OA
ENDBRANCH   7  10
TORSDOF 1
ENDMDL
MODEL 8
REMARK VINA RESULT:      -4.5      2.410      4.407
REMARK  1 active torsions:
REMARK  status: ('A' for Active; 'I' for Inactive)
REMARK    1  A    between atoms: C1_1  and  C8_8 
ROOT
HETATM    1  C2  UNL     1     -34.544  17.962  -3.356  1.00 20.00     0.013 A 
HETATM    2  C3  UNL     1     -34.780  16.355  -1.921  1.00 20.00     0.013 A 
HETATM    3  C4  UNL     1     -33.140  16.312  -3.337  1.00 20.00     0.013 A 
HETATM    4  C5  UNL     1     -35.682  17.003  -2.980  1.00 20.00     0.006 A 
HETATM    5  C6  UNL     1     -34.036  16.959  -4.400  1.00 20.00     0.006 A 
HETATM    6  C7  UNL     1     -34.274  15.348  -2.962  1.00 20.00     0.006 A 
HETATM    7  C8  UNL     1     -33.646  17.316  -2.295  1.00 20.00     0.033 A 
HETATM    8  C9  UNL     1     -35.180  15.991  -4.032  1.00 20.00    -0.031 A 
HETATM    9  C11 UNL     1     -36.035  15.252  -4.999  1.00 20.00     0.016 C 
ENDROOT
BRANCH   7  10
HETATM   10  C1  UNL     1     -32.789  18.058  -1.318  1.00 20.00     0.133 C 
HETATM   11  C10 UNL     1     -33.356  18.266   0.060  1.00 20.00     0.091 C 
HETATM   12  O12 UNL     1     -31.673  18.476  -1.626  1.00 20.00    -0.297 OA
ENDBRANCH   7  10
TORSDOF 1
ENDMDL
MODEL 9
REMARK VINA RESULT:      -4.5      2.021      4.083
REMARK  1 active torsions:
REMARK  status: ('A' for Active; 'I' for Inactive)
REMARK    1  A    between atoms: C1_1  and  C8_8 
ROOT
HETATM    1  C2  UNL     1     -35.087  15.752  -2.325  1.00 20.00     0.013 A 
HETATM    2  C3  UNL     1     -33.326  16.074  -3.545  1.00 20.00     0.013 A 
HETATM    3  C4  UNL     1     -34.977  17.474  -3.634  1.00 20.00     0.013 A 
HETATM    4  C5  UNL     1     -34.314  14.916  -3.353  1.00 20.00     0.006 A 
HETATM    5  C6  UNL     1     -35.970  16.321  -3.443  1.00 20.00     0.006 A 
HETATM    6  C7  UNL     1     -34.204  16.643  -4.667  1.00 20.00     0.006 A 
HETATM    7  C8  UNL     1     -34.098  16.906  -2.515  1.00 20.00     0.033 A 
HETATM    8  C9  UNL     1     -35.201  15.480  -4.483  1.00 20.00    -0.031 A 
HETATM    9  C11 UNL     1     -35.815  14.686  -5.580  1.00 20.00     0.016 C 
ENDROOT
BRANCH   7  10
HETATM   10  C1  UNL     1     -33.475  17.704  -1.411  1.00 20.00     0.133 C 
HETATM   11  C10 UNL     1     -32.159  18.368  -1.714  1.00 20.00     0.091 C 
HETATM   12  O12 UNL     1     -34.014  17.812  -0.311  1.00 20.00    -0.297 OA
ENDBRANCH   7  10
TORSDOF 1
ENDMDL
