MODEL 1
REMARK VINA RESULT:      -4.8      0.000      0.000
REMARK  1 active torsions:
REMARK  status: ('A' for Active; 'I' for Inactive)
REMARK    1  A    between atoms: C2_2  and  C3_3 
ROOT
HETATM    1  C1  UNL     1     -35.961  15.033  -3.609  1.00 20.00    -0.009 C 
HETATM    2  C2  UNL     1     -35.023  15.186  -4.591  1.00 20.00    -0.007 C 
HETATM    3  C4  UNL     1     -33.469  17.195  -1.865  1.00 20.00     0.002 C 
HETATM    4  C5  UNL     1     -34.894  16.637  -1.593  1.00 20.00     0.009 C 
HETATM    5  C6  UNL     1     -33.107  16.714  -3.306  1.00 20.00     0.015 C 
HETATM    6  C7  UNL     1     -34.942  15.558  -2.635  1.00 20.00     0.021 C 
HETATM    7  C8  UNL     1     -34.478  16.414  -3.888  1.00 20.00    -0.007 C 
HETATM    8  C10 UNL     1     -35.154  17.706  -4.397  1.00 20.00     0.021 C 
ENDROOT
BRANCH   2   9
HETATM    9  C3  UNL     1     -35.063  14.679  -5.954  1.00 20.00     0.152 C 
HETATM   10  C9  UNL     1     -33.987  15.124  -6.919  1.00 20.00     0.096 C 
HETATM   11  O11 UNL     1     -35.958  13.906  -6.323  1.00 20.00    -0.293 OA
ENDBRANCH   2   9
TORSDOF 1
ENDMDL
MODEL 2
REMARK VINA RESULT:      -4.8      1.407      1.562
REMARK  1 active torsions:
REMARK  status: ('A' for Active; 'I' for Inactive)
REMARK    1  A    between atoms: C2_2  and  C3_3 
ROOT
HETATM    1  C1  UNL     1     -35.417  15.379  -3.002  1.00 20.00    -0.009 C 
HETATM    2  C2  UNL     1     -34.162  15.345  -3.543  1.00 20.00    -0.007 C 
HETATM    3  C4  UNL     1     -33.727  18.052  -1.021  1.00 20.00     0.002 C 
HETATM    4  C5  UNL     1     -35.165  17.490  -1.197  1.00 20.00     0.009 C 
HETATM    5  C6  UNL     1     -32.847  17.257  -2.036  1.00 20.00     0.015 C 
HETATM    6  C7  UNL     1     -34.843  16.188  -1.871  1.00 20.00     0.021 C 
HETATM    7  C8  UNL     1     -33.889  16.740  -3.014  1.00 20.00    -0.007 C 
HETATM    8  C10 UNL     1     -34.257  17.823  -4.049  1.00 20.00     0.021 C 
ENDROOT
BRANCH   2   9
HETATM    9  C3  UNL     1     -33.683  14.519  -4.641  1.00 20.00     0.152 C 
HETATM   10  C9  UNL     1     -33.975  14.965  -6.057  1.00 20.00     0.096 C 
HETATM   11  O11 UNL     1     -33.057  13.472  -4.428  1.00 20.00    -0.293 OA
ENDBRANCH   2   9
TORSDOF 1
ENDMDL
MODEL 3
REMARK VINA RESULT:      -4.7      1.477      2.452
REMARK  1 active torsions:
REMARK  status: ('A' for Active; 'I' for Inactive)
REMARK    1  A    between atoms: C2_2  and  C3_3 
ROOT
HETATM    1  C1  UNL     1     -33.776  14.747  -3.910  1.00 20.00    -0.009 C 
HETATM    2  C2  UNL     1     -35.118  14.962  -4.057  1.00 20.00    -0.007 C 
HETATM    3  C4  UNL     1     -33.962  18.433  -3.356  1.00 20.00     0.002 C 
HETATM    4  C5  UNL     1     -32.893  17.309  -3.252  1.00 20.00     0.009 C 
HETATM    5  C6  UNL     1     -35.288  17.706  -3.741  1.00 20.00     0.015 C 
HETATM    6  C7  UNL     1     -33.585  16.234  -4.037  1.00 20.00     0.021 C 
HETATM    7  C8  UNL     1     -34.996  16.277  -3.312  1.00 20.00    -0.007 C 
HETATM    8  C10 UNL     1     -35.236  16.098  -1.798  1.00 20.00     0.021 C 
ENDROOT
BRANCH   2   9
HETATM    9  C3  UNL     1     -36.161  13.975  -4.296  1.00 20.00     0.152 C 
HETATM   10  C9  UNL     1     -37.600  14.439  -4.302  1.00 20.00     0.096 C 
HETATM   11  O11 UNL     1     -35.882  12.783  -4.483  1.00 20.00    -0.293 OA
ENDBRANCH   2   9
TORSDOF 1
ENDMDL
MODEL 4
REMARK VINA RESULT:      -4.6      1.659      2.861
REMARK  1 active torsions:
REMARK  status: ('A' for Active; 'I' for Inactive)
REMARK    1  A    between atoms: C2_2  and  C3_3 
ROOT
HETATM    1  C1  UNL     1     -35.966  16.358  -5.190  1.00 20.00    -0.009 C 
HETATM    2  C2  UNL     1     -36.584  15.645  -4.201  1.00 20.00    -0.007 C 
HETATM    3  C4  UNL     1     -33.535  16.788  -2.391  1.00 20.00     0.002 C 
HETATM    4  C5  UNL     1     -33.610  17.120  -3.908  1.00 20.00     0.009 C 
HETATM    5  C6  UNL     1     -34.853  16.014  -2.074  1.00 20.00     0.015 C 
HETATM    6  C7  UNL     1     -35.085  16.955  -4.127  1.00 20.00     0.021 C 
HETATM    7  C8  UNL     1     -35.270  15.530  -3.453  1.00 20.00    -0.007 C 
HETATM    8  C10 UNL     1     -34.506  14.245  -3.839  1.00 20.00     0.021 C 
ENDROOT
BRANCH   2   9
HETATM    9  C3  UNL     1     -37.821  14.884  -4.286  1.00 20.00     0.152 C 
HETATM   10  C9  UNL     1     -39.133  15.628  -4.168  1.00 20.00     0.096 C 
HETATM   11  O11 UNL     1     -37.807  13.656  -4.446  1.00 20.00    -0.293 OA
ENDBRANCH   2   9
TORSDOF 1
ENDMDL
MODEL 5
REMARK VINA RESULT:      -4.6      1.654      2.717
REMARK  1 active torsions:
REMARK  status: ('A' for Active; 'I' for Inactive)
REMARK    1  A    between atoms: C2_2  and  C3_3 
ROOT
HETATM    1  C1  UNL     1     -35.995  16.293  -2.872  1.00 20.00    -0.009 C 
HETATM    2  C2  UNL     1     -36.350  15.294  -3.735  1.00 20.00    -0.007 C 
HETATM    3  C4  UNL     1     -32.637  15.072  -3.951  1.00 20.00     0.002 C 
HETATM    4  C5  UNL     1     -33.217  16.244  -3.110  1.00 20.00     0.009 C 
HETATM    5  C6  UNL     1     -33.881  14.300  -4.492  1.00 20.00     0.015 C 
HETATM    6  C7  UNL     1     -34.603  15.721  -2.876  1.00 20.00     0.021 C 
HETATM    7  C8  UNL     1     -34.975  15.348  -4.373  1.00 20.00    -0.007 C 
HETATM    8  C10 UNL     1     -34.944  16.314  -5.576  1.00 20.00     0.021 C 
ENDROOT
BRANCH   2   9
HETATM    9  C3  UNL     1     -37.689  14.898  -4.142  1.00 20.00     0.152 C 
HETATM   10  C9  UNL     1     -38.767  15.957  -4.197  1.00 20.00     0.096 C 
HETATM   11  O11 UNL     1     -37.947  13.722  -4.431  1.00 20.00    -0.293 OA
ENDBRANCH   2   9
TORSDOF 1
ENDMDL
MODEL 6
REMARK VINA RESULT:      -4.5      1.398      2.492
REMARK  1 active torsions:
REMARK  status: ('A' for Active; 'I' for Inactive)
REMARK    1  A    between atoms: C2_2  and  C3_3 
ROOT
HETATM    1  C1  UNL     1     -35.422  16.300  -5.321  1.00 20.00    -0.009 C 
HETATM    2  C2  UNL     1     -35.693  15.355  -4.371  1.00 20.00    -0.007 C 
HETATM    3  C4  UNL     1     -33.098  17.356  -2.598  1.00 20.00     0.002 C 
HETATM    4  C5  UNL     1     -33.383  17.740  -4.077  1.00 20.00     0.009 C 
HETATM    5  C6  UNL     1     -34.050  16.156  -2.294  1.00 20.00     0.015 C 
HETATM    6  C7  UNL     1     -34.726  17.093  -4.248  1.00 20.00     0.021 C 
HETATM    7  C8  UNL     1     -34.370  15.651  -3.691  1.00 20.00    -0.007 C 
HETATM    8  C10 UNL     1     -33.244  14.735  -4.216  1.00 20.00     0.021 C 
ENDROOT
BRANCH   2   9
HETATM    9  C3  UNL     1     -36.601  14.223  -4.470  1.00 20.00     0.152 C 
HETATM   10  C9  UNL     1     -38.085  14.476  -4.323  1.00 20.00     0.096 C 
HETATM   11  O11 UNL     1     -36.174  13.076  -4.663  1.00 20.00    -0.293 OA
ENDBRANCH   2   9
TORSDOF 1
ENDMDL
MODEL 7
REMARK VINA RESULT:      -4.5      2.127      3.985
REMARK  1 active torsions:
REMARK  status: ('A' for Active; 'I' for Inactive)
REMARK    1  A    between atoms: C2_2  and  C3_3 
ROOT
HETATM    1  C1  UNL     1     -34.703  15.813  -2.412  1.00 20.00    -0.009 C 
HETATM    2  C2  UNL     1     -34.018  16.604  -3.290  1.00 20.00    -0.007 C 
HETATM    3  C4  UNL     1     -35.795  14.354  -5.668  1.00 20.00     0.002 C 
HETATM    4  C5  UNL     1     -35.945  14.026  -4.156  1.00 20.00     0.009 C 
HETATM    5  C6  UNL     1     -34.871  15.610  -5.728  1.00 20.00     0.015 C 
HETATM    6  C7  UNL     1     -35.538  15.348  -3.574  1.00 20.00     0.021 C 
HETATM    7  C8  UNL     1     -34.183  15.555  -4.374  1.00 20.00    -0.007 C 
HETATM    8  C10 UNL     1     -32.993  14.573  -4.401  1.00 20.00     0.021 C 
ENDROOT
BRANCH   2   9
HETATM    9  C3  UNL     1     -33.075  17.670  -2.987  1.00 20.00     0.152 C 
HETATM   10  C9  UNL     1     -32.553  17.786  -1.572  1.00 20.00     0.096 C 
HETATM   11  O11 UNL     1     -32.710  18.469  -3.860  1.00 20.00    -0.293 OA
ENDBRANCH   2   9
TORSDOF 1
ENDMDL
MODEL 8
REMARK VINA RESULT:      -4.5      1.230      2.075
REMARK  1 active torsions:
REMARK  status: ('A' for Active; 'I' for Inactive)
REMARK    1  A    between atoms: C2_2  and  C3_3 
ROOT
HETATM    1  C1  UNL     1     -34.341  16.797  -5.785  1.00 20.00    -0.009 C 
HETATM    2  C2  UNL     1     -35.005  15.650  -5.454  1.00 20.00    -0.007 C 
HETATM    3  C4  UNL     1     -33.828  16.734  -2.090  1.00 20.00     0.002 C 
HETATM    4  C5  UNL     1     -33.330  17.568  -3.303  1.00 20.00     0.009 C 
HETATM    5  C6  UNL     1     -34.725  15.612  -2.701  1.00 20.00     0.015 C 
HETATM    6  C7  UNL     1     -34.349  17.154  -4.324  1.00 20.00     0.021 C 
HETATM    7  C8  UNL     1     -34.245  15.581  -4.143  1.00 20.00    -0.007 C 
HETATM    8  C10 UNL     1     -32.957  14.742  -4.276  1.00 20.00     0.021 C 
ENDROOT
BRANCH   2   9
HETATM    9  C3  UNL     1     -35.661  14.706  -6.346  1.00 20.00     0.152 C 
HETATM   10  C9  UNL     1     -35.819  15.084  -7.802  1.00 20.00     0.096 C 
HETATM   11  O11 UNL     1     -36.087  13.621  -5.927  1.00 20.00    -0.293 OA
ENDBRANCH   2   9
TORSDOF 1
ENDMDL
MODEL 9
REMARK VINA RESULT:      -4.4      3.069      5.106
REMARK  1 active torsions:
REMARK  status: ('A' for Active; 'I' for Inactive)
REMARK    1  A    between atoms: C2_2  and  C3_3 
ROOT
HETATM    1  C1  UNL     1     -33.210  18.993  -2.717  1.00 20.00    -0.009 C 
HETATM    2  C2  UNL     1     -32.551  18.065  -1.960  1.00 20.00    -0.007 C 
HETATM    3  C4  UNL     1     -34.009  15.865  -4.589  1.00 20.00     0.002 C 
HETATM    4  C5  UNL     1     -34.427  17.362  -4.624  1.00 20.00     0.009 C 
HETATM    5  C6  UNL     1     -33.046  15.735  -3.368  1.00 20.00     0.015 C 
HETATM    6  C7  UNL     1     -33.323  17.948  -3.793  1.00 20.00     0.021 C 
HETATM    7  C8  UNL     1     -33.410  16.964  -2.551  1.00 20.00    -0.007 C 
HETATM    8  C10 UNL     1     -34.667  16.702  -1.695  1.00 20.00     0.021 C 
ENDROOT
BRANCH   2   9
HETATM    9  C3  UNL     1     -31.809  18.280  -0.727  1.00 20.00     0.152 C 
HETATM   10  C9  UNL     1     -32.585  18.574   0.537  1.00 20.00     0.096 C 
HETATM   11  O11 UNL     1     -30.572  18.231  -0.709  1.00 20.00    -0.293 OA
ENDBRANCH   2   9
TORSDOF 1
ENDMDL
