MODEL 1
REMARK VINA RESULT:      -4.2      0.000      0.000
REMARK  2 active torsions:
REMARK  status: ('A' for Active; 'I' for Inactive)
REMARK    1  A    between atoms: C1_1  and  C5_5 
REMARK    2  A    between atoms: C5_5  and  O8_8 
ROOT
HETATM    1  C2  UNL     1     -34.326  15.815  -3.061  1.00 20.00     0.007 C 
HETATM    2  C3  UNL     1     -33.679  14.678  -3.868  1.00 20.00     0.047 C 
HETATM    3  C4  UNL     1     -35.126  16.183  -4.320  1.00 20.00     0.047 C 
HETATM    4  C5  UNL     1     -34.901  14.728  -4.837  1.00 20.00     0.136 C 
ENDROOT
BRANCH   4   5
HETATM    5  C1  UNL     1     -36.040  13.718  -4.533  1.00 20.00     0.253 C 
HETATM    6  O7  UNL     1     -35.838  12.507  -4.500  1.00 20.00    -0.276 OA
HETATM    7 CL9  UNL     1     -37.563  14.510  -4.260  1.00 20.00    -0.041 Cl
ENDBRANCH   4   5
BRANCH   4   8
HETATM    8  O8  UNL     1     -34.531  14.654  -6.232  1.00 20.00    -0.376 OA
HETATM    9  C6  UNL     1     -35.669  14.807  -7.056  1.00 20.00     0.203 C 
ENDBRANCH   4   8
TORSDOF 2
ENDMDL
MODEL 2
REMARK VINA RESULT:      -3.9      1.241      1.293
REMARK  2 active torsions:
REMARK  status: ('A' for Active; 'I' for Inactive)
REMARK    1  A    between atoms: C1_1  and  C5_5 
REMARK    2  A    between atoms: C5_5  and  O8_8 
ROOT
HETATM    1  C2  UNL     1     -34.405  16.198  -2.147  1.00 20.00     0.007 C 
HETATM    2  C3  UNL     1     -33.466  15.816  -3.303  1.00 20.00     0.047 C 
HETATM    3  C4  UNL     1     -35.502  16.453  -3.192  1.00 20.00     0.047 C 
HETATM    4  C5  UNL     1     -34.727  15.518  -4.172  1.00 20.00     0.136 C 
ENDROOT
BRANCH   4   5
HETATM    5  C1  UNL     1     -35.188  14.035  -4.200  1.00 20.00     0.253 C 
HETATM    6  O7  UNL     1     -34.407  13.113  -3.984  1.00 20.00    -0.276 OA
HETATM    7 CL9  UNL     1     -36.880  13.882  -4.564  1.00 20.00    -0.041 Cl
ENDBRANCH   4   5
BRANCH   4   8
HETATM    8  O8  UNL     1     -34.632  16.034  -5.519  1.00 20.00    -0.376 OA
HETATM    9  C6  UNL     1     -34.146  15.040  -6.398  1.00 20.00     0.203 C 
ENDBRANCH   4   8
TORSDOF 2
ENDMDL
MODEL 3
REMARK VINA RESULT:      -3.9     10.458     11.784
REMARK  2 active torsions:
REMARK  status: ('A' for Active; 'I' for Inactive)
REMARK    1  A    between atoms: C1_1  and  C5_5 
REMARK    2  A    between atoms: C5_5  and  O8_8 
ROOT
HETATM    1  C2  UNL     1     -41.502   9.076  -0.021  1.00 20.00     0.007 C 
HETATM    2  C3  UNL     1     -42.987   8.687   0.063  1.00 20.00     0.047 C 
HETATM    3  C4  UNL     1     -41.173   7.782   0.739  1.00 20.00     0.047 C 
HETATM    4  C5  UNL     1     -42.541   7.204   0.261  1.00 20.00     0.136 C 
ENDROOT
BRANCH   4   5
HETATM    5  C1  UNL     1     -42.499   6.338  -1.026  1.00 20.00     0.253 C 
HETATM    6  O7  UNL     1     -43.416   6.348  -1.841  1.00 20.00    -0.276 OA
HETATM    7 CL9  UNL     1     -41.040   5.401  -1.137  1.00 20.00    -0.041 Cl
ENDBRANCH   4   5
BRANCH   4   8
HETATM    8  O8  UNL     1     -43.279   6.517   1.298  1.00 20.00    -0.376 OA
HETATM    9  C6  UNL     1     -43.030   5.127   1.246  1.00 20.00     0.203 C 
ENDBRANCH   4   8
TORSDOF 2
ENDMDL
MODEL 4
REMARK VINA RESULT:      -3.9      1.925      2.735
REMARK  2 active torsions:
REMARK  status: ('A' for Active; 'I' for Inactive)
REMARK    1  A    between atoms: C1_1  and  C5_5 
REMARK    2  A    between atoms: C5_5  and  O8_8 
ROOT
HETATM    1  C2  UNL     1     -33.313  16.326  -2.914  1.00 20.00     0.007 C 
HETATM    2  C3  UNL     1     -34.716  15.700  -2.842  1.00 20.00     0.047 C 
HETATM    3  C4  UNL     1     -32.913  15.191  -3.869  1.00 20.00     0.047 C 
HETATM    4  C5  UNL     1     -34.425  14.998  -4.205  1.00 20.00     0.136 C 
ENDROOT
BRANCH   4   5
HETATM    5  C1  UNL     1     -34.940  15.742  -5.467  1.00 20.00     0.253 C 
HETATM    6  O7  UNL     1     -35.765  16.647  -5.390  1.00 20.00    -0.276 OA
HETATM    7 CL9  UNL     1     -34.216  15.135  -6.925  1.00 20.00    -0.041 Cl
ENDBRANCH   4   5
BRANCH   4   8
HETATM    8  O8  UNL     1     -34.844  13.614  -4.238  1.00 20.00    -0.376 OA
HETATM    9  C6  UNL     1     -36.212  13.518  -4.577  1.00 20.00     0.203 C 
ENDBRANCH   4   8
TORSDOF 2
ENDMDL
MODEL 5
REMARK VINA RESULT:      -3.7      1.916      2.666
REMARK  2 active torsions:
REMARK  status: ('A' for Active; 'I' for Inactive)
REMARK    1  A    between atoms: C1_1  and  C5_5 
REMARK    2  A    between atoms: C5_5  and  O8_8 
ROOT
HETATM    1  C2  UNL     1     -34.555  15.759  -6.684  1.00 20.00     0.007 C 
HETATM    2  C3  UNL     1     -35.606  14.682  -7.000  1.00 20.00     0.047 C 
HETATM    3  C4  UNL     1     -35.514  16.306  -5.615  1.00 20.00     0.047 C 
HETATM    4  C5  UNL     1     -36.201  14.905  -5.575  1.00 20.00     0.136 C 
ENDROOT
BRANCH   4   5
HETATM    5  C1  UNL     1     -35.694  13.933  -4.476  1.00 20.00     0.253 C 
HETATM    6  O7  UNL     1     -35.909  12.726  -4.534  1.00 20.00    -0.276 OA
HETATM    7 CL9  UNL     1     -34.825  14.760  -3.219  1.00 20.00    -0.041 Cl
ENDBRANCH   4   5
BRANCH   4   8
HETATM    8  O8  UNL     1     -37.646  14.964  -5.559  1.00 20.00    -0.376 OA
HETATM    9  C6  UNL     1     -38.128  14.935  -4.231  1.00 20.00     0.203 C 
ENDBRANCH   4   8
TORSDOF 2
ENDMDL
MODEL 6
REMARK VINA RESULT:      -3.7      2.232      2.609
REMARK  2 active torsions:
REMARK  status: ('A' for Active; 'I' for Inactive)
REMARK    1  A    between atoms: C1_1  and  C5_5 
REMARK    2  A    between atoms: C5_5  and  O8_8 
ROOT
HETATM    1  C2  UNL     1     -33.311  16.794  -2.810  1.00 20.00     0.007 C 
HETATM    2  C3  UNL     1     -33.987  17.180  -4.136  1.00 20.00     0.047 C 
HETATM    3  C4  UNL     1     -34.389  15.714  -2.636  1.00 20.00     0.047 C 
HETATM    4  C5  UNL     1     -34.619  15.754  -4.179  1.00 20.00     0.136 C 
ENDROOT
BRANCH   4   5
HETATM    5  C1  UNL     1     -33.840  14.698  -5.008  1.00 20.00     0.253 C 
HETATM    6  O7  UNL     1     -33.253  13.763  -4.473  1.00 20.00    -0.276 OA
HETATM    7 CL9  UNL     1     -33.917  15.019  -6.714  1.00 20.00    -0.041 Cl
ENDBRANCH   4   5
BRANCH   4   8
HETATM    8  O8  UNL     1     -36.014  15.756  -4.561  1.00 20.00    -0.376 OA
HETATM    9  C6  UNL     1     -36.552  14.452  -4.479  1.00 20.00     0.203 C 
ENDBRANCH   4   8
TORSDOF 2
ENDMDL
MODEL 7
REMARK VINA RESULT:      -3.6      1.876      2.269
REMARK  2 active torsions:
REMARK  status: ('A' for Active; 'I' for Inactive)
REMARK    1  A    between atoms: C1_1  and  C5_5 
REMARK    2  A    between atoms: C5_5  and  O8_8 
ROOT
HETATM    1  C2  UNL     1     -33.819  15.686  -3.445  1.00 20.00     0.007 C 
HETATM    2  C3  UNL     1     -34.693  16.332  -4.533  1.00 20.00     0.047 C 
HETATM    3  C4  UNL     1     -35.108  15.165  -2.792  1.00 20.00     0.047 C 
HETATM    4  C5  UNL     1     -35.817  15.309  -4.175  1.00 20.00     0.136 C 
ENDROOT
BRANCH   4   5
HETATM    5  C1  UNL     1     -35.862  14.028  -5.051  1.00 20.00     0.253 C 
HETATM    6  O7  UNL     1     -35.927  12.908  -4.553  1.00 20.00    -0.276 OA
HETATM    7 CL9  UNL     1     -35.809  14.394  -6.749  1.00 20.00    -0.041 Cl
ENDBRANCH   4   5
BRANCH   4   8
HETATM    8  O8  UNL     1     -37.132  15.905  -4.098  1.00 20.00    -0.376 OA
HETATM    9  C6  UNL     1     -38.133  14.920  -4.249  1.00 20.00     0.203 C 
ENDBRANCH   4   8
TORSDOF 2
ENDMDL
MODEL 8
REMARK VINA RESULT:      -3.6      1.299      2.621
REMARK  2 active torsions:
REMARK  status: ('A' for Active; 'I' for Inactive)
REMARK    1  A    between atoms: C1_1  and  C5_5 
REMARK    2  A    between atoms: C5_5  and  O8_8 
ROOT
HETATM    1  C2  UNL     1     -34.633  15.012  -6.935  1.00 20.00     0.007 C 
HETATM    2  C3  UNL     1     -35.773  15.857  -6.343  1.00 20.00     0.047 C 
HETATM    3  C4  UNL     1     -34.057  14.889  -5.516  1.00 20.00     0.047 C 
HETATM    4  C5  UNL     1     -35.480  15.201  -4.957  1.00 20.00     0.136 C 
ENDROOT
BRANCH   4   5
HETATM    5  C1  UNL     1     -36.353  13.968  -4.600  1.00 20.00     0.253 C 
HETATM    6  O7  UNL     1     -35.888  12.832  -4.580  1.00 20.00    -0.276 OA
HETATM    7 CL9  UNL     1     -37.998  14.409  -4.252  1.00 20.00    -0.041 Cl
ENDBRANCH   4   5
BRANCH   4   8
HETATM    8  O8  UNL     1     -35.483  16.146  -3.863  1.00 20.00    -0.376 OA
HETATM    9  C6  UNL     1     -35.017  15.534  -2.678  1.00 20.00     0.203 C 
ENDBRANCH   4   8
TORSDOF 2
ENDMDL
MODEL 9
REMARK VINA RESULT:      -3.6      1.968      2.670
REMARK  2 active torsions:
REMARK  status: ('A' for Active; 'I' for Inactive)
REMARK    1  A    between atoms: C1_1  and  C5_5 
REMARK    2  A    between atoms: C5_5  and  O8_8 
ROOT
HETATM    1  C2  UNL     1     -34.244  16.699  -6.587  1.00 20.00     0.007 C 
HETATM    2  C3  UNL     1     -34.147  15.214  -6.972  1.00 20.00     0.047 C 
HETATM    3  C4  UNL     1     -35.420  16.330  -5.669  1.00 20.00     0.047 C 
HETATM    4  C5  UNL     1     -34.882  14.865  -5.640  1.00 20.00     0.136 C 
ENDROOT
BRANCH   4   5
HETATM    5  C1  UNL     1     -33.964  14.503  -4.441  1.00 20.00     0.253 C 
HETATM    6  O7  UNL     1     -33.230  13.520  -4.465  1.00 20.00    -0.276 OA
HETATM    7 CL9  UNL     1     -34.122  15.635  -3.132  1.00 20.00    -0.041 Cl
ENDBRANCH   4   5
BRANCH   4   8
HETATM    8  O8  UNL     1     -35.912  13.863  -5.799  1.00 20.00    -0.376 OA
HETATM    9  C6  UNL     1     -36.576  13.636  -4.572  1.00 20.00     0.203 C 
ENDBRANCH   4   8
TORSDOF 2
ENDMDL
