MODEL 1
REMARK VINA RESULT:      -4.8      0.000      0.000
REMARK  4 active torsions:
REMARK  status: ('A' for Active; 'I' for Inactive)
REMARK    1  A    between atoms: C2_2  and  C5_5 
REMARK    2  A    between atoms: C4_4  and  C8_8 
REMARK    3  A    between atoms: C7_7  and  C9_9 
REMARK    4  A    between atoms: C8_8  and  C9_9 
ROOT
HETATM    1  C1  UNL     1     -33.667   7.375   6.246  1.00 20.00     0.012 C 
HETATM    2  C3  UNL     1     -34.196   6.348   5.924  1.00 20.00    -0.117 C 
HETATM    3  C7  UNL     1     -34.844   5.086   5.535  1.00 20.00     0.094 C 
ENDROOT
BRANCH   3   4
HETATM    4  C9  UNL     1     -34.996   4.993   4.014  1.00 20.00     0.024 C 
BRANCH   4   5
HETATM    5  C8  UNL     1     -33.668   4.740   3.298  1.00 20.00     0.095 C 
BRANCH   5   6
HETATM    6  C4  UNL     1     -33.234   5.900   2.507  1.00 20.00    -0.098 C 
HETATM    7  C2  UNL     1     -32.878   6.848   1.860  1.00 20.00    -0.029 C 
BRANCH   7   8
HETATM    8  C5  UNL     1     -32.448   7.982   1.076  1.00 20.00     0.198 C 
HETATM    9  C6  UNL     1     -33.211   9.257   1.281  1.00 20.00     0.106 C 
HETATM   10  O10 UNL     1     -31.508   7.865   0.301  1.00 20.00    -0.284 OA
ENDBRANCH   7   8
ENDBRANCH   5   6
ENDBRANCH   4   5
ENDBRANCH   3   4
TORSDOF 4
ENDMDL
MODEL 2
REMARK VINA RESULT:      -4.8      1.204      1.335
REMARK  4 active torsions:
REMARK  status: ('A' for Active; 'I' for Inactive)
REMARK    1  A    between atoms: C2_2  and  C5_5 
REMARK    2  A    between atoms: C4_4  and  C8_8 
REMARK    3  A    between atoms: C7_7  and  C9_9 
REMARK    4  A    between atoms: C8_8  and  C9_9 
ROOT
HETATM    1  C1  UNL     1     -34.043   6.889   6.120  1.00 20.00     0.012 C 
HETATM    2  C3  UNL     1     -34.367   5.933   5.470  1.00 20.00    -0.117 C 
HETATM    3  C7  UNL     1     -34.766   4.759   4.679  1.00 20.00     0.094 C 
ENDROOT
BRANCH   3   4
HETATM    4  C9  UNL     1     -34.245   4.863   3.242  1.00 20.00     0.024 C 
BRANCH   4   5
HETATM    5  C8  UNL     1     -32.873   5.533   3.154  1.00 20.00     0.095 C 
BRANCH   5   6
HETATM    6  C4  UNL     1     -32.894   6.731   2.302  1.00 20.00    -0.098 C 
HETATM    7  C2  UNL     1     -32.912   7.709   1.606  1.00 20.00    -0.029 C 
BRANCH   7   8
HETATM    8  C5  UNL     1     -32.940   8.887   0.770  1.00 20.00     0.198 C 
HETATM    9  C6  UNL     1     -33.302   8.670  -0.669  1.00 20.00     0.106 C 
HETATM   10  O10 UNL     1     -32.676   9.980   1.252  1.00 20.00    -0.284 OA
ENDBRANCH   7   8
ENDBRANCH   5   6
ENDBRANCH   4   5
ENDBRANCH   3   4
TORSDOF 4
ENDMDL
MODEL 3
REMARK VINA RESULT:      -4.6     10.942     11.842
REMARK  4 active torsions:
REMARK  status: ('A' for Active; 'I' for Inactive)
REMARK    1  A    between atoms: C2_2  and  C5_5 
REMARK    2  A    between atoms: C4_4  and  C8_8 
REMARK    3  A    between atoms: C7_7  and  C9_9 
REMARK    4  A    between atoms: C8_8  and  C9_9 
ROOT
HETATM    1  C1  UNL     1     -30.894  18.284   0.258  1.00 20.00     0.012 C 
HETATM    2  C3  UNL     1     -31.605  18.355  -0.706  1.00 20.00    -0.117 C 
HETATM    3  C7  UNL     1     -32.476  18.446  -1.888  1.00 20.00     0.094 C 
ENDROOT
BRANCH   3   4
HETATM    4  C9  UNL     1     -33.377  17.213  -2.003  1.00 20.00     0.024 C 
BRANCH   4   5
HETATM    5  C8  UNL     1     -32.975  16.290  -3.155  1.00 20.00     0.095 C 
BRANCH   5   6
HETATM    6  C4  UNL     1     -34.069  15.394  -3.557  1.00 20.00    -0.098 C 
HETATM    7  C2  UNL     1     -34.964  14.663  -3.885  1.00 20.00    -0.029 C 
BRANCH   7   8
HETATM    8  C5  UNL     1     -36.042  13.789  -4.285  1.00 20.00     0.198 C 
HETATM    9  C6  UNL     1     -37.400  14.417  -4.391  1.00 20.00     0.106 C 
HETATM   10  O10 UNL     1     -35.814  12.609  -4.516  1.00 20.00    -0.284 OA
ENDBRANCH   7   8
ENDBRANCH   5   6
ENDBRANCH   4   5
ENDBRANCH   3   4
TORSDOF 4
ENDMDL
MODEL 4
REMARK VINA RESULT:      -4.4     11.073     11.901
REMARK  4 active torsions:
REMARK  status: ('A' for Active; 'I' for Inactive)
REMARK    1  A    between atoms: C2_2  and  C5_5 
REMARK    2  A    between atoms: C4_4  and  C8_8 
REMARK    3  A    between atoms: C7_7  and  C9_9 
REMARK    4  A    between atoms: C8_8  and  C9_9 
ROOT
HETATM    1  C1  UNL     1     -30.950  18.502   0.221  1.00 20.00     0.012 C 
HETATM    2  C3  UNL     1     -31.741  18.492  -0.681  1.00 20.00    -0.117 C 
HETATM    3  C7  UNL     1     -32.711  18.485  -1.787  1.00 20.00     0.094 C 
ENDROOT
BRANCH   3   4
HETATM    4  C9  UNL     1     -32.935  17.064  -2.312  1.00 20.00     0.024 C 
BRANCH   4   5
HETATM    5  C8  UNL     1     -34.305  16.498  -1.934  1.00 20.00     0.095 C 
BRANCH   5   6
HETATM    6  C4  UNL     1     -34.813  15.553  -2.939  1.00 20.00    -0.098 C 
HETATM    7  C2  UNL     1     -35.227  14.780  -3.759  1.00 20.00    -0.029 C 
BRANCH   7   8
HETATM    8  C5  UNL     1     -35.727  13.846  -4.740  1.00 20.00     0.198 C 
HETATM    9  C6  UNL     1     -35.981  14.396  -6.112  1.00 20.00     0.106 C 
HETATM   10  O10 UNL     1     -35.916  12.678  -4.426  1.00 20.00    -0.284 OA
ENDBRANCH   7   8
ENDBRANCH   5   6
ENDBRANCH   4   5
ENDBRANCH   3   4
TORSDOF 4
ENDMDL
MODEL 5
REMARK VINA RESULT:      -4.4     10.803     11.558
REMARK  4 active torsions:
REMARK  status: ('A' for Active; 'I' for Inactive)
REMARK    1  A    between atoms: C2_2  and  C5_5 
REMARK    2  A    between atoms: C4_4  and  C8_8 
REMARK    3  A    between atoms: C7_7  and  C9_9 
REMARK    4  A    between atoms: C8_8  and  C9_9 
ROOT
HETATM    1  C1  UNL     1     -35.518  17.158   0.224  1.00 20.00     0.012 C 
HETATM    2  C3  UNL     1     -34.561  17.522  -0.401  1.00 20.00    -0.117 C 
HETATM    3  C7  UNL     1     -33.386  17.972  -1.164  1.00 20.00     0.094 C 
ENDROOT
BRANCH   3   4
HETATM    4  C9  UNL     1     -33.544  17.652  -2.653  1.00 20.00     0.024 C 
BRANCH   4   5
HETATM    5  C8  UNL     1     -33.046  16.252  -3.017  1.00 20.00     0.095 C 
BRANCH   5   6
HETATM    6  C4  UNL     1     -34.136  15.375  -3.469  1.00 20.00    -0.098 C 
HETATM    7  C2  UNL     1     -35.027  14.660  -3.839  1.00 20.00    -0.029 C 
BRANCH   7   8
HETATM    8  C5  UNL     1     -36.099  13.804  -4.290  1.00 20.00     0.198 C 
HETATM    9  C6  UNL     1     -37.455  14.436  -4.389  1.00 20.00     0.106 C 
HETATM   10  O10 UNL     1     -35.868  12.634  -4.566  1.00 20.00    -0.284 OA
ENDBRANCH   7   8
ENDBRANCH   5   6
ENDBRANCH   4   5
ENDBRANCH   3   4
TORSDOF 4
ENDMDL
MODEL 6
REMARK VINA RESULT:      -4.1     10.910     11.689
REMARK  4 active torsions:
REMARK  status: ('A' for Active; 'I' for Inactive)
REMARK    1  A    between atoms: C2_2  and  C5_5 
REMARK    2  A    between atoms: C4_4  and  C8_8 
REMARK    3  A    between atoms: C7_7  and  C9_9 
REMARK    4  A    between atoms: C8_8  and  C9_9 
ROOT
HETATM    1  C1  UNL     1     -37.334  18.353  -1.509  1.00 20.00     0.012 C 
HETATM    2  C3  UNL     1     -36.346  17.715  -1.271  1.00 20.00    -0.117 C 
HETATM    3  C7  UNL     1     -35.137  16.931  -0.974  1.00 20.00     0.094 C 
ENDROOT
BRANCH   3   4
HETATM    4  C9  UNL     1     -33.944  17.429  -1.796  1.00 20.00     0.024 C 
BRANCH   4   5
HETATM    5  C8  UNL     1     -33.321  16.334  -2.663  1.00 20.00     0.095 C 
BRANCH   5   6
HETATM    6  C4  UNL     1     -34.332  15.439  -3.241  1.00 20.00    -0.098 C 
HETATM    7  C2  UNL     1     -35.160  14.708  -3.713  1.00 20.00    -0.029 C 
BRANCH   7   8
HETATM    8  C5  UNL     1     -36.161  13.834  -4.280  1.00 20.00     0.198 C 
HETATM    9  C6  UNL     1     -37.536  14.412  -4.435  1.00 20.00     0.106 C 
HETATM   10  O10 UNL     1     -35.859  12.692  -4.602  1.00 20.00    -0.284 OA
ENDBRANCH   7   8
ENDBRANCH   5   6
ENDBRANCH   4   5
ENDBRANCH   3   4
TORSDOF 4
ENDMDL
MODEL 7
REMARK VINA RESULT:      -4.1     14.496     15.624
REMARK  4 active torsions:
REMARK  status: ('A' for Active; 'I' for Inactive)
REMARK    1  A    between atoms: C2_2  and  C5_5 
REMARK    2  A    between atoms: C4_4  and  C8_8 
REMARK    3  A    between atoms: C7_7  and  C9_9 
REMARK    4  A    between atoms: C8_8  and  C9_9 
ROOT
HETATM    1  C1  UNL     1     -24.315  16.108  10.797  1.00 20.00     0.012 C 
HETATM    2  C3  UNL     1     -23.597  16.682  10.025  1.00 20.00    -0.117 C 
HETATM    3  C7  UNL     1     -22.714  17.380   9.078  1.00 20.00     0.094 C 
ENDROOT
BRANCH   3   4
HETATM    4  C9  UNL     1     -22.994  18.885   9.074  1.00 20.00     0.024 C 
BRANCH   4   5
HETATM    5  C8  UNL     1     -24.478  19.214   8.908  1.00 20.00     0.095 C 
BRANCH   5   6
HETATM    6  C4  UNL     1     -24.897  19.199   7.499  1.00 20.00    -0.098 C 
HETATM    7  C2  UNL     1     -25.239  19.185   6.348  1.00 20.00    -0.029 C 
BRANCH   7   8
HETATM    8  C5  UNL     1     -25.650  19.162   4.964  1.00 20.00     0.198 C 
HETATM    9  C6  UNL     1     -27.125  19.263   4.709  1.00 20.00     0.106 C 
HETATM   10  O10 UNL     1     -24.809  19.064   4.080  1.00 20.00    -0.284 OA
ENDBRANCH   7   8
ENDBRANCH   5   6
ENDBRANCH   4   5
ENDBRANCH   3   4
TORSDOF 4
ENDMDL
MODEL 8
REMARK VINA RESULT:      -4.0      9.951     10.820
REMARK  4 active torsions:
REMARK  status: ('A' for Active; 'I' for Inactive)
REMARK    1  A    between atoms: C2_2  and  C5_5 
REMARK    2  A    between atoms: C4_4  and  C8_8 
REMARK    3  A    between atoms: C7_7  and  C9_9 
REMARK    4  A    between atoms: C8_8  and  C9_9 
ROOT
HETATM    1  C1  UNL     1     -41.563   9.134   0.095  1.00 20.00     0.012 C 
HETATM    2  C3  UNL     1     -41.386   7.958   0.252  1.00 20.00    -0.117 C 
HETATM    3  C7  UNL     1     -41.167   6.516   0.449  1.00 20.00     0.094 C 
ENDROOT
BRANCH   3   4
HETATM    4  C9  UNL     1     -41.196   5.769  -0.887  1.00 20.00     0.024 C 
BRANCH   4   5
HETATM    5  C8  UNL     1     -42.574   5.196  -1.220  1.00 20.00     0.095 C 
BRANCH   5   6
HETATM    6  C4  UNL     1     -42.497   4.069  -2.160  1.00 20.00    -0.098 C 
HETATM    7  C2  UNL     1     -42.434   3.147  -2.927  1.00 20.00    -0.029 C 
BRANCH   7   8
HETATM    8  C5  UNL     1     -42.364   2.037  -3.847  1.00 20.00     0.198 C 
HETATM    9  C6  UNL     1     -42.292   2.385  -5.304  1.00 20.00     0.106 C 
HETATM   10  O10 UNL     1     -42.365   0.890  -3.418  1.00 20.00    -0.284 OA
ENDBRANCH   7   8
ENDBRANCH   5   6
ENDBRANCH   4   5
ENDBRANCH   3   4
TORSDOF 4
ENDMDL
MODEL 9
REMARK VINA RESULT:      -4.0     11.273     12.423
REMARK  4 active torsions:
REMARK  status: ('A' for Active; 'I' for Inactive)
REMARK    1  A    between atoms: C2_2  and  C5_5 
REMARK    2  A    between atoms: C4_4  and  C8_8 
REMARK    3  A    between atoms: C7_7  and  C9_9 
REMARK    4  A    between atoms: C8_8  and  C9_9 
ROOT
HETATM    1  C1  UNL     1     -34.077  15.066  -6.780  1.00 20.00     0.012 C 
HETATM    2  C3  UNL     1     -33.619  14.883  -5.686  1.00 20.00    -0.117 C 
HETATM    3  C7  UNL     1     -33.057  14.654  -4.346  1.00 20.00     0.094 C 
ENDROOT
BRANCH   3   4
HETATM    4  C9  UNL     1     -33.157  15.916  -3.485  1.00 20.00     0.024 C 
BRANCH   4   5
HETATM    5  C8  UNL     1     -34.323  15.871  -2.496  1.00 20.00     0.095 C 
BRANCH   5   6
HETATM    6  C4  UNL     1     -35.601  15.571  -3.156  1.00 20.00    -0.098 C 
HETATM    7  C2  UNL     1     -36.646  15.324  -3.695  1.00 20.00    -0.029 C 
BRANCH   7   8
HETATM    8  C5  UNL     1     -37.905  15.027  -4.337  1.00 20.00     0.198 C 
HETATM    9  C6  UNL     1     -38.648  16.196  -4.912  1.00 20.00     0.106 C 
HETATM   10  O10 UNL     1     -38.305  13.872  -4.386  1.00 20.00    -0.284 OA
ENDBRANCH   7   8
ENDBRANCH   5   6
ENDBRANCH   4   5
ENDBRANCH   3   4
TORSDOF 4
ENDMDL
