MODEL 1
REMARK VINA RESULT:      -4.5      0.000      0.000
REMARK  3 active torsions:
REMARK  status: ('A' for Active; 'I' for Inactive)
REMARK    1  A    between atoms: C1_1  and  C3_3 
REMARK    2  A    between atoms: C2_2  and  C7_7 
REMARK    3  A    between atoms: C7_7  and  C8_8 
ROOT
HETATM    1  C1  UNL     1     -32.832   7.162   1.839  1.00 20.00    -0.029 C 
HETATM    2  C2  UNL     1     -33.228   6.360   2.641  1.00 20.00    -0.098 C 
ENDROOT
BRANCH   2   3
HETATM    3  C7  UNL     1     -33.714   5.377   3.620  1.00 20.00     0.098 C 
BRANCH   3   4
HETATM    4  C8  UNL     1     -34.436   6.008   4.824  1.00 20.00    -0.012 C 
HETATM    5  C5  UNL     1     -34.892   4.961   5.842  1.00 20.00     0.010 C 
HETATM    6  C6  UNL     1     -33.595   7.092   5.504  1.00 20.00     0.010 C 
ENDBRANCH   3   4
ENDBRANCH   2   3
BRANCH   1   7
HETATM    7  C3  UNL     1     -32.363   8.127   0.875  1.00 20.00     0.198 C 
HETATM    8  C4  UNL     1     -33.073   9.448   0.859  1.00 20.00     0.106 C 
HETATM    9  O9  UNL     1     -31.434   7.842   0.130  1.00 20.00    -0.284 OA
ENDBRANCH   1   7
TORSDOF 3
ENDMDL
MODEL 2
REMARK VINA RESULT:      -4.5      2.335      5.104
REMARK  3 active torsions:
REMARK  status: ('A' for Active; 'I' for Inactive)
REMARK    1  A    between atoms: C1_1  and  C3_3 
REMARK    2  A    between atoms: C2_2  and  C7_7 
REMARK    3  A    between atoms: C7_7  and  C8_8 
ROOT
HETATM    1  C1  UNL     1     -33.717   6.101   3.662  1.00 20.00    -0.029 C 
HETATM    2  C2  UNL     1     -33.087   6.727   2.853  1.00 20.00    -0.098 C 
ENDROOT
BRANCH   2   3
HETATM    3  C7  UNL     1     -32.317   7.492   1.863  1.00 20.00     0.098 C 
BRANCH   3   4
HETATM    4  C8  UNL     1     -33.181   8.410   0.980  1.00 20.00    -0.012 C 
HETATM    5  C5  UNL     1     -32.884   9.892   1.217  1.00 20.00     0.010 C 
HETATM    6  C6  UNL     1     -33.063   8.066  -0.507  1.00 20.00     0.010 C 
ENDBRANCH   3   4
ENDBRANCH   2   3
BRANCH   1   7
HETATM    7  C3  UNL     1     -34.467   5.343   4.634  1.00 20.00     0.198 C 
HETATM    8  C4  UNL     1     -34.534   5.921   6.017  1.00 20.00     0.106 C 
HETATM    9  O9  UNL     1     -35.005   4.294   4.306  1.00 20.00    -0.284 OA
ENDBRANCH   1   7
TORSDOF 3
ENDMDL
MODEL 3
REMARK VINA RESULT:      -4.4     10.586     11.196
REMARK  3 active torsions:
REMARK  status: ('A' for Active; 'I' for Inactive)
REMARK    1  A    between atoms: C1_1  and  C3_3 
REMARK    2  A    between atoms: C2_2  and  C7_7 
REMARK    3  A    between atoms: C7_7  and  C8_8 
ROOT
HETATM    1  C1  UNL     1     -35.047  14.654  -3.851  1.00 20.00    -0.029 C 
HETATM    2  C2  UNL     1     -34.164  15.372  -3.467  1.00 20.00    -0.098 C 
ENDROOT
BRANCH   2   3
HETATM    3  C7  UNL     1     -33.083  16.250  -2.996  1.00 20.00     0.098 C 
BRANCH   3   4
HETATM    4  C8  UNL     1     -33.572  17.423  -2.129  1.00 20.00    -0.012 C 
HETATM    5  C5  UNL     1     -34.722  17.021  -1.202  1.00 20.00     0.010 C 
HETATM    6  C6  UNL     1     -32.437  18.071  -1.332  1.00 20.00     0.010 C 
ENDBRANCH   3   4
ENDBRANCH   2   3
BRANCH   1   7
HETATM    7  C3  UNL     1     -36.113  13.797  -4.308  1.00 20.00     0.198 C 
HETATM    8  C4  UNL     1     -37.472  14.424  -4.410  1.00 20.00     0.106 C 
HETATM    9  O9  UNL     1     -35.878  12.628  -4.588  1.00 20.00    -0.284 OA
ENDBRANCH   1   7
TORSDOF 3
ENDMDL
MODEL 4
REMARK VINA RESULT:      -4.3     10.713     11.503
REMARK  3 active torsions:
REMARK  status: ('A' for Active; 'I' for Inactive)
REMARK    1  A    between atoms: C1_1  and  C3_3 
REMARK    2  A    between atoms: C2_2  and  C7_7 
REMARK    3  A    between atoms: C7_7  and  C8_8 
ROOT
HETATM    1  C1  UNL     1     -35.237  14.796  -3.741  1.00 20.00    -0.029 C 
HETATM    2  C2  UNL     1     -34.854  15.562  -2.899  1.00 20.00    -0.098 C 
ENDROOT
BRANCH   2   3
HETATM    3  C7  UNL     1     -34.383  16.499  -1.869  1.00 20.00     0.098 C 
BRANCH   3   4
HETATM    4  C8  UNL     1     -33.044  17.175  -2.213  1.00 20.00    -0.012 C 
HETATM    5  C5  UNL     1     -33.089  17.906  -3.556  1.00 20.00     0.010 C 
HETATM    6  C6  UNL     1     -32.564  18.114  -1.103  1.00 20.00     0.010 C 
ENDBRANCH   3   4
ENDBRANCH   2   3
BRANCH   1   7
HETATM    7  C3  UNL     1     -35.695  13.870  -4.749  1.00 20.00     0.198 C 
HETATM    8  C4  UNL     1     -35.855  14.423  -6.133  1.00 20.00     0.106 C 
HETATM    9  O9  UNL     1     -35.927  12.706  -4.447  1.00 20.00    -0.284 OA
ENDBRANCH   1   7
TORSDOF 3
ENDMDL
MODEL 5
REMARK VINA RESULT:      -4.2     10.658     11.288
REMARK  3 active torsions:
REMARK  status: ('A' for Active; 'I' for Inactive)
REMARK    1  A    between atoms: C1_1  and  C3_3 
REMARK    2  A    between atoms: C2_2  and  C7_7 
REMARK    3  A    between atoms: C7_7  and  C8_8 
ROOT
HETATM    1  C1  UNL     1     -35.514  14.797  -3.626  1.00 20.00    -0.029 C 
HETATM    2  C2  UNL     1     -35.307  15.529  -2.696  1.00 20.00    -0.098 C 
ENDROOT
BRANCH   2   3
HETATM    3  C7  UNL     1     -35.052  16.423  -1.558  1.00 20.00     0.098 C 
BRANCH   3   4
HETATM    4  C8  UNL     1     -33.997  17.506  -1.846  1.00 20.00    -0.012 C 
HETATM    5  C5  UNL     1     -33.446  18.137  -0.566  1.00 20.00     0.010 C 
HETATM    6  C6  UNL     1     -32.857  16.989  -2.727  1.00 20.00     0.010 C 
ENDBRANCH   3   4
ENDBRANCH   2   3
BRANCH   1   7
HETATM    7  C3  UNL     1     -35.760  13.912  -4.739  1.00 20.00     0.198 C 
HETATM    8  C4  UNL     1     -35.775  14.545  -6.098  1.00 20.00     0.106 C 
HETATM    9  O9  UNL     1     -35.941  12.718  -4.540  1.00 20.00    -0.284 OA
ENDBRANCH   1   7
TORSDOF 3
ENDMDL
MODEL 6
REMARK VINA RESULT:      -4.1     15.121     16.040
REMARK  3 active torsions:
REMARK  status: ('A' for Active; 'I' for Inactive)
REMARK    1  A    between atoms: C1_1  and  C3_3 
REMARK    2  A    between atoms: C2_2  and  C7_7 
REMARK    3  A    between atoms: C7_7  and  C8_8 
ROOT
HETATM    1  C1  UNL     1     -23.805  18.508   8.751  1.00 20.00    -0.029 C 
HETATM    2  C2  UNL     1     -23.388  18.190   9.831  1.00 20.00    -0.098 C 
ENDROOT
BRANCH   2   3
HETATM    3  C7  UNL     1     -22.879  17.800  11.154  1.00 20.00     0.098 C 
BRANCH   3   4
HETATM    4  C8  UNL     1     -23.960  17.237  12.092  1.00 20.00    -0.012 C 
HETATM    5  C5  UNL     1     -25.097  18.232  12.332  1.00 20.00     0.010 C 
HETATM    6  C6  UNL     1     -24.511  15.894  11.606  1.00 20.00     0.010 C 
ENDBRANCH   3   4
ENDBRANCH   2   3
BRANCH   1   7
HETATM    7  C3  UNL     1     -24.311  18.886   7.453  1.00 20.00     0.198 C 
HETATM    8  C4  UNL     1     -25.761  19.263   7.392  1.00 20.00     0.106 C 
HETATM    9  O9  UNL     1     -23.564  18.885   6.484  1.00 20.00    -0.284 OA
ENDBRANCH   1   7
TORSDOF 3
ENDMDL
MODEL 7
REMARK VINA RESULT:      -4.0     10.671     11.072
REMARK  3 active torsions:
REMARK  status: ('A' for Active; 'I' for Inactive)
REMARK    1  A    between atoms: C1_1  and  C3_3 
REMARK    2  A    between atoms: C2_2  and  C7_7 
REMARK    3  A    between atoms: C7_7  and  C8_8 
ROOT
HETATM    1  C1  UNL     1     -35.188  14.796  -3.715  1.00 20.00    -0.029 C 
HETATM    2  C2  UNL     1     -34.780  15.564  -2.887  1.00 20.00    -0.098 C 
ENDROOT
BRANCH   2   3
HETATM    3  C7  UNL     1     -34.280  16.504  -1.874  1.00 20.00     0.098 C 
BRANCH   3   4
HETATM    4  C8  UNL     1     -35.350  16.949  -0.860  1.00 20.00    -0.012 C 
HETATM    5  C5  UNL     1     -34.743  17.665   0.348  1.00 20.00     0.010 C 
HETATM    6  C6  UNL     1     -36.441  17.807  -1.505  1.00 20.00     0.010 C 
ENDBRANCH   3   4
ENDBRANCH   2   3
BRANCH   1   7
HETATM    7  C3  UNL     1     -35.671  13.872  -4.713  1.00 20.00     0.198 C 
HETATM    8  C4  UNL     1     -35.889  14.434  -6.086  1.00 20.00     0.106 C 
HETATM    9  O9  UNL     1     -35.877  12.704  -4.412  1.00 20.00    -0.284 OA
ENDBRANCH   1   7
TORSDOF 3
ENDMDL
MODEL 8
REMARK VINA RESULT:      -4.0     15.510     16.362
REMARK  3 active torsions:
REMARK  status: ('A' for Active; 'I' for Inactive)
REMARK    1  A    between atoms: C1_1  and  C3_3 
REMARK    2  A    between atoms: C2_2  and  C7_7 
REMARK    3  A    between atoms: C7_7  and  C8_8 
ROOT
HETATM    1  C1  UNL     1     -22.904  17.921   9.421  1.00 20.00    -0.029 C 
HETATM    2  C2  UNL     1     -23.164  17.952  10.593  1.00 20.00    -0.098 C 
ENDROOT
BRANCH   2   3
HETATM    3  C7  UNL     1     -23.482  17.990  12.027  1.00 20.00     0.098 C 
BRANCH   3   4
HETATM    4  C8  UNL     1     -24.988  17.894  12.331  1.00 20.00    -0.012 C 
HETATM    5  C5  UNL     1     -25.813  18.868  11.488  1.00 20.00     0.010 C 
HETATM    6  C6  UNL     1     -25.521  16.467  12.185  1.00 20.00     0.010 C 
ENDBRANCH   3   4
ENDBRANCH   2   3
BRANCH   1   7
HETATM    7  C3  UNL     1     -22.591  17.876   8.013  1.00 20.00     0.198 C 
HETATM    8  C4  UNL     1     -21.329  17.159   7.637  1.00 20.00     0.106 C 
HETATM    9  O9  UNL     1     -23.342  18.406   7.204  1.00 20.00    -0.284 OA
ENDBRANCH   1   7
TORSDOF 3
ENDMDL
MODEL 9
REMARK VINA RESULT:      -3.9     10.923     11.809
REMARK  3 active torsions:
REMARK  status: ('A' for Active; 'I' for Inactive)
REMARK    1  A    between atoms: C1_1  and  C3_3 
REMARK    2  A    between atoms: C2_2  and  C7_7 
REMARK    3  A    between atoms: C7_7  and  C8_8 
ROOT
HETATM    1  C1  UNL     1     -32.479  17.849  -1.407  1.00 20.00    -0.029 C 
HETATM    2  C2  UNL     1     -33.200  17.402  -2.257  1.00 20.00    -0.098 C 
ENDROOT
BRANCH   2   3
HETATM    3  C7  UNL     1     -34.084  16.853  -3.295  1.00 20.00     0.098 C 
BRANCH   3   4
HETATM    4  C8  UNL     1     -34.118  15.315  -3.329  1.00 20.00    -0.012 C 
HETATM    5  C5  UNL     1     -35.509  14.772  -3.667  1.00 20.00     0.010 C 
HETATM    6  C6  UNL     1     -33.066  14.730  -4.274  1.00 20.00     0.010 C 
ENDBRANCH   3   4
ENDBRANCH   2   3
BRANCH   1   7
HETATM    7  C3  UNL     1     -31.613  18.381  -0.383  1.00 20.00     0.198 C 
HETATM    8  C4  UNL     1     -32.289  18.941   0.832  1.00 20.00     0.106 C 
HETATM    9  O9  UNL     1     -30.399  18.355  -0.538  1.00 20.00    -0.284 OA
ENDBRANCH   1   7
TORSDOF 3
ENDMDL
