MODEL 1
REMARK VINA RESULT:      -5.7      0.000      0.000
REMARK  1 active torsions:
REMARK  status: ('A' for Active; 'I' for Inactive)
REMARK    1  A    between atoms: C5_5  and  C10_10 
ROOT
HETATM    1  C1  UNL     1     -34.311   4.025   3.756  1.00 20.00     0.003 C 
HETATM    2  C2  UNL     1     -33.774   4.104   2.528  1.00 20.00    -0.025 C 
HETATM    3  C3  UNL     1     -34.622   5.220   5.926  1.00 20.00    -0.019 C 
HETATM    4  C4  UNL     1     -34.314   5.166   4.626  1.00 20.00    -0.057 C 
HETATM    5  C6  UNL     1     -33.112   5.348   1.991  1.00 20.00     0.039 C 
HETATM    6  C7  UNL     1     -34.421   6.600   6.466  1.00 20.00     0.028 C 
HETATM    7  C8  UNL     1     -33.571   7.266   5.378  1.00 20.00     0.014 C 
HETATM    8  C9  UNL     1     -33.913   6.510   4.088  1.00 20.00     0.029 C 
HETATM    9  C10 UNL     1     -32.762   6.376   3.087  1.00 20.00     0.059 C 
ENDROOT
BRANCH   9  10
HETATM   10  C5  UNL     1     -32.470   7.697   2.443  1.00 20.00     0.236 C 
HETATM   11  O11 UNL     1     -32.492   7.878   1.231  1.00 20.00    -0.306 OA
ENDBRANCH   9  10
TORSDOF 1
ENDMDL
MODEL 2
REMARK VINA RESULT:      -5.4     16.467     17.002
REMARK  1 active torsions:
REMARK  status: ('A' for Active; 'I' for Inactive)
REMARK    1  A    between atoms: C5_5  and  C10_10 
ROOT
HETATM    1  C1  UNL     1     -22.582  17.739  11.238  1.00 20.00     0.003 C 
HETATM    2  C2  UNL     1     -21.887  17.779  10.091  1.00 20.00    -0.025 C 
HETATM    3  C3  UNL     1     -24.748  18.329  12.332  1.00 20.00    -0.019 C 
HETATM    4  C4  UNL     1     -23.964  18.123  11.268  1.00 20.00    -0.057 C 
HETATM    5  C6  UNL     1     -22.469  18.256   8.784  1.00 20.00     0.039 C 
HETATM    6  C7  UNL     1     -26.107  18.791  11.913  1.00 20.00     0.028 C 
HETATM    7  C8  UNL     1     -25.886  19.205  10.453  1.00 20.00     0.014 C 
HETATM    8  C9  UNL     1     -24.695  18.364   9.977  1.00 20.00     0.029 C 
HETATM    9  C10 UNL     1     -23.784  19.046   8.953  1.00 20.00     0.059 C 
ENDROOT
BRANCH   9  10
HETATM   10  C5  UNL     1     -24.469  19.145   7.625  1.00 20.00     0.236 C 
HETATM   11  O11 UNL     1     -23.903  18.946   6.556  1.00 20.00    -0.306 OA
ENDBRANCH   9  10
TORSDOF 1
ENDMDL
MODEL 3
REMARK VINA RESULT:      -5.2     11.984     12.340
REMARK  1 active torsions:
REMARK  status: ('A' for Active; 'I' for Inactive)
REMARK    1  A    between atoms: C5_5  and  C10_10 
ROOT
HETATM    1  C1  UNL     1     -32.976  15.447  -3.780  1.00 20.00     0.003 C 
HETATM    2  C2  UNL     1     -33.490  14.649  -4.729  1.00 20.00    -0.025 C 
HETATM    3  C3  UNL     1     -33.526  17.039  -1.937  1.00 20.00    -0.019 C 
HETATM    4  C4  UNL     1     -33.831  16.078  -2.816  1.00 20.00    -0.057 C 
HETATM    5  C6  UNL     1     -34.967  14.389  -4.884  1.00 20.00     0.039 C 
HETATM    6  C7  UNL     1     -34.737  17.464  -1.168  1.00 20.00     0.028 C 
HETATM    7  C8  UNL     1     -35.885  16.882  -2.002  1.00 20.00     0.014 C 
HETATM    8  C9  UNL     1     -35.277  15.678  -2.732  1.00 20.00     0.029 C 
HETATM    9  C10 UNL     1     -35.849  15.402  -4.125  1.00 20.00     0.059 C 
ENDROOT
BRANCH   9  10
HETATM   10  C5  UNL     1     -37.242  14.860  -4.022  1.00 20.00     0.236 C 
HETATM   11  O11 UNL     1     -37.564  13.746  -4.421  1.00 20.00    -0.306 OA
ENDBRANCH   9  10
TORSDOF 1
ENDMDL
MODEL 4
REMARK VINA RESULT:      -4.9     12.113     12.685
REMARK  1 active torsions:
REMARK  status: ('A' for Active; 'I' for Inactive)
REMARK    1  A    between atoms: C5_5  and  C10_10 
ROOT
HETATM    1  C1  UNL     1     -33.539  15.203  -5.347  1.00 20.00     0.003 C 
HETATM    2  C2  UNL     1     -34.444  14.698  -6.200  1.00 20.00    -0.025 C 
HETATM    3  C3  UNL     1     -33.219  16.306  -3.129  1.00 20.00    -0.019 C 
HETATM    4  C4  UNL     1     -33.928  15.615  -4.029  1.00 20.00    -0.057 C 
HETATM    5  C6  UNL     1     -35.909  14.564  -5.870  1.00 20.00     0.039 C 
HETATM    6  C7  UNL     1     -34.034  16.586  -1.907  1.00 20.00     0.028 C 
HETATM    7  C8  UNL     1     -35.462  16.295  -2.382  1.00 20.00     0.014 C 
HETATM    8  C9  UNL     1     -35.304  15.283  -3.524  1.00 20.00     0.029 C 
HETATM    9  C10 UNL     1     -36.340  15.398  -4.645  1.00 20.00     0.059 C 
ENDROOT
BRANCH   9  10
HETATM   10  C5  UNL     1     -37.679  14.921  -4.173  1.00 20.00     0.236 C 
HETATM   11  O11 UNL     1     -38.103  13.788  -4.377  1.00 20.00    -0.306 OA
ENDBRANCH   9  10
TORSDOF 1
ENDMDL
MODEL 5
REMARK VINA RESULT:      -4.8     11.987     12.939
REMARK  1 active torsions:
REMARK  status: ('A' for Active; 'I' for Inactive)
REMARK    1  A    between atoms: C5_5  and  C10_10 
ROOT
HETATM    1  C1  UNL     1     -35.403  16.958  -0.457  1.00 20.00     0.003 C 
HETATM    2  C2  UNL     1     -34.933  17.924   0.347  1.00 20.00    -0.025 C 
HETATM    3  C3  UNL     1     -35.058  15.755  -2.617  1.00 20.00    -0.019 C 
HETATM    4  C4  UNL     1     -34.663  16.547  -1.615  1.00 20.00    -0.057 C 
HETATM    5  C6  UNL     1     -33.646  18.666   0.087  1.00 20.00     0.039 C 
HETATM    6  C7  UNL     1     -33.994  15.645  -3.663  1.00 20.00     0.028 C 
HETATM    7  C8  UNL     1     -33.060  16.810  -3.315  1.00 20.00     0.014 C 
HETATM    8  C9  UNL     1     -33.258  17.044  -1.812  1.00 20.00     0.029 C 
HETATM    9  C10 UNL     1     -33.125  18.499  -1.355  1.00 20.00     0.059 C 
ENDROOT
BRANCH   9  10
HETATM   10  C5  UNL     1     -31.693  18.938  -1.413  1.00 20.00     0.236 C 
HETATM   11  O11 UNL     1     -30.803  18.428  -0.742  1.00 20.00    -0.306 OA
ENDBRANCH   9  10
TORSDOF 1
ENDMDL
MODEL 6
REMARK VINA RESULT:      -4.7     11.793     12.501
REMARK  1 active torsions:
REMARK  status: ('A' for Active; 'I' for Inactive)
REMARK    1  A    between atoms: C5_5  and  C10_10 
ROOT
HETATM    1  C1  UNL     1     -33.142  16.395  -3.070  1.00 20.00     0.003 C 
HETATM    2  C2  UNL     1     -32.785  15.311  -3.775  1.00 20.00    -0.025 C 
HETATM    3  C3  UNL     1     -35.070  17.789  -2.309  1.00 20.00    -0.019 C 
HETATM    4  C4  UNL     1     -34.526  16.677  -2.814  1.00 20.00    -0.057 C 
HETATM    5  C6  UNL     1     -33.778  14.347  -4.375  1.00 20.00     0.039 C 
HETATM    6  C7  UNL     1     -36.561  17.689  -2.278  1.00 20.00     0.028 C 
HETATM    7  C8  UNL     1     -36.837  16.502  -3.208  1.00 20.00     0.014 C 
HETATM    8  C9  UNL     1     -35.566  15.645  -3.148  1.00 20.00     0.029 C 
HETATM    9  C10 UNL     1     -35.212  14.912  -4.444  1.00 20.00     0.059 C 
ENDROOT
BRANCH   9  10
HETATM   10  C5  UNL     1     -36.170  13.786  -4.689  1.00 20.00     0.236 C 
HETATM   11  O11 UNL     1     -35.899  12.610  -4.475  1.00 20.00    -0.306 OA
ENDBRANCH   9  10
TORSDOF 1
ENDMDL
MODEL 7
REMARK VINA RESULT:      -4.6     11.994     12.495
REMARK  1 active torsions:
REMARK  status: ('A' for Active; 'I' for Inactive)
REMARK    1  A    between atoms: C5_5  and  C10_10 
ROOT
HETATM    1  C1  UNL     1     -35.255  16.398  -1.578  1.00 20.00     0.003 C 
HETATM    2  C2  UNL     1     -34.306  16.362  -2.526  1.00 20.00    -0.025 C 
HETATM    3  C3  UNL     1     -35.830  17.238   0.703  1.00 20.00    -0.019 C 
HETATM    4  C4  UNL     1     -35.095  17.222  -0.414  1.00 20.00    -0.057 C 
HETATM    5  C6  UNL     1     -33.010  17.127  -2.431  1.00 20.00     0.039 C 
HETATM    6  C7  UNL     1     -35.268  18.202   1.699  1.00 20.00     0.028 C 
HETATM    7  C8  UNL     1     -33.860  18.467   1.153  1.00 20.00     0.014 C 
HETATM    8  C9  UNL     1     -33.963  18.210  -0.356  1.00 20.00     0.029 C 
HETATM    9  C10 UNL     1     -32.703  17.635  -1.007  1.00 20.00     0.059 C 
ENDROOT
BRANCH   9  10
HETATM   10  C5  UNL     1     -31.628  18.677  -1.080  1.00 20.00     0.236 C 
HETATM   11  O11 UNL     1     -30.509  18.528  -0.604  1.00 20.00    -0.306 OA
ENDBRANCH   9  10
TORSDOF 1
ENDMDL
MODEL 8
REMARK VINA RESULT:      -4.6     11.959     12.986
REMARK  1 active torsions:
REMARK  status: ('A' for Active; 'I' for Inactive)
REMARK    1  A    between atoms: C5_5  and  C10_10 
ROOT
HETATM    1  C1  UNL     1     -32.216  17.984  -1.554  1.00 20.00     0.003 C 
HETATM    2  C2  UNL     1     -32.507  18.697  -0.455  1.00 20.00    -0.025 C 
HETATM    3  C3  UNL     1     -33.044  16.229  -3.126  1.00 20.00    -0.019 C 
HETATM    4  C4  UNL     1     -33.206  17.142  -2.162  1.00 20.00    -0.057 C 
HETATM    5  C6  UNL     1     -33.845  18.643   0.238  1.00 20.00     0.039 C 
HETATM    6  C7  UNL     1     -34.331  15.523  -3.414  1.00 20.00     0.028 C 
HETATM    7  C8  UNL     1     -35.192  15.885  -2.198  1.00 20.00     0.014 C 
HETATM    8  C9  UNL     1     -34.633  17.222  -1.698  1.00 20.00     0.029 C 
HETATM    9  C10 UNL     1     -34.704  17.433  -0.183  1.00 20.00     0.059 C 
ENDROOT
BRANCH   9  10
HETATM   10  C5  UNL     1     -36.120  17.662   0.249  1.00 20.00     0.236 C 
HETATM   11  O11 UNL     1     -36.466  17.726   1.423  1.00 20.00    -0.306 OA
ENDBRANCH   9  10
TORSDOF 1
ENDMDL
MODEL 9
REMARK VINA RESULT:      -4.5     11.720     12.831
REMARK  1 active torsions:
REMARK  status: ('A' for Active; 'I' for Inactive)
REMARK    1  A    between atoms: C5_5  and  C10_10 
ROOT
HETATM    1  C1  UNL     1     -37.289  17.463  -3.103  1.00 20.00     0.003 C 
HETATM    2  C2  UNL     1     -38.212  16.746  -3.763  1.00 20.00    -0.025 C 
HETATM    3  C3  UNL     1     -34.944  17.472  -2.243  1.00 20.00    -0.019 C 
HETATM    4  C4  UNL     1     -35.934  16.999  -3.008  1.00 20.00    -0.057 C 
HETATM    5  C6  UNL     1     -37.923  15.412  -4.403  1.00 20.00     0.039 C 
HETATM    6  C7  UNL     1     -33.708  16.645  -2.397  1.00 20.00     0.028 C 
HETATM    7  C8  UNL     1     -34.237  15.374  -3.072  1.00 20.00     0.014 C 
HETATM    8  C9  UNL     1     -35.496  15.818  -3.827  1.00 20.00     0.029 C 
HETATM    9  C10 UNL     1     -36.608  14.770  -3.913  1.00 20.00     0.059 C 
ENDROOT
BRANCH   9  10
HETATM   10  C5  UNL     1     -36.220  13.669  -4.853  1.00 20.00     0.236 C 
HETATM   11  O11 UNL     1     -35.817  12.573  -4.480  1.00 20.00    -0.306 OA
ENDBRANCH   9  10
TORSDOF 1
ENDMDL
