MODEL 1
REMARK VINA RESULT:      -4.7      0.000      0.000
REMARK  2 active torsions:
REMARK  status: ('A' for Active; 'I' for Inactive)
REMARK    1  A    between atoms: C1_1  and  C6_6 
REMARK    2  A    between atoms: C1_1  and  O10_10 
ROOT
HETATM    1  C2  UNL     1     -33.858  16.210  -2.681  1.00 20.00     0.006 C 
HETATM    2  C3  UNL     1     -32.933  15.614  -3.752  1.00 20.00     0.036 C 
HETATM    3  C4  UNL     1     -35.135  15.359  -2.742  1.00 20.00     0.052 C 
HETATM    4  C5  UNL     1     -33.861  15.032  -4.772  1.00 20.00     0.168 A 
HETATM    5  C6  UNL     1     -35.204  14.860  -4.157  1.00 20.00     0.174 A 
HETATM    6  O9  UNL     1     -34.960  15.856  -5.167  1.00 20.00    -0.358 OA
ENDROOT
BRANCH   5   7
HETATM    7  C1  UNL     1     -36.116  13.804  -4.587  1.00 20.00     0.296 C 
HETATM    8  O8  UNL     1     -35.907  12.609  -4.424  1.00 20.00    -0.262 OA
BRANCH   7   9
HETATM    9  O10 UNL     1     -37.208  14.360  -5.187  1.00 20.00    -0.324 OA
HETATM   10  C7  UNL     1     -38.306  14.648  -4.317  1.00 20.00     0.213 C 
ENDBRANCH   7   9
ENDBRANCH   5   7
TORSDOF 2
ENDMDL
MODEL 2
REMARK VINA RESULT:      -4.3     15.746     17.262
REMARK  2 active torsions:
REMARK  status: ('A' for Active; 'I' for Inactive)
REMARK    1  A    between atoms: C1_1  and  C6_6 
REMARK    2  A    between atoms: C1_1  and  O10_10 
ROOT
HETATM    1  C2  UNL     1     -23.881  17.974  10.792  1.00 20.00     0.006 C 
HETATM    2  C3  UNL     1     -22.961  17.051   9.980  1.00 20.00     0.036 C 
HETATM    3  C4  UNL     1     -24.781  18.655   9.749  1.00 20.00     0.052 C 
HETATM    4  C5  UNL     1     -22.847  17.713   8.642  1.00 20.00     0.168 A 
HETATM    5  C6  UNL     1     -23.964  18.683   8.489  1.00 20.00     0.174 A 
HETATM    6  O9  UNL     1     -22.603  19.121   8.655  1.00 20.00    -0.358 OA
ENDROOT
BRANCH   5   7
HETATM    7  C1  UNL     1     -24.526  19.007   7.181  1.00 20.00     0.296 C 
HETATM    8  O8  UNL     1     -23.853  19.241   6.185  1.00 20.00    -0.262 OA
BRANCH   7   9
HETATM    9  O10 UNL     1     -25.887  19.008   7.257  1.00 20.00    -0.324 OA
HETATM   10  C7  UNL     1     -26.571  18.729   6.031  1.00 20.00     0.213 C 
ENDBRANCH   7   9
ENDBRANCH   5   7
TORSDOF 2
ENDMDL
MODEL 3
REMARK VINA RESULT:      -4.3     17.045     18.573
REMARK  2 active torsions:
REMARK  status: ('A' for Active; 'I' for Inactive)
REMARK    1  A    between atoms: C1_1  and  C6_6 
REMARK    2  A    between atoms: C1_1  and  O10_10 
ROOT
HETATM    1  C2  UNL     1     -25.368  17.169  12.305  1.00 20.00     0.006 C 
HETATM    2  C3  UNL     1     -24.686  16.029  11.536  1.00 20.00     0.036 C 
HETATM    3  C4  UNL     1     -25.353  18.364  11.339  1.00 20.00     0.052 C 
HETATM    4  C5  UNL     1     -23.746  16.716  10.595  1.00 20.00     0.168 A 
HETATM    5  C6  UNL     1     -24.157  18.139  10.459  1.00 20.00     0.174 A 
HETATM    6  O9  UNL     1     -22.952  17.766  11.152  1.00 20.00    -0.358 OA
ENDROOT
BRANCH   5   7
HETATM    7  C1  UNL     1     -23.915  18.895   9.234  1.00 20.00     0.296 C 
HETATM    8  O8  UNL     1     -22.807  19.263   8.864  1.00 20.00    -0.262 OA
BRANCH   7   9
HETATM    9  O10 UNL     1     -25.098  19.116   8.593  1.00 20.00    -0.324 OA
HETATM   10  C7  UNL     1     -25.034  19.103   7.163  1.00 20.00     0.213 C 
ENDBRANCH   7   9
ENDBRANCH   5   7
TORSDOF 2
ENDMDL
MODEL 4
REMARK VINA RESULT:      -4.2     11.060     12.031
REMARK  2 active torsions:
REMARK  status: ('A' for Active; 'I' for Inactive)
REMARK    1  A    between atoms: C1_1  and  C6_6 
REMARK    2  A    between atoms: C1_1  and  O10_10 
ROOT
HETATM    1  C2  UNL     1     -34.957   4.608   4.504  1.00 20.00     0.006 C 
HETATM    2  C3  UNL     1     -34.506   5.404   5.738  1.00 20.00     0.036 C 
HETATM    3  C4  UNL     1     -33.987   5.023   3.387  1.00 20.00     0.052 C 
HETATM    4  C5  UNL     1     -33.882   6.645   5.179  1.00 20.00     0.168 A 
HETATM    5  C6  UNL     1     -33.550   6.414   3.748  1.00 20.00     0.174 A 
HETATM    6  O9  UNL     1     -34.611   7.304   4.141  1.00 20.00    -0.358 OA
ENDROOT
BRANCH   5   7
HETATM    7  C1  UNL     1     -32.430   7.091   3.101  1.00 20.00     0.296 C 
HETATM    8  O8  UNL     1     -31.499   7.607   3.706  1.00 20.00    -0.262 OA
BRANCH   7   9
HETATM    9  O10 UNL     1     -32.594   7.053   1.748  1.00 20.00    -0.324 OA
HETATM   10  C7  UNL     1     -32.703   8.328   1.106  1.00 20.00     0.213 C 
ENDBRANCH   7   9
ENDBRANCH   5   7
TORSDOF 2
ENDMDL
MODEL 5
REMARK VINA RESULT:      -4.1      1.935      2.225
REMARK  2 active torsions:
REMARK  status: ('A' for Active; 'I' for Inactive)
REMARK    1  A    between atoms: C1_1  and  C6_6 
REMARK    2  A    between atoms: C1_1  and  O10_10 
ROOT
HETATM    1  C2  UNL     1     -34.820  16.761  -1.820  1.00 20.00     0.006 C 
HETATM    2  C3  UNL     1     -33.334  17.079  -2.045  1.00 20.00     0.036 C 
HETATM    3  C4  UNL     1     -35.089  15.505  -2.663  1.00 20.00     0.052 C 
HETATM    4  C5  UNL     1     -33.036  16.544  -3.411  1.00 20.00     0.168 A 
HETATM    5  C6  UNL     1     -34.096  15.571  -3.788  1.00 20.00     0.174 A 
HETATM    6  O9  UNL     1     -33.988  16.854  -4.431  1.00 20.00    -0.358 OA
ENDROOT
BRANCH   5   7
HETATM    7  C1  UNL     1     -33.825  14.447  -4.680  1.00 20.00     0.296 C 
HETATM    8  O8  UNL     1     -33.272  13.413  -4.330  1.00 20.00    -0.262 OA
BRANCH   7   9
HETATM    9  O10 UNL     1     -34.278  14.739  -5.933  1.00 20.00    -0.324 OA
HETATM   10  C7  UNL     1     -35.653  14.428  -6.177  1.00 20.00     0.213 C 
ENDBRANCH   7   9
ENDBRANCH   5   7
TORSDOF 2
ENDMDL
MODEL 6
REMARK VINA RESULT:      -4.1      1.512      2.007
REMARK  2 active torsions:
REMARK  status: ('A' for Active; 'I' for Inactive)
REMARK    1  A    between atoms: C1_1  and  C6_6 
REMARK    2  A    between atoms: C1_1  and  O10_10 
ROOT
HETATM    1  C2  UNL     1     -33.177  15.833  -3.460  1.00 20.00     0.006 C 
HETATM    2  C3  UNL     1     -34.141  16.995  -3.744  1.00 20.00     0.036 C 
HETATM    3  C4  UNL     1     -33.833  14.605  -4.110  1.00 20.00     0.052 C 
HETATM    4  C5  UNL     1     -35.488  16.351  -3.852  1.00 20.00     0.168 A 
HETATM    5  C6  UNL     1     -35.307  14.894  -4.090  1.00 20.00     0.174 A 
HETATM    6  O9  UNL     1     -35.812  15.396  -2.839  1.00 20.00    -0.358 OA
ENDROOT
BRANCH   5   7
HETATM    7  C1  UNL     1     -36.284  14.112  -4.842  1.00 20.00     0.296 C 
HETATM    8  O8  UNL     1     -37.379  13.782  -4.406  1.00 20.00    -0.262 OA
BRANCH   7   9
HETATM    9  O10 UNL     1     -35.782  13.819  -6.075  1.00 20.00    -0.324 OA
HETATM   10  C7  UNL     1     -35.957  14.835  -7.067  1.00 20.00     0.213 C 
ENDBRANCH   7   9
ENDBRANCH   5   7
TORSDOF 2
ENDMDL
MODEL 7
REMARK VINA RESULT:      -4.0      1.452      2.342
REMARK  2 active torsions:
REMARK  status: ('A' for Active; 'I' for Inactive)
REMARK    1  A    between atoms: C1_1  and  C6_6 
REMARK    2  A    between atoms: C1_1  and  O10_10 
ROOT
HETATM    1  C2  UNL     1     -33.757  14.783  -5.831  1.00 20.00     0.006 C 
HETATM    2  C3  UNL     1     -33.638  14.733  -4.301  1.00 20.00     0.036 C 
HETATM    3  C4  UNL     1     -35.247  15.041  -6.104  1.00 20.00     0.052 C 
HETATM    4  C5  UNL     1     -34.977  14.256  -3.832  1.00 20.00     0.168 A 
HETATM    5  C6  UNL     1     -35.967  14.455  -4.924  1.00 20.00     0.174 A 
HETATM    6  O9  UNL     1     -35.530  13.141  -4.534  1.00 20.00    -0.358 OA
ENDROOT
BRANCH   5   7
HETATM    7  C1  UNL     1     -37.378  14.707  -4.644  1.00 20.00     0.296 C 
HETATM    8  O8  UNL     1     -38.174  13.842  -4.303  1.00 20.00    -0.262 OA
BRANCH   7   9
HETATM    9  O10 UNL     1     -37.649  16.031  -4.824  1.00 20.00    -0.324 OA
HETATM   10  C7  UNL     1     -37.723  16.812  -3.628  1.00 20.00     0.213 C 
ENDBRANCH   7   9
ENDBRANCH   5   7
TORSDOF 2
ENDMDL
MODEL 8
REMARK VINA RESULT:      -3.9      1.644      2.301
REMARK  2 active torsions:
REMARK  status: ('A' for Active; 'I' for Inactive)
REMARK    1  A    between atoms: C1_1  and  C6_6 
REMARK    2  A    between atoms: C1_1  and  O10_10 
ROOT
HETATM    1  C2  UNL     1     -34.714  16.364  -7.123  1.00 20.00     0.006 C 
HETATM    2  C3  UNL     1     -34.408  16.825  -5.691  1.00 20.00     0.036 C 
HETATM    3  C4  UNL     1     -35.702  15.198  -6.963  1.00 20.00     0.052 C 
HETATM    4  C5  UNL     1     -34.589  15.598  -4.852  1.00 20.00     0.168 A 
HETATM    5  C6  UNL     1     -35.391  14.606  -5.618  1.00 20.00     0.174 A 
HETATM    6  O9  UNL     1     -33.991  14.399  -5.352  1.00 20.00    -0.358 OA
ENDROOT
BRANCH   5   7
HETATM    7  C1  UNL     1     -36.260  13.642  -4.950  1.00 20.00     0.296 C 
HETATM    8  O8  UNL     1     -35.860  12.620  -4.407  1.00 20.00    -0.262 OA
BRANCH   7   9
HETATM    9  O10 UNL     1     -37.555  14.060  -5.034  1.00 20.00    -0.324 OA
HETATM   10  C7  UNL     1     -38.030  14.817  -3.916  1.00 20.00     0.213 C 
ENDBRANCH   7   9
ENDBRANCH   5   7
TORSDOF 2
ENDMDL
MODEL 9
REMARK VINA RESULT:      -3.8      1.898      3.266
REMARK  2 active torsions:
REMARK  status: ('A' for Active; 'I' for Inactive)
REMARK    1  A    between atoms: C1_1  and  C6_6 
REMARK    2  A    between atoms: C1_1  and  O10_10 
ROOT
HETATM    1  C2  UNL     1     -37.322  16.142  -6.056  1.00 20.00     0.006 C 
HETATM    2  C3  UNL     1     -36.098  16.001  -6.974  1.00 20.00     0.036 C 
HETATM    3  C4  UNL     1     -36.852  15.628  -4.686  1.00 20.00     0.052 C 
HETATM    4  C5  UNL     1     -35.322  14.859  -6.395  1.00 20.00     0.168 A 
HETATM    5  C6  UNL     1     -35.767  14.636  -4.994  1.00 20.00     0.174 A 
HETATM    6  O9  UNL     1     -36.078  13.698  -6.041  1.00 20.00    -0.358 OA
ENDROOT
BRANCH   5   7
HETATM    7  C1  UNL     1     -34.866  14.098  -3.978  1.00 20.00     0.296 C 
HETATM    8  O8  UNL     1     -34.501  12.931  -3.935  1.00 20.00    -0.262 OA
BRANCH   7   9
HETATM    9  O10 UNL     1     -34.514  15.089  -3.111  1.00 20.00    -0.324 OA
HETATM   10  C7  UNL     1     -33.322  15.806  -3.448  1.00 20.00     0.213 C 
ENDBRANCH   7   9
ENDBRANCH   5   7
TORSDOF 2
ENDMDL
