MODEL 1
REMARK VINA RESULT:      -3.8      0.000      0.000
REMARK  0 active torsions:
REMARK  status: ('A' for Active; 'I' for Inactive)
ROOT
HETATM    1  C1  UNL     1     -22.076  17.636  11.689  1.00 20.00     0.029 C 
HETATM    2  C2  UNL     1     -23.407  18.024  12.331  1.00 20.00     0.046 C 
HETATM    3  C3  UNL     1     -22.093  17.943  10.197  1.00 20.00     0.167 C 
HETATM    4  C4  UNL     1     -24.455  17.745  10.055  1.00 20.00     0.209 C 
HETATM    5  C5  UNL     1     -24.600  17.458  11.552  1.00 20.00     0.134 C 
HETATM    6  O6  UNL     1     -23.192  17.294   9.558  1.00 20.00    -0.388 OA
HETATM    7 CL7  UNL     1     -24.710  15.680  11.805  1.00 20.00    -0.099 Cl
HETATM    8 CL8  UNL     1     -26.118  18.191  12.160  1.00 20.00    -0.099 Cl
ENDROOT
TORSDOF 0
ENDMDL
MODEL 2
REMARK VINA RESULT:      -3.8     23.629     24.323
REMARK  0 active torsions:
REMARK  status: ('A' for Active; 'I' for Inactive)
ROOT
HETATM    1  C1  UNL     1     -41.558   8.548  -0.347  1.00 20.00     0.029 C 
HETATM    2  C2  UNL     1     -41.688   7.416   0.671  1.00 20.00     0.046 C 
HETATM    3  C3  UNL     1     -42.827   8.665  -1.181  1.00 20.00     0.167 C 
HETATM    4  C4  UNL     1     -43.390   6.378  -0.872  1.00 20.00     0.209 C 
HETATM    5  C5  UNL     1     -42.171   6.116   0.016  1.00 20.00     0.134 C 
HETATM    6  O6  UNL     1     -43.133   7.423  -1.815  1.00 20.00    -0.388 OA
HETATM    7 CL7  UNL     1     -40.853   5.405  -0.982  1.00 20.00    -0.099 Cl
HETATM    8 CL8  UNL     1     -42.598   4.926   1.285  1.00 20.00    -0.099 Cl
ENDROOT
TORSDOF 0
ENDMDL
MODEL 3
REMARK VINA RESULT:      -3.6     16.533     17.389
REMARK  0 active torsions:
REMARK  status: ('A' for Active; 'I' for Inactive)
ROOT
HETATM    1  C1  UNL     1     -33.405   4.790   2.418  1.00 20.00     0.029 C 
HETATM    2  C2  UNL     1     -33.890   4.335   3.794  1.00 20.00     0.046 C 
HETATM    3  C3  UNL     1     -32.622   6.091   2.531  1.00 20.00     0.167 C 
HETATM    4  C4  UNL     1     -33.755   6.747   4.512  1.00 20.00     0.209 C 
HETATM    5  C5  UNL     1     -34.593   5.466   4.551  1.00 20.00     0.134 C 
HETATM    6  O6  UNL     1     -33.404   7.099   3.171  1.00 20.00    -0.388 OA
HETATM    7 CL7  UNL     1     -36.203   5.791   3.814  1.00 20.00    -0.099 Cl
HETATM    8 CL8  UNL     1     -34.861   4.975   6.254  1.00 20.00    -0.099 Cl
ENDROOT
TORSDOF 0
ENDMDL
MODEL 4
REMARK VINA RESULT:      -3.5     18.676     19.664
REMARK  0 active torsions:
REMARK  status: ('A' for Active; 'I' for Inactive)
ROOT
HETATM    1  C1  UNL     1     -34.821  15.893  -6.460  1.00 20.00     0.029 C 
HETATM    2  C2  UNL     1     -34.614  16.390  -5.030  1.00 20.00     0.046 C 
HETATM    3  C3  UNL     1     -35.877  14.796  -6.496  1.00 20.00     0.167 C 
HETATM    4  C4  UNL     1     -35.463  14.149  -4.249  1.00 20.00     0.209 C 
HETATM    5  C5  UNL     1     -34.399  15.231  -4.050  1.00 20.00     0.134 C 
HETATM    6  O6  UNL     1     -35.530  13.728  -5.615  1.00 20.00    -0.388 OA
HETATM    7 CL7  UNL     1     -32.769  14.511  -4.301  1.00 20.00    -0.099 Cl
HETATM    8 CL8  UNL     1     -34.472  15.844  -2.368  1.00 20.00    -0.099 Cl
ENDROOT
TORSDOF 0
ENDMDL
MODEL 5
REMARK VINA RESULT:      -3.5      1.166      2.308
REMARK  0 active torsions:
REMARK  status: ('A' for Active; 'I' for Inactive)
ROOT
HETATM    1  C1  UNL     1     -23.385  18.241   9.490  1.00 20.00     0.029 C 
HETATM    2  C2  UNL     1     -24.365  17.223  10.071  1.00 20.00     0.046 C 
HETATM    3  C3  UNL     1     -21.987  18.021  10.056  1.00 20.00     0.167 C 
HETATM    4  C4  UNL     1     -22.815  17.031  12.049  1.00 20.00     0.209 C 
HETATM    5  C5  UNL     1     -24.273  17.154  11.599  1.00 20.00     0.134 C 
HETATM    6  O6  UNL     1     -22.005  18.065  11.482  1.00 20.00    -0.388 OA
HETATM    7 CL7  UNL     1     -24.993  18.635  12.325  1.00 20.00    -0.099 Cl
HETATM    8 CL8  UNL     1     -25.206  15.745  12.195  1.00 20.00    -0.099 Cl
ENDROOT
TORSDOF 0
ENDMDL
MODEL 6
REMARK VINA RESULT:      -3.5     18.223     19.127
REMARK  0 active torsions:
REMARK  status: ('A' for Active; 'I' for Inactive)
ROOT
HETATM    1  C1  UNL     1     -36.539  14.899  -3.862  1.00 20.00     0.029 C 
HETATM    2  C2  UNL     1     -35.520  15.680  -3.034  1.00 20.00     0.046 C 
HETATM    3  C3  UNL     1     -35.893  13.664  -4.478  1.00 20.00     0.167 C 
HETATM    4  C4  UNL     1     -33.727  14.638  -4.467  1.00 20.00     0.209 C 
HETATM    5  C5  UNL     1     -34.225  15.931  -3.815  1.00 20.00     0.134 C 
HETATM    6  O6  UNL     1     -34.751  14.024  -5.255  1.00 20.00    -0.388 OA
HETATM    7 CL7  UNL     1     -34.509  17.167  -5.092  1.00 20.00    -0.099 Cl
HETATM    8 CL8  UNL     1     -32.968  16.568  -2.708  1.00 20.00    -0.099 Cl
ENDROOT
TORSDOF 0
ENDMDL
MODEL 7
REMARK VINA RESULT:      -3.4     17.616     18.570
REMARK  0 active torsions:
REMARK  status: ('A' for Active; 'I' for Inactive)
ROOT
HETATM    1  C1  UNL     1     -33.903  16.818  -2.378  1.00 20.00     0.029 C 
HETATM    2  C2  UNL     1     -34.736  15.557  -2.602  1.00 20.00     0.046 C 
HETATM    3  C3  UNL     1     -34.216  17.862  -3.442  1.00 20.00     0.167 C 
HETATM    4  C4  UNL     1     -34.888  16.227  -5.027  1.00 20.00     0.209 C 
HETATM    5  C5  UNL     1     -34.652  15.070  -4.053  1.00 20.00     0.134 C 
HETATM    6  O6  UNL     1     -34.018  17.328  -4.750  1.00 20.00    -0.388 OA
HETATM    7 CL7  UNL     1     -33.030  14.355  -4.366  1.00 20.00    -0.099 Cl
HETATM    8 CL8  UNL     1     -35.875  13.790  -4.331  1.00 20.00    -0.099 Cl
ENDROOT
TORSDOF 0
ENDMDL
MODEL 8
REMARK VINA RESULT:      -3.3     18.666     19.604
REMARK  0 active torsions:
REMARK  status: ('A' for Active; 'I' for Inactive)
ROOT
HETATM    1  C1  UNL     1     -36.857  14.384  -4.231  1.00 20.00     0.029 C 
HETATM    2  C2  UNL     1     -35.403  13.918  -4.181  1.00 20.00     0.046 C 
HETATM    3  C3  UNL     1     -37.029  15.490  -5.264  1.00 20.00     0.167 C 
HETATM    4  C4  UNL     1     -34.765  16.185  -5.080  1.00 20.00     0.209 C 
HETATM    5  C5  UNL     1     -34.432  15.097  -4.056  1.00 20.00     0.134 C 
HETATM    6  O6  UNL     1     -36.139  16.575  -4.998  1.00 20.00    -0.388 OA
HETATM    7 CL7  UNL     1     -34.526  15.796  -2.400  1.00 20.00    -0.099 Cl
HETATM    8 CL8  UNL     1     -32.753  14.525  -4.311  1.00 20.00    -0.099 Cl
ENDROOT
TORSDOF 0
ENDMDL
MODEL 9
REMARK VINA RESULT:      -3.3     22.747     23.614
REMARK  0 active torsions:
REMARK  status: ('A' for Active; 'I' for Inactive)
ROOT
HETATM    1  C1  UNL     1     -41.207   5.769   0.315  1.00 20.00     0.029 C 
HETATM    2  C2  UNL     1     -40.852   7.198   0.724  1.00 20.00     0.046 C 
HETATM    3  C3  UNL     1     -41.407   5.679  -1.192  1.00 20.00     0.167 C 
HETATM    4  C4  UNL     1     -42.017   7.967  -1.375  1.00 20.00     0.209 C 
HETATM    5  C5  UNL     1     -41.823   8.220   0.123  1.00 20.00     0.134 C 
HETATM    6  O6  UNL     1     -42.395   6.611  -1.630  1.00 20.00    -0.388 OA
HETATM    7 CL7  UNL     1     -43.417   8.112   0.951  1.00 20.00    -0.099 Cl
HETATM    8 CL8  UNL     1     -41.187   9.876   0.376  1.00 20.00    -0.099 Cl
ENDROOT
TORSDOF 0
ENDMDL
