MODEL 1
REMARK VINA RESULT:      -4.8      0.000      0.000
REMARK  1 active torsions:
REMARK  status: ('A' for Active; 'I' for Inactive)
REMARK    1  A    between atoms: C3_3  and  C7_7 
ROOT
HETATM    1  C1  UNL     1     -22.506  17.712  11.577  1.00 20.00     0.006 C 
HETATM    2  C2  UNL     1     -23.833  17.616  11.413  1.00 20.00     0.007 C 
HETATM    3  C4  UNL     1     -22.195  18.791   9.366  1.00 20.00     0.054 C 
HETATM    4  C5  UNL     1     -21.892  17.539  10.212  1.00 20.00     0.244 C 
HETATM    5  C6  UNL     1     -24.067  17.390   9.940  1.00 20.00     0.255 C 
HETATM    6  C7  UNL     1     -23.738  18.704   9.200  1.00 20.00     0.094 C 
HETATM    7  N9  UNL     1     -22.854  16.612   9.565  1.00 20.00     0.100 N 
HETATM    8  H21 UNL     1     -22.719  16.589   8.555  1.00 20.00     0.317 HD
ENDROOT
BRANCH   6   9
HETATM    9  C3  UNL     1     -24.148  18.682   7.759  1.00 20.00     0.129 C 
HETATM   10  C8  UNL     1     -25.588  18.997   7.459  1.00 20.00     0.091 C 
HETATM   11  O10 UNL     1     -23.345  18.423   6.864  1.00 20.00    -0.298 OA
ENDBRANCH   6   9
TORSDOF 1
ENDMDL
MODEL 2
REMARK VINA RESULT:      -4.8      1.798      2.674
REMARK  1 active torsions:
REMARK  status: ('A' for Active; 'I' for Inactive)
REMARK    1  A    between atoms: C3_3  and  C7_7 
ROOT
HETATM    1  C1  UNL     1     -25.404  17.123  11.669  1.00 20.00     0.006 C 
HETATM    2  C2  UNL     1     -24.347  16.306  11.569  1.00 20.00     0.007 C 
HETATM    3  C4  UNL     1     -24.717  18.442   9.685  1.00 20.00     0.054 C 
HETATM    4  C5  UNL     1     -24.941  18.481  11.209  1.00 20.00     0.244 C 
HETATM    5  C6  UNL     1     -23.209  17.140  11.036  1.00 20.00     0.255 C 
HETATM    6  C7  UNL     1     -23.512  17.468   9.560  1.00 20.00     0.094 C 
HETATM    7  N9  UNL     1     -23.518  18.471  11.629  1.00 20.00     0.100 N 
HETATM    8  H21 UNL     1     -22.994  19.217  11.172  1.00 20.00     0.317 HD
ENDROOT
BRANCH   6   9
HETATM    9  C3  UNL     1     -22.351  18.098   8.850  1.00 20.00     0.129 C 
HETATM   10  C8  UNL     1     -21.615  17.238   7.859  1.00 20.00     0.091 C 
HETATM   11  O10 UNL     1     -22.019  19.263   9.065  1.00 20.00    -0.298 OA
ENDBRANCH   6   9
TORSDOF 1
ENDMDL
MODEL 3
REMARK VINA RESULT:      -4.5      2.400      3.228
REMARK  1 active torsions:
REMARK  status: ('A' for Active; 'I' for Inactive)
REMARK    1  A    between atoms: C3_3  and  C7_7 
ROOT
HETATM    1  C1  UNL     1     -21.922  17.858   9.837  1.00 20.00     0.006 C 
HETATM    2  C2  UNL     1     -21.932  17.841  11.177  1.00 20.00     0.007 C 
HETATM    3  C4  UNL     1     -24.381  18.150   9.707  1.00 20.00     0.054 C 
HETATM    4  C5  UNL     1     -23.205  17.206   9.390  1.00 20.00     0.244 C 
HETATM    5  C6  UNL     1     -23.228  17.185  11.587  1.00 20.00     0.255 C 
HETATM    6  C7  UNL     1     -24.377  18.161  11.262  1.00 20.00     0.094 C 
HETATM    7  N9  UNL     1     -23.433  16.218  10.473  1.00 20.00     0.100 N 
HETATM    8  H21 UNL     1     -24.389  15.865  10.454  1.00 20.00     0.317 HD
ENDROOT
BRANCH   6   9
HETATM    9  C3  UNL     1     -25.694  17.724  11.830  1.00 20.00     0.129 C 
HETATM   10  C8  UNL     1     -26.786  18.759  11.882  1.00 20.00     0.091 C 
HETATM   11  O10 UNL     1     -25.875  16.576  12.231  1.00 20.00    -0.298 OA
ENDBRANCH   6   9
TORSDOF 1
ENDMDL
MODEL 4
REMARK VINA RESULT:      -4.4     16.651     18.008
REMARK  1 active torsions:
REMARK  status: ('A' for Active; 'I' for Inactive)
REMARK    1  A    between atoms: C3_3  and  C7_7 
ROOT
HETATM    1  C1  UNL     1     -33.385  16.832  -2.999  1.00 20.00     0.006 C 
HETATM    2  C2  UNL     1     -32.896  15.724  -3.574  1.00 20.00     0.007 C 
HETATM    3  C4  UNL     1     -35.679  15.896  -2.881  1.00 20.00     0.054 C 
HETATM    4  C5  UNL     1     -34.795  16.992  -3.508  1.00 20.00     0.244 C 
HETATM    5  C6  UNL     1     -33.997  15.171  -4.444  1.00 20.00     0.255 C 
HETATM    6  C7  UNL     1     -35.094  14.604  -3.518  1.00 20.00     0.094 C 
HETATM    7  N9  UNL     1     -34.689  16.418  -4.872  1.00 20.00     0.100 N 
HETATM    8  H21 UNL     1     -35.610  16.222  -5.262  1.00 20.00     0.317 HD
ENDROOT
BRANCH   6   9
HETATM    9  C3  UNL     1     -36.136  13.821  -4.257  1.00 20.00     0.129 C 
HETATM   10  C8  UNL     1     -37.492  14.459  -4.395  1.00 20.00     0.091 C 
HETATM   11  O10 UNL     1     -35.895  12.711  -4.730  1.00 20.00    -0.298 OA
ENDBRANCH   6   9
TORSDOF 1
ENDMDL
MODEL 5
REMARK VINA RESULT:      -4.3     22.604     23.979
REMARK  1 active torsions:
REMARK  status: ('A' for Active; 'I' for Inactive)
REMARK    1  A    between atoms: C3_3  and  C7_7 
ROOT
HETATM    1  C1  UNL     1     -42.503   8.954   0.367  1.00 20.00     0.006 C 
HETATM    2  C2  UNL     1     -43.348   7.953   0.647  1.00 20.00     0.007 C 
HETATM    3  C4  UNL     1     -41.354   7.645  -1.399  1.00 20.00     0.054 C 
HETATM    4  C5  UNL     1     -41.194   8.315  -0.020  1.00 20.00     0.244 C 
HETATM    5  C6  UNL     1     -42.582   6.671   0.429  1.00 20.00     0.255 C 
HETATM    6  C7  UNL     1     -42.361   6.502  -1.088  1.00 20.00     0.094 C 
HETATM    7  N9  UNL     1     -41.203   7.085   0.811  1.00 20.00     0.100 N 
HETATM    8  H21 UNL     1     -40.506   6.416   0.486  1.00 20.00     0.317 HD
ENDROOT
BRANCH   6   9
HETATM    9  C3  UNL     1     -41.812   5.156  -1.453  1.00 20.00     0.129 C 
HETATM   10  C8  UNL     1     -42.784   4.161  -2.027  1.00 20.00     0.091 C 
HETATM   11  O10 UNL     1     -40.625   4.879  -1.295  1.00 20.00    -0.298 OA
ENDBRANCH   6   9
TORSDOF 1
ENDMDL
MODEL 6
REMARK VINA RESULT:      -4.3      2.168      3.580
REMARK  1 active torsions:
REMARK  status: ('A' for Active; 'I' for Inactive)
REMARK    1  A    between atoms: C3_3  and  C7_7 
ROOT
HETATM    1  C1  UNL     1     -23.852  18.585   7.646  1.00 20.00     0.006 C 
HETATM    2  C2  UNL     1     -24.924  18.731   8.437  1.00 20.00     0.007 C 
HETATM    3  C4  UNL     1     -22.858  16.854   9.116  1.00 20.00     0.054 C 
HETATM    4  C5  UNL     1     -22.689  18.278   8.552  1.00 20.00     0.244 C 
HETATM    5  C6  UNL     1     -24.446  18.507   9.851  1.00 20.00     0.255 C 
HETATM    6  C7  UNL     1     -24.121  17.007  10.009  1.00 20.00     0.094 C 
HETATM    7  N9  UNL     1     -23.054  19.032   9.777  1.00 20.00     0.100 N 
HETATM    8  H21 UNL     1     -22.497  18.730  10.575  1.00 20.00     0.317 HD
ENDROOT
BRANCH   6   9
HETATM    9  C3  UNL     1     -23.854  16.613  11.431  1.00 20.00     0.129 C 
HETATM   10  C8  UNL     1     -24.850  15.689  12.076  1.00 20.00     0.091 C 
HETATM   11  O10 UNL     1     -22.867  17.024  12.040  1.00 20.00    -0.298 OA
ENDBRANCH   6   9
TORSDOF 1
ENDMDL
MODEL 7
REMARK VINA RESULT:      -4.2     16.936     18.469
REMARK  1 active torsions:
REMARK  status: ('A' for Active; 'I' for Inactive)
REMARK    1  A    between atoms: C3_3  and  C7_7 
ROOT
HETATM    1  C1  UNL     1     -33.246  15.792  -3.793  1.00 20.00     0.006 C 
HETATM    2  C2  UNL     1     -34.092  15.905  -2.760  1.00 20.00     0.007 C 
HETATM    3  C4  UNL     1     -35.086  15.408  -5.409  1.00 20.00     0.054 C 
HETATM    4  C5  UNL     1     -33.850  14.783  -4.734  1.00 20.00     0.244 C 
HETATM    5  C6  UNL     1     -35.244  14.974  -3.046  1.00 20.00     0.255 C 
HETATM    6  C7  UNL     1     -36.061  15.573  -4.209  1.00 20.00     0.094 C 
HETATM    7  N9  UNL     1     -34.560  13.881  -3.793  1.00 20.00     0.100 N 
HETATM    8  H21 UNL     1     -35.227  13.288  -4.284  1.00 20.00     0.317 HD
ENDROOT
BRANCH   6   9
HETATM    9  C3  UNL     1     -37.361  14.862  -4.440  1.00 20.00     0.129 C 
HETATM   10  C8  UNL     1     -38.593  15.719  -4.541  1.00 20.00     0.091 C 
HETATM   11  O10 UNL     1     -37.417  13.638  -4.543  1.00 20.00    -0.298 OA
ENDBRANCH   6   9
TORSDOF 1
ENDMDL
MODEL 8
REMARK VINA RESULT:      -4.2     15.764     17.316
REMARK  1 active torsions:
REMARK  status: ('A' for Active; 'I' for Inactive)
REMARK    1  A    between atoms: C3_3  and  C7_7 
ROOT
HETATM    1  C1  UNL     1     -33.875  18.056  -2.805  1.00 20.00     0.006 C 
HETATM    2  C2  UNL     1     -33.180  17.049  -2.258  1.00 20.00     0.007 C 
HETATM    3  C4  UNL     1     -35.499  16.511  -3.866  1.00 20.00     0.054 C 
HETATM    4  C5  UNL     1     -34.393  17.551  -4.127  1.00 20.00     0.244 C 
HETATM    5  C6  UNL     1     -33.260  15.897  -3.229  1.00 20.00     0.255 C 
HETATM    6  C7  UNL     1     -34.704  15.353  -3.201  1.00 20.00     0.094 C 
HETATM    7  N9  UNL     1     -33.317  16.613  -4.533  1.00 20.00     0.100 N 
HETATM    8  H21 UNL     1     -33.628  16.000  -5.286  1.00 20.00     0.317 HD
ENDROOT
BRANCH   6   9
HETATM    9  C3  UNL     1     -34.859  14.063  -3.949  1.00 20.00     0.129 C 
HETATM   10  C8  UNL     1     -36.238  13.732  -4.449  1.00 20.00     0.091 C 
HETATM   11  O10 UNL     1     -33.904  13.313  -4.147  1.00 20.00    -0.298 OA
ENDBRANCH   6   9
TORSDOF 1
ENDMDL
MODEL 9
REMARK VINA RESULT:      -4.2     16.694     18.228
REMARK  1 active torsions:
REMARK  status: ('A' for Active; 'I' for Inactive)
REMARK    1  A    between atoms: C3_3  and  C7_7 
ROOT
HETATM    1  C1  UNL     1     -33.947  16.178  -2.402  1.00 20.00     0.006 C 
HETATM    2  C2  UNL     1     -33.420  16.857  -3.430  1.00 20.00     0.007 C 
HETATM    3  C4  UNL     1     -34.736  14.341  -3.868  1.00 20.00     0.054 C 
HETATM    4  C5  UNL     1     -35.174  15.482  -2.931  1.00 20.00     0.244 C 
HETATM    5  C6  UNL     1     -34.307  16.587  -4.620  1.00 20.00     0.255 C 
HETATM    6  C7  UNL     1     -34.093  15.121  -5.049  1.00 20.00     0.094 C 
HETATM    7  N9  UNL     1     -35.637  16.438  -3.968  1.00 20.00     0.100 N 
HETATM    8  H21 UNL     1     -36.315  16.003  -4.592  1.00 20.00     0.317 HD
ENDROOT
BRANCH   6   9
HETATM    9  C3  UNL     1     -34.744  14.793  -6.359  1.00 20.00     0.129 C 
HETATM   10  C8  UNL     1     -34.047  15.278  -7.602  1.00 20.00     0.091 C 
HETATM   11  O10 UNL     1     -35.794  14.157  -6.416  1.00 20.00    -0.298 OA
ENDBRANCH   6   9
TORSDOF 1
ENDMDL
