MODEL 1
REMARK VINA RESULT:      -3.7      0.000      0.000
REMARK  1 active torsions:
REMARK  status: ('A' for Active; 'I' for Inactive)
REMARK    1  A    between atoms: C1_1  and  C3_3 
ROOT
HETATM    1  C2  UNL     1     -33.494  14.429  -4.470  1.00 20.00     0.103 A 
HETATM    2  C3  UNL     1     -34.874  14.783  -3.974  1.00 20.00     0.073 A 
HETATM    3  C5  UNL     1     -34.973  15.568  -2.692  1.00 20.00     0.036 C 
HETATM    4  S7  UNL     1     -34.286  15.670  -5.357  1.00 20.00    -0.149 SA
ENDROOT
BRANCH   2   5
HETATM    5  C1  UNL     1     -35.972  13.845  -4.289  1.00 20.00     0.142 C 
HETATM    6  C4  UNL     1     -37.362  14.420  -4.333  1.00 20.00     0.092 C 
HETATM    7  O6  UNL     1     -35.759  12.653  -4.508  1.00 20.00    -0.297 OA
ENDBRANCH   2   5
TORSDOF 1
ENDMDL
MODEL 2
REMARK VINA RESULT:      -3.4      1.237      1.742
REMARK  1 active torsions:
REMARK  status: ('A' for Active; 'I' for Inactive)
REMARK    1  A    between atoms: C1_1  and  C3_3 
ROOT
HETATM    1  C2  UNL     1     -35.064  16.269  -4.202  1.00 20.00     0.103 A 
HETATM    2  C3  UNL     1     -34.742  14.800  -4.083  1.00 20.00     0.073 A 
HETATM    3  C5  UNL     1     -33.351  14.361  -4.459  1.00 20.00     0.036 C 
HETATM    4  S7  UNL     1     -34.871  15.698  -2.592  1.00 20.00    -0.149 SA
ENDROOT
BRANCH   2   5
HETATM    5  C1  UNL     1     -35.846  13.842  -4.300  1.00 20.00     0.142 C 
HETATM    6  C4  UNL     1     -37.225  14.424  -4.462  1.00 20.00     0.092 C 
HETATM    7  O6  UNL     1     -35.648  12.629  -4.346  1.00 20.00    -0.297 OA
ENDBRANCH   2   5
TORSDOF 1
ENDMDL
MODEL 3
REMARK VINA RESULT:      -3.4     18.719     19.113
REMARK  1 active torsions:
REMARK  status: ('A' for Active; 'I' for Inactive)
REMARK    1  A    between atoms: C1_1  and  C3_3 
ROOT
HETATM    1  C2  UNL     1     -23.902  16.636  10.741  1.00 20.00     0.103 A 
HETATM    2  C3  UNL     1     -23.678  18.006  10.150  1.00 20.00     0.073 A 
HETATM    3  C5  UNL     1     -24.884  18.889   9.964  1.00 20.00     0.036 C 
HETATM    4  S7  UNL     1     -23.165  17.770  11.801  1.00 20.00    -0.149 SA
ENDROOT
BRANCH   2   5
HETATM    5  C1  UNL     1     -22.561  18.160   9.194  1.00 20.00     0.142 C 
HETATM    6  C4  UNL     1     -22.065  16.906   8.526  1.00 20.00     0.092 C 
HETATM    7  O6  UNL     1     -22.064  19.259   8.955  1.00 20.00    -0.297 OA
ENDBRANCH   2   5
TORSDOF 1
ENDMDL
MODEL 4
REMARK VINA RESULT:      -3.4     18.436     19.280
REMARK  1 active torsions:
REMARK  status: ('A' for Active; 'I' for Inactive)
REMARK    1  A    between atoms: C1_1  and  C3_3 
ROOT
HETATM    1  C2  UNL     1     -24.808  17.868  11.434  1.00 20.00     0.103 A 
HETATM    2  C3  UNL     1     -23.413  17.433  11.058  1.00 20.00     0.073 A 
HETATM    3  C5  UNL     1     -22.319  17.653  12.070  1.00 20.00     0.036 C 
HETATM    4  S7  UNL     1     -24.552  16.168  11.443  1.00 20.00    -0.149 SA
ENDROOT
BRANCH   2   5
HETATM    5  C1  UNL     1     -23.045  17.488   9.627  1.00 20.00     0.142 C 
HETATM    6  C4  UNL     1     -23.455  18.724   8.871  1.00 20.00     0.092 C 
HETATM    7  O6  UNL     1     -22.433  16.572   9.082  1.00 20.00    -0.297 OA
ENDBRANCH   2   5
TORSDOF 1
ENDMDL
MODEL 5
REMARK VINA RESULT:      -3.4     19.032     19.304
REMARK  1 active torsions:
REMARK  status: ('A' for Active; 'I' for Inactive)
REMARK    1  A    between atoms: C1_1  and  C3_3 
ROOT
HETATM    1  C2  UNL     1     -22.834  17.357  10.538  1.00 20.00     0.103 A 
HETATM    2  C3  UNL     1     -24.141  17.248  11.285  1.00 20.00     0.073 A 
HETATM    3  C5  UNL     1     -24.643  15.866  11.609  1.00 20.00     0.036 C 
HETATM    4  S7  UNL     1     -22.754  17.780  12.203  1.00 20.00    -0.149 SA
ENDROOT
BRANCH   2   5
HETATM    5  C1  UNL     1     -25.146  18.307  11.055  1.00 20.00     0.142 C 
HETATM    6  C4  UNL     1     -26.174  18.509  12.136  1.00 20.00     0.092 C 
HETATM    7  O6  UNL     1     -25.142  18.990  10.033  1.00 20.00    -0.297 OA
ENDBRANCH   2   5
TORSDOF 1
ENDMDL
MODEL 6
REMARK VINA RESULT:      -3.3     17.650     18.088
REMARK  1 active torsions:
REMARK  status: ('A' for Active; 'I' for Inactive)
REMARK    1  A    between atoms: C1_1  and  C3_3 
ROOT
HETATM    1  C2  UNL     1     -21.770  17.026   8.262  1.00 20.00     0.103 A 
HETATM    2  C3  UNL     1     -23.001  17.583   8.933  1.00 20.00     0.073 A 
HETATM    3  C5  UNL     1     -23.684  16.719   9.961  1.00 20.00     0.036 C 
HETATM    4  S7  UNL     1     -21.468  18.262   9.418  1.00 20.00    -0.149 SA
ENDROOT
BRANCH   2   5
HETATM    5  C1  UNL     1     -23.843  18.511   8.149  1.00 20.00     0.142 C 
HETATM    6  C4  UNL     1     -24.912  19.255   8.903  1.00 20.00     0.092 C 
HETATM    7  O6  UNL     1     -23.676  18.669   6.941  1.00 20.00    -0.297 OA
ENDBRANCH   2   5
TORSDOF 1
ENDMDL
MODEL 7
REMARK VINA RESULT:      -3.2     18.438     19.209
REMARK  1 active torsions:
REMARK  status: ('A' for Active; 'I' for Inactive)
REMARK    1  A    between atoms: C1_1  and  C3_3 
ROOT
HETATM    1  C2  UNL     1     -21.952  18.581   9.500  1.00 20.00     0.103 A 
HETATM    2  C3  UNL     1     -23.261  17.928   9.869  1.00 20.00     0.073 A 
HETATM    3  C5  UNL     1     -24.527  18.596   9.401  1.00 20.00     0.036 C 
HETATM    4  S7  UNL     1     -22.318  17.147   8.624  1.00 20.00    -0.149 SA
ENDROOT
BRANCH   2   5
HETATM    5  C1  UNL     1     -23.312  17.174  11.139  1.00 20.00     0.142 C 
HETATM    6  C4  UNL     1     -24.424  16.171  11.286  1.00 20.00     0.092 C 
HETATM    7  O6  UNL     1     -22.485  17.357  12.031  1.00 20.00    -0.297 OA
ENDBRANCH   2   5
TORSDOF 1
ENDMDL
MODEL 8
REMARK VINA RESULT:      -3.1     10.363     11.272
REMARK  1 active torsions:
REMARK  status: ('A' for Active; 'I' for Inactive)
REMARK    1  A    between atoms: C1_1  and  C3_3 
ROOT
HETATM    1  C2  UNL     1     -42.747   5.350  -1.284  1.00 20.00     0.103 A 
HETATM    2  C3  UNL     1     -42.462   6.481  -0.326  1.00 20.00     0.073 A 
HETATM    3  C5  UNL     1     -42.812   6.269   1.123  1.00 20.00     0.036 C 
HETATM    4  S7  UNL     1     -41.085   5.580  -0.908  1.00 20.00    -0.149 SA
ENDROOT
BRANCH   2   5
HETATM    5  C1  UNL     1     -42.541   7.858  -0.857  1.00 20.00     0.142 C 
HETATM    6  C4  UNL     1     -41.918   8.942  -0.019  1.00 20.00     0.092 C 
HETATM    7  O6  UNL     1     -43.086   8.106  -1.931  1.00 20.00    -0.297 OA
ENDBRANCH   2   5
TORSDOF 1
ENDMDL
MODEL 9
REMARK VINA RESULT:      -3.1     11.908     12.176
REMARK  1 active torsions:
REMARK  status: ('A' for Active; 'I' for Inactive)
REMARK    1  A    between atoms: C1_1  and  C3_3 
ROOT
HETATM    1  C2  UNL     1     -35.518   5.643   4.229  1.00 20.00     0.103 A 
HETATM    2  C3  UNL     1     -34.062   6.028   4.331  1.00 20.00     0.073 A 
HETATM    3  C5  UNL     1     -33.685   7.054   5.367  1.00 20.00     0.036 C 
HETATM    4  S7  UNL     1     -34.505   4.458   4.954  1.00 20.00    -0.149 SA
ENDROOT
BRANCH   2   5
HETATM    5  C1  UNL     1     -33.255   5.972   3.095  1.00 20.00     0.142 C 
HETATM    6  C4  UNL     1     -32.423   7.185   2.775  1.00 20.00     0.092 C 
HETATM    7  O6  UNL     1     -33.260   4.983   2.364  1.00 20.00    -0.297 OA
ENDBRANCH   2   5
TORSDOF 1
ENDMDL
