MODEL 1
REMARK VINA RESULT:      -4.6      0.000      0.000
REMARK  1 active torsions:
REMARK  status: ('A' for Active; 'I' for Inactive)
REMARK    1  A    between atoms: C6_6  and  N10_10 
ROOT
HETATM    1  C1  UNL     1     -35.444  13.896  -4.347  1.00 20.00     0.066 C 
HETATM    2  C2  UNL     1     -33.704  16.277  -2.816  1.00 20.00    -0.054 C 
HETATM    3  C3  UNL     1     -32.983  17.201  -2.178  1.00 20.00     0.016 C 
HETATM    4  C4  UNL     1     -33.339  15.209  -3.827  1.00 20.00     0.057 C 
HETATM    5  C5  UNL     1     -34.860  15.210  -4.158  1.00 20.00     0.134 C 
HETATM    6  C6  UNL     1     -35.163  15.875  -2.780  1.00 20.00     0.268 C 
HETATM    7  N9  UNL     1     -35.912  12.845  -4.498  1.00 20.00    -0.197 NA
ENDROOT
BRANCH   6   8
HETATM    8  N10 UNL     1     -36.080  16.988  -3.013  1.00 20.00     0.089 N 
HETATM    9  C7  UNL     1     -36.377  17.679  -1.757  1.00 20.00     0.310 C 
HETATM   10  C8  UNL     1     -37.316  16.513  -3.637  1.00 20.00     0.310 C 
ENDBRANCH   6   8
TORSDOF 1
ENDMDL
MODEL 2
REMARK VINA RESULT:      -4.5     15.587     17.356
REMARK  1 active torsions:
REMARK  status: ('A' for Active; 'I' for Inactive)
REMARK    1  A    between atoms: C6_6  and  N10_10 
ROOT
HETATM    1  C1  UNL     1     -24.556  19.004   7.795  1.00 20.00     0.066 C 
HETATM    2  C2  UNL     1     -23.091  18.044  10.618  1.00 20.00    -0.054 C 
HETATM    3  C3  UNL     1     -22.484  17.624  11.730  1.00 20.00     0.016 C 
HETATM    4  C4  UNL     1     -22.567  18.621   9.318  1.00 20.00     0.057 C 
HETATM    5  C5  UNL     1     -24.021  19.145   9.135  1.00 20.00     0.134 C 
HETATM    6  C6  UNL     1     -24.535  18.091  10.164  1.00 20.00     0.268 C 
HETATM    7  N9  UNL     1     -24.984  18.892   6.722  1.00 20.00    -0.197 NA
ENDROOT
BRANCH   6   8
HETATM    8  N10 UNL     1     -25.419  18.776  11.103  1.00 20.00     0.089 N 
HETATM    9  C7  UNL     1     -25.788  17.886  12.204  1.00 20.00     0.310 C 
HETATM   10  C8  UNL     1     -26.617  19.263  10.418  1.00 20.00     0.310 C 
ENDBRANCH   6   8
TORSDOF 1
ENDMDL
MODEL 3
REMARK VINA RESULT:      -4.2      2.153      2.820
REMARK  1 active torsions:
REMARK  status: ('A' for Active; 'I' for Inactive)
REMARK    1  A    between atoms: C6_6  and  N10_10 
ROOT
HETATM    1  C1  UNL     1     -36.780  14.254  -4.353  1.00 20.00     0.066 C 
HETATM    2  C2  UNL     1     -34.230  16.293  -3.740  1.00 20.00    -0.054 C 
HETATM    3  C3  UNL     1     -33.229  17.131  -3.460  1.00 20.00     0.016 C 
HETATM    4  C4  UNL     1     -34.857  15.150  -2.967  1.00 20.00     0.057 C 
HETATM    5  C5  UNL     1     -35.401  14.704  -4.355  1.00 20.00     0.134 C 
HETATM    6  C6  UNL     1     -35.180  16.145  -4.909  1.00 20.00     0.268 C 
HETATM    7  N9  UNL     1     -37.883  13.893  -4.352  1.00 20.00    -0.197 NA
ENDROOT
BRANCH   6   8
HETATM    8  N10 UNL     1     -34.503  16.030  -6.198  1.00 20.00     0.089 N 
HETATM    9  C7  UNL     1     -34.366  17.344  -6.826  1.00 20.00     0.310 C 
HETATM   10  C8  UNL     1     -35.233  15.117  -7.080  1.00 20.00     0.310 C 
ENDBRANCH   6   8
TORSDOF 1
ENDMDL
MODEL 4
REMARK VINA RESULT:      -4.2      1.639      1.705
REMARK  1 active torsions:
REMARK  status: ('A' for Active; 'I' for Inactive)
REMARK    1  A    between atoms: C6_6  and  N10_10 
ROOT
HETATM    1  C1  UNL     1     -37.059  14.442  -4.412  1.00 20.00     0.066 C 
HETATM    2  C2  UNL     1     -34.253  15.864  -3.341  1.00 20.00    -0.054 C 
HETATM    3  C3  UNL     1     -33.131  16.413  -2.872  1.00 20.00     0.016 C 
HETATM    4  C4  UNL     1     -34.623  14.442  -3.711  1.00 20.00     0.057 C 
HETATM    5  C5  UNL     1     -35.774  15.107  -4.519  1.00 20.00     0.134 C 
HETATM    6  C6  UNL     1     -35.630  16.404  -3.665  1.00 20.00     0.268 C 
HETATM    7  N9  UNL     1     -38.086  13.910  -4.326  1.00 20.00    -0.197 NA
ENDROOT
BRANCH   6   8
HETATM    8  N10 UNL     1     -35.609  17.543  -4.579  1.00 20.00     0.089 N 
HETATM    9  C7  UNL     1     -35.363  18.786  -3.846  1.00 20.00     0.310 C 
HETATM   10  C8  UNL     1     -36.868  17.629  -5.320  1.00 20.00     0.310 C 
ENDBRANCH   6   8
TORSDOF 1
ENDMDL
MODEL 5
REMARK VINA RESULT:      -4.1      1.071      1.087
REMARK  1 active torsions:
REMARK  status: ('A' for Active; 'I' for Inactive)
REMARK    1  A    between atoms: C6_6  and  N10_10 
ROOT
HETATM    1  C1  UNL     1     -36.758  14.517  -4.319  1.00 20.00     0.066 C 
HETATM    2  C2  UNL     1     -34.181  16.124  -2.970  1.00 20.00    -0.054 C 
HETATM    3  C3  UNL     1     -33.138  16.733  -2.403  1.00 20.00     0.016 C 
HETATM    4  C4  UNL     1     -34.293  14.932  -3.899  1.00 20.00     0.057 C 
HETATM    5  C5  UNL     1     -35.701  15.506  -4.228  1.00 20.00     0.134 C 
HETATM    6  C6  UNL     1     -35.680  16.329  -2.904  1.00 20.00     0.268 C 
HETATM    7  N9  UNL     1     -37.603  13.726  -4.391  1.00 20.00    -0.197 NA
ENDROOT
BRANCH   6   8
HETATM    8  N10 UNL     1     -36.095  17.694  -3.217  1.00 20.00     0.089 N 
HETATM    9  C7  UNL     1     -35.869  18.576  -2.072  1.00 20.00     0.310 C 
HETATM   10  C8  UNL     1     -37.505  17.723  -3.612  1.00 20.00     0.310 C 
ENDBRANCH   6   8
TORSDOF 1
ENDMDL
MODEL 6
REMARK VINA RESULT:      -3.8      2.393      3.751
REMARK  1 active torsions:
REMARK  status: ('A' for Active; 'I' for Inactive)
REMARK    1  A    between atoms: C6_6  and  N10_10 
ROOT
HETATM    1  C1  UNL     1     -37.417  14.686  -4.741  1.00 20.00     0.066 C 
HETATM    2  C2  UNL     1     -34.833  15.187  -6.769  1.00 20.00    -0.054 C 
HETATM    3  C3  UNL     1     -33.811  15.355  -7.610  1.00 20.00     0.016 C 
HETATM    4  C4  UNL     1     -36.322  15.439  -6.899  1.00 20.00     0.057 C 
HETATM    5  C5  UNL     1     -36.314  15.410  -5.343  1.00 20.00     0.134 C 
HETATM    6  C6  UNL     1     -34.954  14.645  -5.360  1.00 20.00     0.268 C 
HETATM    7  N9  UNL     1     -38.300  14.107  -4.259  1.00 20.00    -0.197 NA
ENDROOT
BRANCH   6   8
HETATM    8  N10 UNL     1     -34.062  15.297  -4.406  1.00 20.00     0.089 N 
HETATM    9  C7  UNL     1     -32.768  14.615  -4.364  1.00 20.00     0.310 C 
HETATM   10  C8  UNL     1     -34.667  15.325  -3.074  1.00 20.00     0.310 C 
ENDBRANCH   6   8
TORSDOF 1
ENDMDL
MODEL 7
REMARK VINA RESULT:      -3.8      1.213      3.368
REMARK  1 active torsions:
REMARK  status: ('A' for Active; 'I' for Inactive)
REMARK    1  A    between atoms: C6_6  and  N10_10 
ROOT
HETATM    1  C1  UNL     1     -36.164  17.281  -2.250  1.00 20.00     0.066 C 
HETATM    2  C2  UNL     1     -33.896  15.359  -3.735  1.00 20.00    -0.054 C 
HETATM    3  C3  UNL     1     -32.961  14.624  -4.340  1.00 20.00     0.016 C 
HETATM    4  C4  UNL     1     -33.894  16.172  -2.456  1.00 20.00     0.057 C 
HETATM    5  C5  UNL     1     -35.443  16.060  -2.556  1.00 20.00     0.134 C 
HETATM    6  C6  UNL     1     -35.326  15.726  -4.075  1.00 20.00     0.268 C 
HETATM    7  N9  UNL     1     -36.740  18.258  -2.006  1.00 20.00    -0.197 NA
ENDROOT
BRANCH   6   8
HETATM    8  N10 UNL     1     -36.175  14.570  -4.346  1.00 20.00     0.089 N 
HETATM    9  C7  UNL     1     -35.933  14.060  -5.696  1.00 20.00     0.310 C 
HETATM   10  C8  UNL     1     -37.587  14.921  -4.179  1.00 20.00     0.310 C 
ENDBRANCH   6   8
TORSDOF 1
ENDMDL
MODEL 8
REMARK VINA RESULT:      -3.7      2.124      2.411
REMARK  1 active torsions:
REMARK  status: ('A' for Active; 'I' for Inactive)
REMARK    1  A    between atoms: C6_6  and  N10_10 
ROOT
HETATM    1  C1  UNL     1     -35.421  14.796  -6.229  1.00 20.00     0.066 C 
HETATM    2  C2  UNL     1     -34.927  15.849  -3.117  1.00 20.00    -0.054 C 
HETATM    3  C3  UNL     1     -34.765  16.250  -1.854  1.00 20.00     0.016 C 
HETATM    4  C4  UNL     1     -34.849  14.488  -3.779  1.00 20.00     0.057 C 
HETATM    5  C5  UNL     1     -34.673  15.301  -5.094  1.00 20.00     0.134 C 
HETATM    6  C6  UNL     1     -35.288  16.557  -4.405  1.00 20.00     0.268 C 
HETATM    7  N9  UNL     1     -36.020  14.391  -7.137  1.00 20.00    -0.197 NA
ENDROOT
BRANCH   6   8
HETATM    8  N10 UNL     1     -34.427  17.699  -4.703  1.00 20.00     0.089 N 
HETATM    9  C7  UNL     1     -34.885  18.889  -3.986  1.00 20.00     0.310 C 
HETATM   10  C8  UNL     1     -34.395  17.953  -6.144  1.00 20.00     0.310 C 
ENDBRANCH   6   8
TORSDOF 1
ENDMDL
MODEL 9
REMARK VINA RESULT:      -3.7      1.828      2.803
REMARK  1 active torsions:
REMARK  status: ('A' for Active; 'I' for Inactive)
REMARK    1  A    between atoms: C6_6  and  N10_10 
ROOT
HETATM    1  C1  UNL     1     -35.879  13.884  -4.681  1.00 20.00     0.066 C 
HETATM    2  C2  UNL     1     -34.836  16.746  -6.008  1.00 20.00    -0.054 C 
HETATM    3  C3  UNL     1     -34.401  17.872  -6.576  1.00 20.00     0.016 C 
HETATM    4  C4  UNL     1     -35.909  15.748  -6.397  1.00 20.00     0.057 C 
HETATM    5  C5  UNL     1     -35.843  15.316  -4.904  1.00 20.00     0.134 C 
HETATM    6  C6  UNL     1     -34.432  15.968  -4.773  1.00 20.00     0.268 C 
HETATM    7  N9  UNL     1     -35.908  12.737  -4.502  1.00 20.00    -0.197 NA
ENDROOT
BRANCH   6   8
HETATM    8  N10 UNL     1     -34.422  16.774  -3.555  1.00 20.00     0.089 N 
HETATM    9  C7  UNL     1     -33.145  17.475  -3.413  1.00 20.00     0.310 C 
HETATM   10  C8  UNL     1     -34.675  15.934  -2.383  1.00 20.00     0.310 C 
ENDBRANCH   6   8
TORSDOF 1
ENDMDL
