MODEL 1
REMARK VINA RESULT:      -4.4      0.000      0.000
REMARK  1 active torsions:
REMARK  status: ('A' for Active; 'I' for Inactive)
REMARK    1  A    between atoms: C3_3  and  C6_6 
ROOT
HETATM    1  C1  UNL     1     -33.546  15.535  -3.426  1.00 20.00    -0.003 C 
HETATM    2  C2  UNL     1     -33.227  14.671  -4.395  1.00 20.00     0.131 C 
HETATM    3  C4  UNL     1     -34.851  16.257  -3.419  1.00 20.00     0.032 C 
HETATM    4  C5  UNL     1     -35.527  16.168  -4.787  1.00 20.00     0.045 C 
HETATM    5  C6  UNL     1     -35.369  14.781  -5.412  1.00 20.00     0.214 C 
HETATM    6  O8  UNL     1     -34.025  14.303  -5.444  1.00 20.00    -0.349 OA
ENDROOT
BRANCH   5   7
HETATM    7  C3  UNL     1     -36.226  13.765  -4.718  1.00 20.00     0.248 C 
HETATM    8  O7  UNL     1     -35.830  12.622  -4.507  1.00 20.00    -0.277 OA
HETATM    9 CL9  UNL     1     -37.778  14.409  -4.279  1.00 20.00    -0.041 Cl
ENDBRANCH   5   7
TORSDOF 1
ENDMDL
MODEL 2
REMARK VINA RESULT:      -4.2     16.836     17.981
REMARK  1 active torsions:
REMARK  status: ('A' for Active; 'I' for Inactive)
REMARK    1  A    between atoms: C3_3  and  C6_6 
ROOT
HETATM    1  C1  UNL     1     -22.702  16.853   9.804  1.00 20.00    -0.003 C 
HETATM    2  C2  UNL     1     -21.951  17.862   9.348  1.00 20.00     0.131 C 
HETATM    3  C4  UNL     1     -24.175  16.997   9.996  1.00 20.00     0.032 C 
HETATM    4  C5  UNL     1     -24.581  18.471   9.983  1.00 20.00     0.045 C 
HETATM    5  C6  UNL     1     -23.819  19.263   8.920  1.00 20.00     0.214 C 
HETATM    6  O8  UNL     1     -22.403  19.097   8.967  1.00 20.00    -0.349 OA
ENDROOT
BRANCH   5   7
HETATM    7  C3  UNL     1     -24.298  18.928   7.538  1.00 20.00     0.248 C 
HETATM    8  O7  UNL     1     -23.517  18.630   6.638  1.00 20.00    -0.277 OA
HETATM    9 CL9  UNL     1     -26.028  19.020   7.405  1.00 20.00    -0.041 Cl
ENDBRANCH   5   7
TORSDOF 1
ENDMDL
MODEL 3
REMARK VINA RESULT:      -4.1     12.103     12.728
REMARK  1 active torsions:
REMARK  status: ('A' for Active; 'I' for Inactive)
REMARK    1  A    between atoms: C3_3  and  C6_6 
ROOT
HETATM    1  C1  UNL     1     -34.144   5.549   6.251  1.00 20.00    -0.003 C 
HETATM    2  C2  UNL     1     -33.848   6.806   5.905  1.00 20.00     0.131 C 
HETATM    3  C4  UNL     1     -34.757   4.593   5.283  1.00 20.00     0.032 C 
HETATM    4  C5  UNL     1     -35.319   5.335   4.071  1.00 20.00     0.045 C 
HETATM    5  C6  UNL     1     -34.399   6.470   3.620  1.00 20.00     0.214 C 
HETATM    6  O8  UNL     1     -34.012   7.362   4.664  1.00 20.00    -0.349 OA
ENDROOT
BRANCH   5   7
HETATM    7  C3  UNL     1     -33.162   5.943   2.954  1.00 20.00     0.248 C 
HETATM    8  O7  UNL     1     -33.099   4.793   2.528  1.00 20.00    -0.277 OA
HETATM    9 CL9  UNL     1     -31.901   7.135   2.878  1.00 20.00    -0.041 Cl
ENDBRANCH   5   7
TORSDOF 1
ENDMDL
MODEL 4
REMARK VINA RESULT:      -3.9     18.300     19.384
REMARK  1 active torsions:
REMARK  status: ('A' for Active; 'I' for Inactive)
REMARK    1  A    between atoms: C3_3  and  C6_6 
ROOT
HETATM    1  C1  UNL     1     -25.840  18.922  11.429  1.00 20.00    -0.003 C 
HETATM    2  C2  UNL     1     -25.490  18.964  10.139  1.00 20.00     0.131 C 
HETATM    3  C4  UNL     1     -25.381  17.825  12.330  1.00 20.00     0.032 C 
HETATM    4  C5  UNL     1     -24.839  16.649  11.519  1.00 20.00     0.045 C 
HETATM    5  C6  UNL     1     -24.013  17.114  10.320  1.00 20.00     0.214 C 
HETATM    6  O8  UNL     1     -24.666  18.079   9.497  1.00 20.00    -0.349 OA
ENDROOT
BRANCH   5   7
HETATM    7  C3  UNL     1     -22.685  17.666  10.749  1.00 20.00     0.248 C 
HETATM    8  O7  UNL     1     -22.274  17.537  11.899  1.00 20.00    -0.277 OA
HETATM    9 CL9  UNL     1     -21.860  18.471   9.450  1.00 20.00    -0.041 Cl
ENDBRANCH   5   7
TORSDOF 1
ENDMDL
MODEL 5
REMARK VINA RESULT:      -3.8     17.607     18.487
REMARK  1 active torsions:
REMARK  status: ('A' for Active; 'I' for Inactive)
REMARK    1  A    between atoms: C3_3  and  C6_6 
ROOT
HETATM    1  C1  UNL     1     -25.456  19.238   8.744  1.00 20.00    -0.003 C 
HETATM    2  C2  UNL     1     -25.618  19.043  10.057  1.00 20.00     0.131 C 
HETATM    3  C4  UNL     1     -24.138  19.029   8.077  1.00 20.00     0.032 C 
HETATM    4  C5  UNL     1     -23.014  18.964   9.110  1.00 20.00     0.045 C 
HETATM    5  C6  UNL     1     -23.427  18.180  10.356  1.00 20.00     0.214 C 
HETATM    6  O8  UNL     1     -24.661  18.603  10.932  1.00 20.00    -0.349 OA
ENDROOT
BRANCH   5   7
HETATM    7  C3  UNL     1     -23.505  16.707  10.076  1.00 20.00     0.248 C 
HETATM    8  O7  UNL     1     -22.906  16.196   9.134  1.00 20.00    -0.277 OA
HETATM    9 CL9  UNL     1     -24.511  15.877  11.223  1.00 20.00    -0.041 Cl
ENDBRANCH   5   7
TORSDOF 1
ENDMDL
MODEL 6
REMARK VINA RESULT:      -3.8     18.467     19.496
REMARK  1 active torsions:
REMARK  status: ('A' for Active; 'I' for Inactive)
REMARK    1  A    between atoms: C3_3  and  C6_6 
ROOT
HETATM    1  C1  UNL     1     -21.819  17.869  11.534  1.00 20.00    -0.003 C 
HETATM    2  C2  UNL     1     -22.783  17.398  12.332  1.00 20.00     0.131 C 
HETATM    3  C4  UNL     1     -21.990  17.935  10.053  1.00 20.00     0.032 C 
HETATM    4  C5  UNL     1     -23.171  17.074   9.606  1.00 20.00     0.045 C 
HETATM    5  C6  UNL     1     -24.355  17.186  10.566  1.00 20.00     0.214 C 
HETATM    6  O8  UNL     1     -24.022  16.970  11.936  1.00 20.00    -0.349 OA
ENDROOT
BRANCH   5   7
HETATM    7  C3  UNL     1     -25.040  18.515  10.440  1.00 20.00     0.248 C 
HETATM    8  O7  UNL     1     -24.998  19.167   9.400  1.00 20.00    -0.277 OA
HETATM    9 CL9  UNL     1     -25.858  18.970  11.903  1.00 20.00    -0.041 Cl
ENDBRANCH   5   7
TORSDOF 1
ENDMDL
MODEL 7
REMARK VINA RESULT:      -3.8      1.835      2.949
REMARK  1 active torsions:
REMARK  status: ('A' for Active; 'I' for Inactive)
REMARK    1  A    between atoms: C3_3  and  C6_6 
ROOT
HETATM    1  C1  UNL     1     -35.500  15.432  -6.359  1.00 20.00    -0.003 C 
HETATM    2  C2  UNL     1     -34.249  14.959  -6.346  1.00 20.00     0.131 C 
HETATM    3  C4  UNL     1     -36.407  15.283  -5.184  1.00 20.00     0.032 C 
HETATM    4  C5  UNL     1     -35.864  14.236  -4.211  1.00 20.00     0.045 C 
HETATM    5  C6  UNL     1     -34.346  14.332  -4.059  1.00 20.00     0.214 C 
HETATM    6  O8  UNL     1     -33.632  14.338  -5.293  1.00 20.00    -0.349 OA
ENDROOT
BRANCH   5   7
HETATM    7  C3  UNL     1     -33.949  15.542  -3.265  1.00 20.00     0.248 C 
HETATM    8  O7  UNL     1     -32.918  16.163  -3.508  1.00 20.00    -0.277 OA
HETATM    9 CL9  UNL     1     -35.102  15.914  -2.020  1.00 20.00    -0.041 Cl
ENDBRANCH   5   7
TORSDOF 1
ENDMDL
MODEL 8
REMARK VINA RESULT:      -3.8      1.554      2.017
REMARK  1 active torsions:
REMARK  status: ('A' for Active; 'I' for Inactive)
REMARK    1  A    between atoms: C3_3  and  C6_6 
ROOT
HETATM    1  C1  UNL     1     -33.648  16.598  -2.432  1.00 20.00    -0.003 C 
HETATM    2  C2  UNL     1     -33.327  17.043  -3.652  1.00 20.00     0.131 C 
HETATM    3  C4  UNL     1     -34.954  15.929  -2.161  1.00 20.00     0.032 C 
HETATM    4  C5  UNL     1     -35.939  16.181  -3.302  1.00 20.00     0.045 C 
HETATM    5  C6  UNL     1     -35.259  16.112  -4.670  1.00 20.00     0.214 C 
HETATM    6  O8  UNL     1     -34.088  16.917  -4.783  1.00 20.00    -0.349 OA
ENDROOT
BRANCH   5   7
HETATM    7  C3  UNL     1     -34.911  14.699  -5.038  1.00 20.00     0.248 C 
HETATM    8  O7  UNL     1     -33.889  14.428  -5.663  1.00 20.00    -0.277 OA
HETATM    9 CL9  UNL     1     -36.103  13.565  -4.479  1.00 20.00    -0.041 Cl
ENDBRANCH   5   7
TORSDOF 1
ENDMDL
MODEL 9
REMARK VINA RESULT:      -3.7     18.751     19.479
REMARK  1 active torsions:
REMARK  status: ('A' for Active; 'I' for Inactive)
REMARK    1  A    between atoms: C3_3  and  C6_6 
ROOT
HETATM    1  C1  UNL     1     -25.711  16.253  12.190  1.00 20.00    -0.003 C 
HETATM    2  C2  UNL     1     -24.476  15.775  12.006  1.00 20.00     0.131 C 
HETATM    3  C4  UNL     1     -25.994  17.718  12.184  1.00 20.00     0.032 C 
HETATM    4  C5  UNL     1     -24.701  18.519  12.332  1.00 20.00     0.045 C 
HETATM    5  C6  UNL     1     -23.556  17.910  11.523  1.00 20.00     0.214 C 
HETATM    6  O8  UNL     1     -23.353  16.517  11.752  1.00 20.00    -0.349 OA
ENDROOT
BRANCH   5   7
HETATM    7  C3  UNL     1     -23.743  18.135  10.052  1.00 20.00     0.248 C 
HETATM    8  O7  UNL     1     -24.470  19.026   9.622  1.00 20.00    -0.277 OA
HETATM    9 CL9  UNL     1     -22.826  17.009   9.097  1.00 20.00    -0.041 Cl
ENDBRANCH   5   7
TORSDOF 1
ENDMDL
