MODEL 1
REMARK VINA RESULT:      -3.7      0.000      0.000
REMARK  1 active torsions:
REMARK  status: ('A' for Active; 'I' for Inactive)
REMARK    1  A    between atoms: C1_1  and  C3_3 
ROOT
HETATM    1  C1  UNL     1     -24.463  18.420   9.028  1.00 20.00    -0.054 C 
HETATM    2  C2  UNL     1     -24.710  18.763   7.904  1.00 20.00     0.007 C 
HETATM    3 CL8  UNL     1     -25.069  19.263   6.263  1.00 20.00    -0.023 Cl
ENDROOT
BRANCH   1   4
HETATM    4  C3  UNL     1     -24.170  18.013  10.366  1.00 20.00     0.236 A 
HETATM    5  C4  UNL     1     -22.749  17.724  10.815  1.00 20.00     0.092 A 
HETATM    6  C5  UNL     1     -22.438  17.765  12.279  1.00 20.00     0.049 C 
HETATM    7  C6  UNL     1     -21.586  17.873   9.884  1.00 20.00     0.049 C 
HETATM    8  O7  UNL     1     -23.653  16.675  10.446  1.00 20.00    -0.357 OA
ENDBRANCH   1   4
TORSDOF 1
ENDMDL
MODEL 2
REMARK VINA RESULT:      -3.4     16.149     16.834
REMARK  1 active torsions:
REMARK  status: ('A' for Active; 'I' for Inactive)
REMARK    1  A    between atoms: C1_1  and  C3_3 
ROOT
HETATM    1  C1  UNL     1     -33.146   7.053   3.186  1.00 20.00    -0.054 C 
HETATM    2  C2  UNL     1     -32.610   7.331   2.149  1.00 20.00     0.007 C 
HETATM    3 CL8  UNL     1     -31.826   7.737   0.634  1.00 20.00    -0.023 Cl
ENDROOT
BRANCH   1   4
HETATM    4  C3  UNL     1     -33.786   6.723   4.421  1.00 20.00     0.236 A 
HETATM    5  C4  UNL     1     -34.342   5.335   4.682  1.00 20.00     0.092 A 
HETATM    6  C5  UNL     1     -34.564   4.907   6.099  1.00 20.00     0.049 C 
HETATM    7  C6  UNL     1     -34.225   4.239   3.667  1.00 20.00     0.049 C 
HETATM    8  O7  UNL     1     -35.182   6.419   4.267  1.00 20.00    -0.357 OA
ENDBRANCH   1   4
TORSDOF 1
ENDMDL
MODEL 3
REMARK VINA RESULT:      -3.4     16.758     18.383
REMARK  1 active torsions:
REMARK  status: ('A' for Active; 'I' for Inactive)
REMARK    1  A    between atoms: C1_1  and  C3_3 
ROOT
HETATM    1  C1  UNL     1     -34.190  15.576  -3.340  1.00 20.00    -0.054 C 
HETATM    2  C2  UNL     1     -34.597  16.038  -2.310  1.00 20.00     0.007 C 
HETATM    3 CL8  UNL     1     -35.194  16.712  -0.805  1.00 20.00    -0.023 Cl
ENDROOT
BRANCH   1   4
HETATM    4  C3  UNL     1     -33.704  15.027  -4.567  1.00 20.00     0.236 A 
HETATM    5  C4  UNL     1     -34.466  15.193  -5.869  1.00 20.00     0.092 A 
HETATM    6  C5  UNL     1     -33.724  15.028  -7.159  1.00 20.00     0.049 C 
HETATM    7  C6  UNL     1     -35.752  15.958  -5.934  1.00 20.00     0.049 C 
HETATM    8  O7  UNL     1     -34.548  13.990  -5.093  1.00 20.00    -0.357 OA
ENDBRANCH   1   4
TORSDOF 1
ENDMDL
MODEL 4
REMARK VINA RESULT:      -3.4      2.463      3.167
REMARK  1 active torsions:
REMARK  status: ('A' for Active; 'I' for Inactive)
REMARK    1  A    between atoms: C1_1  and  C3_3 
ROOT
HETATM    1  C1  UNL     1     -24.644  17.971  11.293  1.00 20.00    -0.054 C 
HETATM    2  C2  UNL     1     -25.785  18.191  11.594  1.00 20.00     0.007 C 
HETATM    3 CL8  UNL     1     -27.452  18.512  12.033  1.00 20.00    -0.023 Cl
ENDROOT
BRANCH   1   4
HETATM    4  C3  UNL     1     -23.285  17.710  10.935  1.00 20.00     0.236 A 
HETATM    5  C4  UNL     1     -22.768  17.978   9.533  1.00 20.00     0.092 A 
HETATM    6  C5  UNL     1     -21.293  18.140   9.333  1.00 20.00     0.049 C 
HETATM    7  C6  UNL     1     -23.649  18.548   8.466  1.00 20.00     0.049 C 
HETATM    8  O7  UNL     1     -23.152  16.664   9.959  1.00 20.00    -0.357 OA
ENDBRANCH   1   4
TORSDOF 1
ENDMDL
MODEL 5
REMARK VINA RESULT:      -3.4     15.337     16.979
REMARK  1 active torsions:
REMARK  status: ('A' for Active; 'I' for Inactive)
REMARK    1  A    between atoms: C1_1  and  C3_3 
ROOT
HETATM    1  C1  UNL     1     -33.867  16.642  -2.324  1.00 20.00    -0.054 C 
HETATM    2  C2  UNL     1     -33.013  17.340  -1.850  1.00 20.00     0.007 C 
HETATM    3 CL8  UNL     1     -31.766  18.358  -1.157  1.00 20.00    -0.023 Cl
ENDROOT
BRANCH   1   4
HETATM    4  C3  UNL     1     -34.885  15.812  -2.889  1.00 20.00     0.236 A 
HETATM    5  C4  UNL     1     -34.566  14.776  -3.951  1.00 20.00     0.092 A 
HETATM    6  C5  UNL     1     -35.527  13.648  -4.163  1.00 20.00     0.049 C 
HETATM    7  C6  UNL     1     -33.167  14.558  -4.440  1.00 20.00     0.049 C 
HETATM    8  O7  UNL     1     -35.101  16.062  -4.288  1.00 20.00    -0.357 OA
ENDBRANCH   1   4
TORSDOF 1
ENDMDL
MODEL 6
REMARK VINA RESULT:      -3.3     14.948     16.400
REMARK  1 active torsions:
REMARK  status: ('A' for Active; 'I' for Inactive)
REMARK    1  A    between atoms: C1_1  and  C3_3 
ROOT
HETATM    1  C1  UNL     1     -33.921  15.503  -3.454  1.00 20.00    -0.054 C 
HETATM    2  C2  UNL     1     -34.715  14.674  -3.802  1.00 20.00     0.007 C 
HETATM    3 CL8  UNL     1     -35.875  13.463  -4.313  1.00 20.00    -0.023 Cl
ENDROOT
BRANCH   1   4
HETATM    4  C3  UNL     1     -32.976  16.492  -3.038  1.00 20.00     0.236 A 
HETATM    5  C4  UNL     1     -33.271  17.439  -1.889  1.00 20.00     0.092 A 
HETATM    6  C5  UNL     1     -32.122  18.109  -1.200  1.00 20.00     0.049 C 
HETATM    7  C6  UNL     1     -34.555  17.369  -1.123  1.00 20.00     0.049 C 
HETATM    8  O7  UNL     1     -33.434  17.836  -3.256  1.00 20.00    -0.357 OA
ENDBRANCH   1   4
TORSDOF 1
ENDMDL
MODEL 7
REMARK VINA RESULT:      -3.2     15.857     17.838
REMARK  1 active torsions:
REMARK  status: ('A' for Active; 'I' for Inactive)
REMARK    1  A    between atoms: C1_1  and  C3_3 
ROOT
HETATM    1  C1  UNL     1     -33.376  16.079  -3.587  1.00 20.00    -0.054 C 
HETATM    2  C2  UNL     1     -33.008  16.782  -2.687  1.00 20.00     0.007 C 
HETATM    3 CL8  UNL     1     -32.472  17.808  -1.370  1.00 20.00    -0.023 Cl
ENDROOT
BRANCH   1   4
HETATM    4  C3  UNL     1     -33.814  15.243  -4.661  1.00 20.00     0.236 A 
HETATM    5  C4  UNL     1     -35.241  14.732  -4.739  1.00 20.00     0.092 A 
HETATM    6  C5  UNL     1     -35.768  14.277  -6.065  1.00 20.00     0.049 C 
HETATM    7  C6  UNL     1     -36.263  15.097  -3.707  1.00 20.00     0.049 C 
HETATM    8  O7  UNL     1     -34.174  13.920  -4.232  1.00 20.00    -0.357 OA
ENDBRANCH   1   4
TORSDOF 1
ENDMDL
MODEL 8
REMARK VINA RESULT:      -3.2     23.543     24.748
REMARK  1 active torsions:
REMARK  status: ('A' for Active; 'I' for Inactive)
REMARK    1  A    between atoms: C1_1  and  C3_3 
ROOT
HETATM    1  C1  UNL     1     -41.644   4.752  -1.603  1.00 20.00    -0.054 C 
HETATM    2  C2  UNL     1     -42.077   3.878  -2.302  1.00 20.00     0.007 C 
HETATM    3 CL8  UNL     1     -42.710   2.603  -3.325  1.00 20.00    -0.023 Cl
ENDROOT
BRANCH   1   4
HETATM    4  C3  UNL     1     -41.129   5.792  -0.769  1.00 20.00     0.236 A 
HETATM    5  C4  UNL     1     -41.855   7.116  -0.610  1.00 20.00     0.092 A 
HETATM    6  C5  UNL     1     -41.552   7.960   0.589  1.00 20.00     0.049 C 
HETATM    7  C6  UNL     1     -43.155   7.386  -1.301  1.00 20.00     0.049 C 
HETATM    8  O7  UNL     1     -40.745   6.965  -1.505  1.00 20.00    -0.357 OA
ENDBRANCH   1   4
TORSDOF 1
ENDMDL
MODEL 9
REMARK VINA RESULT:      -3.1     15.652     16.319
REMARK  1 active torsions:
REMARK  status: ('A' for Active; 'I' for Inactive)
REMARK    1  A    between atoms: C1_1  and  C3_3 
ROOT
HETATM    1  C1  UNL     1     -35.297  16.650  -1.024  1.00 20.00    -0.054 C 
HETATM    2  C2  UNL     1     -35.529  17.229   0.001  1.00 20.00     0.007 C 
HETATM    3 CL8  UNL     1     -35.865  18.076   1.499  1.00 20.00    -0.023 Cl
ENDROOT
BRANCH   1   4
HETATM    4  C3  UNL     1     -35.023  15.958  -2.245  1.00 20.00     0.236 A 
HETATM    5  C4  UNL     1     -33.756  16.222  -3.039  1.00 20.00     0.092 A 
HETATM    6  C5  UNL     1     -33.293  15.183  -4.013  1.00 20.00     0.049 C 
HETATM    7  C6  UNL     1     -32.724  17.200  -2.571  1.00 20.00     0.049 C 
HETATM    8  O7  UNL     1     -35.008  16.825  -3.391  1.00 20.00    -0.357 OA
ENDBRANCH   1   4
TORSDOF 1
ENDMDL
