MODEL 1
REMARK VINA RESULT:      -4.3      0.000      0.000
REMARK  1 active torsions:
REMARK  status: ('A' for Active; 'I' for Inactive)
REMARK    1  A    between atoms: C7_7  and  C10_10 
ROOT
HETATM    1  C1  UNL     1     -32.190  18.512  -1.867  1.00 20.00     0.015 C 
HETATM    2  C2  UNL     1     -32.785  17.531  -2.223  1.00 20.00    -0.085 C 
HETATM    3  C3  UNL     1     -35.779  15.326  -2.903  1.00 20.00    -0.018 C 
HETATM    4  C4  UNL     1     -35.322  14.656  -3.974  1.00 20.00    -0.059 C 
HETATM    5  C5  UNL     1     -34.979  16.405  -2.239  1.00 20.00     0.072 C 
HETATM    6  C6  UNL     1     -33.511  16.332  -2.659  1.00 20.00     0.203 C 
HETATM    7  C7  UNL     1     -33.974  15.000  -4.586  1.00 20.00     0.151 C 
HETATM    8  C8  UNL     1     -36.100  13.519  -4.572  1.00 20.00     0.046 C 
HETATM    9  O11 UNL     1     -33.452  16.245  -4.084  1.00 20.00    -0.364 OA
ENDROOT
BRANCH   7  10
HETATM   10  C10 UNL     1     -34.024  15.153  -6.104  1.00 20.00     0.032 C 
HETATM   11  C9  UNL     1     -34.659  16.442  -6.510  1.00 20.00     0.008 C 
ENDBRANCH   7  10
TORSDOF 1
ENDMDL
MODEL 2
REMARK VINA RESULT:      -4.3      1.598      4.882
REMARK  1 active torsions:
REMARK  status: ('A' for Active; 'I' for Inactive)
REMARK    1  A    between atoms: C7_7  and  C10_10 
ROOT
HETATM    1  C1  UNL     1     -36.299  13.659  -4.766  1.00 20.00     0.015 C 
HETATM    2  C2  UNL     1     -35.578  14.301  -4.051  1.00 20.00    -0.085 C 
HETATM    3  C3  UNL     1     -33.002  16.912  -3.137  1.00 20.00    -0.018 C 
HETATM    4  C4  UNL     1     -33.448  17.246  -1.915  1.00 20.00    -0.059 C 
HETATM    5  C5  UNL     1     -33.716  15.918  -4.001  1.00 20.00     0.072 C 
HETATM    6  C6  UNL     1     -34.699  15.086  -3.176  1.00 20.00     0.203 C 
HETATM    7  C7  UNL     1     -34.735  16.648  -1.371  1.00 20.00     0.151 C 
HETATM    8  C8  UNL     1     -32.673  18.179  -1.030  1.00 20.00     0.046 C 
HETATM    9  O11 UNL     1     -35.496  15.974  -2.391  1.00 20.00    -0.364 OA
ENDROOT
BRANCH   7  10
HETATM   10  C10 UNL     1     -35.677  17.689  -0.770  1.00 20.00     0.032 C 
HETATM   11  C9  UNL     1     -35.870  17.478   0.695  1.00 20.00     0.008 C 
ENDBRANCH   7  10
TORSDOF 1
ENDMDL
MODEL 3
REMARK VINA RESULT:      -4.2      1.905      4.526
REMARK  1 active torsions:
REMARK  status: ('A' for Active; 'I' for Inactive)
REMARK    1  A    between atoms: C7_7  and  C10_10 
ROOT
HETATM    1  C1  UNL     1     -39.483  15.101  -4.283  1.00 20.00     0.015 C 
HETATM    2  C2  UNL     1     -38.308  14.853  -4.262  1.00 20.00    -0.085 C 
HETATM    3  C3  UNL     1     -34.759  14.682  -5.553  1.00 20.00    -0.018 C 
HETATM    4  C4  UNL     1     -34.095  14.834  -4.395  1.00 20.00    -0.059 C 
HETATM    5  C5  UNL     1     -36.255  14.728  -5.623  1.00 20.00     0.072 C 
HETATM    6  C6  UNL     1     -36.872  14.550  -4.235  1.00 20.00     0.203 C 
HETATM    7  C7  UNL     1     -34.846  15.103  -3.101  1.00 20.00     0.151 C 
HETATM    8  C8  UNL     1     -32.601  14.699  -4.330  1.00 20.00     0.046 C 
HETATM    9  O11 UNL     1     -36.224  15.449  -3.334  1.00 20.00    -0.364 OA
ENDROOT
BRANCH   7  10
HETATM   10  C10 UNL     1     -34.259  16.258  -2.293  1.00 20.00     0.032 C 
HETATM   11  C9  UNL     1     -35.185  16.700  -1.208  1.00 20.00     0.008 C 
ENDBRANCH   7  10
TORSDOF 1
ENDMDL
MODEL 4
REMARK VINA RESULT:      -4.1      1.513      2.820
REMARK  1 active torsions:
REMARK  status: ('A' for Active; 'I' for Inactive)
REMARK    1  A    between atoms: C7_7  and  C10_10 
ROOT
HETATM    1  C1  UNL     1     -35.370  17.225   0.187  1.00 20.00     0.015 C 
HETATM    2  C2  UNL     1     -35.167  17.001  -0.975  1.00 20.00    -0.085 C 
HETATM    3  C3  UNL     1     -33.321  15.686  -4.000  1.00 20.00    -0.018 C 
HETATM    4  C4  UNL     1     -34.369  15.379  -4.783  1.00 20.00    -0.059 C 
HETATM    5  C5  UNL     1     -33.495  16.217  -2.610  1.00 20.00     0.072 C 
HETATM    6  C6  UNL     1     -34.921  16.726  -2.396  1.00 20.00     0.203 C 
HETATM    7  C7  UNL     1     -35.790  15.523  -4.266  1.00 20.00     0.151 C 
HETATM    8  C8  UNL     1     -34.175  14.931  -6.203  1.00 20.00     0.046 C 
HETATM    9  O11 UNL     1     -35.832  15.720  -2.840  1.00 20.00    -0.364 OA
ENDROOT
BRANCH   7  10
HETATM   10  C10 UNL     1     -36.659  14.298  -4.542  1.00 20.00     0.032 C 
HETATM   11  C9  UNL     1     -38.104  14.577  -4.291  1.00 20.00     0.008 C 
ENDBRANCH   7  10
TORSDOF 1
ENDMDL
MODEL 5
REMARK VINA RESULT:      -4.0      1.855      4.568
REMARK  1 active torsions:
REMARK  status: ('A' for Active; 'I' for Inactive)
REMARK    1  A    between atoms: C7_7  and  C10_10 
ROOT
HETATM    1  C1  UNL     1     -32.889  14.522  -4.671  1.00 20.00     0.015 C 
HETATM    2  C2  UNL     1     -33.367  15.396  -4.001  1.00 20.00    -0.085 C 
HETATM    3  C3  UNL     1     -35.073  16.960  -1.012  1.00 20.00    -0.018 C 
HETATM    4  C4  UNL     1     -34.491  18.170  -1.032  1.00 20.00    -0.059 C 
HETATM    5  C5  UNL     1     -34.706  15.883  -1.988  1.00 20.00     0.072 C 
HETATM    6  C6  UNL     1     -33.950  16.466  -3.183  1.00 20.00     0.203 C 
HETATM    7  C7  UNL     1     -33.393  18.485  -2.036  1.00 20.00     0.151 C 
HETATM    8  C8  UNL     1     -34.933  19.263  -0.102  1.00 20.00     0.046 C 
HETATM    9  O11 UNL     1     -32.901  17.301  -2.691  1.00 20.00    -0.364 OA
ENDROOT
BRANCH   7  10
HETATM   10  C10 UNL     1     -32.172  19.149  -1.404  1.00 20.00     0.032 C 
HETATM   11  C9  UNL     1     -31.451  18.219  -0.484  1.00 20.00     0.008 C 
ENDBRANCH   7  10
TORSDOF 1
ENDMDL
MODEL 6
REMARK VINA RESULT:      -3.9      1.556      1.898
REMARK  1 active torsions:
REMARK  status: ('A' for Active; 'I' for Inactive)
REMARK    1  A    between atoms: C7_7  and  C10_10 
ROOT
HETATM    1  C1  UNL     1     -31.870  18.312  -1.148  1.00 20.00     0.015 C 
HETATM    2  C2  UNL     1     -32.888  17.782  -1.501  1.00 20.00    -0.085 C 
HETATM    3  C3  UNL     1     -36.090  17.344  -3.462  1.00 20.00    -0.018 C 
HETATM    4  C4  UNL     1     -36.117  16.003  -3.546  1.00 20.00    -0.059 C 
HETATM    5  C5  UNL     1     -34.961  18.077  -2.805  1.00 20.00     0.072 C 
HETATM    6  C6  UNL     1     -34.133  17.133  -1.932  1.00 20.00     0.203 C 
HETATM    7  C7  UNL     1     -34.966  15.170  -3.005  1.00 20.00     0.151 C 
HETATM    8  C8  UNL     1     -37.297  15.282  -4.131  1.00 20.00     0.046 C 
HETATM    9  O11 UNL     1     -33.810  15.973  -2.701  1.00 20.00    -0.364 OA
ENDROOT
BRANCH   7  10
HETATM   10  C10 UNL     1     -34.484  14.102  -3.984  1.00 20.00     0.032 C 
HETATM   11  C9  UNL     1     -33.125  14.415  -4.518  1.00 20.00     0.008 C 
ENDBRANCH   7  10
TORSDOF 1
ENDMDL
MODEL 7
REMARK VINA RESULT:      -3.9      1.438      3.956
REMARK  1 active torsions:
REMARK  status: ('A' for Active; 'I' for Inactive)
REMARK    1  A    between atoms: C7_7  and  C10_10 
ROOT
HETATM    1  C1  UNL     1     -33.908  15.369  -7.918  1.00 20.00     0.015 C 
HETATM    2  C2  UNL     1     -34.291  15.549  -6.794  1.00 20.00    -0.085 C 
HETATM    3  C3  UNL     1     -34.384  15.142  -3.037  1.00 20.00    -0.018 C 
HETATM    4  C4  UNL     1     -34.788  16.376  -2.690  1.00 20.00    -0.059 C 
HETATM    5  C5  UNL     1     -34.124  14.761  -4.463  1.00 20.00     0.072 C 
HETATM    6  C6  UNL     1     -34.758  15.771  -5.420  1.00 20.00     0.203 C 
HETATM    7  C7  UNL     1     -34.962  17.458  -3.743  1.00 20.00     0.151 C 
HETATM    8  C8  UNL     1     -35.126  16.713  -1.267  1.00 20.00     0.046 C 
HETATM    9  O11 UNL     1     -34.381  17.085  -5.007  1.00 20.00    -0.364 OA
ENDROOT
BRANCH   7  10
HETATM   10  C10 UNL     1     -34.306  18.783  -3.359  1.00 20.00     0.032 C 
HETATM   11  C9  UNL     1     -32.819  18.714  -3.464  1.00 20.00     0.008 C 
ENDBRANCH   7  10
TORSDOF 1
ENDMDL
MODEL 8
REMARK VINA RESULT:      -3.8      1.673      3.933
REMARK  1 active torsions:
REMARK  status: ('A' for Active; 'I' for Inactive)
REMARK    1  A    between atoms: C7_7  and  C10_10 
ROOT
HETATM    1  C1  UNL     1     -33.946  15.200  -7.422  1.00 20.00     0.015 C 
HETATM    2  C2  UNL     1     -34.250  15.319  -6.266  1.00 20.00    -0.085 C 
HETATM    3  C3  UNL     1     -33.752  16.038  -2.589  1.00 20.00    -0.018 C 
HETATM    4  C4  UNL     1     -34.964  16.540  -2.295  1.00 20.00    -0.059 C 
HETATM    5  C5  UNL     1     -33.378  15.625  -3.980  1.00 20.00     0.072 C 
HETATM    6  C6  UNL     1     -34.622  15.465  -4.854  1.00 20.00     0.203 C 
HETATM    7  C7  UNL     1     -36.000  16.748  -3.387  1.00 20.00     0.151 C 
HETATM    8  C8  UNL     1     -35.349  16.867  -0.882  1.00 20.00     0.046 C 
HETATM    9  O11 UNL     1     -35.433  16.631  -4.705  1.00 20.00    -0.364 OA
ENDROOT
BRANCH   7  10
HETATM   10  C10 UNL     1     -36.658  18.126  -3.338  1.00 20.00     0.032 C 
HETATM   11  C9  UNL     1     -35.751  19.189  -3.861  1.00 20.00     0.008 C 
ENDBRANCH   7  10
TORSDOF 1
ENDMDL
MODEL 9
REMARK VINA RESULT:      -3.8      1.988      3.270
REMARK  1 active torsions:
REMARK  status: ('A' for Active; 'I' for Inactive)
REMARK    1  A    between atoms: C7_7  and  C10_10 
ROOT
HETATM    1  C1  UNL     1     -38.477  18.233  -1.855  1.00 20.00     0.015 C 
HETATM    2  C2  UNL     1     -37.450  17.817  -2.317  1.00 20.00    -0.085 C 
HETATM    3  C3  UNL     1     -34.178  15.926  -2.399  1.00 20.00    -0.018 C 
HETATM    4  C4  UNL     1     -34.159  15.572  -3.696  1.00 20.00    -0.059 C 
HETATM    5  C5  UNL     1     -35.326  16.677  -1.796  1.00 20.00     0.072 C 
HETATM    6  C6  UNL     1     -36.195  17.309  -2.885  1.00 20.00     0.203 C 
HETATM    7  C7  UNL     1     -35.336  15.891  -4.602  1.00 20.00     0.151 C 
HETATM    8  C8  UNL     1     -32.962  14.897  -4.301  1.00 20.00     0.046 C 
HETATM    9  O11 UNL     1     -36.497  16.309  -3.860  1.00 20.00    -0.364 OA
ENDROOT
BRANCH   7  10
HETATM   10  C10 UNL     1     -35.789  14.699  -5.443  1.00 20.00     0.032 C 
HETATM   11  C9  UNL     1     -36.390  13.624  -4.599  1.00 20.00     0.008 C 
ENDBRANCH   7  10
TORSDOF 1
ENDMDL
