MODEL 1
REMARK VINA RESULT:      -5.7      0.000      0.000
REMARK  1 active torsions:
REMARK  status: ('A' for Active; 'I' for Inactive)
REMARK    1  A    between atoms: C3_3  and  C7_7 
ROOT
HETATM    1  C1  UNL     1     -32.981  16.348  -3.267  1.00 20.00    -0.019 C 
HETATM    2  C2  UNL     1     -33.597  16.858  -2.187  1.00 20.00    -0.087 C 
HETATM    3  C4  UNL     1     -34.981  16.426  -1.778  1.00 20.00     0.034 C 
HETATM    4  C5  UNL     1     -35.727  15.677  -2.884  1.00 20.00     0.017 C 
HETATM    5  C6  UNL     1     -33.570  15.274  -4.152  1.00 20.00     0.015 C 
HETATM    6  C7  UNL     1     -34.831  14.628  -3.541  1.00 20.00     0.062 C 
HETATM    7  C8  UNL     1     -32.947  17.896  -1.321  1.00 20.00     0.043 C 
HETATM    8  C10 UNL     1     -32.509  14.207  -4.448  1.00 20.00     0.015 C 
ENDROOT
BRANCH   6   9
HETATM    9  C3  UNL     1     -35.616  13.920  -4.606  1.00 20.00     0.127 C 
HETATM   10  C9  UNL     1     -35.986  14.725  -5.822  1.00 20.00     0.091 C 
HETATM   11  O11 UNL     1     -35.940  12.739  -4.491  1.00 20.00    -0.298 OA
ENDBRANCH   6   9
TORSDOF 1
ENDMDL
MODEL 2
REMARK VINA RESULT:      -5.1      1.335      1.502
REMARK  1 active torsions:
REMARK  status: ('A' for Active; 'I' for Inactive)
REMARK    1  A    between atoms: C3_3  and  C7_7 
ROOT
HETATM    1  C1  UNL     1     -33.911  16.987  -4.732  1.00 20.00    -0.019 C 
HETATM    2  C2  UNL     1     -33.558  17.254  -3.463  1.00 20.00    -0.087 C 
HETATM    3  C4  UNL     1     -33.975  16.371  -2.316  1.00 20.00     0.034 C 
HETATM    4  C5  UNL     1     -35.109  15.413  -2.678  1.00 20.00     0.017 C 
HETATM    5  C6  UNL     1     -34.711  15.776  -5.154  1.00 20.00     0.015 C 
HETATM    6  C7  UNL     1     -34.851  14.735  -4.024  1.00 20.00     0.062 C 
HETATM    7  C8  UNL     1     -32.728  18.452  -3.107  1.00 20.00     0.043 C 
HETATM    8  C10 UNL     1     -34.071  15.140  -6.395  1.00 20.00     0.015 C 
ENDROOT
BRANCH   6   9
HETATM    9  C3  UNL     1     -35.987  13.801  -4.321  1.00 20.00     0.127 C 
HETATM   10  C9  UNL     1     -37.363  14.405  -4.380  1.00 20.00     0.091 C 
HETATM   11  O11 UNL     1     -35.801  12.599  -4.509  1.00 20.00    -0.298 OA
ENDBRANCH   6   9
TORSDOF 1
ENDMDL
MODEL 3
REMARK VINA RESULT:      -4.9      1.418      2.467
REMARK  1 active torsions:
REMARK  status: ('A' for Active; 'I' for Inactive)
REMARK    1  A    between atoms: C3_3  and  C7_7 
ROOT
HETATM    1  C1  UNL     1     -35.217  16.241  -1.748  1.00 20.00    -0.019 C 
HETATM    2  C2  UNL     1     -34.294  17.160  -1.413  1.00 20.00    -0.087 C 
HETATM    3  C4  UNL     1     -33.062  17.394  -2.248  1.00 20.00     0.034 C 
HETATM    4  C5  UNL     1     -32.790  16.267  -3.245  1.00 20.00     0.017 C 
HETATM    5  C6  UNL     1     -35.153  15.388  -2.993  1.00 20.00     0.015 C 
HETATM    6  C7  UNL     1     -34.067  15.861  -3.981  1.00 20.00     0.062 C 
HETATM    7  C8  UNL     1     -34.430  18.008  -0.183  1.00 20.00     0.043 C 
HETATM    8  C10 UNL     1     -36.526  15.364  -3.675  1.00 20.00     0.015 C 
ENDROOT
BRANCH   6   9
HETATM    9  C3  UNL     1     -33.738  14.764  -4.950  1.00 20.00     0.127 C 
HETATM   10  C9  UNL     1     -33.992  15.048  -6.405  1.00 20.00     0.091 C 
HETATM   11  O11 UNL     1     -33.280  13.686  -4.573  1.00 20.00    -0.298 OA
ENDBRANCH   6   9
TORSDOF 1
ENDMDL
MODEL 4
REMARK VINA RESULT:      -4.7      2.343      4.824
REMARK  1 active torsions:
REMARK  status: ('A' for Active; 'I' for Inactive)
REMARK    1  A    between atoms: C3_3  and  C7_7 
ROOT
HETATM    1  C1  UNL     1     -35.561  15.733  -2.769  1.00 20.00    -0.019 C 
HETATM    2  C2  UNL     1     -34.943  14.871  -3.594  1.00 20.00    -0.087 C 
HETATM    3  C4  UNL     1     -33.487  15.015  -3.956  1.00 20.00     0.034 C 
HETATM    4  C5  UNL     1     -32.920  16.394  -3.617  1.00 20.00     0.017 C 
HETATM    5  C6  UNL     1     -34.876  16.895  -2.086  1.00 20.00     0.015 C 
HETATM    6  C7  UNL     1     -33.340  16.836  -2.215  1.00 20.00     0.062 C 
HETATM    7  C8  UNL     1     -35.664  13.711  -4.214  1.00 20.00     0.043 C 
HETATM    8  C10 UNL     1     -35.291  16.944  -0.611  1.00 20.00     0.015 C 
ENDROOT
BRANCH   6   9
HETATM    9  C3  UNL     1     -32.747  18.185  -1.935  1.00 20.00     0.127 C 
HETATM   10  C9  UNL     1     -31.703  18.254  -0.854  1.00 20.00     0.091 C 
HETATM   11  O11 UNL     1     -33.096  19.185  -2.560  1.00 20.00    -0.298 OA
ENDBRANCH   6   9
TORSDOF 1
ENDMDL
MODEL 5
REMARK VINA RESULT:      -4.6      0.869      2.289
REMARK  1 active torsions:
REMARK  status: ('A' for Active; 'I' for Inactive)
REMARK    1  A    between atoms: C3_3  and  C7_7 
ROOT
HETATM    1  C1  UNL     1     -35.367  16.545  -2.185  1.00 20.00    -0.019 C 
HETATM    2  C2  UNL     1     -34.043  16.776  -2.150  1.00 20.00    -0.087 C 
HETATM    3  C4  UNL     1     -33.102  16.188  -3.170  1.00 20.00     0.034 C 
HETATM    4  C5  UNL     1     -33.725  15.044  -3.970  1.00 20.00     0.017 C 
HETATM    5  C6  UNL     1     -36.058  15.724  -3.250  1.00 20.00     0.015 C 
HETATM    6  C7  UNL     1     -35.134  15.403  -4.443  1.00 20.00     0.062 C 
HETATM    7  C8  UNL     1     -33.416  17.632  -1.090  1.00 20.00     0.043 C 
HETATM    8  C10 UNL     1     -37.319  16.454  -3.727  1.00 20.00     0.015 C 
ENDROOT
BRANCH   6   9
HETATM    9  C3  UNL     1     -35.689  14.252  -5.229  1.00 20.00     0.127 C 
HETATM   10  C9  UNL     1     -35.815  14.446  -6.716  1.00 20.00     0.091 C 
HETATM   11  O11 UNL     1     -36.022  13.201  -4.685  1.00 20.00    -0.298 OA
ENDBRANCH   6   9
TORSDOF 1
ENDMDL
MODEL 6
REMARK VINA RESULT:      -4.3      1.647      2.752
REMARK  1 active torsions:
REMARK  status: ('A' for Active; 'I' for Inactive)
REMARK    1  A    between atoms: C3_3  and  C7_7 
ROOT
HETATM    1  C1  UNL     1     -36.273  16.558  -3.055  1.00 20.00    -0.019 C 
HETATM    2  C2  UNL     1     -35.198  16.439  -2.258  1.00 20.00    -0.087 C 
HETATM    3  C4  UNL     1     -33.924  15.787  -2.728  1.00 20.00     0.034 C 
HETATM    4  C5  UNL     1     -34.106  14.968  -4.006  1.00 20.00     0.017 C 
HETATM    5  C6  UNL     1     -36.316  16.105  -4.496  1.00 20.00     0.015 C 
HETATM    6  C7  UNL     1     -34.922  15.738  -5.044  1.00 20.00     0.062 C 
HETATM    7  C8  UNL     1     -35.199  16.944  -0.845  1.00 20.00     0.043 C 
HETATM    8  C10 UNL     1     -36.965  17.193  -5.361  1.00 20.00     0.015 C 
ENDROOT
BRANCH   6   9
HETATM    9  C3  UNL     1     -35.057  14.893  -6.276  1.00 20.00     0.127 C 
HETATM   10  C9  UNL     1     -34.152  15.228  -7.430  1.00 20.00     0.091 C 
HETATM   11  O11 UNL     1     -35.868  13.970  -6.339  1.00 20.00    -0.298 OA
ENDBRANCH   6   9
TORSDOF 1
ENDMDL
MODEL 7
REMARK VINA RESULT:      -4.3      1.810      2.269
REMARK  1 active torsions:
REMARK  status: ('A' for Active; 'I' for Inactive)
REMARK    1  A    between atoms: C3_3  and  C7_7 
ROOT
HETATM    1  C1  UNL     1     -33.345  15.738  -3.303  1.00 20.00    -0.019 C 
HETATM    2  C2  UNL     1     -33.394  17.072  -3.150  1.00 20.00    -0.087 C 
HETATM    3  C4  UNL     1     -34.058  17.969  -4.163  1.00 20.00     0.034 C 
HETATM    4  C5  UNL     1     -34.308  17.276  -5.503  1.00 20.00     0.017 C 
HETATM    5  C6  UNL     1     -33.972  14.992  -4.458  1.00 20.00     0.015 C 
HETATM    6  C7  UNL     1     -34.906  15.883  -5.302  1.00 20.00     0.062 C 
HETATM    7  C8  UNL     1     -32.787  17.757  -1.961  1.00 20.00     0.043 C 
HETATM    8  C10 UNL     1     -34.729  13.767  -3.932  1.00 20.00     0.015 C 
ENDROOT
BRANCH   6   9
HETATM    9  C3  UNL     1     -35.140  15.259  -6.646  1.00 20.00     0.127 C 
HETATM   10  C9  UNL     1     -33.983  15.267  -7.607  1.00 20.00     0.091 C 
HETATM   11  O11 UNL     1     -36.225  14.763  -6.946  1.00 20.00    -0.298 OA
ENDBRANCH   6   9
TORSDOF 1
ENDMDL
MODEL 8
REMARK VINA RESULT:      -4.2      1.873      2.606
REMARK  1 active torsions:
REMARK  status: ('A' for Active; 'I' for Inactive)
REMARK    1  A    between atoms: C3_3  and  C7_7 
ROOT
HETATM    1  C1  UNL     1     -34.728  15.137  -3.172  1.00 20.00    -0.019 C 
HETATM    2  C2  UNL     1     -34.606  16.449  -2.904  1.00 20.00    -0.087 C 
HETATM    3  C4  UNL     1     -34.698  17.496  -3.983  1.00 20.00     0.034 C 
HETATM    4  C5  UNL     1     -34.557  16.919  -5.392  1.00 20.00     0.017 C 
HETATM    5  C6  UNL     1     -35.009  14.573  -4.545  1.00 20.00     0.015 C 
HETATM    6  C7  UNL     1     -35.411  15.662  -5.561  1.00 20.00     0.062 C 
HETATM    7  C8  UNL     1     -34.366  16.954  -1.512  1.00 20.00     0.043 C 
HETATM    8  C10 UNL     1     -36.098  13.498  -4.450  1.00 20.00     0.015 C 
ENDROOT
BRANCH   6   9
HETATM    9  C3  UNL     1     -35.242  15.149  -6.961  1.00 20.00     0.127 C 
HETATM   10  C9  UNL     1     -33.847  15.159  -7.523  1.00 20.00     0.091 C 
HETATM   11  O11 UNL     1     -36.199  14.738  -7.617  1.00 20.00    -0.298 OA
ENDBRANCH   6   9
TORSDOF 1
ENDMDL
MODEL 9
REMARK VINA RESULT:      -4.1      1.606      2.185
REMARK  1 active torsions:
REMARK  status: ('A' for Active; 'I' for Inactive)
REMARK    1  A    between atoms: C3_3  and  C7_7 
ROOT
HETATM    1  C1  UNL     1     -32.978  17.552  -1.853  1.00 20.00    -0.019 C 
HETATM    2  C2  UNL     1     -33.379  17.879  -0.613  1.00 20.00    -0.087 C 
HETATM    3  C4  UNL     1     -34.767  17.570  -0.115  1.00 20.00     0.034 C 
HETATM    4  C5  UNL     1     -35.743  17.219  -1.239  1.00 20.00     0.017 C 
HETATM    5  C6  UNL     1     -33.834  16.813  -2.855  1.00 20.00     0.015 C 
HETATM    6  C7  UNL     1     -35.117  16.233  -2.225  1.00 20.00     0.062 C 
HETATM    7  C8  UNL     1     -32.472  18.579   0.355  1.00 20.00     0.043 C 
HETATM    8  C10 UNL     1     -33.011  15.702  -3.519  1.00 20.00     0.015 C 
ENDROOT
BRANCH   6   9
HETATM    9  C3  UNL     1     -36.120  15.917  -3.295  1.00 20.00     0.127 C 
HETATM   10  C9  UNL     1     -36.867  17.081  -3.888  1.00 20.00     0.091 C 
HETATM   11  O11 UNL     1     -36.321  14.763  -3.670  1.00 20.00    -0.298 OA
ENDBRANCH   6   9
TORSDOF 1
ENDMDL
