MODEL 1
REMARK VINA RESULT:      -4.4      0.000      0.000
REMARK  1 active torsions:
REMARK  status: ('A' for Active; 'I' for Inactive)
REMARK    1  A    between atoms: C4_4  and  C10_10 
ROOT
HETATM    1  C1  UNL     1     -35.726  16.983  -4.081  1.00 20.00     0.174 C 
HETATM    2  C2  UNL     1     -34.362  16.395  -4.160  1.00 20.00     0.025 A 
HETATM    3  C3  UNL     1     -34.001  15.969  -2.787  1.00 20.00     0.030 A 
HETATM    4  C4  UNL     1     -35.166  16.306  -1.910  1.00 20.00     0.130 C 
HETATM    5  C5  UNL     1     -34.051  14.933  -3.897  1.00 20.00    -0.035 A 
HETATM    6  C6  UNL     1     -35.150  13.902  -3.929  1.00 20.00     0.016 C 
HETATM    7  C7  UNL     1     -32.730  14.412  -4.407  1.00 20.00     0.016 C 
HETATM    8  O11 UNL     1     -36.257  16.671  -2.780  1.00 20.00    -0.385 OA
ENDROOT
BRANCH   4   9
HETATM    9  C10 UNL     1     -34.875  17.480  -0.985  1.00 20.00     0.007 C 
HETATM   10  C8  UNL     1     -35.373  17.190   0.431  1.00 20.00     0.012 C 
HETATM   11  C9  UNL     1     -33.381  17.799  -0.969  1.00 20.00     0.012 C 
ENDBRANCH   4   9
TORSDOF 1
ENDMDL
MODEL 2
REMARK VINA RESULT:      -4.4     16.121     17.439
REMARK  1 active torsions:
REMARK  status: ('A' for Active; 'I' for Inactive)
REMARK    1  A    between atoms: C4_4  and  C10_10 
ROOT
HETATM    1  C1  UNL     1     -24.674  16.087  11.123  1.00 20.00     0.174 C 
HETATM    2  C2  UNL     1     -24.012  17.031  10.182  1.00 20.00     0.025 A 
HETATM    3  C3  UNL     1     -24.174  18.388  10.755  1.00 20.00     0.030 A 
HETATM    4  C4  UNL     1     -24.927  18.229  12.039  1.00 20.00     0.130 C 
HETATM    5  C5  UNL     1     -22.775  17.841  10.522  1.00 20.00    -0.035 A 
HETATM    6  C6  UNL     1     -21.905  17.451  11.688  1.00 20.00     0.016 C 
HETATM    7  C7  UNL     1     -21.998  18.420   9.366  1.00 20.00     0.016 C 
HETATM    8  O11 UNL     1     -24.971  16.816  12.328  1.00 20.00    -0.385 OA
ENDROOT
BRANCH   4   9
HETATM    9  C10 UNL     1     -26.355  18.744  11.941  1.00 20.00     0.007 C 
HETATM   10  C8  UNL     1     -26.651  19.256  10.530  1.00 20.00     0.012 C 
HETATM   11  C9  UNL     1     -27.352  17.655  12.332  1.00 20.00     0.012 C 
ENDBRANCH   4   9
TORSDOF 1
ENDMDL
MODEL 3
REMARK VINA RESULT:      -4.3      1.791      4.397
REMARK  1 active torsions:
REMARK  status: ('A' for Active; 'I' for Inactive)
REMARK    1  A    between atoms: C4_4  and  C10_10 
ROOT
HETATM    1  C1  UNL     1     -33.470  19.100  -3.029  1.00 20.00     0.174 C 
HETATM    2  C2  UNL     1     -33.970  18.736  -1.675  1.00 20.00     0.025 A 
HETATM    3  C3  UNL     1     -33.727  17.283  -1.508  1.00 20.00     0.030 A 
HETATM    4  C4  UNL     1     -33.076  16.806  -2.768  1.00 20.00     0.130 C 
HETATM    5  C5  UNL     1     -33.080  18.262  -0.542  1.00 20.00    -0.035 A 
HETATM    6  C6  UNL     1     -31.594  18.507  -0.585  1.00 20.00     0.016 C 
HETATM    7  C7  UNL     1     -33.654  18.329   0.852  1.00 20.00     0.016 C 
HETATM    8  O11 UNL     1     -32.719  17.978  -3.528  1.00 20.00    -0.385 OA
ENDROOT
BRANCH   4   9
HETATM    9  C10 UNL     1     -34.009  15.950  -3.613  1.00 20.00     0.007 C 
HETATM   10  C8  UNL     1     -33.245  14.795  -4.262  1.00 20.00     0.012 C 
HETATM   11  C9  UNL     1     -35.166  15.415  -2.770  1.00 20.00     0.012 C 
ENDBRANCH   4   9
TORSDOF 1
ENDMDL
MODEL 4
REMARK VINA RESULT:      -4.2      1.259      3.956
REMARK  1 active torsions:
REMARK  status: ('A' for Active; 'I' for Inactive)
REMARK    1  A    between atoms: C4_4  and  C10_10 
ROOT
HETATM    1  C1  UNL     1     -34.769  17.688  -3.925  1.00 20.00     0.174 C 
HETATM    2  C2  UNL     1     -35.359  17.207  -2.646  1.00 20.00     0.025 A 
HETATM    3  C3  UNL     1     -34.642  15.960  -2.287  1.00 20.00     0.030 A 
HETATM    4  C4  UNL     1     -33.625  15.723  -3.360  1.00 20.00     0.130 C 
HETATM    5  C5  UNL     1     -34.601  17.143  -1.333  1.00 20.00    -0.035 A 
HETATM    6  C6  UNL     1     -33.330  17.930  -1.146  1.00 20.00     0.016 C 
HETATM    7  C7  UNL     1     -35.424  17.033  -0.073  1.00 20.00     0.016 C 
HETATM    8  O11 UNL     1     -33.578  16.917  -4.167  1.00 20.00    -0.385 OA
ENDROOT
BRANCH   4   9
HETATM    9  C10 UNL     1     -33.994  14.550  -4.258  1.00 20.00     0.007 C 
HETATM   10  C8  UNL     1     -35.404  14.050  -3.943  1.00 20.00     0.012 C 
HETATM   11  C9  UNL     1     -33.884  14.941  -5.731  1.00 20.00     0.012 C 
ENDBRANCH   4   9
TORSDOF 1
ENDMDL
MODEL 5
REMARK VINA RESULT:      -4.2      1.530      1.871
REMARK  1 active torsions:
REMARK  status: ('A' for Active; 'I' for Inactive)
REMARK    1  A    between atoms: C4_4  and  C10_10 
ROOT
HETATM    1  C1  UNL     1     -34.644  18.471  -3.259  1.00 20.00     0.174 C 
HETATM    2  C2  UNL     1     -33.636  17.437  -3.619  1.00 20.00     0.025 A 
HETATM    3  C3  UNL     1     -33.110  16.894  -2.344  1.00 20.00     0.030 A 
HETATM    4  C4  UNL     1     -33.822  17.612  -1.241  1.00 20.00     0.130 C 
HETATM    5  C5  UNL     1     -33.797  15.957  -3.324  1.00 20.00    -0.035 A 
HETATM    6  C6  UNL     1     -35.155  15.386  -3.008  1.00 20.00     0.016 C 
HETATM    7  C7  UNL     1     -32.916  15.007  -4.095  1.00 20.00     0.016 C 
HETATM    8  O11 UNL     1     -34.901  18.352  -1.848  1.00 20.00    -0.385 OA
ENDROOT
BRANCH   4   9
HETATM    9  C10 UNL     1     -32.917  18.594  -0.511  1.00 20.00     0.007 C 
HETATM   10  C8  UNL     1     -33.225  18.603   0.987  1.00 20.00     0.012 C 
HETATM   11  C9  UNL     1     -31.446  18.255  -0.750  1.00 20.00     0.012 C 
ENDBRANCH   4   9
TORSDOF 1
ENDMDL
MODEL 6
REMARK VINA RESULT:      -4.2      1.715      2.824
REMARK  1 active torsions:
REMARK  status: ('A' for Active; 'I' for Inactive)
REMARK    1  A    between atoms: C4_4  and  C10_10 
ROOT
HETATM    1  C1  UNL     1     -33.541  14.436  -4.250  1.00 20.00     0.174 C 
HETATM    2  C2  UNL     1     -34.968  14.237  -3.878  1.00 20.00     0.025 A 
HETATM    3  C3  UNL     1     -35.448  15.524  -3.324  1.00 20.00     0.030 A 
HETATM    4  C4  UNL     1     -34.295  16.477  -3.381  1.00 20.00     0.130 C 
HETATM    5  C5  UNL     1     -36.127  14.945  -4.553  1.00 20.00    -0.035 A 
HETATM    6  C6  UNL     1     -35.945  15.593  -5.902  1.00 20.00     0.016 C 
HETATM    7  C7  UNL     1     -37.499  14.348  -4.360  1.00 20.00     0.016 C 
HETATM    8  O11 UNL     1     -33.268  15.847  -4.175  1.00 20.00    -0.385 OA
ENDROOT
BRANCH   4   9
HETATM    9  C10 UNL     1     -33.721  16.776  -2.004  1.00 20.00     0.007 C 
HETATM   10  C8  UNL     1     -32.704  17.915  -2.077  1.00 20.00     0.012 C 
HETATM   11  C9  UNL     1     -34.836  17.120  -1.016  1.00 20.00     0.012 C 
ENDBRANCH   4   9
TORSDOF 1
ENDMDL
MODEL 7
REMARK VINA RESULT:      -4.1      2.230      4.475
REMARK  1 active torsions:
REMARK  status: ('A' for Active; 'I' for Inactive)
REMARK    1  A    between atoms: C4_4  and  C10_10 
ROOT
HETATM    1  C1  UNL     1     -35.128  13.521  -4.035  1.00 20.00     0.174 C 
HETATM    2  C2  UNL     1     -34.040  14.521  -3.859  1.00 20.00     0.025 A 
HETATM    3  C3  UNL     1     -34.360  15.661  -4.751  1.00 20.00     0.030 A 
HETATM    4  C4  UNL     1     -35.644  15.322  -5.441  1.00 20.00     0.130 C 
HETATM    5  C5  UNL     1     -34.244  15.898  -3.254  1.00 20.00    -0.035 A 
HETATM    6  C6  UNL     1     -35.470  16.196  -2.431  1.00 20.00     0.016 C 
HETATM    7  C7  UNL     1     -33.011  16.621  -2.770  1.00 20.00     0.016 C 
HETATM    8  O11 UNL     1     -36.180  14.155  -4.785  1.00 20.00    -0.385 OA
ENDROOT
BRANCH   4   9
HETATM    9  C10 UNL     1     -35.441  14.994  -6.914  1.00 20.00     0.007 C 
HETATM   10  C8  UNL     1     -36.401  15.804  -7.786  1.00 20.00     0.012 C 
HETATM   11  C9  UNL     1     -33.994  15.254  -7.331  1.00 20.00     0.012 C 
ENDBRANCH   4   9
TORSDOF 1
ENDMDL
MODEL 8
REMARK VINA RESULT:      -4.1      1.959      4.252
REMARK  1 active torsions:
REMARK  status: ('A' for Active; 'I' for Inactive)
REMARK    1  A    between atoms: C4_4  and  C10_10 
ROOT
HETATM    1  C1  UNL     1     -33.907  14.280  -4.139  1.00 20.00     0.174 C 
HETATM    2  C2  UNL     1     -33.210  15.507  -3.668  1.00 20.00     0.025 A 
HETATM    3  C3  UNL     1     -33.943  16.661  -4.241  1.00 20.00     0.030 A 
HETATM    4  C4  UNL     1     -35.076  16.098  -5.041  1.00 20.00     0.130 C 
HETATM    5  C5  UNL     1     -33.828  16.527  -2.731  1.00 20.00    -0.035 A 
HETATM    6  C6  UNL     1     -35.034  16.170  -1.902  1.00 20.00     0.016 C 
HETATM    7  C7  UNL     1     -32.883  17.473  -2.031  1.00 20.00     0.016 C 
HETATM    8  O11 UNL     1     -35.152  14.692  -4.733  1.00 20.00    -0.385 OA
ENDROOT
BRANCH   4   9
HETATM    9  C10 UNL     1     -34.859  16.252  -6.539  1.00 20.00     0.007 C 
HETATM   10  C8  UNL     1     -35.653  15.198  -7.312  1.00 20.00     0.012 C 
HETATM   11  C9  UNL     1     -35.245  17.656  -7.002  1.00 20.00     0.012 C 
ENDBRANCH   4   9
TORSDOF 1
ENDMDL
MODEL 9
REMARK VINA RESULT:      -4.1      1.390      4.069
REMARK  1 active torsions:
REMARK  status: ('A' for Active; 'I' for Inactive)
REMARK    1  A    between atoms: C4_4  and  C10_10 
ROOT
HETATM    1  C1  UNL     1     -35.549  16.444  -2.393  1.00 20.00     0.174 C 
HETATM    2  C2  UNL     1     -34.154  16.634  -1.912  1.00 20.00     0.025 A 
HETATM    3  C3  UNL     1     -33.283  16.610  -3.110  1.00 20.00     0.030 A 
HETATM    4  C4  UNL     1     -34.179  16.413  -4.292  1.00 20.00     0.130 C 
HETATM    5  C5  UNL     1     -33.304  17.849  -2.231  1.00 20.00    -0.035 A 
HETATM    6  C6  UNL     1     -33.946  19.121  -2.722  1.00 20.00     0.016 C 
HETATM    7  C7  UNL     1     -32.098  18.089  -1.358  1.00 20.00     0.016 C 
HETATM    8  O11 UNL     1     -35.534  16.577  -3.825  1.00 20.00    -0.385 OA
ENDROOT
BRANCH   4   9
HETATM    9  C10 UNL     1     -34.044  15.022  -4.896  1.00 20.00     0.007 C 
HETATM   10  C8  UNL     1     -34.084  15.089  -6.423  1.00 20.00     0.012 C 
HETATM   11  C9  UNL     1     -32.755  14.350  -4.426  1.00 20.00     0.012 C 
ENDBRANCH   4   9
TORSDOF 1
ENDMDL
