MODEL 1
REMARK VINA RESULT:      -4.6      0.000      0.000
REMARK  1 active torsions:
REMARK  status: ('A' for Active; 'I' for Inactive)
REMARK    1  A    between atoms: C5_5  and  C7_7 
ROOT
HETATM    1  C1  UNL     1     -34.302  17.389  -1.194  1.00 20.00    -0.026 A 
HETATM    2  C2  UNL     1     -35.198  16.452  -1.534  1.00 20.00    -0.013 A 
HETATM    3  C3  UNL     1     -32.780  16.598  -3.034  1.00 20.00    -0.019 A 
HETATM    4  C4  UNL     1     -33.670  15.652  -3.389  1.00 20.00    -0.071 A 
HETATM    5  C6  UNL     1     -33.004  17.577  -1.919  1.00 20.00     0.054 A 
HETATM    6  C7  UNL     1     -34.989  15.495  -2.672  1.00 20.00     0.123 A 
HETATM    7  C8  UNL     1     -33.363  14.663  -4.480  1.00 20.00     0.044 C 
ENDROOT
BRANCH   6   8
HETATM    8  C5  UNL     1     -36.089  15.788  -3.648  1.00 20.00     0.230 C 
HETATM    9  O9  UNL     1     -36.311  16.929  -4.047  1.00 20.00    -0.279 OA
HETATM   10 CL10 UNL     1     -36.956  14.355  -4.107  1.00 20.00    -0.043 Cl
ENDBRANCH   6   8
TORSDOF 1
ENDMDL
MODEL 2
REMARK VINA RESULT:      -4.5      2.115      2.356
REMARK  1 active torsions:
REMARK  status: ('A' for Active; 'I' for Inactive)
REMARK    1  A    between atoms: C5_5  and  C7_7 
ROOT
HETATM    1  C1  UNL     1     -34.762  16.614  -2.620  1.00 20.00    -0.026 A 
HETATM    2  C2  UNL     1     -34.723  15.285  -2.795  1.00 20.00    -0.013 A 
HETATM    3  C3  UNL     1     -34.431  16.947  -5.091  1.00 20.00    -0.019 A 
HETATM    4  C4  UNL     1     -34.390  15.615  -5.285  1.00 20.00    -0.071 A 
HETATM    5  C6  UNL     1     -34.640  17.589  -3.750  1.00 20.00     0.054 A 
HETATM    6  C7  UNL     1     -34.549  14.643  -4.141  1.00 20.00     0.123 A 
HETATM    7  C8  UNL     1     -34.122  15.033  -6.646  1.00 20.00     0.044 C 
ENDROOT
BRANCH   6   8
HETATM    8  C5  UNL     1     -35.801  13.850  -4.371  1.00 20.00     0.230 C 
HETATM    9  O9  UNL     1     -35.782  12.626  -4.460  1.00 20.00    -0.279 OA
HETATM   10 CL10 UNL     1     -37.206  14.865  -4.487  1.00 20.00    -0.043 Cl
ENDBRANCH   6   8
TORSDOF 1
ENDMDL
MODEL 3
REMARK VINA RESULT:      -4.5      2.462      3.897
REMARK  1 active torsions:
REMARK  status: ('A' for Active; 'I' for Inactive)
REMARK    1  A    between atoms: C5_5  and  C7_7 
ROOT
HETATM    1  C1  UNL     1     -33.695  14.547  -4.510  1.00 20.00    -0.026 A 
HETATM    2  C2  UNL     1     -32.879  15.408  -3.884  1.00 20.00    -0.013 A 
HETATM    3  C3  UNL     1     -35.571  15.212  -2.971  1.00 20.00    -0.019 A 
HETATM    4  C4  UNL     1     -34.766  16.082  -2.332  1.00 20.00    -0.071 A 
HETATM    5  C6  UNL     1     -35.134  14.370  -4.135  1.00 20.00     0.054 A 
HETATM    6  C7  UNL     1     -33.326  16.276  -2.742  1.00 20.00     0.123 A 
HETATM    7  C8  UNL     1     -35.247  16.857  -1.137  1.00 20.00     0.044 C 
ENDROOT
BRANCH   6   8
HETATM    8  C5  UNL     1     -33.163  17.686  -3.225  1.00 20.00     0.230 C 
HETATM    9  O9  UNL     1     -33.675  18.072  -4.273  1.00 20.00    -0.279 OA
HETATM   10 CL10 UNL     1     -32.197  18.641  -2.144  1.00 20.00    -0.043 Cl
ENDBRANCH   6   8
TORSDOF 1
ENDMDL
MODEL 4
REMARK VINA RESULT:      -4.5     16.441     17.626
REMARK  1 active torsions:
REMARK  status: ('A' for Active; 'I' for Inactive)
REMARK    1  A    between atoms: C5_5  and  C7_7 
ROOT
HETATM    1  C1  UNL     1     -23.875  18.392   8.357  1.00 20.00    -0.026 A 
HETATM    2  C2  UNL     1     -24.658  18.526   9.436  1.00 20.00    -0.013 A 
HETATM    3  C3  UNL     1     -21.936  17.791   9.843  1.00 20.00    -0.019 A 
HETATM    4  C4  UNL     1     -22.709  17.921  10.938  1.00 20.00    -0.071 A 
HETATM    5  C6  UNL     1     -22.433  17.991   8.441  1.00 20.00     0.054 A 
HETATM    6  C7  UNL     1     -24.168  18.292  10.837  1.00 20.00     0.123 A 
HETATM    7  C8  UNL     1     -22.137  17.762  12.319  1.00 20.00     0.044 C 
ENDROOT
BRANCH   6   8
HETATM    8  C5  UNL     1     -24.980  17.144  11.357  1.00 20.00     0.230 C 
HETATM    9  O9  UNL     1     -24.690  15.979  11.097  1.00 20.00    -0.279 OA
HETATM   10 CL10 UNL     1     -26.318  17.675  12.330  1.00 20.00    -0.043 Cl
ENDBRANCH   6   8
TORSDOF 1
ENDMDL
MODEL 5
REMARK VINA RESULT:      -4.4     12.014     12.512
REMARK  1 active torsions:
REMARK  status: ('A' for Active; 'I' for Inactive)
REMARK    1  A    between atoms: C5_5  and  C7_7 
ROOT
HETATM    1  C1  UNL     1     -34.435   6.300   5.937  1.00 20.00    -0.026 A 
HETATM    2  C2  UNL     1     -34.257   7.116   4.889  1.00 20.00    -0.013 A 
HETATM    3  C3  UNL     1     -34.072   4.308   4.444  1.00 20.00    -0.019 A 
HETATM    4  C4  UNL     1     -33.889   5.113   3.381  1.00 20.00    -0.071 A 
HETATM    5  C6  UNL     1     -34.343   4.808   5.833  1.00 20.00     0.054 A 
HETATM    6  C7  UNL     1     -33.951   6.616   3.506  1.00 20.00     0.123 A 
HETATM    7  C8  UNL     1     -33.676   4.549   2.003  1.00 20.00     0.044 C 
ENDROOT
BRANCH   6   8
HETATM    8  C5  UNL     1     -32.598   7.169   3.171  1.00 20.00     0.230 C 
HETATM    9  O9  UNL     1     -31.728   7.307   4.027  1.00 20.00    -0.279 OA
HETATM   10 CL10 UNL     1     -32.451   7.565   1.486  1.00 20.00    -0.043 Cl
ENDBRANCH   6   8
TORSDOF 1
ENDMDL
MODEL 6
REMARK VINA RESULT:      -4.3      1.825      1.988
REMARK  1 active torsions:
REMARK  status: ('A' for Active; 'I' for Inactive)
REMARK    1  A    between atoms: C5_5  and  C7_7 
ROOT
HETATM    1  C1  UNL     1     -35.550  16.569  -2.326  1.00 20.00    -0.026 A 
HETATM    2  C2  UNL     1     -35.941  15.491  -3.020  1.00 20.00    -0.013 A 
HETATM    3  C3  UNL     1     -33.185  16.209  -3.104  1.00 20.00    -0.019 A 
HETATM    4  C4  UNL     1     -33.561  15.124  -3.807  1.00 20.00    -0.071 A 
HETATM    5  C6  UNL     1     -34.134  17.057  -2.308  1.00 20.00     0.054 A 
HETATM    6  C7  UNL     1     -34.998  14.663  -3.845  1.00 20.00     0.123 A 
HETATM    7  C8  UNL     1     -32.553  14.282  -4.541  1.00 20.00     0.044 C 
ENDROOT
BRANCH   6   8
HETATM    8  C5  UNL     1     -35.491  14.782  -5.256  1.00 20.00     0.230 C 
HETATM    9  O9  UNL     1     -35.939  13.815  -5.866  1.00 20.00    -0.279 OA
HETATM   10 CL10 UNL     1     -35.342  16.401  -5.867  1.00 20.00    -0.043 Cl
ENDBRANCH   6   8
TORSDOF 1
ENDMDL
MODEL 7
REMARK VINA RESULT:      -4.2      2.244      3.730
REMARK  1 active torsions:
REMARK  status: ('A' for Active; 'I' for Inactive)
REMARK    1  A    between atoms: C5_5  and  C7_7 
ROOT
HETATM    1  C1  UNL     1     -37.186  14.427  -4.524  1.00 20.00    -0.026 A 
HETATM    2  C2  UNL     1     -36.019  13.789  -4.354  1.00 20.00    -0.013 A 
HETATM    3  C3  UNL     1     -36.278  16.412  -3.274  1.00 20.00    -0.019 A 
HETATM    4  C4  UNL     1     -35.100  15.786  -3.094  1.00 20.00    -0.071 A 
HETATM    5  C6  UNL     1     -37.436  15.816  -4.020  1.00 20.00     0.054 A 
HETATM    6  C7  UNL     1     -34.850  14.400  -3.637  1.00 20.00     0.123 A 
HETATM    7  C8  UNL     1     -33.997  16.415  -2.288  1.00 20.00     0.044 C 
ENDROOT
BRANCH   6   8
HETATM    8  C5  UNL     1     -33.756  14.489  -4.659  1.00 20.00     0.230 C 
HETATM    9  O9  UNL     1     -32.685  13.907  -4.510  1.00 20.00    -0.279 OA
HETATM   10 CL10 UNL     1     -34.204  15.482  -6.012  1.00 20.00    -0.043 Cl
ENDBRANCH   6   8
TORSDOF 1
ENDMDL
MODEL 8
REMARK VINA RESULT:      -4.2      1.593      2.233
REMARK  1 active torsions:
REMARK  status: ('A' for Active; 'I' for Inactive)
REMARK    1  A    between atoms: C5_5  and  C7_7 
ROOT
HETATM    1  C1  UNL     1     -33.287  16.382  -2.807  1.00 20.00    -0.026 A 
HETATM    2  C2  UNL     1     -34.570  16.510  -2.440  1.00 20.00    -0.013 A 
HETATM    3  C3  UNL     1     -33.918  14.493  -4.343  1.00 20.00    -0.019 A 
HETATM    4  C4  UNL     1     -35.211  14.608  -3.987  1.00 20.00    -0.071 A 
HETATM    5  C6  UNL     1     -32.824  15.372  -3.813  1.00 20.00     0.054 A 
HETATM    6  C7  UNL     1     -35.670  15.653  -2.998  1.00 20.00     0.123 A 
HETATM    7  C8  UNL     1     -36.253  13.660  -4.512  1.00 20.00     0.044 C 
ENDROOT
BRANCH   6   8
HETATM    8  C5  UNL     1     -36.592  16.597  -3.709  1.00 20.00     0.230 C 
HETATM    9  O9  UNL     1     -37.726  16.825  -3.295  1.00 20.00    -0.279 OA
HETATM   10 CL10 UNL     1     -35.860  17.285  -5.126  1.00 20.00    -0.043 Cl
ENDBRANCH   6   8
TORSDOF 1
ENDMDL
MODEL 9
REMARK VINA RESULT:      -4.2      2.131      2.935
REMARK  1 active torsions:
REMARK  status: ('A' for Active; 'I' for Inactive)
REMARK    1  A    between atoms: C5_5  and  C7_7 
ROOT
HETATM    1  C1  UNL     1     -33.166  17.290  -2.825  1.00 20.00    -0.026 A 
HETATM    2  C2  UNL     1     -33.336  16.967  -4.115  1.00 20.00    -0.013 A 
HETATM    3  C3  UNL     1     -35.159  15.882  -2.212  1.00 20.00    -0.019 A 
HETATM    4  C4  UNL     1     -35.344  15.547  -3.502  1.00 20.00    -0.071 A 
HETATM    5  C6  UNL     1     -34.046  16.768  -1.731  1.00 20.00     0.054 A 
HETATM    6  C7  UNL     1     -34.428  16.053  -4.592  1.00 20.00     0.123 A 
HETATM    7  C8  UNL     1     -36.511  14.700  -3.929  1.00 20.00     0.044 C 
ENDROOT
BRANCH   6   8
HETATM    8  C5  UNL     1     -33.727  14.874  -5.198  1.00 20.00     0.230 C 
HETATM    9  O9  UNL     1     -33.220  13.998  -4.503  1.00 20.00    -0.279 OA
HETATM   10 CL10 UNL     1     -33.737  14.928  -6.934  1.00 20.00    -0.043 Cl
ENDBRANCH   6   8
TORSDOF 1
ENDMDL
