MODEL 1
REMARK VINA RESULT:      -4.9      0.000      0.000
REMARK  1 active torsions:
REMARK  status: ('A' for Active; 'I' for Inactive)
REMARK    1  A    between atoms: C3_3  and  C7_7 
ROOT
HETATM    1  C1  UNL     1     -34.933  16.480  -1.992  1.00 20.00    -0.007 C 
HETATM    2  C2  UNL     1     -33.645  16.762  -2.230  1.00 20.00     0.008 C 
HETATM    3  C4  UNL     1     -35.701  15.460  -2.781  1.00 20.00     0.042 C 
HETATM    4  C5  UNL     1     -32.842  16.122  -3.323  1.00 20.00     0.051 C 
HETATM    5  C6  UNL     1     -33.716  15.388  -4.345  1.00 20.00     0.019 C 
HETATM    6  C7  UNL     1     -34.808  14.568  -3.654  1.00 20.00     0.076 C 
HETATM    7 CL9  UNL     1     -32.811  17.934  -1.271  1.00 20.00    -0.089 Cl
ENDROOT
BRANCH   6   8
HETATM    8  C3  UNL     1     -35.640  13.848  -4.673  1.00 20.00     0.223 C 
HETATM    9  O8  UNL     1     -35.952  12.668  -4.535  1.00 20.00    -0.279 OA
HETATM   10 CL10 UNL     1     -36.074  14.874  -6.006  1.00 20.00    -0.043 Cl
ENDBRANCH   6   8
TORSDOF 1
ENDMDL
MODEL 2
REMARK VINA RESULT:      -4.7      1.015      1.846
REMARK  1 active torsions:
REMARK  status: ('A' for Active; 'I' for Inactive)
REMARK    1  A    between atoms: C3_3  and  C7_7 
ROOT
HETATM    1  C1  UNL     1     -33.011  15.658  -3.501  1.00 20.00    -0.007 C 
HETATM    2  C2  UNL     1     -33.425  16.631  -2.679  1.00 20.00     0.008 C 
HETATM    3  C4  UNL     1     -33.952  14.685  -4.148  1.00 20.00     0.042 C 
HETATM    4  C5  UNL     1     -34.859  16.836  -2.289  1.00 20.00     0.051 C 
HETATM    5  C6  UNL     1     -35.741  15.633  -2.635  1.00 20.00     0.019 C 
HETATM    6  C7  UNL     1     -35.426  15.096  -4.033  1.00 20.00     0.076 C 
HETATM    7 CL9  UNL     1     -32.291  17.734  -1.982  1.00 20.00    -0.089 Cl
ENDROOT
BRANCH   6   8
HETATM    8  C3  UNL     1     -36.312  13.930  -4.354  1.00 20.00     0.223 C 
HETATM    9  O8  UNL     1     -35.853  12.814  -4.583  1.00 20.00    -0.279 OA
HETATM   10 CL10 UNL     1     -37.994  14.366  -4.354  1.00 20.00    -0.043 Cl
ENDBRANCH   6   8
TORSDOF 1
ENDMDL
MODEL 3
REMARK VINA RESULT:      -4.6      1.500      1.614
REMARK  1 active torsions:
REMARK  status: ('A' for Active; 'I' for Inactive)
REMARK    1  A    between atoms: C3_3  and  C7_7 
ROOT
HETATM    1  C1  UNL     1     -35.124  16.706  -1.455  1.00 20.00    -0.007 C 
HETATM    2  C2  UNL     1     -33.998  17.425  -1.369  1.00 20.00     0.008 C 
HETATM    3  C4  UNL     1     -35.338  15.651  -2.502  1.00 20.00     0.042 C 
HETATM    4  C5  UNL     1     -32.847  17.285  -2.321  1.00 20.00     0.051 C 
HETATM    5  C6  UNL     1     -33.219  16.504  -3.585  1.00 20.00     0.019 C 
HETATM    6  C7  UNL     1     -34.054  15.266  -3.248  1.00 20.00     0.076 C 
HETATM    7 CL9  UNL     1     -33.805  18.611  -0.126  1.00 20.00    -0.089 Cl
ENDROOT
BRANCH   6   8
HETATM    8  C3  UNL     1     -34.393  14.512  -4.499  1.00 20.00     0.223 C 
HETATM    9  O8  UNL     1     -33.645  14.508  -5.474  1.00 20.00    -0.279 OA
HETATM   10 CL10 UNL     1     -35.918  13.690  -4.373  1.00 20.00    -0.043 Cl
ENDBRANCH   6   8
TORSDOF 1
ENDMDL
MODEL 4
REMARK VINA RESULT:      -4.4      1.439      2.216
REMARK  1 active torsions:
REMARK  status: ('A' for Active; 'I' for Inactive)
REMARK    1  A    between atoms: C3_3  and  C7_7 
ROOT
HETATM    1  C1  UNL     1     -32.892  17.281  -2.296  1.00 20.00    -0.007 C 
HETATM    2  C2  UNL     1     -33.895  17.589  -1.465  1.00 20.00     0.008 C 
HETATM    3  C4  UNL     1     -33.004  16.215  -3.347  1.00 20.00     0.042 C 
HETATM    4  C5  UNL     1     -35.221  16.887  -1.466  1.00 20.00     0.051 C 
HETATM    5  C6  UNL     1     -35.193  15.576  -2.257  1.00 20.00     0.019 C 
HETATM    6  C7  UNL     1     -34.445  15.742  -3.581  1.00 20.00     0.076 C 
HETATM    7 CL9  UNL     1     -33.709  18.843  -0.289  1.00 20.00    -0.089 Cl
ENDROOT
BRANCH   6   8
HETATM    8  C3  UNL     1     -34.444  14.450  -4.343  1.00 20.00     0.223 C 
HETATM    9  O8  UNL     1     -33.426  14.016  -4.876  1.00 20.00    -0.279 OA
HETATM   10 CL10 UNL     1     -36.010  13.699  -4.359  1.00 20.00    -0.043 Cl
ENDBRANCH   6   8
TORSDOF 1
ENDMDL
MODEL 5
REMARK VINA RESULT:      -4.2      1.249      1.429
REMARK  1 active torsions:
REMARK  status: ('A' for Active; 'I' for Inactive)
REMARK    1  A    between atoms: C3_3  and  C7_7 
ROOT
HETATM    1  C1  UNL     1     -36.232  17.344  -3.228  1.00 20.00    -0.007 C 
HETATM    2  C2  UNL     1     -35.182  17.401  -2.398  1.00 20.00     0.008 C 
HETATM    3  C4  UNL     1     -36.549  16.134  -4.058  1.00 20.00     0.042 C 
HETATM    4  C5  UNL     1     -34.193  16.286  -2.232  1.00 20.00     0.051 C 
HETATM    5  C6  UNL     1     -34.298  15.234  -3.340  1.00 20.00     0.019 C 
HETATM    6  C7  UNL     1     -35.758  14.886  -3.640  1.00 20.00     0.076 C 
HETATM    7 CL9  UNL     1     -34.885  18.818  -1.454  1.00 20.00    -0.089 Cl
ENDROOT
BRANCH   6   8
HETATM    8  C3  UNL     1     -35.834  13.845  -4.717  1.00 20.00     0.223 C 
HETATM    9  O8  UNL     1     -35.913  12.649  -4.453  1.00 20.00    -0.279 OA
HETATM   10 CL10 UNL     1     -35.793  14.545  -6.307  1.00 20.00    -0.043 Cl
ENDBRANCH   6   8
TORSDOF 1
ENDMDL
MODEL 6
REMARK VINA RESULT:      -4.2      1.644      1.670
REMARK  1 active torsions:
REMARK  status: ('A' for Active; 'I' for Inactive)
REMARK    1  A    between atoms: C3_3  and  C7_7 
ROOT
HETATM    1  C1  UNL     1     -34.952  17.455  -4.268  1.00 20.00    -0.007 C 
HETATM    2  C2  UNL     1     -33.716  17.226  -3.806  1.00 20.00     0.008 C 
HETATM    3  C4  UNL     1     -35.970  16.366  -4.445  1.00 20.00     0.042 C 
HETATM    4  C5  UNL     1     -33.202  15.862  -3.449  1.00 20.00     0.051 C 
HETATM    5  C6  UNL     1     -34.092  14.737  -3.986  1.00 20.00     0.019 C 
HETATM    6  C7  UNL     1     -35.574  15.048  -3.765  1.00 20.00     0.076 C 
HETATM    7 CL9  UNL     1     -32.597  18.528  -3.606  1.00 20.00    -0.089 Cl
ENDROOT
BRANCH   6   8
HETATM    8  C3  UNL     1     -36.423  13.927  -4.285  1.00 20.00     0.223 C 
HETATM    9  O8  UNL     1     -35.940  12.841  -4.596  1.00 20.00    -0.279 OA
HETATM   10 CL10 UNL     1     -38.101  14.367  -4.380  1.00 20.00    -0.043 Cl
ENDBRANCH   6   8
TORSDOF 1
ENDMDL
MODEL 7
REMARK VINA RESULT:      -4.1      1.699      2.569
REMARK  1 active torsions:
REMARK  status: ('A' for Active; 'I' for Inactive)
REMARK    1  A    between atoms: C3_3  and  C7_7 
ROOT
HETATM    1  C1  UNL     1     -32.701  17.675  -1.885  1.00 20.00    -0.007 C 
HETATM    2  C2  UNL     1     -33.620  18.027  -0.978  1.00 20.00     0.008 C 
HETATM    3  C4  UNL     1     -32.948  16.623  -2.927  1.00 20.00     0.042 C 
HETATM    4  C5  UNL     1     -34.976  17.392  -0.877  1.00 20.00     0.051 C 
HETATM    5  C6  UNL     1     -35.075  16.087  -1.671  1.00 20.00     0.019 C 
HETATM    6  C7  UNL     1     -34.425  16.224  -3.050  1.00 20.00     0.076 C 
HETATM    7 CL9  UNL     1     -33.280  19.262   0.183  1.00 20.00    -0.089 Cl
ENDROOT
BRANCH   6   8
HETATM    8  C3  UNL     1     -34.548  14.938  -3.813  1.00 20.00     0.223 C 
HETATM    9  O8  UNL     1     -35.627  14.368  -3.946  1.00 20.00    -0.279 OA
HETATM   10 CL10 UNL     1     -33.020  14.405  -4.445  1.00 20.00    -0.043 Cl
ENDBRANCH   6   8
TORSDOF 1
ENDMDL
MODEL 8
REMARK VINA RESULT:      -4.0      2.626      4.579
REMARK  1 active torsions:
REMARK  status: ('A' for Active; 'I' for Inactive)
REMARK    1  A    between atoms: C3_3  and  C7_7 
ROOT
HETATM    1  C1  UNL     1     -33.843  14.725  -4.169  1.00 20.00    -0.007 C 
HETATM    2  C2  UNL     1     -35.145  14.688  -3.859  1.00 20.00     0.008 C 
HETATM    3  C4  UNL     1     -32.906  15.762  -3.622  1.00 20.00     0.042 C 
HETATM    4  C5  UNL     1     -35.816  15.690  -2.967  1.00 20.00     0.051 C 
HETATM    5  C6  UNL     1     -34.959  16.936  -2.731  1.00 20.00     0.019 C 
HETATM    6  C7  UNL     1     -33.500  16.564  -2.457  1.00 20.00     0.076 C 
HETATM    7 CL9  UNL     1     -36.168  13.454  -4.507  1.00 20.00    -0.089 Cl
ENDROOT
BRANCH   6   8
HETATM    8  C3  UNL     1     -32.685  17.799  -2.215  1.00 20.00     0.223 C 
HETATM    9  O8  UNL     1     -32.106  17.992  -1.149  1.00 20.00    -0.279 OA
HETATM   10 CL10 UNL     1     -32.683  18.861  -3.591  1.00 20.00    -0.043 Cl
ENDBRANCH   6   8
TORSDOF 1
ENDMDL
MODEL 9
REMARK VINA RESULT:      -4.0     10.804     12.473
REMARK  1 active torsions:
REMARK  status: ('A' for Active; 'I' for Inactive)
REMARK    1  A    between atoms: C3_3  and  C7_7 
ROOT
HETATM    1  C1  UNL     1     -43.304   5.728  -1.917  1.00 20.00    -0.007 C 
HETATM    2  C2  UNL     1     -42.203   4.972  -1.820  1.00 20.00     0.008 C 
HETATM    3  C4  UNL     1     -43.417   7.086  -1.288  1.00 20.00     0.042 C 
HETATM    4  C5  UNL     1     -40.981   5.378  -1.049  1.00 20.00     0.051 C 
HETATM    5  C6  UNL     1     -41.242   6.561  -0.112  1.00 20.00     0.019 C 
HETATM    6  C7  UNL     1     -42.073   7.645  -0.803  1.00 20.00     0.076 C 
HETATM    7 CL9  UNL     1     -42.129   3.424  -2.586  1.00 20.00    -0.089 Cl
ENDROOT
BRANCH   6   8
HETATM    8  C3  UNL     1     -42.302   8.797   0.129  1.00 20.00     0.223 C 
HETATM    9  O8  UNL     1     -43.400   9.010   0.635  1.00 20.00    -0.279 OA
HETATM   10 CL10 UNL     1     -40.861   9.737   0.372  1.00 20.00    -0.043 Cl
ENDBRANCH   6   8
TORSDOF 1
ENDMDL
