MODEL 1
REMARK VINA RESULT:      -5.5      0.000      0.000
REMARK  1 active torsions:
REMARK  status: ('A' for Active; 'I' for Inactive)
REMARK    1  A    between atoms: C4_4  and  C5_5 
ROOT
HETATM    1  C1  UNL     1     -33.665   4.641   2.523  1.00 20.00     0.014 C 
HETATM    2  C2  UNL     1     -34.116   4.260   3.927  1.00 20.00     0.062 C 
HETATM    3  C3  UNL     1     -32.867   5.927   2.659  1.00 20.00     0.077 C 
HETATM    4  C4  UNL     1     -34.768   5.508   4.511  1.00 20.00     0.209 C 
HETATM    5  F6  UNL     1     -36.012   5.641   3.974  1.00 20.00    -0.225 F 
HETATM    6  S9  UNL     1     -33.728   6.886   3.937  1.00 20.00    -0.121 SA
ENDROOT
BRANCH   4   7
HETATM    7  C5  UNL     1     -34.895   5.471   6.021  1.00 20.00     0.403 C 
HETATM    8  F7  UNL     1     -34.546   6.677   6.526  1.00 20.00    -0.210 F 
HETATM    9  F8  UNL     1     -34.025   4.562   6.519  1.00 20.00    -0.210 F 
ENDBRANCH   4   7
TORSDOF 1
ENDMDL
MODEL 2
REMARK VINA RESULT:      -4.6      2.408      3.577
REMARK  1 active torsions:
REMARK  status: ('A' for Active; 'I' for Inactive)
REMARK    1  A    between atoms: C4_4  and  C5_5 
ROOT
HETATM    1  C1  UNL     1     -34.325   6.475   6.267  1.00 20.00     0.014 C 
HETATM    2  C2  UNL     1     -33.290   6.899   5.233  1.00 20.00     0.062 C 
HETATM    3  C3  UNL     1     -34.698   5.038   5.941  1.00 20.00     0.077 C 
HETATM    4  C4  UNL     1     -33.887   6.551   3.875  1.00 20.00     0.209 C 
HETATM    5  F6  UNL     1     -34.822   7.488   3.557  1.00 20.00    -0.225 F 
HETATM    6  S9  UNL     1     -34.717   4.952   4.128  1.00 20.00    -0.121 SA
ENDROOT
BRANCH   4   7
HETATM    7  C5  UNL     1     -32.860   6.497   2.761  1.00 20.00     0.403 C 
HETATM    8  F7  UNL     1     -32.575   5.205   2.480  1.00 20.00    -0.210 F 
HETATM    9  F8  UNL     1     -31.713   7.077   3.184  1.00 20.00    -0.210 F 
ENDBRANCH   4   7
TORSDOF 1
ENDMDL
MODEL 3
REMARK VINA RESULT:      -4.2      8.580      9.438
REMARK  1 active torsions:
REMARK  status: ('A' for Active; 'I' for Inactive)
REMARK    1  A    between atoms: C4_4  and  C5_5 
ROOT
HETATM    1  C1  UNL     1     -41.334   5.533  -1.080  1.00 20.00     0.014 C 
HETATM    2  C2  UNL     1     -41.271   7.055  -1.091  1.00 20.00     0.062 C 
HETATM    3  C3  UNL     1     -42.695   5.160  -0.515  1.00 20.00     0.077 C 
HETATM    4  C4  UNL     1     -41.666   7.501   0.312  1.00 20.00     0.209 C 
HETATM    5  F6  UNL     1     -40.608   7.303   1.145  1.00 20.00    -0.225 F 
HETATM    6  S9  UNL     1     -43.013   6.378   0.794  1.00 20.00    -0.121 SA
ENDROOT
BRANCH   4   7
HETATM    7  C5  UNL     1     -42.075   8.958   0.389  1.00 20.00     0.403 C 
HETATM    8  F7  UNL     1     -43.008   9.209  -0.558  1.00 20.00    -0.210 F 
HETATM    9  F8  UNL     1     -41.003   9.736   0.111  1.00 20.00    -0.210 F 
ENDBRANCH   4   7
TORSDOF 1
ENDMDL
MODEL 4
REMARK VINA RESULT:      -4.2      8.828      9.528
REMARK  1 active torsions:
REMARK  status: ('A' for Active; 'I' for Inactive)
REMARK    1  A    between atoms: C4_4  and  C5_5 
ROOT
HETATM    1  C1  UNL     1     -41.826   9.105   0.332  1.00 20.00     0.014 C 
HETATM    2  C2  UNL     1     -41.317   7.686   0.547  1.00 20.00     0.062 C 
HETATM    3  C3  UNL     1     -43.263   8.982  -0.147  1.00 20.00     0.077 C 
HETATM    4  C4  UNL     1     -41.634   6.928  -0.737  1.00 20.00     0.209 C 
HETATM    5  F6  UNL     1     -40.725   7.282  -1.686  1.00 20.00    -0.225 F 
HETATM    6  S9  UNL     1     -43.275   7.532  -1.239  1.00 20.00    -0.121 SA
ENDROOT
BRANCH   4   7
HETATM    7  C5  UNL     1     -41.599   5.422  -0.572  1.00 20.00     0.403 C 
HETATM    8  F7  UNL     1     -41.583   5.118   0.746  1.00 20.00    -0.210 F 
HETATM    9  F8  UNL     1     -40.452   4.942  -1.107  1.00 20.00    -0.210 F 
ENDBRANCH   4   7
TORSDOF 1
ENDMDL
MODEL 5
REMARK VINA RESULT:      -4.1     16.427     17.315
REMARK  1 active torsions:
REMARK  status: ('A' for Active; 'I' for Inactive)
REMARK    1  A    between atoms: C4_4  and  C5_5 
ROOT
HETATM    1  C1  UNL     1     -24.557  15.901  11.777  1.00 20.00     0.014 C 
HETATM    2  C2  UNL     1     -24.138  16.529  10.454  1.00 20.00     0.062 C 
HETATM    3  C3  UNL     1     -25.778  16.671  12.252  1.00 20.00     0.077 C 
HETATM    4  C4  UNL     1     -24.046  18.028  10.711  1.00 20.00     0.209 C 
HETATM    5  F6  UNL     1     -22.890  18.284  11.383  1.00 20.00    -0.225 F 
HETATM    6  S9  UNL     1     -25.455  18.399  11.800  1.00 20.00    -0.121 SA
ENDROOT
BRANCH   4   7
HETATM    7  C5  UNL     1     -24.062  18.859   9.443  1.00 20.00     0.403 C 
HETATM    8  F7  UNL     1     -24.479  18.090   8.412  1.00 20.00    -0.210 F 
HETATM    9  F8  UNL     1     -22.801  19.260   9.159  1.00 20.00    -0.210 F 
ENDBRANCH   4   7
TORSDOF 1
ENDMDL
MODEL 6
REMARK VINA RESULT:      -4.0     16.812     17.604
REMARK  1 active torsions:
REMARK  status: ('A' for Active; 'I' for Inactive)
REMARK    1  A    between atoms: C4_4  and  C5_5 
ROOT
HETATM    1  C1  UNL     1     -25.308  18.305  11.088  1.00 20.00     0.014 C 
HETATM    2  C2  UNL     1     -24.365  18.366   9.893  1.00 20.00     0.062 C 
HETATM    3  C3  UNL     1     -24.434  18.346  12.331  1.00 20.00     0.077 C 
HETATM    4  C4  UNL     1     -23.318  17.285  10.129  1.00 20.00     0.209 C 
HETATM    5  F6  UNL     1     -23.869  16.074   9.836  1.00 20.00    -0.225 F 
HETATM    6  S9  UNL     1     -22.970  17.357  11.913  1.00 20.00    -0.121 SA
ENDROOT
BRANCH   4   7
HETATM    7  C5  UNL     1     -22.068  17.462   9.290  1.00 20.00     0.403 C 
HETATM    8  F7  UNL     1     -21.790  18.781   9.179  1.00 20.00    -0.210 F 
HETATM    9  F8  UNL     1     -22.300  16.996   8.041  1.00 20.00    -0.210 F 
ENDBRANCH   4   7
TORSDOF 1
ENDMDL
MODEL 7
REMARK VINA RESULT:      -4.0     16.278     17.074
REMARK  1 active torsions:
REMARK  status: ('A' for Active; 'I' for Inactive)
REMARK    1  A    between atoms: C4_4  and  C5_5 
ROOT
HETATM    1  C1  UNL     1     -23.203  18.394   9.539  1.00 20.00     0.014 C 
HETATM    2  C2  UNL     1     -24.332  17.478   9.996  1.00 20.00     0.062 C 
HETATM    3  C3  UNL     1     -21.976  18.004  10.347  1.00 20.00     0.077 C 
HETATM    4  C4  UNL     1     -24.355  17.568  11.517  1.00 20.00     0.209 C 
HETATM    5  F6  UNL     1     -24.947  18.742  11.874  1.00 20.00    -0.225 F 
HETATM    6  S9  UNL     1     -22.604  17.619  12.006  1.00 20.00    -0.121 SA
ENDROOT
BRANCH   4   7
HETATM    7  C5  UNL     1     -25.106  16.429  12.177  1.00 20.00     0.403 C 
HETATM    8  F7  UNL     1     -24.830  15.277  11.524  1.00 20.00    -0.210 F 
HETATM    9  F8  UNL     1     -26.436  16.646  12.062  1.00 20.00    -0.210 F 
ENDBRANCH   4   7
TORSDOF 1
ENDMDL
MODEL 8
REMARK VINA RESULT:      -3.9     16.742     17.479
REMARK  1 active torsions:
REMARK  status: ('A' for Active; 'I' for Inactive)
REMARK    1  A    between atoms: C4_4  and  C5_5 
ROOT
HETATM    1  C1  UNL     1     -22.574  17.772   8.214  1.00 20.00     0.014 C 
HETATM    2  C2  UNL     1     -22.180  17.533   9.666  1.00 20.00     0.062 C 
HETATM    3  C3  UNL     1     -23.653  18.842   8.229  1.00 20.00     0.077 C 
HETATM    4  C4  UNL     1     -23.482  17.297  10.420  1.00 20.00     0.209 C 
HETATM    5  F6  UNL     1     -23.912  16.031  10.161  1.00 20.00    -0.225 F 
HETATM    6  S9  UNL     1     -24.660  18.478   9.696  1.00 20.00    -0.121 SA
ENDROOT
BRANCH   4   7
HETATM    7  C5  UNL     1     -23.348  17.463  11.921  1.00 20.00     0.403 C 
HETATM    8  F7  UNL     1     -24.157  18.466  12.332  1.00 20.00    -0.210 F 
HETATM    9  F8  UNL     1     -22.078  17.827  12.217  1.00 20.00    -0.210 F 
ENDBRANCH   4   7
TORSDOF 1
ENDMDL
MODEL 9
REMARK VINA RESULT:      -3.9     12.420     13.080
REMARK  1 active torsions:
REMARK  status: ('A' for Active; 'I' for Inactive)
REMARK    1  A    between atoms: C4_4  and  C5_5 
ROOT
HETATM    1  C1  UNL     1     -36.284  13.986  -4.288  1.00 20.00     0.014 C 
HETATM    2  C2  UNL     1     -34.798  14.193  -4.026  1.00 20.00     0.062 C 
HETATM    3  C3  UNL     1     -36.766  15.216  -5.039  1.00 20.00     0.077 C 
HETATM    4  C4  UNL     1     -34.672  15.573  -3.394  1.00 20.00     0.209 C 
HETATM    5  F6  UNL     1     -35.055  15.492  -2.090  1.00 20.00    -0.225 F 
HETATM    6  S9  UNL     1     -35.867  16.607  -4.296  1.00 20.00    -0.121 SA
ENDROOT
BRANCH   4   7
HETATM    7  C5  UNL     1     -33.266  16.136  -3.451  1.00 20.00     0.403 C 
HETATM    8  F7  UNL     1     -32.407  15.153  -3.804  1.00 20.00    -0.210 F 
HETATM    9  F8  UNL     1     -32.905  16.557  -2.216  1.00 20.00    -0.210 F 
ENDBRANCH   4   7
TORSDOF 1
ENDMDL
