MODEL 1
REMARK VINA RESULT:      -4.9      0.000      0.000
REMARK  3 active torsions:
REMARK  status: ('A' for Active; 'I' for Inactive)
REMARK    1  A    between atoms: C1_1  and  C7_7 
REMARK    2  A    between atoms: C2_2  and  C9_9 
REMARK    3  A    between atoms: C9_9  and  C10_10 
ROOT
HETATM    1  C3  UNL     1     -34.123  14.879  -3.809  1.00 20.00     0.128 C 
HETATM    2  C4  UNL     1     -35.353  15.195  -2.998  1.00 20.00     0.079 C 
HETATM    3  C5  UNL     1     -32.988  15.828  -3.519  1.00 20.00     0.095 C 
HETATM    4  C6  UNL     1     -34.806  16.188  -1.979  1.00 20.00     0.025 C 
HETATM    5  C7  UNL     1     -33.696  16.927  -2.725  1.00 20.00     0.072 C 
HETATM    6  O11 UNL     1     -34.054  13.958  -4.612  1.00 20.00    -0.298 OA
ENDROOT
BRANCH   5   7
HETATM    7  C1  UNL     1     -32.784  17.628  -1.816  1.00 20.00    -0.101 C 
HETATM    8  C2  UNL     1     -32.038  18.202  -1.071  1.00 20.00    -0.106 C 
BRANCH   8   9
HETATM    9  C9  UNL     1     -31.121  18.905  -0.162  1.00 20.00     0.093 C 
BRANCH   9  10
HETATM   10  C10 UNL     1     -30.911  18.147   1.149  1.00 20.00     0.007 C 
HETATM   11  C8  UNL     1     -32.131  18.180   2.059  1.00 20.00     0.006 C 
ENDBRANCH   9  10
ENDBRANCH   8   9
ENDBRANCH   5   7
TORSDOF 3
ENDMDL
MODEL 2
REMARK VINA RESULT:      -4.7      1.632      2.698
REMARK  3 active torsions:
REMARK  status: ('A' for Active; 'I' for Inactive)
REMARK    1  A    between atoms: C1_1  and  C7_7 
REMARK    2  A    between atoms: C2_2  and  C9_9 
REMARK    3  A    between atoms: C9_9  and  C10_10 
ROOT
HETATM    1  C3  UNL     1     -36.681  14.265  -4.146  1.00 20.00     0.128 C 
HETATM    2  C4  UNL     1     -35.520  13.334  -4.384  1.00 20.00     0.079 C 
HETATM    3  C5  UNL     1     -36.268  15.517  -3.414  1.00 20.00     0.095 C 
HETATM    4  C6  UNL     1     -34.333  14.223  -4.035  1.00 20.00     0.025 C 
HETATM    5  C7  UNL     1     -34.859  15.153  -2.943  1.00 20.00     0.072 C 
HETATM    6  O11 UNL     1     -37.827  14.031  -4.505  1.00 20.00    -0.298 OA
ENDROOT
BRANCH   5   7
HETATM    7  C1  UNL     1     -34.013  16.336  -2.760  1.00 20.00    -0.101 C 
HETATM    8  C2  UNL     1     -33.319  17.304  -2.611  1.00 20.00    -0.106 C 
BRANCH   8   9
HETATM    9  C9  UNL     1     -32.473  18.492  -2.429  1.00 20.00     0.093 C 
BRANCH   9  10
HETATM   10  C10 UNL     1     -32.326  18.879  -0.957  1.00 20.00     0.007 C 
HETATM   11  C8  UNL     1     -31.090  18.277  -0.303  1.00 20.00     0.006 C 
ENDBRANCH   9  10
ENDBRANCH   8   9
ENDBRANCH   5   7
TORSDOF 3
ENDMDL
MODEL 3
REMARK VINA RESULT:      -4.5      1.754      2.954
REMARK  3 active torsions:
REMARK  status: ('A' for Active; 'I' for Inactive)
REMARK    1  A    between atoms: C1_1  and  C7_7 
REMARK    2  A    between atoms: C2_2  and  C9_9 
REMARK    3  A    between atoms: C9_9  and  C10_10 
ROOT
HETATM    1  C3  UNL     1     -35.338  14.486  -5.316  1.00 20.00     0.128 C 
HETATM    2  C4  UNL     1     -33.916  14.967  -5.445  1.00 20.00     0.079 C 
HETATM    3  C5  UNL     1     -35.911  14.758  -3.948  1.00 20.00     0.095 C 
HETATM    4  C6  UNL     1     -33.763  15.821  -4.191  1.00 20.00     0.025 C 
HETATM    5  C7  UNL     1     -34.661  15.144  -3.157  1.00 20.00     0.072 C 
HETATM    6  O11 UNL     1     -35.956  13.935  -6.218  1.00 20.00    -0.298 OA
ENDROOT
BRANCH   5   7
HETATM    7  C1  UNL     1     -34.971  16.023  -2.026  1.00 20.00    -0.101 C 
HETATM    8  C2  UNL     1     -35.225  16.743  -1.099  1.00 20.00    -0.106 C 
BRANCH   8   9
HETATM    9  C9  UNL     1     -35.534  17.623   0.037  1.00 20.00     0.093 C 
BRANCH   9  10
HETATM   10  C10 UNL     1     -34.297  17.935   0.880  1.00 20.00     0.007 C 
HETATM   11  C8  UNL     1     -33.125  18.446   0.053  1.00 20.00     0.006 C 
ENDBRANCH   9  10
ENDBRANCH   8   9
ENDBRANCH   5   7
TORSDOF 3
ENDMDL
MODEL 4
REMARK VINA RESULT:      -4.4     12.707     15.407
REMARK  3 active torsions:
REMARK  status: ('A' for Active; 'I' for Inactive)
REMARK    1  A    between atoms: C1_1  and  C7_7 
REMARK    2  A    between atoms: C2_2  and  C9_9 
REMARK    3  A    between atoms: C9_9  and  C10_10 
ROOT
HETATM    1  C3  UNL     1     -42.123   8.331  -0.170  1.00 20.00     0.128 C 
HETATM    2  C4  UNL     1     -41.253   7.591   0.813  1.00 20.00     0.079 C 
HETATM    3  C5  UNL     1     -42.562   7.456  -1.316  1.00 20.00     0.095 C 
HETATM    4  C6  UNL     1     -41.443   6.146   0.368  1.00 20.00     0.025 C 
HETATM    5  C7  UNL     1     -41.655   6.237  -1.143  1.00 20.00     0.072 C 
HETATM    6  O11 UNL     1     -42.436   9.509  -0.051  1.00 20.00    -0.298 OA
ENDROOT
BRANCH   5   7
HETATM    7  C1  UNL     1     -42.253   5.019  -1.696  1.00 20.00    -0.101 C 
HETATM    8  C2  UNL     1     -42.743   4.021  -2.151  1.00 20.00    -0.106 C 
BRANCH   8   9
HETATM    9  C9  UNL     1     -43.341   2.797  -2.705  1.00 20.00     0.093 C 
BRANCH   9  10
HETATM   10  C10 UNL     1     -42.329   1.962  -3.490  1.00 20.00     0.007 C 
HETATM   11  C8  UNL     1     -41.830   2.658  -4.748  1.00 20.00     0.006 C 
ENDBRANCH   9  10
ENDBRANCH   8   9
ENDBRANCH   5   7
TORSDOF 3
ENDMDL
MODEL 5
REMARK VINA RESULT:      -4.4     10.868     11.812
REMARK  3 active torsions:
REMARK  status: ('A' for Active; 'I' for Inactive)
REMARK    1  A    between atoms: C1_1  and  C7_7 
REMARK    2  A    between atoms: C2_2  and  C9_9 
REMARK    3  A    between atoms: C9_9  and  C10_10 
ROOT
HETATM    1  C3  UNL     1     -34.478   6.029   5.637  1.00 20.00     0.128 C 
HETATM    2  C4  UNL     1     -34.858   4.763   4.915  1.00 20.00     0.079 C 
HETATM    3  C5  UNL     1     -33.551   6.896   4.822  1.00 20.00     0.095 C 
HETATM    4  C6  UNL     1     -34.364   5.052   3.502  1.00 20.00     0.025 C 
HETATM    5  C7  UNL     1     -33.138   5.942   3.701  1.00 20.00     0.072 C 
HETATM    6  O11 UNL     1     -34.876   6.320   6.758  1.00 20.00    -0.298 OA
ENDROOT
BRANCH   5   7
HETATM    7  C1  UNL     1     -32.761   6.655   2.478  1.00 20.00    -0.101 C 
HETATM    8  C2  UNL     1     -32.453   7.241   1.476  1.00 20.00    -0.106 C 
BRANCH   8   9
HETATM    9  C9  UNL     1     -32.072   7.956   0.249  1.00 20.00     0.093 C 
BRANCH   9  10
HETATM   10  C10 UNL     1     -32.923   9.205   0.019  1.00 20.00     0.007 C 
HETATM   11  C8  UNL     1     -33.217   9.971   1.303  1.00 20.00     0.006 C 
ENDBRANCH   9  10
ENDBRANCH   8   9
ENDBRANCH   5   7
TORSDOF 3
ENDMDL
MODEL 6
REMARK VINA RESULT:      -4.4      2.957      5.931
REMARK  3 active torsions:
REMARK  status: ('A' for Active; 'I' for Inactive)
REMARK    1  A    between atoms: C1_1  and  C7_7 
REMARK    2  A    between atoms: C2_2  and  C9_9 
REMARK    3  A    between atoms: C9_9  and  C10_10 
ROOT
HETATM    1  C3  UNL     1     -31.978  18.797   1.976  1.00 20.00     0.128 C 
HETATM    2  C4  UNL     1     -30.572  18.870   1.439  1.00 20.00     0.079 C 
HETATM    3  C5  UNL     1     -32.982  18.455   0.905  1.00 20.00     0.095 C 
HETATM    4  C6  UNL     1     -30.738  18.252   0.055  1.00 20.00     0.025 C 
HETATM    5  C7  UNL     1     -32.155  18.636  -0.368  1.00 20.00     0.072 C 
HETATM    6  O11 UNL     1     -32.270  18.994   3.149  1.00 20.00    -0.298 OA
ENDROOT
BRANCH   5   7
HETATM    7  C1  UNL     1     -32.651  17.810  -1.472  1.00 20.00    -0.101 C 
HETATM    8  C2  UNL     1     -33.058  17.133  -2.377  1.00 20.00    -0.106 C 
BRANCH   8   9
HETATM    9  C9  UNL     1     -33.557  16.308  -3.486  1.00 20.00     0.093 C 
BRANCH   9  10
HETATM   10  C10 UNL     1     -34.665  15.352  -3.043  1.00 20.00     0.007 C 
HETATM   11  C8  UNL     1     -34.761  14.106  -3.914  1.00 20.00     0.006 C 
ENDBRANCH   9  10
ENDBRANCH   8   9
ENDBRANCH   5   7
TORSDOF 3
ENDMDL
MODEL 7
REMARK VINA RESULT:      -4.3     14.173     15.222
REMARK  3 active torsions:
REMARK  status: ('A' for Active; 'I' for Inactive)
REMARK    1  A    between atoms: C1_1  and  C7_7 
REMARK    2  A    between atoms: C2_2  and  C9_9 
REMARK    3  A    between atoms: C9_9  and  C10_10 
ROOT
HETATM    1  C3  UNL     1     -22.198  17.701   7.931  1.00 20.00     0.128 C 
HETATM    2  C4  UNL     1     -21.293  17.501   9.119  1.00 20.00     0.079 C 
HETATM    3  C5  UNL     1     -23.639  17.881   8.335  1.00 20.00     0.095 C 
HETATM    4  C6  UNL     1     -22.212  17.877  10.275  1.00 20.00     0.025 C 
HETATM    5  C7  UNL     1     -23.606  17.463   9.805  1.00 20.00     0.072 C 
HETATM    6  O11 UNL     1     -21.807  17.715   6.771  1.00 20.00    -0.298 OA
ENDROOT
BRANCH   5   7
HETATM    7  C1  UNL     1     -24.670  18.100  10.586  1.00 20.00    -0.101 C 
HETATM    8  C2  UNL     1     -25.542  18.621  11.226  1.00 20.00    -0.106 C 
BRANCH   8   9
HETATM    9  C9  UNL     1     -26.608  19.263  12.009  1.00 20.00     0.093 C 
BRANCH   9  10
HETATM   10  C10 UNL     1     -28.002  18.897  11.499  1.00 20.00     0.007 C 
HETATM   11  C8  UNL     1     -28.619  17.719  12.242  1.00 20.00     0.006 C 
ENDBRANCH   9  10
ENDBRANCH   8   9
ENDBRANCH   5   7
TORSDOF 3
ENDMDL
MODEL 8
REMARK VINA RESULT:      -4.2      2.585      5.812
REMARK  3 active torsions:
REMARK  status: ('A' for Active; 'I' for Inactive)
REMARK    1  A    between atoms: C1_1  and  C7_7 
REMARK    2  A    between atoms: C2_2  and  C9_9 
REMARK    3  A    between atoms: C9_9  and  C10_10 
ROOT
HETATM    1  C3  UNL     1     -32.677  18.174  -1.858  1.00 20.00     0.128 C 
HETATM    2  C4  UNL     1     -33.800  18.236  -0.855  1.00 20.00     0.079 C 
HETATM    3  C5  UNL     1     -32.838  17.029  -2.826  1.00 20.00     0.095 C 
HETATM    4  C6  UNL     1     -34.806  17.261  -1.456  1.00 20.00     0.025 C 
HETATM    5  C7  UNL     1     -33.947  16.212  -2.161  1.00 20.00     0.072 C 
HETATM    6  O11 UNL     1     -31.741  18.963  -1.884  1.00 20.00    -0.298 OA
ENDROOT
BRANCH   5   7
HETATM    7  C1  UNL     1     -34.712  15.425  -3.132  1.00 20.00    -0.101 C 
HETATM    8  C2  UNL     1     -35.340  14.780  -3.926  1.00 20.00    -0.106 C 
BRANCH   8   9
HETATM    9  C9  UNL     1     -36.106  13.991  -4.902  1.00 20.00     0.093 C 
BRANCH   9  10
HETATM   10  C10 UNL     1     -35.853  14.446  -6.340  1.00 20.00     0.007 C 
HETATM   11  C8  UNL     1     -34.449  14.994  -6.554  1.00 20.00     0.006 C 
ENDBRANCH   9  10
ENDBRANCH   8   9
ENDBRANCH   5   7
TORSDOF 3
ENDMDL
MODEL 9
REMARK VINA RESULT:      -4.2      2.613      3.522
REMARK  3 active torsions:
REMARK  status: ('A' for Active; 'I' for Inactive)
REMARK    1  A    between atoms: C1_1  and  C7_7 
REMARK    2  A    between atoms: C2_2  and  C9_9 
REMARK    3  A    between atoms: C9_9  and  C10_10 
ROOT
HETATM    1  C3  UNL     1     -35.410  14.519  -5.192  1.00 20.00     0.128 C 
HETATM    2  C4  UNL     1     -33.931  14.768  -5.343  1.00 20.00     0.079 C 
HETATM    3  C5  UNL     1     -35.927  14.953  -3.844  1.00 20.00     0.095 C 
HETATM    4  C6  UNL     1     -33.642  15.657  -4.139  1.00 20.00     0.025 C 
HETATM    5  C7  UNL     1     -34.628  15.186  -3.071  1.00 20.00     0.072 C 
HETATM    6  O11 UNL     1     -36.110  14.020  -6.064  1.00 20.00    -0.298 OA
ENDROOT
BRANCH   5   7
HETATM    7  C1  UNL     1     -34.793  16.164  -1.993  1.00 20.00    -0.101 C 
HETATM    8  C2  UNL     1     -34.928  16.965  -1.108  1.00 20.00    -0.106 C 
BRANCH   8   9
HETATM    9  C9  UNL     1     -35.092  17.949  -0.028  1.00 20.00     0.093 C 
BRANCH   9  10
HETATM   10  C10 UNL     1     -36.433  17.801   0.690  1.00 20.00     0.007 C 
HETATM   11  C8  UNL     1     -37.625  18.136  -0.196  1.00 20.00     0.006 C 
ENDBRANCH   9  10
ENDBRANCH   8   9
ENDBRANCH   5   7
TORSDOF 3
ENDMDL
