MODEL 1
REMARK VINA RESULT:      -4.9      0.000      0.000
REMARK  2 active torsions:
REMARK  status: ('A' for Active; 'I' for Inactive)
REMARK    1  A    between atoms: C1_1  and  C10_10 
REMARK    2  A    between atoms: C1_1  and  C11_11 
ROOT
HETATM    1  C2  UNL     1     -33.179  15.798  -3.457  1.00 20.00     0.009 C 
HETATM    2  C3  UNL     1     -34.022  15.116  -5.735  1.00 20.00     0.010 C 
HETATM    3  C4  UNL     1     -34.765  17.263  -4.763  1.00 20.00     0.010 C 
HETATM    4  C5  UNL     1     -34.878  13.980  -3.888  1.00 20.00     0.022 C 
HETATM    5  C6  UNL     1     -35.623  16.131  -2.915  1.00 20.00     0.022 C 
HETATM    6  C7  UNL     1     -33.563  14.596  -4.371  1.00 20.00    -0.013 C 
HETATM    7  C8  UNL     1     -34.337  16.835  -3.358  1.00 20.00    -0.013 C 
HETATM    8  C9  UNL     1     -35.265  15.926  -5.334  1.00 20.00     0.002 C 
HETATM    9  C10 UNL     1     -35.835  15.161  -4.086  1.00 20.00     0.026 C 
ENDROOT
BRANCH   9  10
HETATM   10  C1  UNL     1     -37.262  14.751  -4.238  1.00 20.00     0.149 C 
HETATM   11  O12 UNL     1     -37.556  13.577  -4.454  1.00 20.00    -0.296 OA
BRANCH  10  12
HETATM   12  C11 UNL     1     -38.281  15.859  -4.112  1.00 20.00     0.193 C 
HETATM   13 CL13 UNL     1     -38.759  16.457  -5.708  1.00 20.00    -0.123 Cl
ENDBRANCH  10  12
ENDBRANCH   9  10
TORSDOF 2
ENDMDL
MODEL 2
REMARK VINA RESULT:      -4.8      1.686      2.710
REMARK  2 active torsions:
REMARK  status: ('A' for Active; 'I' for Inactive)
REMARK    1  A    between atoms: C1_1  and  C10_10 
REMARK    2  A    between atoms: C1_1  and  C11_11 
ROOT
HETATM    1  C2  UNL     1     -33.383  17.990  -3.786  1.00 20.00     0.009 C 
HETATM    2  C3  UNL     1     -35.838  17.494  -3.485  1.00 20.00     0.010 C 
HETATM    3  C4  UNL     1     -34.207  16.540  -1.892  1.00 20.00     0.010 C 
HETATM    4  C5  UNL     1     -34.737  16.440  -5.249  1.00 20.00     0.022 C 
HETATM    5  C6  UNL     1     -33.104  15.485  -3.653  1.00 20.00     0.022 C 
HETATM    6  C7  UNL     1     -34.744  17.783  -4.515  1.00 20.00    -0.013 C 
HETATM    7  C8  UNL     1     -33.044  16.789  -2.854  1.00 20.00    -0.013 C 
HETATM    8  C9  UNL     1     -35.328  16.177  -2.880  1.00 20.00     0.002 C 
HETATM    9  C10 UNL     1     -34.582  15.473  -4.069  1.00 20.00     0.026 C 
ENDROOT
BRANCH   9  10
HETATM   10  C1  UNL     1     -35.084  14.098  -4.359  1.00 20.00     0.149 C 
HETATM   11  O12 UNL     1     -34.517  13.113  -3.890  1.00 20.00    -0.296 OA
BRANCH  10  12
HETATM   12  C11 UNL     1     -36.304  14.018  -5.247  1.00 20.00     0.193 C 
HETATM   13 CL13 UNL     1     -37.777  14.338  -4.317  1.00 20.00    -0.123 Cl
ENDBRANCH  10  12
ENDBRANCH   9  10
TORSDOF 2
ENDMDL
MODEL 3
REMARK VINA RESULT:      -4.8      2.174      2.795
REMARK  2 active torsions:
REMARK  status: ('A' for Active; 'I' for Inactive)
REMARK    1  A    between atoms: C1_1  and  C10_10 
REMARK    2  A    between atoms: C1_1  and  C11_11 
ROOT
HETATM    1  C2  UNL     1     -33.747  17.578  -1.752  1.00 20.00     0.009 C 
HETATM    2  C3  UNL     1     -33.721  17.905  -4.253  1.00 20.00     0.010 C 
HETATM    3  C4  UNL     1     -35.885  17.632  -3.091  1.00 20.00     0.010 C 
HETATM    4  C5  UNL     1     -33.016  15.839  -3.432  1.00 20.00     0.022 C 
HETATM    5  C6  UNL     1     -35.184  15.567  -2.269  1.00 20.00     0.022 C 
HETATM    6  C7  UNL     1     -32.949  17.324  -3.066  1.00 20.00    -0.013 C 
HETATM    7  C8  UNL     1     -35.205  17.041  -1.854  1.00 20.00    -0.013 C 
HETATM    8  C9  UNL     1     -35.001  17.056  -4.210  1.00 20.00     0.002 C 
HETATM    9  C10 UNL     1     -34.523  15.669  -3.650  1.00 20.00     0.026 C 
ENDROOT
BRANCH   9  10
HETATM   10  C1  UNL     1     -34.868  14.517  -4.536  1.00 20.00     0.149 C 
HETATM   11  O12 UNL     1     -34.840  13.366  -4.104  1.00 20.00    -0.296 OA
BRANCH  10  12
HETATM   12  C11 UNL     1     -35.239  14.870  -5.957  1.00 20.00     0.193 C 
HETATM   13 CL13 UNL     1     -33.794  14.981  -6.973  1.00 20.00    -0.123 Cl
ENDBRANCH  10  12
ENDBRANCH   9  10
TORSDOF 2
ENDMDL
MODEL 4
REMARK VINA RESULT:      -4.7     18.457     19.436
REMARK  2 active torsions:
REMARK  status: ('A' for Active; 'I' for Inactive)
REMARK    1  A    between atoms: C1_1  and  C10_10 
REMARK    2  A    between atoms: C1_1  and  C11_11 
ROOT
HETATM    1  C2  UNL     1     -25.897  16.939  11.819  1.00 20.00     0.009 C 
HETATM    2  C3  UNL     1     -23.459  16.526  12.321  1.00 20.00     0.010 C 
HETATM    3  C4  UNL     1     -24.321  18.842  12.332  1.00 20.00     0.010 C 
HETATM    4  C5  UNL     1     -24.159  16.272  10.111  1.00 20.00     0.022 C 
HETATM    5  C6  UNL     1     -25.021  18.592  10.123  1.00 20.00     0.022 C 
HETATM    6  C7  UNL     1     -24.670  16.022  11.532  1.00 20.00    -0.013 C 
HETATM    7  C8  UNL     1     -25.569  18.436  11.545  1.00 20.00    -0.013 C 
HETATM    8  C9  UNL     1     -23.267  17.918  11.700  1.00 20.00     0.002 C 
HETATM    9  C10 UNL     1     -23.745  17.745  10.215  1.00 20.00     0.026 C 
ENDROOT
BRANCH   9  10
HETATM   10  C1  UNL     1     -22.719  18.145   9.207  1.00 20.00     0.149 C 
HETATM   11  O12 UNL     1     -22.747  19.263   8.695  1.00 20.00    -0.296 OA
BRANCH  10  12
HETATM   12  C11 UNL     1     -21.680  17.098   8.877  1.00 20.00     0.193 C 
HETATM   13 CL13 UNL     1     -21.309  17.109   7.145  1.00 20.00    -0.123 Cl
ENDBRANCH  10  12
ENDBRANCH   9  10
TORSDOF 2
ENDMDL
MODEL 5
REMARK VINA RESULT:      -4.7      1.956      2.580
REMARK  2 active torsions:
REMARK  status: ('A' for Active; 'I' for Inactive)
REMARK    1  A    between atoms: C1_1  and  C10_10 
REMARK    2  A    between atoms: C1_1  and  C11_11 
ROOT
HETATM    1  C2  UNL     1     -34.717  16.283  -1.991  1.00 20.00     0.009 C 
HETATM    2  C3  UNL     1     -33.508  17.048  -4.070  1.00 20.00     0.010 C 
HETATM    3  C4  UNL     1     -35.898  17.607  -3.785  1.00 20.00     0.010 C 
HETATM    4  C5  UNL     1     -34.015  14.778  -3.895  1.00 20.00     0.022 C 
HETATM    5  C6  UNL     1     -36.409  15.340  -3.611  1.00 20.00     0.022 C 
HETATM    6  C7  UNL     1     -33.583  15.948  -3.008  1.00 20.00    -0.013 C 
HETATM    7  C8  UNL     1     -36.075  16.533  -2.710  1.00 20.00    -0.013 C 
HETATM    8  C9  UNL     1     -34.893  16.917  -4.722  1.00 20.00     0.002 C 
HETATM    9  C10 UNL     1     -35.234  15.389  -4.597  1.00 20.00     0.026 C 
ENDROOT
BRANCH   9  10
HETATM   10  C1  UNL     1     -35.554  14.740  -5.902  1.00 20.00     0.149 C 
HETATM   11  O12 UNL     1     -36.005  13.597  -5.939  1.00 20.00    -0.296 OA
BRANCH  10  12
HETATM   12  C11 UNL     1     -35.286  15.574  -7.133  1.00 20.00     0.193 C 
HETATM   13 CL13 UNL     1     -33.685  15.213  -7.798  1.00 20.00    -0.123 Cl
ENDBRANCH  10  12
ENDBRANCH   9  10
TORSDOF 2
ENDMDL
MODEL 6
REMARK VINA RESULT:      -4.7      3.350      4.415
REMARK  2 active torsions:
REMARK  status: ('A' for Active; 'I' for Inactive)
REMARK    1  A    between atoms: C1_1  and  C10_10 
REMARK    2  A    between atoms: C1_1  and  C11_11 
ROOT
HETATM    1  C2  UNL     1     -34.989  14.089  -3.997  1.00 20.00     0.009 C 
HETATM    2  C3  UNL     1     -36.130  16.333  -4.157  1.00 20.00     0.010 C 
HETATM    3  C4  UNL     1     -34.212  15.842  -5.637  1.00 20.00     0.010 C 
HETATM    4  C5  UNL     1     -34.792  15.938  -2.288  1.00 20.00     0.022 C 
HETATM    5  C6  UNL     1     -32.873  15.447  -3.772  1.00 20.00     0.022 C 
HETATM    6  C7  UNL     1     -35.759  15.190  -3.209  1.00 20.00    -0.013 C 
HETATM    7  C8  UNL     1     -33.761  14.678  -4.753  1.00 20.00    -0.013 C 
HETATM    8  C9  UNL     1     -34.736  16.825  -4.578  1.00 20.00     0.002 C 
HETATM    9  C10 UNL     1     -33.837  16.552  -3.319  1.00 20.00     0.026 C 
ENDROOT
BRANCH   9  10
HETATM   10  C1  UNL     1     -33.125  17.765  -2.819  1.00 20.00     0.149 C 
HETATM   11  O12 UNL     1     -32.616  18.561  -3.607  1.00 20.00    -0.296 OA
BRANCH  10  12
HETATM   12  C11 UNL     1     -33.079  17.928  -1.318  1.00 20.00     0.193 C 
HETATM   13 CL13 UNL     1     -31.420  18.213  -0.768  1.00 20.00    -0.123 Cl
ENDBRANCH  10  12
ENDBRANCH   9  10
TORSDOF 2
ENDMDL
MODEL 7
REMARK VINA RESULT:      -4.6      0.932      2.105
REMARK  2 active torsions:
REMARK  status: ('A' for Active; 'I' for Inactive)
REMARK    1  A    between atoms: C1_1  and  C10_10 
REMARK    2  A    between atoms: C1_1  and  C11_11 
ROOT
HETATM    1  C2  UNL     1     -33.456  17.032  -3.742  1.00 20.00     0.009 C 
HETATM    2  C3  UNL     1     -35.872  17.758  -3.726  1.00 20.00     0.010 C 
HETATM    3  C4  UNL     1     -35.062  16.211  -1.978  1.00 20.00     0.010 C 
HETATM    4  C5  UNL     1     -35.215  16.244  -5.374  1.00 20.00     0.022 C 
HETATM    5  C6  UNL     1     -34.405  14.695  -3.622  1.00 20.00     0.022 C 
HETATM    6  C7  UNL     1     -34.668  17.460  -4.623  1.00 20.00    -0.013 C 
HETATM    7  C8  UNL     1     -33.823  15.848  -2.799  1.00 20.00    -0.013 C 
HETATM    8  C9  UNL     1     -36.109  16.379  -3.091  1.00 20.00     0.002 C 
HETATM    9  C10 UNL     1     -35.659  15.363  -4.201  1.00 20.00     0.026 C 
ENDROOT
BRANCH   9  10
HETATM   10  C1  UNL     1     -36.716  14.374  -4.569  1.00 20.00     0.149 C 
HETATM   11  O12 UNL     1     -36.419  13.321  -5.129  1.00 20.00    -0.296 OA
BRANCH  10  12
HETATM   12  C11 UNL     1     -38.131  14.762  -4.210  1.00 20.00     0.193 C 
HETATM   13 CL13 UNL     1     -38.768  15.947  -5.362  1.00 20.00    -0.123 Cl
ENDBRANCH  10  12
ENDBRANCH   9  10
TORSDOF 2
ENDMDL
MODEL 8
REMARK VINA RESULT:      -4.5      2.217      3.255
REMARK  2 active torsions:
REMARK  status: ('A' for Active; 'I' for Inactive)
REMARK    1  A    between atoms: C1_1  and  C10_10 
REMARK    2  A    between atoms: C1_1  and  C11_11 
ROOT
HETATM    1  C2  UNL     1     -34.751  15.946  -2.306  1.00 20.00     0.009 C 
HETATM    2  C3  UNL     1     -35.110  14.217  -4.108  1.00 20.00     0.010 C 
HETATM    3  C4  UNL     1     -32.864  15.204  -3.807  1.00 20.00     0.010 C 
HETATM    4  C5  UNL     1     -35.999  16.343  -4.465  1.00 20.00     0.022 C 
HETATM    5  C6  UNL     1     -33.749  17.330  -4.165  1.00 20.00     0.022 C 
HETATM    6  C7  UNL     1     -35.772  15.351  -3.322  1.00 20.00    -0.013 C 
HETATM    7  C8  UNL     1     -33.430  16.379  -3.008  1.00 20.00    -0.013 C 
HETATM    8  C9  UNL     1     -33.989  14.981  -4.831  1.00 20.00     0.002 C 
HETATM    9  C10 UNL     1     -34.589  16.413  -5.064  1.00 20.00     0.026 C 
ENDROOT
BRANCH   9  10
HETATM   10  C1  UNL     1     -34.573  16.842  -6.494  1.00 20.00     0.149 C 
HETATM   11  O12 UNL     1     -34.731  18.024  -6.795  1.00 20.00    -0.296 OA
BRANCH  10  12
HETATM   12  C11 UNL     1     -34.355  15.742  -7.507  1.00 20.00     0.193 C 
HETATM   13 CL13 UNL     1     -35.887  14.956  -7.918  1.00 20.00    -0.123 Cl
ENDBRANCH  10  12
ENDBRANCH   9  10
TORSDOF 2
ENDMDL
MODEL 9
REMARK VINA RESULT:      -4.5      2.914      3.760
REMARK  2 active torsions:
REMARK  status: ('A' for Active; 'I' for Inactive)
REMARK    1  A    between atoms: C1_1  and  C10_10 
REMARK    2  A    between atoms: C1_1  and  C11_11 
ROOT
HETATM    1  C2  UNL     1     -34.315  15.412  -5.873  1.00 20.00     0.009 C 
HETATM    2  C3  UNL     1     -34.702  13.999  -3.819  1.00 20.00     0.010 C 
HETATM    3  C4  UNL     1     -36.331  15.765  -4.397  1.00 20.00     0.010 C 
HETATM    4  C5  UNL     1     -33.003  15.594  -3.722  1.00 20.00     0.022 C 
HETATM    5  C6  UNL     1     -34.636  17.361  -4.300  1.00 20.00     0.022 C 
HETATM    6  C7  UNL     1     -33.631  14.618  -4.720  1.00 20.00    -0.013 C 
HETATM    7  C8  UNL     1     -35.330  16.458  -5.323  1.00 20.00    -0.013 C 
HETATM    8  C9  UNL     1     -35.396  15.261  -3.285  1.00 20.00     0.002 C 
HETATM    9  C10 UNL     1     -34.251  16.334  -3.227  1.00 20.00     0.026 C 
ENDROOT
BRANCH   9  10
HETATM   10  C1  UNL     1     -34.078  16.952  -1.879  1.00 20.00     0.149 C 
HETATM   11  O12 UNL     1     -33.028  17.516  -1.579  1.00 20.00    -0.296 OA
BRANCH  10  12
HETATM   12  C11 UNL     1     -35.260  16.829  -0.945  1.00 20.00     0.193 C 
HETATM   13 CL13 UNL     1     -34.881  17.525   0.639  1.00 20.00    -0.123 Cl
ENDBRANCH  10  12
ENDBRANCH   9  10
TORSDOF 2
ENDMDL
