MODEL 1
REMARK VINA RESULT:      -3.9      0.000      0.000
REMARK  0 active torsions:
REMARK  status: ('A' for Active; 'I' for Inactive)
ROOT
HETATM    1  C1  UNL     1     -33.939  15.164  -6.925  1.00 20.00     0.015 C 
HETATM    2  C2  UNL     1     -34.265  15.018  -5.778  1.00 20.00    -0.073 C 
HETATM    3  C3  UNL     1     -34.704  13.345  -4.023  1.00 20.00     0.225 C 
HETATM    4  C4  UNL     1     -36.825  14.032  -4.543  1.00 20.00     0.442 C 
HETATM    5  C5  UNL     1     -34.666  14.838  -4.365  1.00 20.00     0.240 C 
HETATM    6  C6  UNL     1     -33.694  15.586  -3.453  1.00 20.00     0.066 C 
HETATM    7  C7  UNL     1     -36.552  16.450  -4.610  1.00 20.00     0.315 C 
HETATM    8  N8  UNL     1     -36.064  15.187  -4.083  1.00 20.00     0.130 N 
HETATM    9  O9  UNL     1     -35.987  12.870  -4.467  1.00 20.00    -0.359 OA
ENDROOT
TORSDOF 0
ENDMDL
MODEL 2
REMARK VINA RESULT:      -3.9      1.525      1.887
REMARK  0 active torsions:
REMARK  status: ('A' for Active; 'I' for Inactive)
ROOT
HETATM    1  C1  UNL     1     -32.518  14.406  -4.361  1.00 20.00     0.015 C 
HETATM    2  C2  UNL     1     -33.682  14.695  -4.286  1.00 20.00    -0.073 C 
HETATM    3  C3  UNL     1     -35.974  13.804  -4.430  1.00 20.00     0.225 C 
HETATM    4  C4  UNL     1     -35.808  14.964  -6.397  1.00 20.00     0.442 C 
HETATM    5  C5  UNL     1     -35.115  15.050  -4.194  1.00 20.00     0.240 C 
HETATM    6  C6  UNL     1     -35.407  15.667  -2.826  1.00 20.00     0.066 C 
HETATM    7  C7  UNL     1     -34.797  17.049  -5.650  1.00 20.00     0.315 C 
HETATM    8  N8  UNL     1     -35.602  15.892  -5.293  1.00 20.00     0.130 N 
HETATM    9  O9  UNL     1     -36.082  13.663  -5.858  1.00 20.00    -0.359 OA
ENDROOT
TORSDOF 0
ENDMDL
MODEL 3
REMARK VINA RESULT:      -3.8      1.337      2.908
REMARK  0 active torsions:
REMARK  status: ('A' for Active; 'I' for Inactive)
ROOT
HETATM    1  C1  UNL     1     -34.854  15.991  -2.112  1.00 20.00     0.015 C 
HETATM    2  C2  UNL     1     -35.474  15.943  -3.140  1.00 20.00    -0.073 C 
HETATM    3  C3  UNL     1     -37.608  15.246  -4.156  1.00 20.00     0.225 C 
HETATM    4  C4  UNL     1     -36.181  13.634  -4.935  1.00 20.00     0.442 C 
HETATM    5  C5  UNL     1     -36.237  15.883  -4.406  1.00 20.00     0.240 C 
HETATM    6  C6  UNL     1     -36.384  17.290  -4.987  1.00 20.00     0.066 C 
HETATM    7  C7  UNL     1     -34.274  14.972  -5.643  1.00 20.00     0.315 C 
HETATM    8  N8  UNL     1     -35.705  14.934  -5.391  1.00 20.00     0.130 N 
HETATM    9  O9  UNL     1     -37.395  13.823  -4.195  1.00 20.00    -0.359 OA
ENDROOT
TORSDOF 0
ENDMDL
MODEL 4
REMARK VINA RESULT:      -3.7      1.566      2.904
REMARK  0 active torsions:
REMARK  status: ('A' for Active; 'I' for Inactive)
ROOT
HETATM    1  C1  UNL     1     -34.953  16.305  -1.809  1.00 20.00     0.015 C 
HETATM    2  C2  UNL     1     -35.253  15.684  -2.793  1.00 20.00    -0.073 C 
HETATM    3  C3  UNL     1     -34.952  13.542  -3.971  1.00 20.00     0.225 C 
HETATM    4  C4  UNL     1     -33.673  14.950  -5.245  1.00 20.00     0.442 C 
HETATM    5  C5  UNL     1     -35.622  14.919  -4.004  1.00 20.00     0.240 C 
HETATM    6  C6  UNL     1     -37.143  14.787  -4.087  1.00 20.00     0.066 C 
HETATM    7  C7  UNL     1     -35.150  16.871  -5.481  1.00 20.00     0.315 C 
HETATM    8  N8  UNL     1     -35.045  15.440  -5.249  1.00 20.00     0.130 N 
HETATM    9  O9  UNL     1     -33.620  13.739  -4.479  1.00 20.00    -0.359 OA
ENDROOT
TORSDOF 0
ENDMDL
MODEL 5
REMARK VINA RESULT:      -3.6     18.426     19.902
REMARK  0 active torsions:
REMARK  status: ('A' for Active; 'I' for Inactive)
ROOT
HETATM    1  C1  UNL     1     -25.746  19.099  12.055  1.00 20.00     0.015 C 
HETATM    2  C2  UNL     1     -24.999  18.215  11.731  1.00 20.00    -0.073 C 
HETATM    3  C3  UNL     1     -22.857  17.117  12.254  1.00 20.00     0.225 C 
HETATM    4  C4  UNL     1     -22.328  18.269  10.348  1.00 20.00     0.442 C 
HETATM    5  C5  UNL     1     -24.080  17.127  11.332  1.00 20.00     0.240 C 
HETATM    6  C6  UNL     1     -24.814  15.787  11.380  1.00 20.00     0.066 C 
HETATM    7  C7  UNL     1     -24.239  17.763   8.927  1.00 20.00     0.315 C 
HETATM    8  N8  UNL     1     -23.410  17.342  10.044  1.00 20.00     0.130 N 
HETATM    9  O9  UNL     1     -21.952  18.102  11.722  1.00 20.00    -0.359 OA
ENDROOT
TORSDOF 0
ENDMDL
MODEL 6
REMARK VINA RESULT:      -3.6      1.939      3.049
REMARK  0 active torsions:
REMARK  status: ('A' for Active; 'I' for Inactive)
ROOT
HETATM    1  C1  UNL     1     -35.064  16.074  -1.932  1.00 20.00     0.015 C 
HETATM    2  C2  UNL     1     -34.785  15.770  -3.060  1.00 20.00    -0.073 C 
HETATM    3  C3  UNL     1     -34.306  16.657  -5.308  1.00 20.00     0.225 C 
HETATM    4  C4  UNL     1     -36.410  15.801  -5.592  1.00 20.00     0.442 C 
HETATM    5  C5  UNL     1     -34.442  15.396  -4.450  1.00 20.00     0.240 C 
HETATM    6  C6  UNL     1     -33.147  14.583  -4.461  1.00 20.00     0.066 C 
HETATM    7  C7  UNL     1     -36.206  13.635  -4.498  1.00 20.00     0.315 C 
HETATM    8  N8  UNL     1     -35.522  14.721  -5.180  1.00 20.00     0.130 N 
HETATM    9  O9  UNL     1     -35.643  17.006  -5.712  1.00 20.00    -0.359 OA
ENDROOT
TORSDOF 0
ENDMDL
MODEL 7
REMARK VINA RESULT:      -3.4     18.597     19.657
REMARK  0 active torsions:
REMARK  status: ('A' for Active; 'I' for Inactive)
ROOT
HETATM    1  C1  UNL     1     -23.648  18.099   9.015  1.00 20.00     0.015 C 
HETATM    2  C2  UNL     1     -23.683  17.855  10.191  1.00 20.00    -0.073 C 
HETATM    3  C3  UNL     1     -23.758  16.036  11.851  1.00 20.00     0.225 C 
HETATM    4  C4  UNL     1     -25.901  16.837  11.951  1.00 20.00     0.442 C 
HETATM    5  C5  UNL     1     -23.726  17.553  11.639  1.00 20.00     0.240 C 
HETATM    6  C6  UNL     1     -22.515  18.178  12.332  1.00 20.00     0.066 C 
HETATM    7  C7  UNL     1     -25.520  19.241  12.021  1.00 20.00     0.315 C 
HETATM    8  N8  UNL     1     -24.986  17.918  12.296  1.00 20.00     0.130 N 
HETATM    9  O9  UNL     1     -25.137  15.647  11.711  1.00 20.00    -0.359 OA
ENDROOT
TORSDOF 0
ENDMDL
MODEL 8
REMARK VINA RESULT:      -3.4      1.829      2.987
REMARK  0 active torsions:
REMARK  status: ('A' for Active; 'I' for Inactive)
ROOT
HETATM    1  C1  UNL     1     -34.761  15.918  -2.261  1.00 20.00     0.015 C 
HETATM    2  C2  UNL     1     -35.120  15.507  -3.331  1.00 20.00    -0.073 C 
HETATM    3  C3  UNL     1     -34.390  15.035  -5.637  1.00 20.00     0.225 C 
HETATM    4  C4  UNL     1     -35.654  16.921  -5.933  1.00 20.00     0.442 C 
HETATM    5  C5  UNL     1     -35.561  15.001  -4.650  1.00 20.00     0.240 C 
HETATM    6  C6  UNL     1     -36.111  13.582  -4.500  1.00 20.00     0.066 C 
HETATM    7  C7  UNL     1     -37.620  16.405  -4.591  1.00 20.00     0.315 C 
HETATM    8  N8  UNL     1     -36.498  15.883  -5.354  1.00 20.00     0.130 N 
HETATM    9  O9  UNL     1     -34.344  16.379  -6.148  1.00 20.00    -0.359 OA
ENDROOT
TORSDOF 0
ENDMDL
MODEL 9
REMARK VINA RESULT:      -3.3     10.977     12.122
REMARK  0 active torsions:
REMARK  status: ('A' for Active; 'I' for Inactive)
ROOT
HETATM    1  C1  UNL     1     -43.416   5.185   1.803  1.00 20.00     0.015 C 
HETATM    2  C2  UNL     1     -42.740   5.800   1.024  1.00 20.00    -0.073 C 
HETATM    3  C3  UNL     1     -41.563   7.931   0.650  1.00 20.00     0.225 C 
HETATM    4  C4  UNL     1     -43.370   8.156  -0.738  1.00 20.00     0.442 C 
HETATM    5  C5  UNL     1     -41.906   6.558   0.065  1.00 20.00     0.240 C 
HETATM    6  C6  UNL     1     -40.638   5.765  -0.255  1.00 20.00     0.066 C 
HETATM    7  C7  UNL     1     -43.417   5.981  -1.831  1.00 20.00     0.315 C 
HETATM    8  N8  UNL     1     -42.613   6.981  -1.150  1.00 20.00     0.130 N 
HETATM    9  O9  UNL     1     -42.692   8.776   0.364  1.00 20.00    -0.359 OA
ENDROOT
TORSDOF 0
ENDMDL
