MODEL 1
REMARK VINA RESULT:      -4.8      0.000      0.000
REMARK  2 active torsions:
REMARK  status: ('A' for Active; 'I' for Inactive)
REMARK    1  A    between atoms: C1_1  and  C5_5 
REMARK    2  A    between atoms: C5_5  and  C6_6 
ROOT
HETATM    1  C2  UNL     1     -33.333  15.816  -3.650  1.00 20.00     0.003 C 
HETATM    2  C3  UNL     1     -34.865  15.918  -3.755  1.00 20.00     0.029 C 
HETATM    3  C4  UNL     1     -33.448  14.356  -4.119  1.00 20.00     0.029 C 
HETATM    4  C5  UNL     1     -34.844  14.698  -4.729  1.00 20.00     0.149 C 
ENDROOT
BRANCH   4   5
HETATM    5  C1  UNL     1     -35.952  13.636  -4.486  1.00 20.00     0.316 C 
HETATM    6  O7  UNL     1     -35.761  12.433  -4.395  1.00 20.00    -0.259 OA
HETATM    7  F8  UNL     1     -37.209  14.073  -4.326  1.00 20.00    -0.163 F 
ENDBRANCH   4   5
BRANCH   4   8
HETATM    8  C6  UNL     1     -34.783  15.098  -6.205  1.00 20.00     0.404 C 
HETATM    9  F9  UNL     1     -33.581  14.792  -6.711  1.00 20.00    -0.170 F 
HETATM   10  F10 UNL     1     -35.728  14.442  -6.894  1.00 20.00    -0.170 F 
HETATM   11  F11 UNL     1     -34.988  16.417  -6.329  1.00 20.00    -0.170 F 
ENDBRANCH   4   8
TORSDOF 2
ENDMDL
MODEL 2
REMARK VINA RESULT:      -4.8      0.030      1.138
REMARK  2 active torsions:
REMARK  status: ('A' for Active; 'I' for Inactive)
REMARK    1  A    between atoms: C1_1  and  C5_5 
REMARK    2  A    between atoms: C5_5  and  C6_6 
ROOT
HETATM    1  C2  UNL     1     -33.322  15.814  -3.674  1.00 20.00     0.003 C 
HETATM    2  C3  UNL     1     -34.854  15.923  -3.766  1.00 20.00     0.029 C 
HETATM    3  C4  UNL     1     -33.447  14.352  -4.133  1.00 20.00     0.029 C 
HETATM    4  C5  UNL     1     -34.847  14.696  -4.733  1.00 20.00     0.149 C 
ENDROOT
BRANCH   4   5
HETATM    5  C1  UNL     1     -35.957  13.641  -4.473  1.00 20.00     0.316 C 
HETATM    6  O7  UNL     1     -35.777  12.433  -4.419  1.00 20.00    -0.259 OA
HETATM    7  F8  UNL     1     -37.201  14.087  -4.255  1.00 20.00    -0.163 F 
ENDBRANCH   4   5
BRANCH   4   8
HETATM    8  C6  UNL     1     -34.797  15.087  -6.212  1.00 20.00     0.404 C 
HETATM    9  F9  UNL     1     -34.996  16.406  -6.342  1.00 20.00    -0.170 F 
HETATM   10  F10 UNL     1     -33.600  14.772  -6.726  1.00 20.00    -0.170 F 
HETATM   11  F11 UNL     1     -35.751  14.431  -6.888  1.00 20.00    -0.170 F 
ENDBRANCH   4   8
TORSDOF 2
ENDMDL
MODEL 3
REMARK VINA RESULT:      -4.8      0.025      1.148
REMARK  2 active torsions:
REMARK  status: ('A' for Active; 'I' for Inactive)
REMARK    1  A    between atoms: C1_1  and  C5_5 
REMARK    2  A    between atoms: C5_5  and  C6_6 
ROOT
HETATM    1  C2  UNL     1     -33.355  15.816  -3.653  1.00 20.00     0.003 C 
HETATM    2  C3  UNL     1     -34.886  15.917  -3.763  1.00 20.00     0.029 C 
HETATM    3  C4  UNL     1     -33.467  14.354  -4.118  1.00 20.00     0.029 C 
HETATM    4  C5  UNL     1     -34.861  14.694  -4.733  1.00 20.00     0.149 C 
ENDROOT
BRANCH   4   5
HETATM    5  C1  UNL     1     -35.970  13.633  -4.491  1.00 20.00     0.316 C 
HETATM    6  O7  UNL     1     -35.782  12.427  -4.419  1.00 20.00    -0.259 OA
HETATM    7  F8  UNL     1     -37.223  14.072  -4.309  1.00 20.00    -0.163 F 
ENDBRANCH   4   5
BRANCH   4   8
HETATM    8  C6  UNL     1     -34.795  15.090  -6.210  1.00 20.00     0.404 C 
HETATM    9  F9  UNL     1     -35.756  14.454  -6.896  1.00 20.00    -0.170 F 
HETATM   10  F10 UNL     1     -34.970  16.412  -6.336  1.00 20.00    -0.170 F 
HETATM   11  F11 UNL     1     -33.601  14.756  -6.719  1.00 20.00    -0.170 F 
ENDBRANCH   4   8
TORSDOF 2
ENDMDL
MODEL 4
REMARK VINA RESULT:      -4.6      1.697      2.662
REMARK  2 active torsions:
REMARK  status: ('A' for Active; 'I' for Inactive)
REMARK    1  A    between atoms: C1_1  and  C5_5 
REMARK    2  A    between atoms: C5_5  and  C6_6 
ROOT
HETATM    1  C2  UNL     1     -35.016  16.462  -6.498  1.00 20.00     0.003 C 
HETATM    2  C3  UNL     1     -34.759  14.945  -6.473  1.00 20.00     0.029 C 
HETATM    3  C4  UNL     1     -35.957  16.273  -5.296  1.00 20.00     0.029 C 
HETATM    4  C5  UNL     1     -35.232  14.926  -4.985  1.00 20.00     0.149 C 
ENDROOT
BRANCH   4   5
HETATM    5  C1  UNL     1     -36.164  13.743  -4.600  1.00 20.00     0.316 C 
HETATM    6  O7  UNL     1     -35.816  12.575  -4.519  1.00 20.00    -0.259 OA
HETATM    7  F8  UNL     1     -37.438  14.028  -4.298  1.00 20.00    -0.163 F 
ENDBRANCH   4   5
BRANCH   4   8
HETATM    8  C6  UNL     1     -34.086  15.069  -3.980  1.00 20.00     0.404 C 
HETATM    9  F9  UNL     1     -33.474  16.249  -4.151  1.00 20.00    -0.170 F 
HETATM   10  F10 UNL     1     -34.565  15.002  -2.731  1.00 20.00    -0.170 F 
HETATM   11  F11 UNL     1     -33.195  14.083  -4.161  1.00 20.00    -0.170 F 
ENDBRANCH   4   8
TORSDOF 2
ENDMDL
MODEL 5
REMARK VINA RESULT:      -4.6      1.693      2.618
REMARK  2 active torsions:
REMARK  status: ('A' for Active; 'I' for Inactive)
REMARK    1  A    between atoms: C1_1  and  C5_5 
REMARK    2  A    between atoms: C5_5  and  C6_6 
ROOT
HETATM    1  C2  UNL     1     -34.860  16.400  -6.568  1.00 20.00     0.003 C 
HETATM    2  C3  UNL     1     -34.635  14.880  -6.471  1.00 20.00     0.029 C 
HETATM    3  C4  UNL     1     -35.846  16.279  -5.394  1.00 20.00     0.029 C 
HETATM    4  C5  UNL     1     -35.160  14.933  -5.001  1.00 20.00     0.149 C 
ENDROOT
BRANCH   4   5
HETATM    5  C1  UNL     1     -36.129  13.786  -4.601  1.00 20.00     0.316 C 
HETATM    6  O7  UNL     1     -35.823  12.605  -4.526  1.00 20.00    -0.259 OA
HETATM    7  F8  UNL     1     -37.386  14.118  -4.278  1.00 20.00    -0.163 F 
ENDBRANCH   4   5
BRANCH   4   8
HETATM    8  C6  UNL     1     -34.047  15.097  -3.962  1.00 20.00     0.404 C 
HETATM    9  F9  UNL     1     -34.561  15.011  -2.727  1.00 20.00    -0.170 F 
HETATM   10  F10 UNL     1     -33.130  14.134  -4.122  1.00 20.00    -0.170 F 
HETATM   11  F11 UNL     1     -33.458  16.292  -4.110  1.00 20.00    -0.170 F 
ENDBRANCH   4   8
TORSDOF 2
ENDMDL
MODEL 6
REMARK VINA RESULT:      -4.6      1.515      2.040
REMARK  2 active torsions:
REMARK  status: ('A' for Active; 'I' for Inactive)
REMARK    1  A    between atoms: C1_1  and  C5_5 
REMARK    2  A    between atoms: C5_5  and  C6_6 
ROOT
HETATM    1  C2  UNL     1     -34.851  16.940  -3.050  1.00 20.00     0.003 C 
HETATM    2  C3  UNL     1     -35.359  16.424  -4.408  1.00 20.00     0.029 C 
HETATM    3  C4  UNL     1     -35.033  15.517  -2.496  1.00 20.00     0.029 C 
HETATM    4  C5  UNL     1     -34.978  14.978  -3.960  1.00 20.00     0.149 C 
ENDROOT
BRANCH   4   5
HETATM    5  C1  UNL     1     -36.023  13.880  -4.303  1.00 20.00     0.316 C 
HETATM    6  O7  UNL     1     -35.755  12.717  -4.570  1.00 20.00    -0.259 OA
HETATM    7  F8  UNL     1     -37.318  14.221  -4.269  1.00 20.00    -0.163 F 
ENDBRANCH   4   5
BRANCH   4   8
HETATM    8  C6  UNL     1     -33.574  14.554  -4.401  1.00 20.00     0.404 C 
HETATM    9  F9  UNL     1     -33.310  13.318  -3.956  1.00 20.00    -0.170 F 
HETATM   10  F10 UNL     1     -33.494  14.564  -5.738  1.00 20.00    -0.170 F 
HETATM   11  F11 UNL     1     -32.664  15.403  -3.902  1.00 20.00    -0.170 F 
ENDBRANCH   4   8
TORSDOF 2
ENDMDL
MODEL 7
REMARK VINA RESULT:      -4.5     19.118     20.115
REMARK  2 active torsions:
REMARK  status: ('A' for Active; 'I' for Inactive)
REMARK    1  A    between atoms: C1_1  and  C5_5 
REMARK    2  A    between atoms: C5_5  and  C6_6 
ROOT
HETATM    1  C2  UNL     1     -25.801  18.913  11.238  1.00 20.00     0.003 C 
HETATM    2  C3  UNL     1     -24.779  18.557  12.332  1.00 20.00     0.029 C 
HETATM    3  C4  UNL     1     -24.746  18.518  10.192  1.00 20.00     0.029 C 
HETATM    4  C5  UNL     1     -24.025  17.673  11.289  1.00 20.00     0.149 C 
ENDROOT
BRANCH   4   5
HETATM    5  C1  UNL     1     -22.476  17.796  11.311  1.00 20.00     0.316 C 
HETATM    6  O7  UNL     1     -21.800  17.948  12.318  1.00 20.00    -0.259 OA
HETATM    7  F8  UNL     1     -21.827  17.691  10.144  1.00 20.00    -0.163 F 
ENDBRANCH   4   5
BRANCH   4   8
HETATM    8  C6  UNL     1     -24.458  16.205  11.309  1.00 20.00     0.404 C 
HETATM    9  F9  UNL     1     -24.260  15.654  10.103  1.00 20.00    -0.170 F 
HETATM   10  F10 UNL     1     -23.741  15.531  12.220  1.00 20.00    -0.170 F 
HETATM   11  F11 UNL     1     -25.758  16.117  11.623  1.00 20.00    -0.170 F 
ENDBRANCH   4   8
TORSDOF 2
ENDMDL
MODEL 8
REMARK VINA RESULT:      -4.4      1.616      2.488
REMARK  2 active torsions:
REMARK  status: ('A' for Active; 'I' for Inactive)
REMARK    1  A    between atoms: C1_1  and  C5_5 
REMARK    2  A    between atoms: C5_5  and  C6_6 
ROOT
HETATM    1  C2  UNL     1     -34.044  17.018  -1.912  1.00 20.00     0.003 C 
HETATM    2  C3  UNL     1     -35.026  15.875  -2.227  1.00 20.00     0.029 C 
HETATM    3  C4  UNL     1     -33.091  16.422  -2.961  1.00 20.00     0.029 C 
HETATM    4  C5  UNL     1     -34.311  15.688  -3.603  1.00 20.00     0.149 C 
ENDROOT
BRANCH   4   5
HETATM    5  C1  UNL     1     -34.053  14.214  -4.021  1.00 20.00     0.316 C 
HETATM    6  O7  UNL     1     -34.912  13.348  -4.101  1.00 20.00    -0.259 OA
HETATM    7  F8  UNL     1     -32.802  13.872  -4.358  1.00 20.00    -0.163 F 
ENDBRANCH   4   5
BRANCH   4   8
HETATM    8  C6  UNL     1     -34.965  16.475  -4.741  1.00 20.00     0.404 C 
HETATM    9  F9  UNL     1     -34.601  17.763  -4.674  1.00 20.00    -0.170 F 
HETATM   10  F10 UNL     1     -34.578  15.973  -5.922  1.00 20.00    -0.170 F 
HETATM   11  F11 UNL     1     -36.299  16.390  -4.646  1.00 20.00    -0.170 F 
ENDBRANCH   4   8
TORSDOF 2
ENDMDL
MODEL 9
REMARK VINA RESULT:      -4.3      2.103      2.945
REMARK  2 active torsions:
REMARK  status: ('A' for Active; 'I' for Inactive)
REMARK    1  A    between atoms: C1_1  and  C5_5 
REMARK    2  A    between atoms: C5_5  and  C6_6 
ROOT
HETATM    1  C2  UNL     1     -35.795  17.608  -4.360  1.00 20.00     0.003 C 
HETATM    2  C3  UNL     1     -35.331  16.552  -5.379  1.00 20.00     0.029 C 
HETATM    3  C4  UNL     1     -36.648  16.517  -3.692  1.00 20.00     0.029 C 
HETATM    4  C5  UNL     1     -35.731  15.442  -4.357  1.00 20.00     0.149 C 
ENDROOT
BRANCH   4   5
HETATM    5  C1  UNL     1     -36.475  14.219  -4.962  1.00 20.00     0.316 C 
HETATM    6  O7  UNL     1     -37.456  13.682  -4.471  1.00 20.00    -0.259 OA
HETATM    7  F8  UNL     1     -36.031  13.738  -6.131  1.00 20.00    -0.163 F 
ENDBRANCH   4   5
BRANCH   4   8
HETATM    8  C6  UNL     1     -34.573  14.991  -3.463  1.00 20.00     0.404 C 
HETATM    9  F9  UNL     1     -33.433  15.567  -3.868  1.00 20.00    -0.170 F 
HETATM   10  F10 UNL     1     -34.814  15.345  -2.193  1.00 20.00    -0.170 F 
HETATM   11  F11 UNL     1     -34.439  13.659  -3.528  1.00 20.00    -0.170 F 
ENDBRANCH   4   8
TORSDOF 2
ENDMDL
