MODEL 1
REMARK VINA RESULT:      -5.0      0.000      0.000
REMARK  2 active torsions:
REMARK  status: ('A' for Active; 'I' for Inactive)
REMARK    1  A    between atoms: C3_3  and  C6_6 
REMARK    2  A    between atoms: C3_3  and  O10_10 
ROOT
HETATM    1  C1  UNL     1     -34.793   4.622   4.483  1.00 20.00    -0.002 C 
HETATM    2  C2  UNL     1     -35.026   5.221   5.657  1.00 20.00     0.130 C 
HETATM    3  C4  UNL     1     -33.907   5.239   3.449  1.00 20.00     0.046 C 
HETATM    4  C5  UNL     1     -33.369   6.856   5.287  1.00 20.00     0.189 C 
HETATM    5  C6  UNL     1     -33.623   6.704   3.788  1.00 20.00     0.113 C 
HETATM    6  O9  UNL     1     -34.474   6.402   6.081  1.00 20.00    -0.362 OA
ENDROOT
BRANCH   5   7
HETATM    7  C3  UNL     1     -32.442   7.204   3.017  1.00 20.00     0.265 C 
HETATM    8  O8  UNL     1     -31.407   7.604   3.532  1.00 20.00    -0.265 OA
BRANCH   7   9
HETATM    9  O10 UNL     1     -32.709   7.140   1.682  1.00 20.00    -0.326 OA
HETATM   10  C7  UNL     1     -32.750   8.399   1.002  1.00 20.00     0.213 C 
ENDBRANCH   7   9
ENDBRANCH   5   7
TORSDOF 2
ENDMDL
MODEL 2
REMARK VINA RESULT:      -4.6     11.349     12.108
REMARK  2 active torsions:
REMARK  status: ('A' for Active; 'I' for Inactive)
REMARK    1  A    between atoms: C3_3  and  C6_6 
REMARK    2  A    between atoms: C3_3  and  O10_10 
ROOT
HETATM    1  C1  UNL     1     -34.600  16.260  -2.324  1.00 20.00    -0.002 C 
HETATM    2  C2  UNL     1     -33.318  16.319  -2.704  1.00 20.00     0.130 C 
HETATM    3  C4  UNL     1     -35.597  15.420  -3.055  1.00 20.00     0.046 C 
HETATM    4  C5  UNL     1     -33.568  14.550  -4.241  1.00 20.00     0.189 C 
HETATM    5  C6  UNL     1     -35.031  14.960  -4.401  1.00 20.00     0.113 C 
HETATM    6  O9  UNL     1     -32.751  15.614  -3.733  1.00 20.00    -0.362 OA
ENDROOT
BRANCH   5   7
HETATM    7  C3  UNL     1     -35.826  13.814  -4.943  1.00 20.00     0.265 C 
HETATM    8  O8  UNL     1     -35.820  12.689  -4.463  1.00 20.00    -0.265 OA
BRANCH   7   9
HETATM    9  O10 UNL     1     -36.536  14.227  -6.031  1.00 20.00    -0.326 OA
HETATM   10  C7  UNL     1     -35.776  14.888  -7.047  1.00 20.00     0.213 C 
ENDBRANCH   7   9
ENDBRANCH   5   7
TORSDOF 2
ENDMDL
MODEL 3
REMARK VINA RESULT:      -4.6     11.152     12.507
REMARK  2 active torsions:
REMARK  status: ('A' for Active; 'I' for Inactive)
REMARK    1  A    between atoms: C3_3  and  C6_6 
REMARK    2  A    between atoms: C3_3  and  O10_10 
ROOT
HETATM    1  C1  UNL     1     -33.985  16.151  -3.043  1.00 20.00    -0.002 C 
HETATM    2  C2  UNL     1     -33.667  16.785  -4.178  1.00 20.00     0.130 C 
HETATM    3  C4  UNL     1     -34.987  15.041  -3.017  1.00 20.00     0.046 C 
HETATM    4  C5  UNL     1     -34.838  15.234  -5.511  1.00 20.00     0.189 C 
HETATM    5  C6  UNL     1     -35.775  14.996  -4.329  1.00 20.00     0.113 C 
HETATM    6  O9  UNL     1     -34.151  16.490  -5.426  1.00 20.00    -0.362 OA
ENDROOT
BRANCH   5   7
HETATM    7  C3  UNL     1     -36.467  13.679  -4.482  1.00 20.00     0.265 C 
HETATM    8  O8  UNL     1     -35.888  12.603  -4.542  1.00 20.00    -0.265 OA
BRANCH   7   9
HETATM    9  O10 UNL     1     -37.815  13.877  -4.543  1.00 20.00    -0.326 OA
HETATM   10  C7  UNL     1     -38.247  15.228  -4.353  1.00 20.00     0.213 C 
ENDBRANCH   7   9
ENDBRANCH   5   7
TORSDOF 2
ENDMDL
MODEL 4
REMARK VINA RESULT:      -4.5     11.183     11.984
REMARK  2 active torsions:
REMARK  status: ('A' for Active; 'I' for Inactive)
REMARK    1  A    between atoms: C3_3  and  C6_6 
REMARK    2  A    between atoms: C3_3  and  O10_10 
ROOT
HETATM    1  C1  UNL     1     -33.185  16.444  -2.866  1.00 20.00    -0.002 C 
HETATM    2  C2  UNL     1     -34.139  16.921  -2.058  1.00 20.00     0.130 C 
HETATM    3  C4  UNL     1     -33.451  15.326  -3.822  1.00 20.00     0.046 C 
HETATM    4  C5  UNL     1     -35.835  15.695  -3.143  1.00 20.00     0.189 C 
HETATM    5  C6  UNL     1     -34.783  14.646  -3.497  1.00 20.00     0.113 C 
HETATM    6  O9  UNL     1     -35.446  16.509  -2.028  1.00 20.00    -0.362 OA
ENDROOT
BRANCH   5   7
HETATM    7  C3  UNL     1     -35.251  13.824  -4.656  1.00 20.00     0.265 C 
HETATM    8  O8  UNL     1     -35.970  12.839  -4.552  1.00 20.00    -0.265 OA
BRANCH   7   9
HETATM    9  O10 UNL     1     -34.754  14.344  -5.814  1.00 20.00    -0.326 OA
HETATM   10  C7  UNL     1     -35.733  14.749  -6.776  1.00 20.00     0.213 C 
ENDBRANCH   7   9
ENDBRANCH   5   7
TORSDOF 2
ENDMDL
MODEL 5
REMARK VINA RESULT:      -4.2     15.354     16.493
REMARK  2 active torsions:
REMARK  status: ('A' for Active; 'I' for Inactive)
REMARK    1  A    between atoms: C3_3  and  C6_6 
REMARK    2  A    between atoms: C3_3  and  O10_10 
ROOT
HETATM    1  C1  UNL     1     -25.223  19.263   8.269  1.00 20.00    -0.002 C 
HETATM    2  C2  UNL     1     -24.414  18.967   7.245  1.00 20.00     0.130 C 
HETATM    3  C4  UNL     1     -24.927  18.804   9.661  1.00 20.00     0.046 C 
HETATM    4  C5  UNL     1     -22.734  18.118   8.663  1.00 20.00     0.189 C 
HETATM    5  C6  UNL     1     -23.831  17.737   9.655  1.00 20.00     0.113 C 
HETATM    6  O9  UNL     1     -23.231  18.279   7.327  1.00 20.00    -0.362 OA
ENDROOT
BRANCH   5   7
HETATM    7  C3  UNL     1     -23.248  17.572  11.023  1.00 20.00     0.265 C 
HETATM    8  O8  UNL     1     -22.077  17.795  11.300  1.00 20.00    -0.265 OA
BRANCH   7   9
HETATM    9  O10 UNL     1     -24.215  17.144  11.883  1.00 20.00    -0.326 OA
HETATM   10  C7  UNL     1     -24.590  15.769  11.752  1.00 20.00     0.213 C 
ENDBRANCH   7   9
ENDBRANCH   5   7
TORSDOF 2
ENDMDL
MODEL 6
REMARK VINA RESULT:      -4.2      0.990      1.600
REMARK  2 active torsions:
REMARK  status: ('A' for Active; 'I' for Inactive)
REMARK    1  A    between atoms: C3_3  and  C6_6 
REMARK    2  A    between atoms: C3_3  and  O10_10 
ROOT
HETATM    1  C1  UNL     1     -34.583   6.053   6.002  1.00 20.00    -0.002 C 
HETATM    2  C2  UNL     1     -35.088   4.940   5.457  1.00 20.00     0.130 C 
HETATM    3  C4  UNL     1     -33.592   6.903   5.275  1.00 20.00     0.046 C 
HETATM    4  C5  UNL     1     -34.161   5.414   3.342  1.00 20.00     0.189 C 
HETATM    5  C6  UNL     1     -33.037   6.162   4.056  1.00 20.00     0.113 C 
HETATM    6  O9  UNL     1     -34.824   4.471   4.197  1.00 20.00    -0.362 OA
ENDROOT
BRANCH   5   7
HETATM    7  C3  UNL     1     -32.381   7.119   3.112  1.00 20.00     0.265 C 
HETATM    8  O8  UNL     1     -31.430   7.830   3.408  1.00 20.00    -0.265 OA
BRANCH   7   9
HETATM    9  O10 UNL     1     -33.004   7.065   1.901  1.00 20.00    -0.326 OA
HETATM   10  C7  UNL     1     -32.787   8.192   1.046  1.00 20.00     0.213 C 
ENDBRANCH   7   9
ENDBRANCH   5   7
TORSDOF 2
ENDMDL
MODEL 7
REMARK VINA RESULT:      -4.2     11.103     12.030
REMARK  2 active torsions:
REMARK  status: ('A' for Active; 'I' for Inactive)
REMARK    1  A    between atoms: C3_3  and  C6_6 
REMARK    2  A    between atoms: C3_3  and  O10_10 
ROOT
HETATM    1  C1  UNL     1     -34.989  16.617  -1.708  1.00 20.00    -0.002 C 
HETATM    2  C2  UNL     1     -33.921  17.415  -1.822  1.00 20.00     0.130 C 
HETATM    3  C4  UNL     1     -35.202  15.455  -2.625  1.00 20.00     0.046 C 
HETATM    4  C5  UNL     1     -32.873  15.990  -3.378  1.00 20.00     0.189 C 
HETATM    5  C6  UNL     1     -34.261  15.539  -3.828  1.00 20.00     0.113 C 
HETATM    6  O9  UNL     1     -32.894  17.262  -2.716  1.00 20.00    -0.362 OA
ENDROOT
BRANCH   5   7
HETATM    7  C3  UNL     1     -34.169  14.215  -4.519  1.00 20.00     0.265 C 
HETATM    8  O8  UNL     1     -34.436  13.146  -3.988  1.00 20.00    -0.265 OA
BRANCH   7   9
HETATM    9  O10 UNL     1     -33.749  14.399  -5.803  1.00 20.00    -0.326 OA
HETATM   10  C7  UNL     1     -34.579  15.243  -6.607  1.00 20.00     0.213 C 
ENDBRANCH   7   9
ENDBRANCH   5   7
TORSDOF 2
ENDMDL
MODEL 8
REMARK VINA RESULT:      -4.0     11.188     12.458
REMARK  2 active torsions:
REMARK  status: ('A' for Active; 'I' for Inactive)
REMARK    1  A    between atoms: C3_3  and  C6_6 
REMARK    2  A    between atoms: C3_3  and  O10_10 
ROOT
HETATM    1  C1  UNL     1     -34.198  17.163  -4.755  1.00 20.00    -0.002 C 
HETATM    2  C2  UNL     1     -33.658  17.115  -3.531  1.00 20.00     0.130 C 
HETATM    3  C4  UNL     1     -35.040  16.048  -5.285  1.00 20.00     0.046 C 
HETATM    4  C5  UNL     1     -34.890  15.198  -2.933  1.00 20.00     0.189 C 
HETATM    5  C6  UNL     1     -34.899  14.801  -4.408  1.00 20.00     0.113 C 
HETATM    6  O9  UNL     1     -33.831  16.111  -2.614  1.00 20.00    -0.362 OA
ENDROOT
BRANCH   5   7
HETATM    7  C3  UNL     1     -36.015  13.841  -4.673  1.00 20.00     0.265 C 
HETATM    8  O8  UNL     1     -35.945  12.637  -4.469  1.00 20.00    -0.265 OA
BRANCH   7   9
HETATM    9  O10 UNL     1     -37.092  14.518  -5.165  1.00 20.00    -0.326 OA
HETATM   10  C7  UNL     1     -38.222  14.595  -4.290  1.00 20.00     0.213 C 
ENDBRANCH   7   9
ENDBRANCH   5   7
TORSDOF 2
ENDMDL
MODEL 9
REMARK VINA RESULT:      -4.0     11.502     12.153
REMARK  2 active torsions:
REMARK  status: ('A' for Active; 'I' for Inactive)
REMARK    1  A    between atoms: C3_3  and  C6_6 
REMARK    2  A    between atoms: C3_3  and  O10_10 
ROOT
HETATM    1  C1  UNL     1     -37.832  16.043  -4.120  1.00 20.00    -0.002 C 
HETATM    2  C2  UNL     1     -38.418  14.849  -4.266  1.00 20.00     0.130 C 
HETATM    3  C4  UNL     1     -36.346  16.186  -4.050  1.00 20.00     0.046 C 
HETATM    4  C5  UNL     1     -36.371  13.766  -4.700  1.00 20.00     0.189 C 
HETATM    5  C6  UNL     1     -35.684  14.822  -3.837  1.00 20.00     0.113 C 
HETATM    6  O9  UNL     1     -37.772  13.650  -4.417  1.00 20.00    -0.362 OA
ENDROOT
BRANCH   5   7
HETATM    7  C3  UNL     1     -34.227  14.887  -4.170  1.00 20.00     0.265 C 
HETATM    8  O8  UNL     1     -33.544  13.910  -4.447  1.00 20.00    -0.265 OA
BRANCH   7   9
HETATM    9  O10 UNL     1     -33.803  16.181  -4.114  1.00 20.00    -0.326 OA
HETATM   10  C7  UNL     1     -33.000  16.517  -2.978  1.00 20.00     0.213 C 
ENDBRANCH   7   9
ENDBRANCH   5   7
TORSDOF 2
ENDMDL
