MODEL 1
REMARK VINA RESULT:      -5.1      0.000      0.000
REMARK  1 active torsions:
REMARK  status: ('A' for Active; 'I' for Inactive)
REMARK    1  A    between atoms: C1_1  and  C5_5 
ROOT
HETATM    1  C2  UNL     1     -31.772   7.348   3.098  1.00 20.00     0.011 A 
HETATM    2  C3  UNL     1     -32.634   7.583   1.853  1.00 20.00     0.011 A 
HETATM    3  C4  UNL     1     -33.357   5.167   2.834  1.00 20.00     0.023 A 
HETATM    4  C5  UNL     1     -34.190   6.212   3.597  1.00 20.00     0.064 A 
HETATM    5  C6  UNL     1     -32.987   6.578   2.853  1.00 20.00    -0.029 A 
ENDROOT
BRANCH   4   6
HETATM    6  C1  UNL     1     -34.173   6.188   5.063  1.00 20.00     0.128 C 
HETATM    7  C7  UNL     1     -34.883   5.041   5.730  1.00 20.00     0.091 C 
HETATM    8  O8  UNL     1     -33.603   7.061   5.716  1.00 20.00    -0.298 OA
ENDBRANCH   4   6
TORSDOF 1
ENDMDL
MODEL 2
REMARK VINA RESULT:      -5.0      1.087      1.237
REMARK  1 active torsions:
REMARK  status: ('A' for Active; 'I' for Inactive)
REMARK    1  A    between atoms: C1_1  and  C5_5 
ROOT
HETATM    1  C2  UNL     1     -31.913   7.222   3.273  1.00 20.00     0.011 A 
HETATM    2  C3  UNL     1     -32.664   7.490   1.964  1.00 20.00     0.011 A 
HETATM    3  C4  UNL     1     -33.254   4.946   2.672  1.00 20.00     0.023 A 
HETATM    4  C5  UNL     1     -34.254   5.847   3.419  1.00 20.00     0.064 A 
HETATM    5  C6  UNL     1     -33.021   6.376   2.839  1.00 20.00    -0.029 A 
ENDROOT
BRANCH   4   6
HETATM    6  C1  UNL     1     -34.383   5.698   4.872  1.00 20.00     0.128 C 
HETATM    7  C7  UNL     1     -33.970   6.875   5.713  1.00 20.00     0.091 C 
HETATM    8  O8  UNL     1     -34.811   4.662   5.378  1.00 20.00    -0.298 OA
ENDBRANCH   4   6
TORSDOF 1
ENDMDL
MODEL 3
REMARK VINA RESULT:      -4.7      1.919      3.515
REMARK  1 active torsions:
REMARK  status: ('A' for Active; 'I' for Inactive)
REMARK    1  A    between atoms: C1_1  and  C5_5 
ROOT
HETATM    1  C2  UNL     1     -33.908   6.876   5.568  1.00 20.00     0.011 A 
HETATM    2  C3  UNL     1     -34.474   5.722   6.402  1.00 20.00     0.011 A 
HETATM    3  C4  UNL     1     -35.642   5.544   3.968  1.00 20.00     0.023 A 
HETATM    4  C5  UNL     1     -34.300   4.796   3.862  1.00 20.00     0.064 A 
HETATM    5  C6  UNL     1     -34.576   5.737   4.945  1.00 20.00    -0.029 A 
ENDROOT
BRANCH   4   6
HETATM    6  C1  UNL     1     -33.377   5.162   2.782  1.00 20.00     0.128 C 
HETATM    7  C7  UNL     1     -32.853   6.572   2.788  1.00 20.00     0.091 C 
HETATM    8  O8  UNL     1     -33.045   4.354   1.917  1.00 20.00    -0.298 OA
ENDBRANCH   4   6
TORSDOF 1
ENDMDL
MODEL 4
REMARK VINA RESULT:      -4.4     11.367     11.813
REMARK  1 active torsions:
REMARK  status: ('A' for Active; 'I' for Inactive)
REMARK    1  A    between atoms: C1_1  and  C5_5 
ROOT
HETATM    1  C2  UNL     1     -34.784  15.901  -2.270  1.00 20.00     0.011 A 
HETATM    2  C3  UNL     1     -34.141  16.888  -3.251  1.00 20.00     0.011 A 
HETATM    3  C4  UNL     1     -33.553  14.411  -4.169  1.00 20.00     0.023 A 
HETATM    4  C5  UNL     1     -34.940  14.766  -4.735  1.00 20.00     0.064 A 
HETATM    5  C6  UNL     1     -34.360  15.487  -3.604  1.00 20.00    -0.029 A 
ENDROOT
BRANCH   4   6
HETATM    6  C1  UNL     1     -36.046  13.826  -4.524  1.00 20.00     0.128 C 
HETATM    7  C7  UNL     1     -37.411  14.423  -4.313  1.00 20.00     0.091 C 
HETATM    8  O8  UNL     1     -35.866  12.610  -4.522  1.00 20.00    -0.298 OA
ENDBRANCH   4   6
TORSDOF 1
ENDMDL
MODEL 5
REMARK VINA RESULT:      -4.3      1.071      3.379
REMARK  1 active torsions:
REMARK  status: ('A' for Active; 'I' for Inactive)
REMARK    1  A    between atoms: C1_1  and  C5_5 
ROOT
HETATM    1  C2  UNL     1     -34.279   6.566   6.036  1.00 20.00     0.011 A 
HETATM    2  C3  UNL     1     -34.472   5.047   5.980  1.00 20.00     0.011 A 
HETATM    3  C4  UNL     1     -35.072   5.981   3.512  1.00 20.00     0.023 A 
HETATM    4  C5  UNL     1     -33.547   5.777   3.540  1.00 20.00     0.064 A 
HETATM    5  C6  UNL     1     -34.338   5.849   4.766  1.00 20.00    -0.029 A 
ENDROOT
BRANCH   4   6
HETATM    6  C1  UNL     1     -32.682   6.896   3.152  1.00 20.00     0.128 C 
HETATM    7  C7  UNL     1     -32.658   7.259   1.691  1.00 20.00     0.091 C 
HETATM    8  O8  UNL     1     -32.012   7.510   3.980  1.00 20.00    -0.298 OA
ENDBRANCH   4   6
TORSDOF 1
ENDMDL
MODEL 6
REMARK VINA RESULT:      -4.3      1.495      3.503
REMARK  1 active torsions:
REMARK  status: ('A' for Active; 'I' for Inactive)
REMARK    1  A    between atoms: C1_1  and  C5_5 
ROOT
HETATM    1  C2  UNL     1     -34.000   4.564   5.656  1.00 20.00     0.011 A 
HETATM    2  C3  UNL     1     -35.296   5.315   5.979  1.00 20.00     0.011 A 
HETATM    3  C4  UNL     1     -33.410   7.205   5.545  1.00 20.00     0.023 A 
HETATM    4  C5  UNL     1     -33.979   6.835   4.163  1.00 20.00     0.064 A 
HETATM    5  C6  UNL     1     -34.167   5.977   5.331  1.00 20.00    -0.029 A 
ENDROOT
BRANCH   4   6
HETATM    6  C1  UNL     1     -33.046   6.445   3.101  1.00 20.00     0.128 C 
HETATM    7  C7  UNL     1     -33.271   5.102   2.462  1.00 20.00     0.091 C 
HETATM    8  O8  UNL     1     -32.126   7.182   2.749  1.00 20.00    -0.298 OA
ENDBRANCH   4   6
TORSDOF 1
ENDMDL
MODEL 7
REMARK VINA RESULT:      -4.1     15.772     16.650
REMARK  1 active torsions:
REMARK  status: ('A' for Active; 'I' for Inactive)
REMARK    1  A    between atoms: C1_1  and  C5_5 
ROOT
HETATM    1  C2  UNL     1     -23.928  16.623  10.695  1.00 20.00     0.011 A 
HETATM    2  C3  UNL     1     -22.996  17.388  11.641  1.00 20.00     0.011 A 
HETATM    3  C4  UNL     1     -21.849  17.497   9.193  1.00 20.00     0.023 A 
HETATM    4  C5  UNL     1     -22.852  18.662   9.254  1.00 20.00     0.064 A 
HETATM    5  C6  UNL     1     -22.912  17.543  10.191  1.00 20.00    -0.029 A 
ENDROOT
BRANCH   4   6
HETATM    6  C1  UNL     1     -23.849  18.787   8.186  1.00 20.00     0.128 C 
HETATM    7  C7  UNL     1     -25.238  19.192   8.599  1.00 20.00     0.091 C 
HETATM    8  O8  UNL     1     -23.563  18.573   7.009  1.00 20.00    -0.298 OA
ENDBRANCH   4   6
TORSDOF 1
ENDMDL
MODEL 8
REMARK VINA RESULT:      -4.0     15.185     16.664
REMARK  1 active torsions:
REMARK  status: ('A' for Active; 'I' for Inactive)
REMARK    1  A    between atoms: C1_1  and  C5_5 
ROOT
HETATM    1  C2  UNL     1     -24.652  15.641  11.537  1.00 20.00     0.011 A 
HETATM    2  C3  UNL     1     -25.506  16.805  12.051  1.00 20.00     0.011 A 
HETATM    3  C4  UNL     1     -22.930  17.608  12.249  1.00 20.00     0.023 A 
HETATM    4  C5  UNL     1     -23.375  17.928  10.811  1.00 20.00     0.064 A 
HETATM    5  C6  UNL     1     -24.112  16.993  11.656  1.00 20.00    -0.029 A 
ENDROOT
BRANCH   4   6
HETATM    6  C1  UNL     1     -22.559  17.434   9.697  1.00 20.00     0.128 C 
HETATM    7  C7  UNL     1     -21.293  18.189   9.398  1.00 20.00     0.091 C 
HETATM    8  O8  UNL     1     -22.892  16.447   9.043  1.00 20.00    -0.298 OA
ENDBRANCH   4   6
TORSDOF 1
ENDMDL
MODEL 9
REMARK VINA RESULT:      -3.9     11.509     12.165
REMARK  1 active torsions:
REMARK  status: ('A' for Active; 'I' for Inactive)
REMARK    1  A    between atoms: C1_1  and  C5_5 
ROOT
HETATM    1  C2  UNL     1     -34.001  15.781  -2.983  1.00 20.00     0.011 A 
HETATM    2  C3  UNL     1     -34.993  16.110  -1.863  1.00 20.00     0.011 A 
HETATM    3  C4  UNL     1     -36.353  16.380  -4.186  1.00 20.00     0.023 A 
HETATM    4  C5  UNL     1     -36.433  14.890  -3.807  1.00 20.00     0.064 A 
HETATM    5  C6  UNL     1     -35.442  15.786  -3.214  1.00 20.00    -0.029 A 
ENDROOT
BRANCH   4   6
HETATM    6  C1  UNL     1     -36.026  13.891  -4.800  1.00 20.00     0.128 C 
HETATM    7  C7  UNL     1     -35.786  14.386  -6.200  1.00 20.00     0.091 C 
HETATM    8  O8  UNL     1     -35.885  12.706  -4.501  1.00 20.00    -0.298 OA
ENDBRANCH   4   6
TORSDOF 1
ENDMDL
