MODEL 1
REMARK VINA RESULT:      -5.7      0.000      0.000
REMARK  1 active torsions:
REMARK  status: ('A' for Active; 'I' for Inactive)
REMARK    1  A    between atoms: C5_5  and  C8_8 
ROOT
HETATM    1  C1  UNL     1     -33.808  17.051  -1.754  1.00 20.00    -0.004 C 
HETATM    2  C2  UNL     1     -32.916  16.715  -2.864  1.00 20.00    -0.004 C 
HETATM    3  C3  UNL     1     -35.126  16.803  -1.592  1.00 20.00    -0.026 C 
HETATM    4  C4  UNL     1     -33.121  15.738  -3.771  1.00 20.00    -0.021 C 
HETATM    5  C6  UNL     1     -36.092  16.088  -2.527  1.00 20.00     0.033 C 
HETATM    6  C7  UNL     1     -34.316  14.900  -3.754  1.00 20.00     0.028 A 
HETATM    7  C8  UNL     1     -35.374  14.631  -4.770  1.00 20.00     0.100 A 
HETATM    8  C9  UNL     1     -35.518  15.836  -3.880  1.00 20.00     0.012 A 
ENDROOT
BRANCH   7   9
HETATM    9  C5  UNL     1     -36.286  13.527  -4.544  1.00 20.00     0.178 C 
HETATM   10  O10 UNL     1     -37.512  13.829  -4.555  1.00 20.00    -0.648 OA
HETATM   11  O11 UNL     1     -35.729  12.408  -4.364  1.00 20.00    -0.648 OA
ENDBRANCH   7   9
TORSDOF 1
ENDMDL
MODEL 2
REMARK VINA RESULT:      -5.2      1.313      2.055
REMARK  1 active torsions:
REMARK  status: ('A' for Active; 'I' for Inactive)
REMARK    1  A    between atoms: C5_5  and  C8_8 
ROOT
HETATM    1  C1  UNL     1     -33.881  17.999  -3.202  1.00 20.00    -0.004 C 
HETATM    2  C2  UNL     1     -34.043  17.127  -2.038  1.00 20.00    -0.004 C 
HETATM    3  C3  UNL     1     -34.018  17.725  -4.519  1.00 20.00    -0.026 C 
HETATM    4  C4  UNL     1     -34.752  15.982  -2.005  1.00 20.00    -0.021 C 
HETATM    5  C6  UNL     1     -34.386  16.412  -5.195  1.00 20.00     0.033 C 
HETATM    6  C7  UNL     1     -35.438  15.457  -3.182  1.00 20.00     0.028 A 
HETATM    7  C8  UNL     1     -35.347  14.157  -3.907  1.00 20.00     0.100 A 
HETATM    8  C9  UNL     1     -34.375  15.250  -4.261  1.00 20.00     0.012 A 
ENDROOT
BRANCH   7   9
HETATM    9  C5  UNL     1     -36.369  13.836  -4.884  1.00 20.00     0.178 C 
HETATM   10  O10 UNL     1     -35.955  13.687  -6.068  1.00 20.00    -0.648 OA
HETATM   11  O11 UNL     1     -37.540  13.751  -4.418  1.00 20.00    -0.648 OA
ENDBRANCH   7   9
TORSDOF 1
ENDMDL
MODEL 3
REMARK VINA RESULT:      -5.0     17.733     18.301
REMARK  1 active torsions:
REMARK  status: ('A' for Active; 'I' for Inactive)
REMARK    1  A    between atoms: C5_5  and  C8_8 
ROOT
HETATM    1  C1  UNL     1     -26.388  17.217  12.267  1.00 20.00    -0.004 C 
HETATM    2  C2  UNL     1     -25.525  16.038  12.332  1.00 20.00    -0.004 C 
HETATM    3  C3  UNL     1     -26.151  18.440  11.744  1.00 20.00    -0.026 C 
HETATM    4  C4  UNL     1     -24.468  15.791  11.532  1.00 20.00    -0.021 C 
HETATM    5  C6  UNL     1     -24.899  18.966  11.056  1.00 20.00     0.033 C 
HETATM    6  C7  UNL     1     -24.043  16.725  10.494  1.00 20.00     0.028 A 
HETATM    7  C8  UNL     1     -22.751  17.424  10.233  1.00 20.00     0.100 A 
HETATM    8  C9  UNL     1     -23.730  18.051  11.190  1.00 20.00     0.012 A 
ENDROOT
BRANCH   7   9
HETATM    9  C5  UNL     1     -22.564  18.077   8.953  1.00 20.00     0.178 C 
HETATM   10  O10 UNL     1     -22.071  19.239   9.007  1.00 20.00    -0.648 OA
HETATM   11  O11 UNL     1     -22.923  17.395   7.952  1.00 20.00    -0.648 OA
ENDBRANCH   7   9
TORSDOF 1
ENDMDL
MODEL 4
REMARK VINA RESULT:      -5.0      1.122      2.117
REMARK  1 active torsions:
REMARK  status: ('A' for Active; 'I' for Inactive)
REMARK    1  A    between atoms: C5_5  and  C8_8 
ROOT
HETATM    1  C1  UNL     1     -33.219  17.023  -2.232  1.00 20.00    -0.004 C 
HETATM    2  C2  UNL     1     -34.483  16.973  -1.498  1.00 20.00    -0.004 C 
HETATM    3  C3  UNL     1     -32.812  16.319  -3.312  1.00 20.00    -0.026 C 
HETATM    4  C4  UNL     1     -35.656  16.512  -1.979  1.00 20.00    -0.021 C 
HETATM    5  C6  UNL     1     -33.556  15.250  -4.099  1.00 20.00     0.033 C 
HETATM    6  C7  UNL     1     -35.783  15.969  -3.328  1.00 20.00     0.028 A 
HETATM    7  C8  UNL     1     -36.248  14.649  -3.845  1.00 20.00     0.100 A 
HETATM    8  C9  UNL     1     -34.808  14.795  -3.429  1.00 20.00     0.012 A 
ENDROOT
BRANCH   7   9
HETATM    9  C5  UNL     1     -36.518  14.518  -5.263  1.00 20.00     0.178 C 
HETATM   10  O10 UNL     1     -37.219  15.440  -5.766  1.00 20.00    -0.648 OA
HETATM   11  O11 UNL     1     -36.014  13.495  -5.806  1.00 20.00    -0.648 OA
ENDBRANCH   7   9
TORSDOF 1
ENDMDL
MODEL 5
REMARK VINA RESULT:      -4.9      1.179      2.213
REMARK  1 active torsions:
REMARK  status: ('A' for Active; 'I' for Inactive)
REMARK    1  A    between atoms: C5_5  and  C8_8 
ROOT
HETATM    1  C1  UNL     1     -33.749  17.866  -2.875  1.00 20.00    -0.004 C 
HETATM    2  C2  UNL     1     -35.178  18.130  -2.702  1.00 20.00    -0.004 C 
HETATM    3  C3  UNL     1     -33.108  16.716  -3.177  1.00 20.00    -0.026 C 
HETATM    4  C4  UNL     1     -36.183  17.384  -3.203  1.00 20.00    -0.021 C 
HETATM    5  C6  UNL     1     -33.687  15.331  -3.434  1.00 20.00     0.033 C 
HETATM    6  C7  UNL     1     -35.939  16.170  -3.978  1.00 20.00     0.028 A 
HETATM    7  C8  UNL     1     -36.371  14.754  -3.797  1.00 20.00     0.100 A 
HETATM    8  C9  UNL     1     -35.132  15.227  -3.084  1.00 20.00     0.012 A 
ENDROOT
BRANCH   7   9
HETATM    9  C5  UNL     1     -36.189  13.830  -4.899  1.00 20.00     0.178 C 
HETATM   10  O10 UNL     1     -35.881  12.651  -4.568  1.00 20.00    -0.648 OA
HETATM   11  O11 UNL     1     -36.364  14.331  -6.045  1.00 20.00    -0.648 OA
ENDBRANCH   7   9
TORSDOF 1
ENDMDL
MODEL 6
REMARK VINA RESULT:      -4.9      0.873      1.359
REMARK  1 active torsions:
REMARK  status: ('A' for Active; 'I' for Inactive)
REMARK    1  A    between atoms: C5_5  and  C8_8 
ROOT
HETATM    1  C1  UNL     1     -33.768  17.629  -1.028  1.00 20.00    -0.004 C 
HETATM    2  C2  UNL     1     -32.821  17.548  -2.140  1.00 20.00    -0.004 C 
HETATM    3  C3  UNL     1     -35.016  17.124  -0.910  1.00 20.00    -0.026 C 
HETATM    4  C4  UNL     1     -32.831  16.620  -3.117  1.00 20.00    -0.021 C 
HETATM    5  C6  UNL     1     -35.823  16.311  -1.912  1.00 20.00     0.033 C 
HETATM    6  C7  UNL     1     -33.846  15.572  -3.184  1.00 20.00     0.028 A 
HETATM    7  C8  UNL     1     -34.827  15.183  -4.238  1.00 20.00     0.100 A 
HETATM    8  C9  UNL     1     -35.203  16.271  -3.268  1.00 20.00     0.012 A 
ENDROOT
BRANCH   7   9
HETATM    9  C5  UNL     1     -35.515  13.913  -4.108  1.00 20.00     0.178 C 
HETATM   10  O10 UNL     1     -34.765  12.908  -3.957  1.00 20.00    -0.648 OA
HETATM   11  O11 UNL     1     -36.774  13.984  -4.164  1.00 20.00    -0.648 OA
ENDBRANCH   7   9
TORSDOF 1
ENDMDL
MODEL 7
REMARK VINA RESULT:      -4.7      1.130      1.375
REMARK  1 active torsions:
REMARK  status: ('A' for Active; 'I' for Inactive)
REMARK    1  A    between atoms: C5_5  and  C8_8 
ROOT
HETATM    1  C1  UNL     1     -35.492  17.493  -1.693  1.00 20.00    -0.004 C 
HETATM    2  C2  UNL     1     -34.152  16.925  -1.843  1.00 20.00    -0.004 C 
HETATM    3  C3  UNL     1     -36.567  17.408  -2.506  1.00 20.00    -0.026 C 
HETATM    4  C4  UNL     1     -33.826  15.869  -2.614  1.00 20.00    -0.021 C 
HETATM    5  C6  UNL     1     -36.711  16.687  -3.839  1.00 20.00     0.033 C 
HETATM    6  C7  UNL     1     -34.812  15.171  -3.434  1.00 20.00     0.028 A 
HETATM    7  C8  UNL     1     -34.890  14.889  -4.897  1.00 20.00     0.100 A 
HETATM    8  C9  UNL     1     -35.411  16.206  -4.387  1.00 20.00     0.012 A 
ENDROOT
BRANCH   7   9
HETATM    9  C5  UNL     1     -35.868  13.926  -5.364  1.00 20.00     0.178 C 
HETATM   10  O10 UNL     1     -36.421  14.209  -6.463  1.00 20.00    -0.648 OA
HETATM   11  O11 UNL     1     -36.035  12.930  -4.606  1.00 20.00    -0.648 OA
ENDBRANCH   7   9
TORSDOF 1
ENDMDL
MODEL 8
REMARK VINA RESULT:      -4.6     11.023     11.669
REMARK  1 active torsions:
REMARK  status: ('A' for Active; 'I' for Inactive)
REMARK    1  A    between atoms: C5_5  and  C8_8 
ROOT
HETATM    1  C1  UNL     1     -34.636   5.753   5.896  1.00 20.00    -0.004 C 
HETATM    2  C2  UNL     1     -34.674   4.681   4.901  1.00 20.00    -0.004 C 
HETATM    3  C3  UNL     1     -33.956   6.921   5.890  1.00 20.00    -0.026 C 
HETATM    4  C4  UNL     1     -34.364   4.808   3.595  1.00 20.00    -0.021 C 
HETATM    5  C6  UNL     1     -33.015   7.481   4.833  1.00 20.00     0.033 C 
HETATM    6  C7  UNL     1     -33.915   6.073   3.022  1.00 20.00     0.028 A 
HETATM    7  C8  UNL     1     -32.680   6.462   2.280  1.00 20.00     0.100 A 
HETATM    8  C9  UNL     1     -32.654   6.484   3.785  1.00 20.00     0.012 A 
ENDROOT
BRANCH   7   9
HETATM    9  C5  UNL     1     -32.658   7.742   1.598  1.00 20.00     0.178 C 
HETATM   10  O10 UNL     1     -33.569   8.548   1.936  1.00 20.00    -0.648 OA
HETATM   11  O11 UNL     1     -31.728   7.877   0.754  1.00 20.00    -0.648 OA
ENDBRANCH   7   9
TORSDOF 1
ENDMDL
MODEL 9
REMARK VINA RESULT:      -4.5      1.078      1.573
REMARK  1 active torsions:
REMARK  status: ('A' for Active; 'I' for Inactive)
REMARK    1  A    between atoms: C5_5  and  C8_8 
ROOT
HETATM    1  C1  UNL     1     -33.865  16.802  -1.999  1.00 20.00    -0.004 C 
HETATM    2  C2  UNL     1     -33.191  16.086  -3.082  1.00 20.00    -0.004 C 
HETATM    3  C3  UNL     1     -35.156  17.183  -1.880  1.00 20.00    -0.026 C 
HETATM    4  C4  UNL     1     -33.791  15.301  -4.000  1.00 20.00    -0.021 C 
HETATM    5  C6  UNL     1     -36.313  16.977  -2.848  1.00 20.00     0.033 C 
HETATM    6  C7  UNL     1     -35.236  15.098  -4.024  1.00 20.00     0.028 A 
HETATM    7  C8  UNL     1     -36.270  15.331  -5.075  1.00 20.00     0.100 A 
HETATM    8  C9  UNL     1     -35.876  16.478  -4.184  1.00 20.00     0.012 A 
ENDROOT
BRANCH   7   9
HETATM    9  C5  UNL     1     -37.591  14.765  -4.882  1.00 20.00     0.178 C 
HETATM   10  O10 UNL     1     -37.614  13.613  -4.365  1.00 20.00    -0.648 OA
HETATM   11  O11 UNL     1     -38.544  15.503  -5.260  1.00 20.00    -0.648 OA
ENDBRANCH   7   9
TORSDOF 1
ENDMDL
