MODEL 1
REMARK VINA RESULT:      -5.1      0.000      0.000
REMARK  0 active torsions:
REMARK  status: ('A' for Active; 'I' for Inactive)
ROOT
HETATM    1  C1  UNL     1     -34.230   4.420   3.598  1.00 20.00     0.131 A 
HETATM    2  C2  UNL     1     -32.971   6.121   2.633  1.00 20.00     0.233 A 
HETATM    3  C3  UNL     1     -34.336   5.223   4.669  1.00 20.00     0.010 A 
HETATM    4  C4  UNL     1     -33.748   6.432   4.651  1.00 20.00     0.070 A 
HETATM    5  C5  UNL     1     -34.831   5.464   5.997  1.00 20.00     0.017 A 
HETATM    6  C6  UNL     1     -34.235   6.695   5.987  1.00 20.00     0.033 A 
HETATM    7  N7  UNL     1     -33.525   4.866   2.529  1.00 20.00    -0.253 NA
HETATM    8  N8  UNL     1     -33.041   6.978   3.682  1.00 20.00    -0.241 NA
ENDROOT
TORSDOF 0
ENDMDL
MODEL 2
REMARK VINA RESULT:      -5.1      1.475      3.275
REMARK  0 active torsions:
REMARK  status: ('A' for Active; 'I' for Inactive)
ROOT
HETATM    1  C1  UNL     1     -33.657   6.997   5.195  1.00 20.00     0.131 A 
HETATM    2  C2  UNL     1     -34.910   5.108   5.717  1.00 20.00     0.233 A 
HETATM    3  C3  UNL     1     -33.456   6.427   3.996  1.00 20.00     0.010 A 
HETATM    4  C4  UNL     1     -34.000   5.226   3.735  1.00 20.00     0.070 A 
HETATM    5  C5  UNL     1     -32.873   6.468   2.683  1.00 20.00     0.017 A 
HETATM    6  C6  UNL     1     -33.423   5.246   2.409  1.00 20.00     0.033 A 
HETATM    7  N7  UNL     1     -34.409   6.330   6.105  1.00 20.00    -0.253 NA
HETATM    8  N8  UNL     1     -34.744   4.480   4.527  1.00 20.00    -0.241 NA
ENDROOT
TORSDOF 0
ENDMDL
MODEL 3
REMARK VINA RESULT:      -5.1      0.948      1.839
REMARK  0 active torsions:
REMARK  status: ('A' for Active; 'I' for Inactive)
ROOT
HETATM    1  C1  UNL     1     -33.078   6.910   3.601  1.00 20.00     0.131 A 
HETATM    2  C2  UNL     1     -33.548   4.859   2.608  1.00 20.00     0.233 A 
HETATM    3  C3  UNL     1     -33.765   6.456   4.662  1.00 20.00     0.010 A 
HETATM    4  C4  UNL     1     -34.302   5.224   4.626  1.00 20.00     0.070 A 
HETATM    5  C5  UNL     1     -34.277   6.660   5.990  1.00 20.00     0.017 A 
HETATM    6  C6  UNL     1     -34.827   5.408   5.961  1.00 20.00     0.033 A 
HETATM    7  N7  UNL     1     -32.953   6.097   2.522  1.00 20.00    -0.253 NA
HETATM    8  N8  UNL     1     -34.252   4.343   3.647  1.00 20.00    -0.241 NA
ENDROOT
TORSDOF 0
ENDMDL
MODEL 4
REMARK VINA RESULT:      -5.0      1.499      2.715
REMARK  0 active torsions:
REMARK  status: ('A' for Active; 'I' for Inactive)
ROOT
HETATM    1  C1  UNL     1     -34.719   4.680   4.360  1.00 20.00     0.131 A 
HETATM    2  C2  UNL     1     -34.391   6.270   6.026  1.00 20.00     0.233 A 
HETATM    3  C3  UNL     1     -33.911   5.436   3.600  1.00 20.00     0.010 A 
HETATM    4  C4  UNL     1     -33.391   6.567   4.106  1.00 20.00     0.070 A 
HETATM    5  C5  UNL     1     -33.237   5.666   2.350  1.00 20.00     0.017 A 
HETATM    6  C6  UNL     1     -32.705   6.818   2.859  1.00 20.00     0.033 A 
HETATM    7  N7  UNL     1     -34.982   5.094   5.624  1.00 20.00    -0.253 NA
HETATM    8  N8  UNL     1     -33.568   7.076   5.310  1.00 20.00    -0.241 NA
ENDROOT
TORSDOF 0
ENDMDL
MODEL 5
REMARK VINA RESULT:      -4.1     16.472     16.626
REMARK  0 active torsions:
REMARK  status: ('A' for Active; 'I' for Inactive)
ROOT
HETATM    1  C1  UNL     1     -23.972  18.650   8.272  1.00 20.00     0.131 A 
HETATM    2  C2  UNL     1     -22.086  17.394   7.742  1.00 20.00     0.233 A 
HETATM    3  C3  UNL     1     -24.013  17.946   9.415  1.00 20.00     0.010 A 
HETATM    4  C4  UNL     1     -23.081  17.006   9.648  1.00 20.00     0.070 A 
HETATM    5  C5  UNL     1     -24.640  17.663  10.677  1.00 20.00     0.017 A 
HETATM    6  C6  UNL     1     -23.696  16.705  10.922  1.00 20.00     0.033 A 
HETATM    7  N7  UNL     1     -22.979  18.379   7.388  1.00 20.00    -0.253 NA
HETATM    8  N8  UNL     1     -22.073  16.651   8.877  1.00 20.00    -0.241 NA
ENDROOT
TORSDOF 0
ENDMDL
MODEL 6
REMARK VINA RESULT:      -4.0     11.778     12.300
REMARK  0 active torsions:
REMARK  status: ('A' for Active; 'I' for Inactive)
ROOT
HETATM    1  C1  UNL     1     -37.172  15.091  -3.871  1.00 20.00     0.131 A 
HETATM    2  C2  UNL     1     -35.998  13.223  -4.609  1.00 20.00     0.233 A 
HETATM    3  C3  UNL     1     -36.003  15.519  -3.368  1.00 20.00     0.010 A 
HETATM    4  C4  UNL     1     -34.901  14.766  -3.519  1.00 20.00     0.070 A 
HETATM    5  C5  UNL     1     -35.248  16.513  -2.654  1.00 20.00     0.017 A 
HETATM    6  C6  UNL     1     -34.122  15.752  -2.804  1.00 20.00     0.033 A 
HETATM    7  N7  UNL     1     -37.193  13.900  -4.520  1.00 20.00    -0.253 NA
HETATM    8  N8  UNL     1     -34.789  13.600  -4.124  1.00 20.00    -0.241 NA
ENDROOT
TORSDOF 0
ENDMDL
MODEL 7
REMARK VINA RESULT:      -4.0     12.083     12.278
REMARK  0 active torsions:
REMARK  status: ('A' for Active; 'I' for Inactive)
ROOT
HETATM    1  C1  UNL     1     -35.477  14.567  -3.730  1.00 20.00     0.131 A 
HETATM    2  C2  UNL     1     -33.337  14.556  -4.641  1.00 20.00     0.233 A 
HETATM    3  C3  UNL     1     -35.020  15.509  -2.889  1.00 20.00     0.010 A 
HETATM    4  C4  UNL     1     -33.742  15.916  -2.980  1.00 20.00     0.070 A 
HETATM    5  C5  UNL     1     -35.249  16.416  -1.797  1.00 20.00     0.017 A 
HETATM    6  C6  UNL     1     -33.951  16.835  -1.883  1.00 20.00     0.033 A 
HETATM    7  N7  UNL     1     -34.619  14.058  -4.649  1.00 20.00    -0.253 NA
HETATM    8  N8  UNL     1     -32.816  15.503  -3.822  1.00 20.00    -0.241 NA
ENDROOT
TORSDOF 0
ENDMDL
MODEL 8
REMARK VINA RESULT:      -4.0     16.663     16.772
REMARK  0 active torsions:
REMARK  status: ('A' for Active; 'I' for Inactive)
ROOT
HETATM    1  C1  UNL     1     -22.988  17.168   9.833  1.00 20.00     0.131 A 
HETATM    2  C2  UNL     1     -21.903  17.338   7.782  1.00 20.00     0.233 A 
HETATM    3  C3  UNL     1     -23.892  18.023   9.327  1.00 20.00     0.010 A 
HETATM    4  C4  UNL     1     -23.741  18.483   8.073  1.00 20.00     0.070 A 
HETATM    5  C5  UNL     1     -25.098  18.791   9.482  1.00 20.00     0.017 A 
HETATM    6  C6  UNL     1     -24.951  19.263   8.207  1.00 20.00     0.033 A 
HETATM    7  N7  UNL     1     -21.946  16.798   9.047  1.00 20.00    -0.253 NA
HETATM    8  N8  UNL     1     -22.781  18.202   7.215  1.00 20.00    -0.241 NA
ENDROOT
TORSDOF 0
ENDMDL
MODEL 9
REMARK VINA RESULT:      -4.0     12.212     12.635
REMARK  0 active torsions:
REMARK  status: ('A' for Active; 'I' for Inactive)
ROOT
HETATM    1  C1  UNL     1     -33.936  14.949  -5.165  1.00 20.00     0.131 A 
HETATM    2  C2  UNL     1     -36.125  14.162  -5.117  1.00 20.00     0.233 A 
HETATM    3  C3  UNL     1     -34.173  15.428  -3.933  1.00 20.00     0.010 A 
HETATM    4  C4  UNL     1     -35.379  15.241  -3.370  1.00 20.00     0.070 A 
HETATM    5  C5  UNL     1     -33.717  16.134  -2.766  1.00 20.00     0.017 A 
HETATM    6  C6  UNL     1     -34.942  15.948  -2.186  1.00 20.00     0.033 A 
HETATM    7  N7  UNL     1     -34.937  14.288  -5.799  1.00 20.00    -0.253 NA
HETATM    8  N8  UNL     1     -36.426  14.621  -3.876  1.00 20.00    -0.241 NA
ENDROOT
TORSDOF 0
ENDMDL
