MODEL 1
REMARK VINA RESULT:      -5.3      0.000      0.000
REMARK  1 active torsions:
REMARK  status: ('A' for Active; 'I' for Inactive)
REMARK    1  A    between atoms: C8_8  and  C10_10 
ROOT
HETATM    1  C1  UNL     1     -25.178  18.880   9.172  1.00 20.00     0.028 A 
HETATM    2  C2  UNL     1     -24.625  18.873   7.899  1.00 20.00     0.120 A 
HETATM    3  C3  UNL     1     -23.041  18.053   9.931  1.00 20.00     0.029 A 
HETATM    4  C4  UNL     1     -24.353  18.455  10.193  1.00 20.00    -0.034 A 
HETATM    5  C5  UNL     1     -22.578  18.079   8.637  1.00 20.00     0.220 A 
HETATM    6  C6  UNL     1     -22.395  17.663  11.169  1.00 20.00     0.013 A 
HETATM    7  C7  UNL     1     -23.287  17.825  12.160  1.00 20.00    -0.016 A 
HETATM    8  C8  UNL     1     -24.624  18.348  11.668  1.00 20.00     0.042 A 
HETATM    9  N11 UNL     1     -23.354  18.484   7.605  1.00 20.00    -0.232 NA
HETATM   10  F12 UNL     1     -21.322  17.695   8.370  1.00 20.00    -0.183 F 
ENDROOT
BRANCH   8  11
HETATM   11  C10 UNL     1     -25.768  17.398  11.998  1.00 20.00     0.009 C 
HETATM   12  C9  UNL     1     -27.024  18.136  12.332  1.00 20.00     0.006 C 
ENDBRANCH   8  11
TORSDOF 1
ENDMDL
MODEL 2
REMARK VINA RESULT:      -5.2     15.859     16.703
REMARK  1 active torsions:
REMARK  status: ('A' for Active; 'I' for Inactive)
REMARK    1  A    between atoms: C8_8  and  C10_10 
ROOT
HETATM    1  C1  UNL     1     -34.057   4.956   3.141  1.00 20.00     0.028 A 
HETATM    2  C2  UNL     1     -34.918   4.596   4.168  1.00 20.00     0.120 A 
HETATM    3  C3  UNL     1     -33.359   6.768   4.576  1.00 20.00     0.029 A 
HETATM    4  C4  UNL     1     -33.273   6.069   3.369  1.00 20.00    -0.034 A 
HETATM    5  C5  UNL     1     -34.243   6.338   5.538  1.00 20.00     0.220 A 
HETATM    6  C6  UNL     1     -32.433   7.883   4.560  1.00 20.00     0.013 A 
HETATM    7  C7  UNL     1     -31.796   7.863   3.378  1.00 20.00    -0.016 A 
HETATM    8  C8  UNL     1     -32.242   6.718   2.488  1.00 20.00     0.042 A 
HETATM    9  N11 UNL     1     -35.033   5.255   5.354  1.00 20.00    -0.232 NA
HETATM   10  F12 UNL     1     -34.338   7.000   6.699  1.00 20.00    -0.183 F 
ENDROOT
BRANCH   8  11
HETATM   11  C10 UNL     1     -32.811   7.208   1.164  1.00 20.00     0.009 C 
HETATM   12  C9  UNL     1     -32.750   8.697   1.048  1.00 20.00     0.006 C 
ENDBRANCH   8  11
TORSDOF 1
ENDMDL
MODEL 3
REMARK VINA RESULT:      -5.2     14.800     16.558
REMARK  1 active torsions:
REMARK  status: ('A' for Active; 'I' for Inactive)
REMARK    1  A    between atoms: C8_8  and  C10_10 
ROOT
HETATM    1  C1  UNL     1     -35.418  16.816  -0.940  1.00 20.00     0.028 A 
HETATM    2  C2  UNL     1     -34.807  17.853  -0.250  1.00 20.00     0.120 A 
HETATM    3  C3  UNL     1     -33.448  16.797  -2.335  1.00 20.00     0.029 A 
HETATM    4  C4  UNL     1     -34.708  16.294  -2.002  1.00 20.00    -0.034 A 
HETATM    5  C5  UNL     1     -32.921  17.828  -1.594  1.00 20.00     0.220 A 
HETATM    6  C6  UNL     1     -32.922  16.075  -3.477  1.00 20.00     0.013 A 
HETATM    7  C7  UNL     1     -33.833  15.154  -3.828  1.00 20.00    -0.016 A 
HETATM    8  C8  UNL     1     -35.064  15.175  -2.942  1.00 20.00     0.042 A 
HETATM    9  N11 UNL     1     -33.584  18.373  -0.548  1.00 20.00    -0.232 NA
HETATM   10  F12 UNL     1     -31.714  18.323  -1.902  1.00 20.00    -0.183 F 
ENDROOT
BRANCH   8  11
HETATM   11  C10 UNL     1     -36.337  15.443  -3.733  1.00 20.00     0.009 C 
HETATM   12  C9  UNL     1     -36.823  14.217  -4.436  1.00 20.00     0.006 C 
ENDBRANCH   8  11
TORSDOF 1
ENDMDL
MODEL 4
REMARK VINA RESULT:      -5.2     15.022     16.656
REMARK  1 active torsions:
REMARK  status: ('A' for Active; 'I' for Inactive)
REMARK    1  A    between atoms: C8_8  and  C10_10 
ROOT
HETATM    1  C1  UNL     1     -35.870  15.274  -3.249  1.00 20.00     0.028 A 
HETATM    2  C2  UNL     1     -35.486  14.238  -4.089  1.00 20.00     0.120 A 
HETATM    3  C3  UNL     1     -33.534  15.882  -3.194  1.00 20.00     0.029 A 
HETATM    4  C4  UNL     1     -34.858  16.098  -2.802  1.00 20.00    -0.034 A 
HETATM    5  C5  UNL     1     -33.247  14.829  -4.030  1.00 20.00     0.220 A 
HETATM    6  C6  UNL     1     -32.679  16.885  -2.592  1.00 20.00     0.013 A 
HETATM    7  C7  UNL     1     -33.458  17.694  -1.856  1.00 20.00    -0.016 A 
HETATM    8  C8  UNL     1     -34.923  17.302  -1.903  1.00 20.00     0.042 A 
HETATM    9  N11 UNL     1     -34.207  13.993  -4.489  1.00 20.00    -0.232 NA
HETATM   10  F12 UNL     1     -31.982  14.608  -4.413  1.00 20.00    -0.183 F 
ENDROOT
BRANCH   8  11
HETATM   11  C10 UNL     1     -35.477  16.985  -0.520  1.00 20.00     0.009 C 
HETATM   12  C9  UNL     1     -34.767  17.746   0.552  1.00 20.00     0.006 C 
ENDBRANCH   8  11
TORSDOF 1
ENDMDL
MODEL 5
REMARK VINA RESULT:      -5.1     15.387     17.086
REMARK  1 active torsions:
REMARK  status: ('A' for Active; 'I' for Inactive)
REMARK    1  A    between atoms: C8_8  and  C10_10 
ROOT
HETATM    1  C1  UNL     1     -32.793  15.336  -3.975  1.00 20.00     0.028 A 
HETATM    2  C2  UNL     1     -33.432  14.390  -4.765  1.00 20.00     0.120 A 
HETATM    3  C3  UNL     1     -34.930  15.643  -2.894  1.00 20.00     0.029 A 
HETATM    4  C4  UNL     1     -33.576  15.964  -3.029  1.00 20.00    -0.034 A 
HETATM    5  C5  UNL     1     -35.478  14.692  -3.722  1.00 20.00     0.220 A 
HETATM    6  C6  UNL     1     -35.515  16.438  -1.833  1.00 20.00     0.013 A 
HETATM    7  C7  UNL     1     -34.546  17.221  -1.331  1.00 20.00    -0.016 A 
HETATM    8  C8  UNL     1     -33.209  17.015  -2.018  1.00 20.00     0.042 A 
HETATM    9  N11 UNL     1     -34.748  14.054  -4.666  1.00 20.00    -0.232 NA
HETATM   10  F12 UNL     1     -36.775  14.375  -3.605  1.00 20.00    -0.183 F 
ENDROOT
BRANCH   8  11
HETATM   11  C10 UNL     1     -32.685  18.296  -2.652  1.00 20.00     0.009 C 
HETATM   12  C9  UNL     1     -32.141  19.241  -1.629  1.00 20.00     0.006 C 
ENDBRANCH   8  11
TORSDOF 1
ENDMDL
MODEL 6
REMARK VINA RESULT:      -4.9     17.009     18.467
REMARK  1 active torsions:
REMARK  status: ('A' for Active; 'I' for Inactive)
REMARK    1  A    between atoms: C8_8  and  C10_10 
ROOT
HETATM    1  C1  UNL     1     -34.943  13.936  -3.864  1.00 20.00     0.028 A 
HETATM    2  C2  UNL     1     -35.981  13.390  -4.605  1.00 20.00     0.120 A 
HETATM    3  C3  UNL     1     -36.432  15.790  -3.443  1.00 20.00     0.029 A 
HETATM    4  C4  UNL     1     -35.194  15.162  -3.282  1.00 20.00    -0.034 A 
HETATM    5  C5  UNL     1     -37.403  15.173  -4.196  1.00 20.00     0.220 A 
HETATM    6  C6  UNL     1     -36.434  17.052  -2.731  1.00 20.00     0.013 A 
HETATM    7  C7  UNL     1     -35.233  17.191  -2.148  1.00 20.00    -0.016 A 
HETATM    8  C8  UNL     1     -34.309  16.018  -2.419  1.00 20.00     0.042 A 
HETATM    9  N11 UNL     1     -37.198  13.973  -4.788  1.00 20.00    -0.232 NA
HETATM   10  F12 UNL     1     -38.595  15.763  -4.361  1.00 20.00    -0.183 F 
ENDROOT
BRANCH   8  11
HETATM   11  C10 UNL     1     -33.026  16.446  -3.119  1.00 20.00     0.009 C 
HETATM   12  C9  UNL     1     -32.866  17.932  -3.126  1.00 20.00     0.006 C 
ENDBRANCH   8  11
TORSDOF 1
ENDMDL
MODEL 7
REMARK VINA RESULT:      -4.9     16.611     18.320
REMARK  1 active torsions:
REMARK  status: ('A' for Active; 'I' for Inactive)
REMARK    1  A    between atoms: C8_8  and  C10_10 
ROOT
HETATM    1  C1  UNL     1     -37.168  16.339  -3.775  1.00 20.00     0.028 A 
HETATM    2  C2  UNL     1     -38.008  15.312  -4.182  1.00 20.00     0.120 A 
HETATM    3  C3  UNL     1     -35.382  14.722  -3.926  1.00 20.00     0.029 A 
HETATM    4  C4  UNL     1     -35.833  16.015  -3.649  1.00 20.00    -0.034 A 
HETATM    5  C5  UNL     1     -36.288  13.767  -4.324  1.00 20.00     0.220 A 
HETATM    6  C6  UNL     1     -33.948  14.652  -3.721  1.00 20.00     0.013 A 
HETATM    7  C7  UNL     1     -33.535  15.869  -3.333  1.00 20.00    -0.016 A 
HETATM    8  C8  UNL     1     -34.667  16.875  -3.245  1.00 20.00     0.042 A 
HETATM    9  N11 UNL     1     -37.607  14.040  -4.457  1.00 20.00    -0.232 NA
HETATM   10  F12 UNL     1     -35.870  12.522  -4.592  1.00 20.00    -0.183 F 
ENDROOT
BRANCH   8  11
HETATM   11  C10 UNL     1     -34.811  17.457  -1.846  1.00 20.00     0.009 C 
HETATM   12  C9  UNL     1     -33.483  17.754  -1.227  1.00 20.00     0.006 C 
ENDBRANCH   8  11
TORSDOF 1
ENDMDL
MODEL 8
REMARK VINA RESULT:      -4.7     13.422     15.421
REMARK  1 active torsions:
REMARK  status: ('A' for Active; 'I' for Inactive)
REMARK    1  A    between atoms: C8_8  and  C10_10 
ROOT
HETATM    1  C1  UNL     1     -32.114  18.312  -1.776  1.00 20.00     0.028 A 
HETATM    2  C2  UNL     1     -31.689  18.903  -0.595  1.00 20.00     0.120 A 
HETATM    3  C3  UNL     1     -34.066  17.617  -0.537  1.00 20.00     0.029 A 
HETATM    4  C4  UNL     1     -33.329  17.659  -1.723  1.00 20.00    -0.034 A 
HETATM    5  C5  UNL     1     -33.565  18.231   0.586  1.00 20.00     0.220 A 
HETATM    6  C6  UNL     1     -35.295  16.879  -0.754  1.00 20.00     0.013 A 
HETATM    7  C7  UNL     1     -35.310  16.485  -2.037  1.00 20.00    -0.016 A 
HETATM    8  C8  UNL     1     -34.079  16.931  -2.804  1.00 20.00     0.042 A 
HETATM    9  N11 UNL     1     -32.377  18.879   0.580  1.00 20.00    -0.232 NA
HETATM   10  F12 UNL     1     -34.260  18.198   1.731  1.00 20.00    -0.183 F 
ENDROOT
BRANCH   8  11
HETATM   11  C10 UNL     1     -33.303  15.754  -3.380  1.00 20.00     0.009 C 
HETATM   12  C9  UNL     1     -34.213  14.681  -3.883  1.00 20.00     0.006 C 
ENDBRANCH   8  11
TORSDOF 1
ENDMDL
MODEL 9
REMARK VINA RESULT:      -4.7     16.569     18.392
REMARK  1 active torsions:
REMARK  status: ('A' for Active; 'I' for Inactive)
REMARK    1  A    between atoms: C8_8  and  C10_10 
ROOT
HETATM    1  C1  UNL     1     -34.012  15.482  -5.895  1.00 20.00     0.028 A 
HETATM    2  C2  UNL     1     -35.012  14.808  -6.583  1.00 20.00     0.120 A 
HETATM    3  C3  UNL     1     -35.380  15.174  -3.929  1.00 20.00     0.029 A 
HETATM    4  C4  UNL     1     -34.222  15.660  -4.543  1.00 20.00    -0.034 A 
HETATM    5  C5  UNL     1     -36.317  14.517  -4.691  1.00 20.00     0.220 A 
HETATM    6  C6  UNL     1     -35.349  15.487  -2.514  1.00 20.00     0.013 A 
HETATM    7  C7  UNL     1     -34.203  16.142  -2.269  1.00 20.00    -0.016 A 
HETATM    8  C8  UNL     1     -33.353  16.326  -3.512  1.00 20.00     0.042 A 
HETATM    9  N11 UNL     1     -36.154  14.325  -6.021  1.00 20.00    -0.232 NA
HETATM   10  F12 UNL     1     -37.433  14.047  -4.118  1.00 20.00    -0.183 F 
ENDROOT
BRANCH   8  11
HETATM   11  C10 UNL     1     -33.088  17.795  -3.815  1.00 20.00     0.009 C 
HETATM   12  C9  UNL     1     -32.539  18.517  -2.627  1.00 20.00     0.006 C 
ENDBRANCH   8  11
TORSDOF 1
ENDMDL
