MODEL 1
REMARK VINA RESULT:      -4.4      0.000      0.000
REMARK  3 active torsions:
REMARK  status: ('A' for Active; 'I' for Inactive)
REMARK    1  A    between atoms: C3_3  and  C7_7 
REMARK    2  A    between atoms: C4_4  and  O11_11 
REMARK    3  A    between atoms: C7_7  and  C8_8 
ROOT
HETATM    1  C1  UNL     1     -34.949  16.231  -4.981  1.00 20.00     0.180 C 
HETATM    2  C2  UNL     1     -33.816  14.096  -4.361  1.00 20.00     0.180 C 
HETATM    3  C3  UNL     1     -33.793  15.618  -4.185  1.00 20.00     0.034 C 
HETATM    4  C4  UNL     1     -36.124  14.193  -4.834  1.00 20.00     0.412 C 
HETATM    5  O9  UNL     1     -36.186  15.609  -4.636  1.00 20.00    -0.339 OA
HETATM    6  O10 UNL     1     -35.105  13.571  -4.045  1.00 20.00    -0.339 OA
ENDROOT
BRANCH   3   7
HETATM    7  C7  UNL     1     -33.908  15.987  -2.702  1.00 20.00     0.008 C 
BRANCH   7   8
HETATM    8  C8  UNL     1     -33.004  17.166  -2.351  1.00 20.00    -0.004 C 
HETATM    9  C5  UNL     1     -33.499  17.894  -1.111  1.00 20.00     0.005 C 
ENDBRANCH   7   8
ENDBRANCH   3   7
BRANCH   4  10
HETATM   10  O11 UNL     1     -37.390  13.611  -4.526  1.00 20.00    -0.344 OA
HETATM   11  C6  UNL     1     -38.364  14.606  -4.259  1.00 20.00     0.207 C 
ENDBRANCH   4  10
TORSDOF 3
ENDMDL
MODEL 2
REMARK VINA RESULT:      -4.2      1.828      3.056
REMARK  3 active torsions:
REMARK  status: ('A' for Active; 'I' for Inactive)
REMARK    1  A    between atoms: C3_3  and  C7_7 
REMARK    2  A    between atoms: C4_4  and  O11_11 
REMARK    3  A    between atoms: C7_7  and  C8_8 
ROOT
HETATM    1  C1  UNL     1     -36.301  13.737  -4.680  1.00 20.00     0.180 C 
HETATM    2  C2  UNL     1     -36.446  16.225  -4.569  1.00 20.00     0.180 C 
HETATM    3  C3  UNL     1     -36.093  14.959  -3.782  1.00 20.00     0.034 C 
HETATM    4  C4  UNL     1     -35.989  15.090  -6.585  1.00 20.00     0.412 C 
HETATM    5  O9  UNL     1     -35.598  13.889  -5.912  1.00 20.00    -0.339 OA
HETATM    6  O10 UNL     1     -35.736  16.264  -5.807  1.00 20.00    -0.339 OA
ENDROOT
BRANCH   3   7
HETATM    7  C7  UNL     1     -34.643  15.021  -3.290  1.00 20.00     0.008 C 
BRANCH   7   8
HETATM    8  C8  UNL     1     -34.452  16.132  -2.259  1.00 20.00    -0.004 C 
HETATM    9  C5  UNL     1     -33.169  16.908  -2.510  1.00 20.00     0.005 C 
ENDBRANCH   7   8
ENDBRANCH   3   7
BRANCH   4  10
HETATM   10  O11 UNL     1     -35.303  15.186  -7.832  1.00 20.00    -0.344 OA
HETATM   11  C6  UNL     1     -33.903  15.306  -7.643  1.00 20.00     0.207 C 
ENDBRANCH   4  10
TORSDOF 3
ENDMDL
MODEL 3
REMARK VINA RESULT:      -4.1      1.813      2.351
REMARK  3 active torsions:
REMARK  status: ('A' for Active; 'I' for Inactive)
REMARK    1  A    between atoms: C3_3  and  C7_7 
REMARK    2  A    between atoms: C4_4  and  O11_11 
REMARK    3  A    between atoms: C7_7  and  C8_8 
ROOT
HETATM    1  C1  UNL     1     -33.844  14.752  -4.880  1.00 20.00     0.180 C 
HETATM    2  C2  UNL     1     -35.981  13.509  -4.545  1.00 20.00     0.180 C 
HETATM    3  C3  UNL     1     -34.857  14.271  -3.837  1.00 20.00     0.034 C 
HETATM    4  C4  UNL     1     -35.526  14.696  -6.531  1.00 20.00     0.412 C 
HETATM    5  O9  UNL     1     -34.497  15.480  -5.919  1.00 20.00    -0.339 OA
HETATM    6  O10 UNL     1     -36.536  14.293  -5.601  1.00 20.00    -0.339 OA
ENDROOT
BRANCH   3   7
HETATM    7  C7  UNL     1     -35.426  15.459  -3.055  1.00 20.00     0.008 C 
BRANCH   7   8
HETATM    8  C8  UNL     1     -34.330  16.200  -2.292  1.00 20.00    -0.004 C 
HETATM    9  C5  UNL     1     -34.903  16.990  -1.126  1.00 20.00     0.005 C 
ENDBRANCH   7   8
ENDBRANCH   3   7
BRANCH   4  10
HETATM   10  O11 UNL     1     -36.123  15.436  -7.594  1.00 20.00    -0.344 OA
HETATM   11  C6  UNL     1     -36.925  16.496  -7.100  1.00 20.00     0.207 C 
ENDBRANCH   4  10
TORSDOF 3
ENDMDL
MODEL 4
REMARK VINA RESULT:      -4.1      1.951      2.063
REMARK  3 active torsions:
REMARK  status: ('A' for Active; 'I' for Inactive)
REMARK    1  A    between atoms: C3_3  and  C7_7 
REMARK    2  A    between atoms: C4_4  and  O11_11 
REMARK    3  A    between atoms: C7_7  and  C8_8 
ROOT
HETATM    1  C1  UNL     1     -34.323  16.958  -4.629  1.00 20.00     0.180 C 
HETATM    2  C2  UNL     1     -33.053  14.862  -4.163  1.00 20.00     0.180 C 
HETATM    3  C3  UNL     1     -33.684  16.106  -3.530  1.00 20.00     0.034 C 
HETATM    4  C4  UNL     1     -34.546  15.038  -5.979  1.00 20.00     0.412 C 
HETATM    5  O9  UNL     1     -35.215  16.174  -5.422  1.00 20.00    -0.339 OA
HETATM    6  O10 UNL     1     -34.001  14.173  -4.978  1.00 20.00    -0.339 OA
ENDROOT
BRANCH   3   7
HETATM    7  C7  UNL     1     -34.731  15.702  -2.487  1.00 20.00     0.008 C 
BRANCH   7   8
HETATM    8  C8  UNL     1     -35.017  16.844  -1.513  1.00 20.00    -0.004 C 
HETATM    9  C5  UNL     1     -33.738  17.560  -1.109  1.00 20.00     0.005 C 
ENDBRANCH   7   8
ENDBRANCH   3   7
BRANCH   4  10
HETATM   10  O11 UNL     1     -35.452  14.305  -6.802  1.00 20.00    -0.344 OA
HETATM   11  C6  UNL     1     -35.876  15.074  -7.916  1.00 20.00     0.207 C 
ENDBRANCH   4  10
TORSDOF 3
ENDMDL
MODEL 5
REMARK VINA RESULT:      -4.1     17.731     18.811
REMARK  3 active torsions:
REMARK  status: ('A' for Active; 'I' for Inactive)
REMARK    1  A    between atoms: C3_3  and  C7_7 
REMARK    2  A    between atoms: C4_4  and  O11_11 
REMARK    3  A    between atoms: C7_7  and  C8_8 
ROOT
HETATM    1  C1  UNL     1     -24.189  16.703  10.254  1.00 20.00     0.180 C 
HETATM    2  C2  UNL     1     -22.677  17.479  12.081  1.00 20.00     0.180 C 
HETATM    3  C3  UNL     1     -22.739  17.038  10.615  1.00 20.00     0.034 C 
HETATM    4  C4  UNL     1     -24.940  18.132  11.972  1.00 20.00     0.412 C 
HETATM    5  O9  UNL     1     -25.055  17.787  10.588  1.00 20.00    -0.339 OA
HETATM    6  O10 UNL     1     -23.612  18.528  12.332  1.00 20.00    -0.339 OA
ENDROOT
BRANCH   3   7
HETATM    7  C7  UNL     1     -22.199  18.142   9.700  1.00 20.00     0.008 C 
BRANCH   7   8
HETATM    8  C8  UNL     1     -22.502  17.846   8.232  1.00 20.00    -0.004 C 
HETATM    9  C5  UNL     1     -21.317  17.189   7.543  1.00 20.00     0.005 C 
ENDBRANCH   7   8
ENDBRANCH   3   7
BRANCH   4  10
HETATM   10  O11 UNL     1     -25.852  19.185  12.281  1.00 20.00    -0.344 OA
HETATM   11  C6  UNL     1     -27.085  19.016  11.600  1.00 20.00     0.207 C 
ENDBRANCH   4  10
TORSDOF 3
ENDMDL
MODEL 6
REMARK VINA RESULT:      -4.0      3.891      6.169
REMARK  3 active torsions:
REMARK  status: ('A' for Active; 'I' for Inactive)
REMARK    1  A    between atoms: C3_3  and  C7_7 
REMARK    2  A    between atoms: C4_4  and  O11_11 
REMARK    3  A    between atoms: C7_7  and  C8_8 
ROOT
HETATM    1  C1  UNL     1     -32.989  18.915  -2.738  1.00 20.00     0.180 C 
HETATM    2  C2  UNL     1     -33.991  18.105  -0.602  1.00 20.00     0.180 C 
HETATM    3  C3  UNL     1     -33.989  17.932  -2.124  1.00 20.00     0.034 C 
HETATM    4  C4  UNL     1     -31.798  18.965  -0.704  1.00 20.00     0.412 C 
HETATM    5  O9  UNL     1     -31.709  18.784  -2.121  1.00 20.00    -0.339 OA
HETATM    6  O10 UNL     1     -32.665  18.012  -0.081  1.00 20.00    -0.339 OA
ENDROOT
BRANCH   3   7
HETATM    7  C7  UNL     1     -33.624  16.491  -2.498  1.00 20.00     0.008 C 
BRANCH   7   8
HETATM    8  C8  UNL     1     -34.872  15.626  -2.661  1.00 20.00    -0.004 C 
HETATM    9  C5  UNL     1     -34.667  14.550  -3.716  1.00 20.00     0.005 C 
ENDBRANCH   7   8
ENDBRANCH   3   7
BRANCH   4  10
HETATM   10  O11 UNL     1     -30.497  18.876  -0.127  1.00 20.00    -0.344 OA
HETATM   11  C6  UNL     1     -30.561  18.475   1.232  1.00 20.00     0.207 C 
ENDBRANCH   4  10
TORSDOF 3
ENDMDL
MODEL 7
REMARK VINA RESULT:      -4.0     16.224     18.348
REMARK  3 active torsions:
REMARK  status: ('A' for Active; 'I' for Inactive)
REMARK    1  A    between atoms: C3_3  and  C7_7 
REMARK    2  A    between atoms: C4_4  and  O11_11 
REMARK    3  A    between atoms: C7_7  and  C8_8 
ROOT
HETATM    1  C1  UNL     1     -23.157  16.623   9.315  1.00 20.00     0.180 C 
HETATM    2  C2  UNL     1     -22.326  18.090  11.154  1.00 20.00     0.180 C 
HETATM    3  C3  UNL     1     -22.605  18.012   9.650  1.00 20.00     0.034 C 
HETATM    4  C4  UNL     1     -23.927  16.401  11.532  1.00 20.00     0.412 C 
HETATM    5  O9  UNL     1     -24.274  16.310  10.147  1.00 20.00    -0.339 OA
HETATM    6  O10 UNL     1     -23.480  17.709  11.902  1.00 20.00    -0.339 OA
ENDROOT
BRANCH   3   7
HETATM    7  C7  UNL     1     -23.601  19.099   9.233  1.00 20.00     0.008 C 
BRANCH   7   8
HETATM    8  C8  UNL     1     -24.047  18.919   7.783  1.00 20.00    -0.004 C 
HETATM    9  C5  UNL     1     -25.560  19.008   7.654  1.00 20.00     0.005 C 
ENDBRANCH   7   8
ENDBRANCH   3   7
BRANCH   4  10
HETATM   10  O11 UNL     1     -25.050  16.036  12.332  1.00 20.00    -0.344 OA
HETATM   11  C6  UNL     1     -26.053  17.038  12.303  1.00 20.00     0.207 C 
ENDBRANCH   4  10
TORSDOF 3
ENDMDL
MODEL 8
REMARK VINA RESULT:      -4.0      1.937      2.976
REMARK  3 active torsions:
REMARK  status: ('A' for Active; 'I' for Inactive)
REMARK    1  A    between atoms: C3_3  and  C7_7 
REMARK    2  A    between atoms: C4_4  and  O11_11 
REMARK    3  A    between atoms: C7_7  and  C8_8 
ROOT
HETATM    1  C1  UNL     1     -34.439  14.198  -3.814  1.00 20.00     0.180 C 
HETATM    2  C2  UNL     1     -35.415  16.455  -4.232  1.00 20.00     0.180 C 
HETATM    3  C3  UNL     1     -34.658  15.591  -3.219  1.00 20.00     0.034 C 
HETATM    4  C4  UNL     1     -34.595  15.107  -5.984  1.00 20.00     0.412 C 
HETATM    5  O9  UNL     1     -33.823  14.289  -5.099  1.00 20.00    -0.339 OA
HETATM    6  O10 UNL     1     -34.756  16.443  -5.498  1.00 20.00    -0.339 OA
ENDROOT
BRANCH   3   7
HETATM    7  C7  UNL     1     -33.317  16.238  -2.860  1.00 20.00     0.008 C 
BRANCH   7   8
HETATM    8  C8  UNL     1     -33.507  17.432  -1.926  1.00 20.00    -0.004 C 
HETATM    9  C5  UNL     1     -32.176  18.078  -1.575  1.00 20.00     0.005 C 
ENDBRANCH   7   8
ENDBRANCH   3   7
BRANCH   4  10
HETATM   10  O11 UNL     1     -33.976  15.136  -7.269  1.00 20.00    -0.344 OA
HETATM   11  C6  UNL     1     -34.043  16.431  -7.844  1.00 20.00     0.207 C 
ENDBRANCH   4  10
TORSDOF 3
ENDMDL
MODEL 9
REMARK VINA RESULT:      -4.0      1.291      1.856
REMARK  3 active torsions:
REMARK  status: ('A' for Active; 'I' for Inactive)
REMARK    1  A    between atoms: C3_3  and  C7_7 
REMARK    2  A    between atoms: C4_4  and  O11_11 
REMARK    3  A    between atoms: C7_7  and  C8_8 
ROOT
HETATM    1  C1  UNL     1     -36.199  16.111  -5.033  1.00 20.00     0.180 C 
HETATM    2  C2  UNL     1     -36.067  13.624  -4.890  1.00 20.00     0.180 C 
HETATM    3  C3  UNL     1     -35.276  14.927  -4.735  1.00 20.00     0.034 C 
HETATM    4  C4  UNL     1     -38.066  14.795  -4.453  1.00 20.00     0.412 C 
HETATM    5  O9  UNL     1     -37.386  16.037  -4.245  1.00 20.00    -0.339 OA
HETATM    6  O10 UNL     1     -37.261  13.663  -4.109  1.00 20.00    -0.339 OA
ENDROOT
BRANCH   3   7
HETATM    7  C7  UNL     1     -34.700  15.038  -3.319  1.00 20.00     0.008 C 
BRANCH   7   8
HETATM    8  C8  UNL     1     -33.418  15.868  -3.303  1.00 20.00    -0.004 C 
HETATM    9  C5  UNL     1     -33.474  16.954  -2.240  1.00 20.00     0.005 C 
ENDBRANCH   7   8
ENDBRANCH   3   7
BRANCH   4  10
HETATM   10  O11 UNL     1     -39.271  14.775  -3.688  1.00 20.00    -0.344 OA
HETATM   11  C6  UNL     1     -40.235  15.667  -4.220  1.00 20.00     0.207 C 
ENDBRANCH   4  10
TORSDOF 3
ENDMDL
