MODEL 1
REMARK VINA RESULT:      -5.4      0.000      0.000
REMARK  0 active torsions:
REMARK  status: ('A' for Active; 'I' for Inactive)
ROOT
HETATM    1  C1  UNL     1     -32.322   7.722   3.845  1.00 20.00     0.027 C 
HETATM    2  C2  UNL     1     -32.152   7.011   2.603  1.00 20.00     0.027 C 
HETATM    3  C3  UNL     1     -33.257   7.036   4.608  1.00 20.00     0.012 C 
HETATM    4  C4  UNL     1     -32.993   5.931   2.664  1.00 20.00     0.012 C 
HETATM    5  C5  UNL     1     -33.714   7.095   6.024  1.00 20.00     0.057 C 
HETATM    6  C6  UNL     1     -33.349   4.663   1.992  1.00 20.00     0.059 C 
HETATM    7  C7  UNL     1     -34.811   6.048   6.334  1.00 20.00     0.008 C 
HETATM    8  C8  UNL     1     -34.029   3.875   3.161  1.00 20.00     0.032 C 
HETATM    9  C9  UNL     1     -34.612   4.708   5.589  1.00 20.00     0.026 C 
HETATM   10  C10 UNL     1     -34.619   4.959   4.084  1.00 20.00     0.090 C 
HETATM   11  N11 UNL     1     -33.726   6.070   3.794  1.00 20.00    -0.349 N 
ENDROOT
TORSDOF 0
ENDMDL
MODEL 2
REMARK VINA RESULT:      -5.0     16.368     16.776
REMARK  0 active torsions:
REMARK  status: ('A' for Active; 'I' for Inactive)
ROOT
HETATM    1  C1  UNL     1     -25.563  19.263   8.835  1.00 20.00     0.027 C 
HETATM    2  C2  UNL     1     -24.618  18.984   7.783  1.00 20.00     0.027 C 
HETATM    3  C3  UNL     1     -25.091  18.679  10.002  1.00 20.00     0.012 C 
HETATM    4  C4  UNL     1     -23.619  18.242   8.356  1.00 20.00     0.012 C 
HETATM    5  C5  UNL     1     -25.448  18.764  11.446  1.00 20.00     0.057 C 
HETATM    6  C6  UNL     1     -22.267  17.690   8.124  1.00 20.00     0.059 C 
HETATM    7  C7  UNL     1     -24.543  17.871  12.331  1.00 20.00     0.008 C 
HETATM    8  C8  UNL     1     -21.759  17.492   9.591  1.00 20.00     0.032 C 
HETATM    9  C9  UNL     1     -23.076  17.812  11.848  1.00 20.00     0.026 C 
HETATM   10  C10 UNL     1     -23.033  17.256  10.427  1.00 20.00     0.090 C 
HETATM   11  N11 UNL     1     -24.014  17.964   9.620  1.00 20.00    -0.349 N 
ENDROOT
TORSDOF 0
ENDMDL
MODEL 3
REMARK VINA RESULT:      -4.8     16.289     16.803
REMARK  0 active torsions:
REMARK  status: ('A' for Active; 'I' for Inactive)
ROOT
HETATM    1  C1  UNL     1     -22.098  17.255   9.508  1.00 20.00     0.027 C 
HETATM    2  C2  UNL     1     -22.450  17.731   8.193  1.00 20.00     0.027 C 
HETATM    3  C3  UNL     1     -23.048  17.725  10.403  1.00 20.00     0.012 C 
HETATM    4  C4  UNL     1     -23.592  18.471   8.348  1.00 20.00     0.012 C 
HETATM    5  C5  UNL     1     -23.398  17.437  11.821  1.00 20.00     0.057 C 
HETATM    6  C6  UNL     1     -24.679  19.147   7.609  1.00 20.00     0.059 C 
HETATM    7  C7  UNL     1     -24.599  18.280  12.316  1.00 20.00     0.008 C 
HETATM    8  C8  UNL     1     -25.804  19.201   8.697  1.00 20.00     0.032 C 
HETATM    9  C9  UNL     1     -25.678  18.509  11.233  1.00 20.00     0.026 C 
HETATM   10  C10 UNL     1     -25.056  19.236  10.044  1.00 20.00     0.090 C 
HETATM   11  N11 UNL     1     -23.821  18.560   9.680  1.00 20.00    -0.349 N 
ENDROOT
TORSDOF 0
ENDMDL
MODEL 4
REMARK VINA RESULT:      -4.7     16.443     17.015
REMARK  0 active torsions:
REMARK  status: ('A' for Active; 'I' for Inactive)
ROOT
HETATM    1  C1  UNL     1     -25.736  19.263   9.120  1.00 20.00     0.027 C 
HETATM    2  C2  UNL     1     -26.066  19.092  10.513  1.00 20.00     0.027 C 
HETATM    3  C3  UNL     1     -24.458  18.762   8.917  1.00 20.00     0.012 C 
HETATM    4  C4  UNL     1     -24.974  18.501  11.093  1.00 20.00     0.012 C 
HETATM    5  C5  UNL     1     -23.628  18.437   7.725  1.00 20.00     0.057 C 
HETATM    6  C6  UNL     1     -24.493  17.849  12.330  1.00 20.00     0.059 C 
HETATM    7  C7  UNL     1     -22.236  17.876   8.109  1.00 20.00     0.008 C 
HETATM    8  C8  UNL     1     -23.293  17.004  11.787  1.00 20.00     0.032 C 
HETATM    9  C9  UNL     1     -22.261  16.975   9.365  1.00 20.00     0.026 C 
HETATM   10  C10 UNL     1     -22.786  17.777  10.553  1.00 20.00     0.090 C 
HETATM   11  N11 UNL     1     -24.004  18.463  10.150  1.00 20.00    -0.349 N 
ENDROOT
TORSDOF 0
ENDMDL
MODEL 5
REMARK VINA RESULT:      -4.6     16.419     16.971
REMARK  0 active torsions:
REMARK  status: ('A' for Active; 'I' for Inactive)
ROOT
HETATM    1  C1  UNL     1     -24.050  18.737   8.414  1.00 20.00     0.027 C 
HETATM    2  C2  UNL     1     -25.390  19.251   8.554  1.00 20.00     0.027 C 
HETATM    3  C3  UNL     1     -23.608  18.345   9.669  1.00 20.00     0.012 C 
HETATM    4  C4  UNL     1     -25.699  19.152   9.885  1.00 20.00     0.012 C 
HETATM    5  C5  UNL     1     -22.452  17.559  10.185  1.00 20.00     0.057 C 
HETATM    6  C6  UNL     1     -26.805  19.263  10.860  1.00 20.00     0.059 C 
HETATM    7  C7  UNL     1     -22.473  17.421  11.727  1.00 20.00     0.008 C 
HETATM    8  C8  UNL     1     -26.261  18.395  12.044  1.00 20.00     0.032 C 
HETATM    9  C9  UNL     1     -23.896  17.272  12.312  1.00 20.00     0.026 C 
HETATM   10  C10 UNL     1     -24.726  18.498  11.943  1.00 20.00     0.090 C 
HETATM   11  N11 UNL     1     -24.571  18.753  10.519  1.00 20.00    -0.349 N 
ENDROOT
TORSDOF 0
ENDMDL
MODEL 6
REMARK VINA RESULT:      -4.4     12.105     13.139
REMARK  0 active torsions:
REMARK  status: ('A' for Active; 'I' for Inactive)
ROOT
HETATM    1  C1  UNL     1     -35.525  17.205   0.520  1.00 20.00     0.027 C 
HETATM    2  C2  UNL     1     -34.615  18.027   1.280  1.00 20.00     0.027 C 
HETATM    3  C3  UNL     1     -34.998  17.046  -0.754  1.00 20.00     0.012 C 
HETATM    4  C4  UNL     1     -33.582  18.333   0.434  1.00 20.00     0.012 C 
HETATM    5  C5  UNL     1     -35.301  16.173  -1.921  1.00 20.00     0.057 C 
HETATM    6  C6  UNL     1     -32.231  18.931   0.376  1.00 20.00     0.059 C 
HETATM    7  C7  UNL     1     -34.348  16.430  -3.114  1.00 20.00     0.008 C 
HETATM    8  C8  UNL     1     -31.664  18.284  -0.932  1.00 20.00     0.032 C 
HETATM    9  C9  UNL     1     -32.899  16.758  -2.685  1.00 20.00     0.026 C 
HETATM   10  C10 UNL     1     -32.900  18.008  -1.810  1.00 20.00     0.090 C 
HETATM   11  N11 UNL     1     -33.924  17.860  -0.788  1.00 20.00    -0.349 N 
ENDROOT
TORSDOF 0
ENDMDL
MODEL 7
REMARK VINA RESULT:      -4.4     15.669     16.227
REMARK  0 active torsions:
REMARK  status: ('A' for Active; 'I' for Inactive)
ROOT
HETATM    1  C1  UNL     1     -24.426  15.992  11.393  1.00 20.00     0.027 C 
HETATM    2  C2  UNL     1     -23.553  16.248  10.275  1.00 20.00     0.027 C 
HETATM    3  C3  UNL     1     -25.288  17.072  11.519  1.00 20.00     0.012 C 
HETATM    4  C4  UNL     1     -23.919  17.470   9.776  1.00 20.00     0.012 C 
HETATM    5  C5  UNL     1     -26.532  17.347  12.291  1.00 20.00     0.057 C 
HETATM    6  C6  UNL     1     -23.724  18.397   8.641  1.00 20.00     0.059 C 
HETATM    7  C7  UNL     1     -27.091  18.766  12.024  1.00 20.00     0.008 C 
HETATM    8  C8  UNL     1     -25.026  19.263   8.723  1.00 20.00     0.032 C 
HETATM    9  C9  UNL     1     -26.911  19.233  10.561  1.00 20.00     0.026 C 
HETATM   10  C10 UNL     1     -25.425  19.244  10.212  1.00 20.00     0.090 C 
HETATM   11  N11 UNL     1     -24.840  17.979  10.628  1.00 20.00    -0.349 N 
ENDROOT
TORSDOF 0
ENDMDL
MODEL 8
REMARK VINA RESULT:      -4.4      0.604      3.572
REMARK  0 active torsions:
REMARK  status: ('A' for Active; 'I' for Inactive)
ROOT
HETATM    1  C1  UNL     1     -33.638   4.375   2.552  1.00 20.00     0.027 C 
HETATM    2  C2  UNL     1     -34.427   3.957   3.684  1.00 20.00     0.027 C 
HETATM    3  C3  UNL     1     -33.202   5.671   2.789  1.00 20.00     0.012 C 
HETATM    4  C4  UNL     1     -34.439   5.016   4.553  1.00 20.00     0.012 C 
HETATM    5  C5  UNL     1     -32.206   6.582   2.159  1.00 20.00     0.057 C 
HETATM    6  C6  UNL     1     -34.814   5.425   5.923  1.00 20.00     0.059 C 
HETATM    7  C7  UNL     1     -32.127   7.954   2.874  1.00 20.00     0.008 C 
HETATM    8  C8  UNL     1     -33.890   6.671   6.137  1.00 20.00     0.032 C 
HETATM    9  C9  UNL     1     -32.301   7.859   4.407  1.00 20.00     0.026 C 
HETATM   10  C10 UNL     1     -33.662   7.246   4.725  1.00 20.00     0.090 C 
HETATM   11  N11 UNL     1     -33.832   6.047   3.919  1.00 20.00    -0.349 N 
ENDROOT
TORSDOF 0
ENDMDL
MODEL 9
REMARK VINA RESULT:      -4.3     12.161     12.737
REMARK  0 active torsions:
REMARK  status: ('A' for Active; 'I' for Inactive)
ROOT
HETATM    1  C1  UNL     1     -31.640  18.695   0.639  1.00 20.00     0.027 C 
HETATM    2  C2  UNL     1     -31.302  18.329  -0.714  1.00 20.00     0.027 C 
HETATM    3  C3  UNL     1     -32.996  18.463   0.820  1.00 20.00     0.012 C 
HETATM    4  C4  UNL     1     -32.465  17.897  -1.294  1.00 20.00     0.012 C 
HETATM    5  C5  UNL     1     -33.913  18.417   1.992  1.00 20.00     0.057 C 
HETATM    6  C6  UNL     1     -33.019  17.229  -2.491  1.00 20.00     0.059 C 
HETATM    7  C7  UNL     1     -35.372  18.091   1.588  1.00 20.00     0.008 C 
HETATM    8  C8  UNL     1     -34.377  16.680  -1.937  1.00 20.00     0.032 C 
HETATM    9  C9  UNL     1     -35.476  17.082   0.421  1.00 20.00     0.026 C 
HETATM   10  C10 UNL     1     -34.769  17.651  -0.805  1.00 20.00     0.090 C 
HETATM   11  N11 UNL     1     -33.457  18.134  -0.403  1.00 20.00    -0.349 N 
ENDROOT
TORSDOF 0
ENDMDL
