MODEL 1
REMARK VINA RESULT:      -4.2      0.000      0.000
REMARK  1 active torsions:
REMARK  status: ('A' for Active; 'I' for Inactive)
REMARK    1  A    between atoms: C1_1  and  C4_4 
ROOT
HETATM    1  C2  UNL     1     -33.440  14.345  -4.402  1.00 20.00     0.041 A 
HETATM    2  C3  UNL     1     -34.161  15.432  -5.136  1.00 20.00     0.100 A 
HETATM    3  C4  UNL     1     -34.846  14.729  -3.982  1.00 20.00     0.050 A 
HETATM    4  C5  UNL     1     -34.990  15.510  -2.700  1.00 20.00     0.026 C 
HETATM    5 CL8  UNL     1     -34.645  15.167  -6.792  1.00 20.00    -0.124 Cl
ENDROOT
BRANCH   3   6
HETATM    6  C1  UNL     1     -35.919  13.751  -4.277  1.00 20.00     0.228 C 
HETATM    7  O6  UNL     1     -35.684  12.553  -4.396  1.00 20.00    -0.279 OA
HETATM    8 CL7  UNL     1     -37.474  14.512  -4.423  1.00 20.00    -0.043 Cl
ENDBRANCH   3   6
TORSDOF 1
ENDMDL
MODEL 2
REMARK VINA RESULT:      -3.8     18.757     19.346
REMARK  1 active torsions:
REMARK  status: ('A' for Active; 'I' for Inactive)
REMARK    1  A    between atoms: C1_1  and  C4_4 
ROOT
HETATM    1  C2  UNL     1     -23.079  16.924   9.832  1.00 20.00     0.041 A 
HETATM    2  C3  UNL     1     -23.288  18.406   9.862  1.00 20.00     0.100 A 
HETATM    3  C4  UNL     1     -23.445  17.604  11.137  1.00 20.00     0.050 A 
HETATM    4  C5  UNL     1     -22.354  17.745  12.168  1.00 20.00     0.026 C 
HETATM    5 CL8  UNL     1     -24.661  19.091   9.030  1.00 20.00    -0.124 Cl
ENDROOT
BRANCH   3   6
HETATM    6  C1  UNL     1     -24.809  17.353  11.658  1.00 20.00     0.228 C 
HETATM    7  O6  UNL     1     -25.307  16.231  11.647  1.00 20.00    -0.279 OA
HETATM    8 CL7  UNL     1     -25.559  18.802  12.254  1.00 20.00    -0.043 Cl
ENDBRANCH   3   6
TORSDOF 1
ENDMDL
MODEL 3
REMARK VINA RESULT:      -3.6      1.852      2.460
REMARK  1 active torsions:
REMARK  status: ('A' for Active; 'I' for Inactive)
REMARK    1  A    between atoms: C1_1  and  C4_4 
ROOT
HETATM    1  C2  UNL     1     -35.985  16.396  -4.957  1.00 20.00     0.041 A 
HETATM    2  C3  UNL     1     -34.664  15.740  -4.705  1.00 20.00     0.100 A 
HETATM    3  C4  UNL     1     -35.745  14.980  -5.444  1.00 20.00     0.050 A 
HETATM    4  C5  UNL     1     -35.549  14.788  -6.927  1.00 20.00     0.026 C 
HETATM    5 CL8  UNL     1     -34.210  15.337  -3.069  1.00 20.00    -0.124 Cl
ENDROOT
BRANCH   3   6
HETATM    6  C1  UNL     1     -36.470  13.901  -4.734  1.00 20.00     0.228 C 
HETATM    7  O6  UNL     1     -35.960  12.803  -4.536  1.00 20.00    -0.279 OA
HETATM    8 CL7  UNL     1     -38.065  14.393  -4.251  1.00 20.00    -0.043 Cl
ENDBRANCH   3   6
TORSDOF 1
ENDMDL
MODEL 4
REMARK VINA RESULT:      -3.6     11.981     12.580
REMARK  1 active torsions:
REMARK  status: ('A' for Active; 'I' for Inactive)
REMARK    1  A    between atoms: C1_1  and  C4_4 
ROOT
HETATM    1  C2  UNL     1     -35.480   5.744   4.187  1.00 20.00     0.041 A 
HETATM    2  C3  UNL     1     -34.520   4.711   4.691  1.00 20.00     0.100 A 
HETATM    3  C4  UNL     1     -34.078   6.157   4.595  1.00 20.00     0.050 A 
HETATM    4  C5  UNL     1     -33.935   6.912   5.892  1.00 20.00     0.026 C 
HETATM    5 CL8  UNL     1     -33.925   3.492   3.594  1.00 20.00    -0.124 Cl
ENDROOT
BRANCH   3   6
HETATM    6  C1  UNL     1     -33.157   6.549   3.503  1.00 20.00     0.228 C 
HETATM    7  O6  UNL     1     -33.244   6.064   2.380  1.00 20.00    -0.279 OA
HETATM    8 CL7  UNL     1     -31.997   7.735   4.021  1.00 20.00    -0.043 Cl
ENDBRANCH   3   6
TORSDOF 1
ENDMDL
MODEL 5
REMARK VINA RESULT:      -3.6     12.321     12.880
REMARK  1 active torsions:
REMARK  status: ('A' for Active; 'I' for Inactive)
REMARK    1  A    between atoms: C1_1  and  C4_4 
ROOT
HETATM    1  C2  UNL     1     -35.608   5.362   3.872  1.00 20.00     0.041 A 
HETATM    2  C3  UNL     1     -34.408   4.472   3.781  1.00 20.00     0.100 A 
HETATM    3  C4  UNL     1     -34.499   5.491   4.898  1.00 20.00     0.050 A 
HETATM    4  C5  UNL     1     -34.779   4.961   6.281  1.00 20.00     0.026 C 
HETATM    5 CL8  UNL     1     -33.301   4.666   2.446  1.00 20.00    -0.124 Cl
ENDROOT
BRANCH   3   6
HETATM    6  C1  UNL     1     -33.660   6.710   4.821  1.00 20.00     0.228 C 
HETATM    7  O6  UNL     1     -33.059   7.015   3.796  1.00 20.00    -0.279 OA
HETATM    8 CL7  UNL     1     -33.654   7.594   6.316  1.00 20.00    -0.043 Cl
ENDBRANCH   3   6
TORSDOF 1
ENDMDL
MODEL 6
REMARK VINA RESULT:      -3.6     10.036     11.333
REMARK  1 active torsions:
REMARK  status: ('A' for Active; 'I' for Inactive)
REMARK    1  A    between atoms: C1_1  and  C4_4 
ROOT
HETATM    1  C2  UNL     1     -42.298   7.789  -1.532  1.00 20.00     0.041 A 
HETATM    2  C3  UNL     1     -41.157   8.199  -0.654  1.00 20.00     0.100 A 
HETATM    3  C4  UNL     1     -41.795   6.839  -0.461  1.00 20.00     0.050 A 
HETATM    4  C5  UNL     1     -41.001   5.644  -0.923  1.00 20.00     0.026 C 
HETATM    5 CL8  UNL     1     -41.387   9.493   0.494  1.00 20.00    -0.124 Cl
ENDROOT
BRANCH   3   6
HETATM    6  C1  UNL     1     -42.681   6.625   0.707  1.00 20.00     0.228 C 
HETATM    7  O6  UNL     1     -43.417   7.511   1.129  1.00 20.00    -0.279 OA
HETATM    8 CL7  UNL     1     -42.530   5.021   1.356  1.00 20.00    -0.043 Cl
ENDBRANCH   3   6
TORSDOF 1
ENDMDL
MODEL 7
REMARK VINA RESULT:      -3.6      2.014      2.518
REMARK  1 active torsions:
REMARK  status: ('A' for Active; 'I' for Inactive)
REMARK    1  A    between atoms: C1_1  and  C4_4 
ROOT
HETATM    1  C2  UNL     1     -35.722  15.938  -5.569  1.00 20.00     0.041 A 
HETATM    2  C3  UNL     1     -35.228  14.861  -6.484  1.00 20.00     0.100 A 
HETATM    3  C4  UNL     1     -35.322  14.591  -4.996  1.00 20.00     0.050 A 
HETATM    4  C5  UNL     1     -36.435  13.682  -4.539  1.00 20.00     0.026 C 
HETATM    5 CL8  UNL     1     -33.692  15.062  -7.287  1.00 20.00    -0.124 Cl
ENDROOT
BRANCH   3   6
HETATM    6  C1  UNL     1     -34.075  14.551  -4.198  1.00 20.00     0.228 C 
HETATM    7  O6  UNL     1     -33.140  13.815  -4.498  1.00 20.00    -0.279 OA
HETATM    8 CL7  UNL     1     -34.128  15.642  -2.847  1.00 20.00    -0.043 Cl
ENDBRANCH   3   6
TORSDOF 1
ENDMDL
MODEL 8
REMARK VINA RESULT:      -3.6      1.561      2.705
REMARK  1 active torsions:
REMARK  status: ('A' for Active; 'I' for Inactive)
REMARK    1  A    between atoms: C1_1  and  C4_4 
ROOT
HETATM    1  C2  UNL     1     -35.637  16.370  -4.534  1.00 20.00     0.041 A 
HETATM    2  C3  UNL     1     -36.596  15.569  -3.710  1.00 20.00     0.100 A 
HETATM    3  C4  UNL     1     -35.107  15.428  -3.469  1.00 20.00     0.050 A 
HETATM    4  C5  UNL     1     -34.560  16.052  -2.211  1.00 20.00     0.026 C 
HETATM    5 CL8  UNL     1     -37.528  14.306  -4.474  1.00 20.00    -0.124 Cl
ENDROOT
BRANCH   3   6
HETATM    6  C1  UNL     1     -34.420  14.205  -3.946  1.00 20.00     0.228 C 
HETATM    7  O6  UNL     1     -34.994  13.122  -3.998  1.00 20.00    -0.279 OA
HETATM    8 CL7  UNL     1     -32.771  14.515  -4.396  1.00 20.00    -0.043 Cl
ENDBRANCH   3   6
TORSDOF 1
ENDMDL
MODEL 9
REMARK VINA RESULT:      -3.6     19.185     19.899
REMARK  1 active torsions:
REMARK  status: ('A' for Active; 'I' for Inactive)
REMARK    1  A    between atoms: C1_1  and  C4_4 
ROOT
HETATM    1  C2  UNL     1     -23.850  18.148  11.973  1.00 20.00     0.041 A 
HETATM    2  C3  UNL     1     -23.595  16.673  12.005  1.00 20.00     0.100 A 
HETATM    3  C4  UNL     1     -22.644  17.579  11.249  1.00 20.00     0.050 A 
HETATM    4  C5  UNL     1     -21.293  17.818  11.874  1.00 20.00     0.026 C 
HETATM    5 CL8  UNL     1     -24.694  15.600  11.178  1.00 20.00    -0.124 Cl
ENDROOT
BRANCH   3   6
HETATM    6  C1  UNL     1     -22.693  17.588   9.769  1.00 20.00     0.228 C 
HETATM    7  O6  UNL     1     -22.328  16.622   9.105  1.00 20.00    -0.279 OA
HETATM    8 CL7  UNL     1     -23.308  19.088   9.144  1.00 20.00    -0.043 Cl
ENDBRANCH   3   6
TORSDOF 1
ENDMDL
