MODEL 1
REMARK VINA RESULT:      -5.0      0.000      0.000
REMARK  1 active torsions:
REMARK  status: ('A' for Active; 'I' for Inactive)
REMARK    1  A    between atoms: C3_3  and  C8_8 
ROOT
HETATM    1  C1  UNL     1     -35.144  15.788  -2.229  1.00 20.00    -0.024 C 
HETATM    2  C2  UNL     1     -35.626  16.985  -2.597  1.00 20.00    -0.021 C 
HETATM    3  C4  UNL     1     -33.084  16.086  -3.531  1.00 20.00     0.010 C 
HETATM    4  C5  UNL     1     -33.634  17.462  -3.980  1.00 20.00     0.014 C 
HETATM    5  C6  UNL     1     -35.647  16.351  -4.984  1.00 20.00     0.026 C 
HETATM    6  C7  UNL     1     -34.255  15.117  -3.258  1.00 20.00     0.019 C 
HETATM    7  C8  UNL     1     -35.052  14.977  -4.580  1.00 20.00     0.063 C 
HETATM    8  C9  UNL     1     -35.189  17.446  -3.979  1.00 20.00    -0.026 C 
HETATM    9  C11 UNL     1     -35.761  18.812  -4.344  1.00 20.00     0.019 C 
ENDROOT
BRANCH   7  10
HETATM   10  C3  UNL     1     -36.133  13.941  -4.472  1.00 20.00     0.128 C 
HETATM   11  C10 UNL     1     -37.550  14.445  -4.412  1.00 20.00     0.091 C 
HETATM   12  O12 UNL     1     -35.873  12.739  -4.437  1.00 20.00    -0.298 OA
ENDBRANCH   7  10
TORSDOF 1
ENDMDL
MODEL 2
REMARK VINA RESULT:      -4.8      1.340      2.444
REMARK  1 active torsions:
REMARK  status: ('A' for Active; 'I' for Inactive)
REMARK    1  A    between atoms: C3_3  and  C8_8 
ROOT
HETATM    1  C1  UNL     1     -35.884  17.041  -3.535  1.00 20.00    -0.024 C 
HETATM    2  C2  UNL     1     -34.938  17.965  -3.762  1.00 20.00    -0.021 C 
HETATM    3  C4  UNL     1     -35.134  16.673  -1.225  1.00 20.00     0.010 C 
HETATM    4  C5  UNL     1     -34.025  17.723  -1.478  1.00 20.00     0.014 C 
HETATM    5  C6  UNL     1     -33.120  16.340  -3.367  1.00 20.00     0.026 C 
HETATM    6  C7  UNL     1     -35.490  15.959  -2.548  1.00 20.00     0.019 C 
HETATM    7  C8  UNL     1     -34.200  15.270  -3.060  1.00 20.00     0.063 C 
HETATM    8  C9  UNL     1     -33.647  17.754  -2.987  1.00 20.00    -0.026 C 
HETATM    9  C11 UNL     1     -32.610  18.833  -3.280  1.00 20.00     0.019 C 
ENDROOT
BRANCH   7  10
HETATM   10  C3  UNL     1     -34.463  14.421  -4.269  1.00 20.00     0.128 C 
HETATM   11  C10 UNL     1     -33.839  14.871  -5.562  1.00 20.00     0.091 C 
HETATM   12  O12 UNL     1     -35.155  13.406  -4.206  1.00 20.00    -0.298 OA
ENDBRANCH   7  10
TORSDOF 1
ENDMDL
MODEL 3
REMARK VINA RESULT:      -4.7      1.304      2.711
REMARK  1 active torsions:
REMARK  status: ('A' for Active; 'I' for Inactive)
REMARK    1  A    between atoms: C3_3  and  C8_8 
ROOT
HETATM    1  C1  UNL     1     -35.260  16.692  -5.237  1.00 20.00    -0.024 C 
HETATM    2  C2  UNL     1     -34.197  15.894  -5.422  1.00 20.00    -0.021 C 
HETATM    3  C4  UNL     1     -34.632  17.184  -2.914  1.00 20.00     0.010 C 
HETATM    4  C5  UNL     1     -33.411  16.251  -3.106  1.00 20.00     0.014 C 
HETATM    5  C6  UNL     1     -34.937  14.335  -3.655  1.00 20.00     0.026 C 
HETATM    6  C7  UNL     1     -35.795  16.717  -3.818  1.00 20.00     0.019 C 
HETATM    7  C8  UNL     1     -36.149  15.268  -3.399  1.00 20.00     0.063 C 
HETATM    8  C9  UNL     1     -33.727  15.165  -4.173  1.00 20.00    -0.026 C 
HETATM    9  C11 UNL     1     -32.516  14.277  -4.440  1.00 20.00     0.019 C 
ENDROOT
BRANCH   7  10
HETATM   10  C3  UNL     1     -37.367  14.762  -4.116  1.00 20.00     0.128 C 
HETATM   11  C10 UNL     1     -38.528  15.712  -4.232  1.00 20.00     0.091 C 
HETATM   12  O12 UNL     1     -37.413  13.627  -4.587  1.00 20.00    -0.298 OA
ENDBRANCH   7  10
TORSDOF 1
ENDMDL
MODEL 4
REMARK VINA RESULT:      -4.6      2.293      3.938
REMARK  1 active torsions:
REMARK  status: ('A' for Active; 'I' for Inactive)
REMARK    1  A    between atoms: C3_3  and  C8_8 
ROOT
HETATM    1  C1  UNL     1     -34.058  17.023  -4.673  1.00 20.00    -0.024 C 
HETATM    2  C2  UNL     1     -35.321  16.574  -4.740  1.00 20.00    -0.021 C 
HETATM    3  C4  UNL     1     -33.170  14.792  -4.158  1.00 20.00     0.010 C 
HETATM    4  C5  UNL     1     -34.624  14.263  -4.214  1.00 20.00     0.014 C 
HETATM    5  C6  UNL     1     -35.290  15.843  -2.382  1.00 20.00     0.026 C 
HETATM    6  C7  UNL     1     -33.168  16.269  -3.704  1.00 20.00     0.019 C 
HETATM    7  C8  UNL     1     -33.817  16.318  -2.298  1.00 20.00     0.063 C 
HETATM    8  C9  UNL     1     -35.623  15.392  -3.833  1.00 20.00    -0.026 C 
HETATM    9  C11 UNL     1     -37.069  14.922  -3.953  1.00 20.00     0.019 C 
ENDROOT
BRANCH   7  10
HETATM   10  C3  UNL     1     -33.736  17.690  -1.694  1.00 20.00     0.128 C 
HETATM   11  C10 UNL     1     -32.358  18.242  -1.450  1.00 20.00     0.091 C 
HETATM   12  O12 UNL     1     -34.747  18.332  -1.415  1.00 20.00    -0.298 OA
ENDBRANCH   7  10
TORSDOF 1
ENDMDL
MODEL 5
REMARK VINA RESULT:      -4.5      1.573      1.890
REMARK  1 active torsions:
REMARK  status: ('A' for Active; 'I' for Inactive)
REMARK    1  A    between atoms: C3_3  and  C8_8 
ROOT
HETATM    1  C1  UNL     1     -35.155  14.500  -3.463  1.00 20.00    -0.024 C 
HETATM    2  C2  UNL     1     -35.281  15.612  -2.723  1.00 20.00    -0.021 C 
HETATM    3  C4  UNL     1     -32.844  15.043  -4.093  1.00 20.00     0.010 C 
HETATM    4  C5  UNL     1     -32.981  16.340  -3.258  1.00 20.00     0.014 C 
HETATM    5  C6  UNL     1     -34.914  17.073  -4.680  1.00 20.00     0.026 C 
HETATM    6  C7  UNL     1     -34.224  14.632  -4.653  1.00 20.00     0.019 C 
HETATM    7  C8  UNL     1     -34.724  15.799  -5.543  1.00 20.00     0.063 C 
HETATM    8  C9  UNL     1     -34.466  16.798  -3.216  1.00 20.00    -0.026 C 
HETATM    9  C11 UNL     1     -34.644  18.031  -2.337  1.00 20.00     0.019 C 
ENDROOT
BRANCH   7  10
HETATM   10  C3  UNL     1     -35.995  15.448  -6.259  1.00 20.00     0.128 C 
HETATM   11  C10 UNL     1     -37.139  16.417  -6.122  1.00 20.00     0.091 C 
HETATM   12  O12 UNL     1     -36.097  14.420  -6.927  1.00 20.00    -0.298 OA
ENDBRANCH   7  10
TORSDOF 1
ENDMDL
MODEL 6
REMARK VINA RESULT:      -4.4      1.326      2.241
REMARK  1 active torsions:
REMARK  status: ('A' for Active; 'I' for Inactive)
REMARK    1  A    between atoms: C3_3  and  C8_8 
ROOT
HETATM    1  C1  UNL     1     -33.439  15.712  -4.263  1.00 20.00    -0.024 C 
HETATM    2  C2  UNL     1     -33.740  15.784  -2.957  1.00 20.00    -0.021 C 
HETATM    3  C4  UNL     1     -34.306  17.965  -4.708  1.00 20.00     0.010 C 
HETATM    4  C5  UNL     1     -34.678  18.057  -3.207  1.00 20.00     0.014 C 
HETATM    5  C6  UNL     1     -36.152  16.038  -3.430  1.00 20.00     0.026 C 
HETATM    6  C7  UNL     1     -34.366  16.494  -5.173  1.00 20.00     0.019 C 
HETATM    7  C8  UNL     1     -35.816  15.998  -4.943  1.00 20.00     0.063 C 
HETATM    8  C9  UNL     1     -34.957  16.639  -2.635  1.00 20.00    -0.026 C 
HETATM    9  C11 UNL     1     -35.251  16.689  -1.139  1.00 20.00     0.019 C 
ENDROOT
BRANCH   7  10
HETATM   10  C3  UNL     1     -36.028  14.619  -5.497  1.00 20.00     0.128 C 
HETATM   11  C10 UNL     1     -36.260  13.517  -4.499  1.00 20.00     0.091 C 
HETATM   12  O12 UNL     1     -36.015  14.401  -6.708  1.00 20.00    -0.298 OA
ENDBRANCH   7  10
TORSDOF 1
ENDMDL
MODEL 7
REMARK VINA RESULT:      -4.3      1.880      2.391
REMARK  1 active torsions:
REMARK  status: ('A' for Active; 'I' for Inactive)
REMARK    1  A    between atoms: C3_3  and  C8_8 
ROOT
HETATM    1  C1  UNL     1     -34.886  14.219  -3.960  1.00 20.00    -0.024 C 
HETATM    2  C2  UNL     1     -35.990  14.866  -3.555  1.00 20.00    -0.021 C 
HETATM    3  C4  UNL     1     -33.400  15.975  -3.102  1.00 20.00     0.010 C 
HETATM    4  C5  UNL     1     -34.665  16.743  -2.646  1.00 20.00     0.014 C 
HETATM    5  C6  UNL     1     -35.505  16.802  -5.010  1.00 20.00     0.026 C 
HETATM    6  C7  UNL     1     -33.728  15.118  -4.345  1.00 20.00     0.019 C 
HETATM    7  C8  UNL     1     -34.204  16.086  -5.457  1.00 20.00     0.063 C 
HETATM    8  C9  UNL     1     -35.871  16.382  -3.557  1.00 20.00    -0.026 C 
HETATM    9  C11 UNL     1     -37.151  17.066  -3.086  1.00 20.00     0.019 C 
ENDROOT
BRANCH   7  10
HETATM   10  C3  UNL     1     -34.413  15.376  -6.763  1.00 20.00     0.128 C 
HETATM   11  C10 UNL     1     -35.816  15.350  -7.304  1.00 20.00     0.091 C 
HETATM   12  O12 UNL     1     -33.480  14.843  -7.363  1.00 20.00    -0.298 OA
ENDBRANCH   7  10
TORSDOF 1
ENDMDL
MODEL 8
REMARK VINA RESULT:      -4.3      2.040      3.559
REMARK  1 active torsions:
REMARK  status: ('A' for Active; 'I' for Inactive)
REMARK    1  A    between atoms: C3_3  and  C8_8 
ROOT
HETATM    1  C1  UNL     1     -35.295  17.129  -5.055  1.00 20.00    -0.024 C 
HETATM    2  C2  UNL     1     -36.516  16.602  -4.876  1.00 20.00    -0.021 C 
HETATM    3  C4  UNL     1     -34.391  15.027  -5.947  1.00 20.00     0.010 C 
HETATM    4  C5  UNL     1     -35.789  14.399  -5.728  1.00 20.00     0.014 C 
HETATM    5  C6  UNL     1     -35.662  14.924  -3.277  1.00 20.00     0.026 C 
HETATM    6  C7  UNL     1     -34.150  16.145  -4.908  1.00 20.00     0.019 C 
HETATM    7  C8  UNL     1     -34.238  15.494  -3.504  1.00 20.00     0.063 C 
HETATM    8  C9  UNL     1     -36.523  15.115  -4.559  1.00 20.00    -0.026 C 
HETATM    9  C11 UNL     1     -37.934  14.568  -4.368  1.00 20.00     0.019 C 
ENDROOT
BRANCH   7  10
HETATM   10  C3  UNL     1     -33.875  16.462  -2.417  1.00 20.00     0.128 C 
HETATM   11  C10 UNL     1     -34.918  16.722  -1.365  1.00 20.00     0.091 C 
HETATM   12  O12 UNL     1     -32.776  17.016  -2.387  1.00 20.00    -0.298 OA
ENDBRANCH   7  10
TORSDOF 1
ENDMDL
MODEL 9
REMARK VINA RESULT:      -4.3      1.962      3.546
REMARK  1 active torsions:
REMARK  status: ('A' for Active; 'I' for Inactive)
REMARK    1  A    between atoms: C3_3  and  C8_8 
ROOT
HETATM    1  C1  UNL     1     -33.837  14.150  -4.051  1.00 20.00    -0.024 C 
HETATM    2  C2  UNL     1     -33.542  14.754  -5.213  1.00 20.00    -0.021 C 
HETATM    3  C4  UNL     1     -36.188  13.825  -4.683  1.00 20.00     0.010 C 
HETATM    4  C5  UNL     1     -35.868  14.537  -6.020  1.00 20.00     0.014 C 
HETATM    5  C6  UNL     1     -35.137  16.589  -4.775  1.00 20.00     0.026 C 
HETATM    6  C7  UNL     1     -35.260  14.360  -3.570  1.00 20.00     0.019 C 
HETATM    7  C8  UNL     1     -35.519  15.883  -3.448  1.00 20.00     0.063 C 
HETATM    8  C9  UNL     1     -34.692  15.536  -5.830  1.00 20.00    -0.026 C 
HETATM    9  C11 UNL     1     -34.303  16.197  -7.148  1.00 20.00     0.019 C 
ENDROOT
BRANCH   7  10
HETATM   10  C3  UNL     1     -34.774  16.485  -2.293  1.00 20.00     0.128 C 
HETATM   11  C10 UNL     1     -33.543  17.285  -2.624  1.00 20.00     0.091 C 
HETATM   12  O12 UNL     1     -35.152  16.334  -1.132  1.00 20.00    -0.298 OA
ENDBRANCH   7  10
TORSDOF 1
ENDMDL
