MODEL 1
REMARK VINA RESULT:      -4.5      0.000      0.000
REMARK  3 active torsions:
REMARK  status: ('A' for Active; 'I' for Inactive)
REMARK    1  A    between atoms: C4_4  and  C5_5 
REMARK    2  A    between atoms: C6_6  and  C9_9 
REMARK    3  A    between atoms: C7_7  and  C10_10 
ROOT
HETATM    1  C1  UNL     1     -38.395  16.534  -4.268  1.00 20.00    -0.029 C 
HETATM    2  C2  UNL     1     -37.207  17.034  -3.919  1.00 20.00    -0.021 C 
HETATM    3  C8  UNL     1     -38.343  15.060  -4.484  1.00 20.00     0.039 C 
HETATM    4  C9  UNL     1     -36.147  15.980  -3.852  1.00 20.00     0.041 C 
HETATM    5  C10 UNL     1     -36.958  14.672  -3.951  1.00 20.00     0.062 C 
ENDROOT
BRANCH   4   6
HETATM    6  C6  UNL     1     -35.345  16.046  -2.592  1.00 20.00    -0.017 C 
HETATM    7  C5  UNL     1     -34.007  15.985  -2.558  1.00 20.00    -0.004 C 
BRANCH   7   8
HETATM    8  C4  UNL     1     -33.192  15.849  -3.742  1.00 20.00    -0.011 C 
HETATM    9  C3  UNL     1     -32.842  14.666  -4.263  1.00 20.00     0.011 C 
ENDBRANCH   7   8
ENDBRANCH   4   6
BRANCH   5  10
HETATM   10  C7  UNL     1     -36.284  13.699  -4.871  1.00 20.00     0.236 C 
HETATM   11  O11 UNL     1     -35.839  12.617  -4.502  1.00 20.00    -0.306 OA
ENDBRANCH   5  10
TORSDOF 3
ENDMDL
MODEL 2
REMARK VINA RESULT:      -4.5      1.602      3.484
REMARK  3 active torsions:
REMARK  status: ('A' for Active; 'I' for Inactive)
REMARK    1  A    between atoms: C4_4  and  C5_5 
REMARK    2  A    between atoms: C6_6  and  C9_9 
REMARK    3  A    between atoms: C7_7  and  C10_10 
ROOT
HETATM    1  C1  UNL     1     -33.002  15.441  -3.828  1.00 20.00    -0.029 C 
HETATM    2  C2  UNL     1     -33.665  15.999  -2.812  1.00 20.00    -0.021 C 
HETATM    3  C8  UNL     1     -33.905  14.690  -4.745  1.00 20.00     0.039 C 
HETATM    4  C9  UNL     1     -35.132  15.707  -2.867  1.00 20.00     0.041 C 
HETATM    5  C10 UNL     1     -35.307  15.092  -4.270  1.00 20.00     0.062 C 
ENDROOT
BRANCH   4   6
HETATM    6  C6  UNL     1     -35.972  16.930  -2.684  1.00 20.00    -0.017 C 
HETATM    7  C5  UNL     1     -36.133  17.553  -1.509  1.00 20.00    -0.004 C 
BRANCH   7   8
HETATM    8  C4  UNL     1     -35.507  17.107  -0.286  1.00 20.00    -0.011 C 
HETATM    9  C3  UNL     1     -34.592  17.826   0.376  1.00 20.00     0.011 C 
ENDBRANCH   7   8
ENDBRANCH   4   6
BRANCH   5  10
HETATM   10  C7  UNL     1     -36.216  13.902  -4.218  1.00 20.00     0.236 C 
HETATM   11  O11 UNL     1     -35.874  12.774  -4.558  1.00 20.00    -0.306 OA
ENDBRANCH   5  10
TORSDOF 3
ENDMDL
MODEL 3
REMARK VINA RESULT:      -4.5     11.355     12.104
REMARK  3 active torsions:
REMARK  status: ('A' for Active; 'I' for Inactive)
REMARK    1  A    between atoms: C4_4  and  C5_5 
REMARK    2  A    between atoms: C6_6  and  C9_9 
REMARK    3  A    between atoms: C7_7  and  C10_10 
ROOT
HETATM    1  C1  UNL     1     -34.715   5.767   5.969  1.00 20.00    -0.029 C 
HETATM    2  C2  UNL     1     -34.261   6.890   5.408  1.00 20.00    -0.021 C 
HETATM    3  C8  UNL     1     -34.492   4.575   5.101  1.00 20.00     0.039 C 
HETATM    4  C9  UNL     1     -33.665   6.647   4.057  1.00 20.00     0.041 C 
HETATM    5  C10 UNL     1     -33.574   5.109   3.995  1.00 20.00     0.062 C 
ENDROOT
BRANCH   4   6
HETATM    6  C6  UNL     1     -32.326   7.292   3.892  1.00 20.00    -0.017 C 
HETATM    7  C5  UNL     1     -31.883   7.799   2.733  1.00 20.00    -0.004 C 
BRANCH   7   8
HETATM    8  C4  UNL     1     -32.657   7.778   1.514  1.00 20.00    -0.011 C 
HETATM    9  C3  UNL     1     -32.869   8.862   0.758  1.00 20.00     0.011 C 
ENDBRANCH   7   8
ENDBRANCH   4   6
BRANCH   5  10
HETATM   10  C7  UNL     1     -34.009   4.607   2.651  1.00 20.00     0.236 C 
HETATM   11  O11 UNL     1     -33.226   4.236   1.782  1.00 20.00    -0.306 OA
ENDBRANCH   5  10
TORSDOF 3
ENDMDL
MODEL 4
REMARK VINA RESULT:      -4.4      2.980      4.358
REMARK  3 active torsions:
REMARK  status: ('A' for Active; 'I' for Inactive)
REMARK    1  A    between atoms: C4_4  and  C5_5 
REMARK    2  A    between atoms: C6_6  and  C9_9 
REMARK    3  A    between atoms: C7_7  and  C10_10 
ROOT
HETATM    1  C1  UNL     1     -34.102  14.802  -3.913  1.00 20.00    -0.029 C 
HETATM    2  C2  UNL     1     -33.035  15.562  -3.650  1.00 20.00    -0.021 C 
HETATM    3  C8  UNL     1     -35.301  15.229  -3.137  1.00 20.00     0.039 C 
HETATM    4  C9  UNL     1     -33.333  16.626  -2.641  1.00 20.00     0.041 C 
HETATM    5  C10 UNL     1     -34.870  16.569  -2.527  1.00 20.00     0.062 C 
ENDROOT
BRANCH   4   6
HETATM    6  C6  UNL     1     -32.855  17.976  -3.067  1.00 20.00    -0.017 C 
HETATM    7  C5  UNL     1     -32.329  18.879  -2.227  1.00 20.00    -0.004 C 
BRANCH   7   8
HETATM    8  C4  UNL     1     -32.167  18.639  -0.811  1.00 20.00    -0.011 C 
HETATM    9  C3  UNL     1     -31.006  18.270  -0.256  1.00 20.00     0.011 C 
ENDBRANCH   7   8
ENDBRANCH   4   6
BRANCH   5  10
HETATM   10  C7  UNL     1     -35.298  16.667  -1.094  1.00 20.00     0.236 C 
HETATM   11  O11 UNL     1     -35.670  17.712  -0.569  1.00 20.00    -0.306 OA
ENDBRANCH   5  10
TORSDOF 3
ENDMDL
MODEL 5
REMARK VINA RESULT:      -4.4      1.676      2.394
REMARK  3 active torsions:
REMARK  status: ('A' for Active; 'I' for Inactive)
REMARK    1  A    between atoms: C4_4  and  C5_5 
REMARK    2  A    between atoms: C6_6  and  C9_9 
REMARK    3  A    between atoms: C7_7  and  C10_10 
ROOT
HETATM    1  C1  UNL     1     -37.156  14.547  -4.309  1.00 20.00    -0.029 C 
HETATM    2  C2  UNL     1     -36.815  15.689  -3.707  1.00 20.00    -0.021 C 
HETATM    3  C8  UNL     1     -35.982  13.657  -4.534  1.00 20.00     0.039 C 
HETATM    4  C9  UNL     1     -35.345  15.767  -3.434  1.00 20.00     0.041 C 
HETATM    5  C10 UNL     1     -34.866  14.330  -3.725  1.00 20.00     0.062 C 
ENDROOT
BRANCH   4   6
HETATM    6  C6  UNL     1     -35.039  16.183  -2.031  1.00 20.00    -0.017 C 
HETATM    7  C5  UNL     1     -33.979  16.929  -1.690  1.00 20.00    -0.004 C 
BRANCH   7   8
HETATM    8  C4  UNL     1     -33.015  17.415  -2.650  1.00 20.00    -0.011 C 
HETATM    9  C3  UNL     1     -32.613  18.691  -2.707  1.00 20.00     0.011 C 
ENDBRANCH   7   8
ENDBRANCH   4   6
BRANCH   5  10
HETATM   10  C7  UNL     1     -33.581  14.347  -4.497  1.00 20.00     0.236 C 
HETATM   11  O11 UNL     1     -33.525  14.490  -5.714  1.00 20.00    -0.306 OA
ENDBRANCH   5  10
TORSDOF 3
ENDMDL
MODEL 6
REMARK VINA RESULT:      -4.2      0.901      1.226
REMARK  3 active torsions:
REMARK  status: ('A' for Active; 'I' for Inactive)
REMARK    1  A    between atoms: C4_4  and  C5_5 
REMARK    2  A    between atoms: C6_6  and  C9_9 
REMARK    3  A    between atoms: C7_7  and  C10_10 
ROOT
HETATM    1  C1  UNL     1     -37.921  16.847  -4.323  1.00 20.00    -0.029 C 
HETATM    2  C2  UNL     1     -36.698  17.138  -3.873  1.00 20.00    -0.021 C 
HETATM    3  C8  UNL     1     -38.089  15.390  -4.592  1.00 20.00     0.039 C 
HETATM    4  C9  UNL     1     -35.828  15.924  -3.773  1.00 20.00     0.041 C 
HETATM    5  C10 UNL     1     -36.828  14.768  -3.979  1.00 20.00     0.062 C 
ENDROOT
BRANCH   4   6
HETATM    6  C6  UNL     1     -35.123  15.825  -2.459  1.00 20.00    -0.017 C 
HETATM    7  C5  UNL     1     -33.885  16.290  -2.241  1.00 20.00    -0.004 C 
BRANCH   7   8
HETATM    8  C4  UNL     1     -33.096  16.942  -3.261  1.00 20.00    -0.011 C 
HETATM    9  C3  UNL     1     -32.961  18.270  -3.348  1.00 20.00     0.011 C 
ENDBRANCH   7   8
ENDBRANCH   4   6
BRANCH   5  10
HETATM   10  C7  UNL     1     -36.251  13.724  -4.886  1.00 20.00     0.236 C 
HETATM   11  O11 UNL     1     -35.861  12.629  -4.495  1.00 20.00    -0.306 OA
ENDBRANCH   5  10
TORSDOF 3
ENDMDL
MODEL 7
REMARK VINA RESULT:      -4.2      2.001      3.750
REMARK  3 active torsions:
REMARK  status: ('A' for Active; 'I' for Inactive)
REMARK    1  A    between atoms: C4_4  and  C5_5 
REMARK    2  A    between atoms: C6_6  and  C9_9 
REMARK    3  A    between atoms: C7_7  and  C10_10 
ROOT
HETATM    1  C1  UNL     1     -33.584  17.455  -1.394  1.00 20.00    -0.029 C 
HETATM    2  C2  UNL     1     -33.000  17.118  -2.546  1.00 20.00    -0.021 C 
HETATM    3  C8  UNL     1     -34.975  16.926  -1.293  1.00 20.00     0.039 C 
HETATM    4  C9  UNL     1     -33.905  16.312  -3.425  1.00 20.00     0.041 C 
HETATM    5  C10 UNL     1     -35.076  15.965  -2.484  1.00 20.00     0.062 C 
ENDROOT
BRANCH   4   6
HETATM    6  C6  UNL     1     -33.243  15.086  -3.967  1.00 20.00    -0.017 C 
HETATM    7  C5  UNL     1     -33.459  14.606  -5.199  1.00 20.00    -0.004 C 
BRANCH   7   8
HETATM    8  C4  UNL     1     -34.361  15.227  -6.141  1.00 20.00    -0.011 C 
HETATM    9  C3  UNL     1     -35.523  14.680  -6.518  1.00 20.00     0.011 C 
ENDBRANCH   7   8
ENDBRANCH   4   6
BRANCH   5  10
HETATM   10  C7  UNL     1     -36.388  16.126  -3.191  1.00 20.00     0.236 C 
HETATM   11  O11 UNL     1     -36.616  17.020  -3.999  1.00 20.00    -0.306 OA
ENDBRANCH   5  10
TORSDOF 3
ENDMDL
MODEL 8
REMARK VINA RESULT:      -4.1      3.296      5.205
REMARK  3 active torsions:
REMARK  status: ('A' for Active; 'I' for Inactive)
REMARK    1  A    between atoms: C4_4  and  C5_5 
REMARK    2  A    between atoms: C6_6  and  C9_9 
REMARK    3  A    between atoms: C7_7  and  C10_10 
ROOT
HETATM    1  C1  UNL     1     -34.319  15.199  -3.312  1.00 20.00    -0.029 C 
HETATM    2  C2  UNL     1     -35.226  15.752  -2.503  1.00 20.00    -0.021 C 
HETATM    3  C8  UNL     1     -33.064  16.000  -3.381  1.00 20.00     0.039 C 
HETATM    4  C9  UNL     1     -34.737  17.031  -1.897  1.00 20.00     0.041 C 
HETATM    5  C10 UNL     1     -33.239  17.032  -2.260  1.00 20.00     0.062 C 
ENDROOT
BRANCH   4   6
HETATM    6  C6  UNL     1     -34.954  17.090  -0.419  1.00 20.00    -0.017 C 
HETATM    7  C5  UNL     1     -36.043  17.622   0.153  1.00 20.00    -0.004 C 
BRANCH   7   8
HETATM    8  C4  UNL     1     -37.131  18.197  -0.603  1.00 20.00    -0.011 C 
HETATM    9  C3  UNL     1     -38.395  18.230  -0.164  1.00 20.00     0.011 C 
ENDBRANCH   7   8
ENDBRANCH   4   6
BRANCH   5  10
HETATM   10  C7  UNL     1     -32.804  18.393  -2.712  1.00 20.00     0.236 C 
HETATM   11  O11 UNL     1     -31.873  19.009  -2.204  1.00 20.00    -0.306 OA
ENDBRANCH   5  10
TORSDOF 3
ENDMDL
MODEL 9
REMARK VINA RESULT:      -4.1      0.925      3.875
REMARK  3 active torsions:
REMARK  status: ('A' for Active; 'I' for Inactive)
REMARK    1  A    between atoms: C4_4  and  C5_5 
REMARK    2  A    between atoms: C6_6  and  C9_9 
REMARK    3  A    between atoms: C7_7  and  C10_10 
ROOT
HETATM    1  C1  UNL     1     -34.170  15.750  -2.666  1.00 20.00    -0.029 C 
HETATM    2  C2  UNL     1     -35.335  16.380  -2.494  1.00 20.00    -0.021 C 
HETATM    3  C8  UNL     1     -34.238  14.730  -3.751  1.00 20.00     0.039 C 
HETATM    4  C9  UNL     1     -36.392  15.880  -3.428  1.00 20.00     0.041 C 
HETATM    5  C10 UNL     1     -35.591  15.009  -4.417  1.00 20.00     0.062 C 
ENDROOT
BRANCH   4   6
HETATM    6  C6  UNL     1     -37.120  16.986  -4.122  1.00 20.00    -0.017 C 
HETATM    7  C5  UNL     1     -38.453  17.028  -4.259  1.00 20.00    -0.004 C 
BRANCH   7   8
HETATM    8  C4  UNL     1     -39.332  16.003  -3.748  1.00 20.00    -0.011 C 
HETATM    9  C3  UNL     1     -39.919  15.082  -4.523  1.00 20.00     0.011 C 
ENDBRANCH   7   8
ENDBRANCH   4   6
BRANCH   5  10
HETATM   10  C7  UNL     1     -36.319  13.731  -4.706  1.00 20.00     0.236 C 
HETATM   11  O11 UNL     1     -35.834  12.620  -4.521  1.00 20.00    -0.306 OA
ENDBRANCH   5  10
TORSDOF 3
ENDMDL
