MODEL 1
REMARK VINA RESULT:      -4.6      0.000      0.000
REMARK  1 active torsions:
REMARK  status: ('A' for Active; 'I' for Inactive)
REMARK    1  A    between atoms: C1_1  and  C7_7 
ROOT
HETATM    1  C2  UNL     1     -33.063  15.659  -3.668  1.00 20.00     0.004 C 
HETATM    2  C3  UNL     1     -33.646  16.415  -2.481  1.00 20.00     0.037 C 
HETATM    3  C4  UNL     1     -33.964  14.500  -4.096  1.00 20.00     0.016 C 
HETATM    4  C5  UNL     1     -35.974  15.732  -3.173  1.00 20.00     0.053 C 
HETATM    5  C6  UNL     1     -35.066  16.885  -2.758  1.00 20.00     0.171 C 
HETATM    6  C7  UNL     1     -35.420  14.928  -4.363  1.00 20.00     0.012 C 
HETATM    7  C8  UNL     1     -35.541  15.716  -5.674  1.00 20.00     0.023 C 
HETATM    8  F10 UNL     1     -35.567  17.441  -1.621  1.00 20.00    -0.249 F 
ENDROOT
BRANCH   6   9
HETATM    9  C1  UNL     1     -36.258  13.684  -4.526  1.00 20.00     0.240 C 
HETATM   10  O9  UNL     1     -35.794  12.549  -4.501  1.00 20.00    -0.306 OA
ENDBRANCH   6   9
TORSDOF 1
ENDMDL
MODEL 2
REMARK VINA RESULT:      -4.4     10.372     12.015
REMARK  1 active torsions:
REMARK  status: ('A' for Active; 'I' for Inactive)
REMARK    1  A    between atoms: C1_1  and  C7_7 
ROOT
HETATM    1  C2  UNL     1     -43.414   5.956   0.781  1.00 20.00     0.004 C 
HETATM    2  C3  UNL     1     -42.447   4.972   0.135  1.00 20.00     0.037 C 
HETATM    3  C4  UNL     1     -42.758   7.315   1.023  1.00 20.00     0.016 C 
HETATM    4  C5  UNL     1     -41.173   6.886  -0.904  1.00 20.00     0.053 C 
HETATM    5  C6  UNL     1     -41.842   5.537  -1.142  1.00 20.00     0.171 C 
HETATM    6  C7  UNL     1     -42.109   7.913  -0.241  1.00 20.00     0.012 C 
HETATM    7  C8  UNL     1     -43.169   8.422  -1.227  1.00 20.00     0.023 C 
HETATM    8  F10 UNL     1     -40.902   4.663  -1.597  1.00 20.00    -0.249 F 
ENDROOT
BRANCH   6   9
HETATM    9  C1  UNL     1     -41.286   9.109   0.168  1.00 20.00     0.240 C 
HETATM   10  O9  UNL     1     -41.724  10.255   0.190  1.00 20.00    -0.306 OA
ENDBRANCH   6   9
TORSDOF 1
ENDMDL
MODEL 3
REMARK VINA RESULT:      -4.3      1.640      2.139
REMARK  1 active torsions:
REMARK  status: ('A' for Active; 'I' for Inactive)
REMARK    1  A    between atoms: C1_1  and  C7_7 
ROOT
HETATM    1  C2  UNL     1     -34.093  16.623  -2.301  1.00 20.00     0.004 C 
HETATM    2  C3  UNL     1     -34.335  17.773  -3.271  1.00 20.00     0.037 C 
HETATM    3  C4  UNL     1     -34.989  15.424  -2.613  1.00 20.00     0.016 C 
HETATM    4  C5  UNL     1     -35.092  16.140  -5.039  1.00 20.00     0.053 C 
HETATM    5  C6  UNL     1     -34.190  17.327  -4.718  1.00 20.00     0.171 C 
HETATM    6  C7  UNL     1     -34.892  14.955  -4.077  1.00 20.00     0.012 C 
HETATM    7  C8  UNL     1     -33.565  14.234  -4.347  1.00 20.00     0.023 C 
HETATM    8  F10 UNL     1     -34.538  18.365  -5.527  1.00 20.00    -0.249 F 
ENDROOT
BRANCH   6   9
HETATM    9  C1  UNL     1     -35.989  13.951  -4.328  1.00 20.00     0.240 C 
HETATM   10  O9  UNL     1     -35.784  12.753  -4.497  1.00 20.00    -0.306 OA
ENDBRANCH   6   9
TORSDOF 1
ENDMDL
MODEL 4
REMARK VINA RESULT:      -4.3      1.590      1.901
REMARK  1 active torsions:
REMARK  status: ('A' for Active; 'I' for Inactive)
REMARK    1  A    between atoms: C1_1  and  C7_7 
ROOT
HETATM    1  C2  UNL     1     -34.126  14.857  -5.505  1.00 20.00     0.004 C 
HETATM    2  C3  UNL     1     -33.440  15.056  -4.159  1.00 20.00     0.037 C 
HETATM    3  C4  UNL     1     -35.603  14.500  -5.337  1.00 20.00     0.016 C 
HETATM    4  C5  UNL     1     -35.641  15.722  -3.121  1.00 20.00     0.053 C 
HETATM    5  C6  UNL     1     -34.170  16.081  -3.303  1.00 20.00     0.171 C 
HETATM    6  C7  UNL     1     -36.376  15.500  -4.455  1.00 20.00     0.012 C 
HETATM    7  C8  UNL     1     -36.616  16.825  -5.189  1.00 20.00     0.023 C 
HETATM    8  F10 UNL     1     -33.580  16.118  -2.077  1.00 20.00    -0.249 F 
ENDROOT
BRANCH   6   9
HETATM    9  C1  UNL     1     -37.735  14.917  -4.156  1.00 20.00     0.240 C 
HETATM   10  O9  UNL     1     -38.053  13.766  -4.435  1.00 20.00    -0.306 OA
ENDBRANCH   6   9
TORSDOF 1
ENDMDL
MODEL 5
REMARK VINA RESULT:      -4.3      1.308      1.657
REMARK  1 active torsions:
REMARK  status: ('A' for Active; 'I' for Inactive)
REMARK    1  A    between atoms: C1_1  and  C7_7 
ROOT
HETATM    1  C2  UNL     1     -32.908  17.592  -2.644  1.00 20.00     0.004 C 
HETATM    2  C3  UNL     1     -33.684  17.501  -1.335  1.00 20.00     0.037 C 
HETATM    3  C4  UNL     1     -32.904  16.258  -3.391  1.00 20.00     0.016 C 
HETATM    4  C5  UNL     1     -35.099  15.643  -2.290  1.00 20.00     0.053 C 
HETATM    5  C6  UNL     1     -35.096  16.980  -1.557  1.00 20.00     0.171 C 
HETATM    6  C7  UNL     1     -34.316  15.681  -3.614  1.00 20.00     0.012 C 
HETATM    7  C8  UNL     1     -35.077  16.464  -4.692  1.00 20.00     0.023 C 
HETATM    8  F10 UNL     1     -35.688  16.807  -0.343  1.00 20.00    -0.249 F 
ENDROOT
BRANCH   6   9
HETATM    9  C1  UNL     1     -34.175  14.268  -4.123  1.00 20.00     0.240 C 
HETATM   10  O9  UNL     1     -35.090  13.452  -4.112  1.00 20.00    -0.306 OA
ENDBRANCH   6   9
TORSDOF 1
ENDMDL
MODEL 6
REMARK VINA RESULT:      -4.0      2.185      2.909
REMARK  1 active torsions:
REMARK  status: ('A' for Active; 'I' for Inactive)
REMARK    1  A    between atoms: C1_1  and  C7_7 
ROOT
HETATM    1  C2  UNL     1     -35.125  15.965  -2.691  1.00 20.00     0.004 C 
HETATM    2  C3  UNL     1     -33.648  15.793  -3.023  1.00 20.00     0.037 C 
HETATM    3  C4  UNL     1     -35.964  16.191  -3.949  1.00 20.00     0.016 C 
HETATM    4  C5  UNL     1     -34.252  14.917  -5.311  1.00 20.00     0.053 C 
HETATM    5  C6  UNL     1     -33.429  14.690  -4.048  1.00 20.00     0.171 C 
HETATM    6  C7  UNL     1     -35.753  15.108  -5.025  1.00 20.00     0.012 C 
HETATM    7  C8  UNL     1     -36.419  13.785  -4.626  1.00 20.00     0.023 C 
HETATM    8  F10 UNL     1     -32.111  14.673  -4.390  1.00 20.00    -0.249 F 
ENDROOT
BRANCH   6   9
HETATM    9  C1  UNL     1     -36.423  15.566  -6.296  1.00 20.00     0.240 C 
HETATM   10  O9  UNL     1     -36.352  14.953  -7.356  1.00 20.00    -0.306 OA
ENDBRANCH   6   9
TORSDOF 1
ENDMDL
MODEL 7
REMARK VINA RESULT:      -4.0      3.444      4.845
REMARK  1 active torsions:
REMARK  status: ('A' for Active; 'I' for Inactive)
REMARK    1  A    between atoms: C1_1  and  C7_7 
ROOT
HETATM    1  C2  UNL     1     -35.479  16.606  -1.811  1.00 20.00     0.004 C 
HETATM    2  C3  UNL     1     -34.762  15.547  -2.640  1.00 20.00     0.037 C 
HETATM    3  C4  UNL     1     -34.504  17.392  -0.935  1.00 20.00     0.016 C 
HETATM    4  C5  UNL     1     -32.648  16.924  -2.592  1.00 20.00     0.053 C 
HETATM    5  C6  UNL     1     -33.633  16.150  -3.462  1.00 20.00     0.171 C 
HETATM    6  C7  UNL     1     -33.328  17.999  -1.725  1.00 20.00     0.012 C 
HETATM    7  C8  UNL     1     -33.781  19.196  -2.572  1.00 20.00     0.023 C 
HETATM    8  F10 UNL     1     -32.961  15.139  -4.079  1.00 20.00    -0.249 F 
ENDROOT
BRANCH   6   9
HETATM    9  C1  UNL     1     -32.314  18.524  -0.740  1.00 20.00     0.240 C 
HETATM   10  O9  UNL     1     -31.114  18.598  -0.979  1.00 20.00    -0.306 OA
ENDBRANCH   6   9
TORSDOF 1
ENDMDL
MODEL 8
REMARK VINA RESULT:      -4.0     11.943     12.603
REMARK  1 active torsions:
REMARK  status: ('A' for Active; 'I' for Inactive)
REMARK    1  A    between atoms: C1_1  and  C7_7 
ROOT
HETATM    1  C2  UNL     1     -33.558   4.229   2.503  1.00 20.00     0.004 C 
HETATM    2  C3  UNL     1     -32.588   5.378   2.255  1.00 20.00     0.037 C 
HETATM    3  C4  UNL     1     -34.023   4.188   3.959  1.00 20.00     0.016 C 
HETATM    4  C5  UNL     1     -33.629   6.682   4.149  1.00 20.00     0.053 C 
HETATM    5  C6  UNL     1     -33.176   6.712   2.693  1.00 20.00     0.171 C 
HETATM    6  C7  UNL     1     -34.603   5.529   4.452  1.00 20.00     0.012 C 
HETATM    7  C8  UNL     1     -35.988   5.794   3.850  1.00 20.00     0.023 C 
HETATM    8  F10 UNL     1     -32.218   7.670   2.559  1.00 20.00    -0.249 F 
ENDROOT
BRANCH   6   9
HETATM    9  C1  UNL     1     -34.787   5.445   5.947  1.00 20.00     0.240 C 
HETATM   10  O9  UNL     1     -34.588   6.387   6.706  1.00 20.00    -0.306 OA
ENDBRANCH   6   9
TORSDOF 1
ENDMDL
MODEL 9
REMARK VINA RESULT:      -4.0      1.310      1.557
REMARK  1 active torsions:
REMARK  status: ('A' for Active; 'I' for Inactive)
REMARK    1  A    between atoms: C1_1  and  C7_7 
ROOT
HETATM    1  C2  UNL     1     -34.370  17.174  -5.086  1.00 20.00     0.004 C 
HETATM    2  C3  UNL     1     -33.725  17.600  -3.772  1.00 20.00     0.037 C 
HETATM    3  C4  UNL     1     -34.488  15.654  -5.189  1.00 20.00     0.016 C 
HETATM    4  C5  UNL     1     -34.564  15.494  -2.664  1.00 20.00     0.053 C 
HETATM    5  C6  UNL     1     -34.455  17.013  -2.573  1.00 20.00     0.171 C 
HETATM    6  C7  UNL     1     -35.200  15.014  -3.981  1.00 20.00     0.012 C 
HETATM    7  C8  UNL     1     -36.708  15.293  -4.007  1.00 20.00     0.023 C 
HETATM    8  F10 UNL     1     -33.758  17.329  -1.447  1.00 20.00    -0.249 F 
ENDROOT
BRANCH   6   9
HETATM    9  C1  UNL     1     -35.034  13.518  -4.069  1.00 20.00     0.240 C 
HETATM   10  O9  UNL     1     -35.893  12.768  -4.521  1.00 20.00    -0.306 OA
ENDBRANCH   6   9
TORSDOF 1
ENDMDL
