MODEL 1
REMARK VINA RESULT:      -4.9      0.000      0.000
REMARK  1 active torsions:
REMARK  status: ('A' for Active; 'I' for Inactive)
REMARK    1  A    between atoms: C1_1  and  C2_2 
ROOT
HETATM    1  C2  UNL     1     -33.978   6.550   3.639  1.00 20.00     0.154 A 
HETATM    2  C3  UNL     1     -32.635   6.664   2.941  1.00 20.00     0.073 A 
HETATM    3  C4  UNL     1     -33.473   5.449   2.772  1.00 20.00     0.259 A 
HETATM    4  C5  UNL     1     -32.458   7.618   1.811  1.00 20.00     0.017 C 
HETATM    5  F7  UNL     1     -33.073   4.247   3.315  1.00 20.00    -0.205 F 
HETATM    6  F8  UNL     1     -34.087   5.171   1.572  1.00 20.00    -0.205 F 
ENDROOT
BRANCH   1   7
HETATM    7  C1  UNL     1     -34.010   6.372   5.095  1.00 20.00     0.229 C 
HETATM    8  O6  UNL     1     -33.388   7.113   5.849  1.00 20.00    -0.279 OA
HETATM    9 CL9  UNL     1     -35.007   5.028   5.567  1.00 20.00    -0.043 Cl
ENDBRANCH   1   7
TORSDOF 1
ENDMDL
MODEL 2
REMARK VINA RESULT:      -4.8      2.806      3.543
REMARK  1 active torsions:
REMARK  status: ('A' for Active; 'I' for Inactive)
REMARK    1  A    between atoms: C1_1  and  C2_2 
ROOT
HETATM    1  C2  UNL     1     -33.528   5.489   4.193  1.00 20.00     0.154 A 
HETATM    2  C3  UNL     1     -34.162   6.704   4.848  1.00 20.00     0.073 A 
HETATM    3  C4  UNL     1     -34.920   5.432   4.724  1.00 20.00     0.259 A 
HETATM    4  C5  UNL     1     -33.686   7.167   6.181  1.00 20.00     0.017 C 
HETATM    5  F7  UNL     1     -35.999   5.345   3.872  1.00 20.00    -0.205 F 
HETATM    6  F8  UNL     1     -35.211   4.667   5.831  1.00 20.00    -0.205 F 
ENDROOT
BRANCH   1   7
HETATM    7  C1  UNL     1     -33.304   5.499   2.744  1.00 20.00     0.229 C 
HETATM    8  O6  UNL     1     -33.585   4.533   2.041  1.00 20.00    -0.279 OA
HETATM    9 CL9  UNL     1     -32.620   7.002   2.199  1.00 20.00    -0.043 Cl
ENDBRANCH   1   7
TORSDOF 1
ENDMDL
MODEL 3
REMARK VINA RESULT:      -4.4      2.820      3.713
REMARK  1 active torsions:
REMARK  status: ('A' for Active; 'I' for Inactive)
REMARK    1  A    between atoms: C1_1  and  C2_2 
ROOT
HETATM    1  C2  UNL     1     -34.088   6.425   4.067  1.00 20.00     0.154 A 
HETATM    2  C3  UNL     1     -33.812   5.597   5.310  1.00 20.00     0.073 A 
HETATM    3  C4  UNL     1     -33.592   7.067   5.318  1.00 20.00     0.259 A 
HETATM    4  C5  UNL     1     -34.941   5.003   6.078  1.00 20.00     0.017 C 
HETATM    5  F7  UNL     1     -32.315   7.578   5.392  1.00 20.00    -0.205 F 
HETATM    6  F8  UNL     1     -34.410   7.904   6.042  1.00 20.00    -0.205 F 
ENDROOT
BRANCH   1   7
HETATM    7  C1  UNL     1     -33.192   6.295   2.913  1.00 20.00     0.229 C 
HETATM    8  O6  UNL     1     -32.591   7.260   2.452  1.00 20.00    -0.279 OA
HETATM    9 CL9  UNL     1     -33.112   4.660   2.330  1.00 20.00    -0.043 Cl
ENDBRANCH   1   7
TORSDOF 1
ENDMDL
MODEL 4
REMARK VINA RESULT:      -4.4     11.420     11.911
REMARK  1 active torsions:
REMARK  status: ('A' for Active; 'I' for Inactive)
REMARK    1  A    between atoms: C1_1  and  C2_2 
ROOT
HETATM    1  C2  UNL     1     -35.628  15.206  -4.243  1.00 20.00     0.154 A 
HETATM    2  C3  UNL     1     -34.891  15.249  -2.916  1.00 20.00     0.073 A 
HETATM    3  C4  UNL     1     -34.564  14.211  -3.929  1.00 20.00     0.259 A 
HETATM    4  C5  UNL     1     -33.930  16.349  -2.630  1.00 20.00     0.017 C 
HETATM    5  F7  UNL     1     -34.877  12.890  -3.698  1.00 20.00    -0.205 F 
HETATM    6  F8  UNL     1     -33.367  14.235  -4.608  1.00 20.00    -0.205 F 
ENDROOT
BRANCH   1   7
HETATM    7  C1  UNL     1     -37.033  14.785  -4.263  1.00 20.00     0.229 C 
HETATM    8  O6  UNL     1     -37.355  13.626  -4.505  1.00 20.00    -0.279 OA
HETATM    9 CL9  UNL     1     -38.114  16.100  -3.912  1.00 20.00    -0.043 Cl
ENDBRANCH   1   7
TORSDOF 1
ENDMDL
MODEL 5
REMARK VINA RESULT:      -4.3     11.887     12.361
REMARK  1 active torsions:
REMARK  status: ('A' for Active; 'I' for Inactive)
REMARK    1  A    between atoms: C1_1  and  C2_2 
ROOT
HETATM    1  C2  UNL     1     -35.340  14.486  -3.759  1.00 20.00     0.154 A 
HETATM    2  C3  UNL     1     -34.496  15.726  -3.992  1.00 20.00     0.073 A 
HETATM    3  C4  UNL     1     -35.541  15.712  -2.935  1.00 20.00     0.259 A 
HETATM    4  C5  UNL     1     -33.054  15.729  -3.621  1.00 20.00     0.017 C 
HETATM    5  F7  UNL     1     -36.679  16.477  -3.071  1.00 20.00    -0.205 F 
HETATM    6  F8  UNL     1     -35.203  15.717  -1.601  1.00 20.00    -0.205 F 
ENDROOT
BRANCH   1   7
HETATM    7  C1  UNL     1     -36.344  14.111  -4.760  1.00 20.00     0.229 C 
HETATM    8  O6  UNL     1     -37.452  13.692  -4.437  1.00 20.00    -0.279 OA
HETATM    9 CL9  UNL     1     -35.765  14.338  -6.383  1.00 20.00    -0.043 Cl
ENDBRANCH   1   7
TORSDOF 1
ENDMDL
MODEL 6
REMARK VINA RESULT:      -4.3     11.924     12.491
REMARK  1 active torsions:
REMARK  status: ('A' for Active; 'I' for Inactive)
REMARK    1  A    between atoms: C1_1  and  C2_2 
ROOT
HETATM    1  C2  UNL     1     -34.698  15.802  -4.232  1.00 20.00     0.154 A 
HETATM    2  C3  UNL     1     -34.503  15.487  -2.759  1.00 20.00     0.073 A 
HETATM    3  C4  UNL     1     -33.349  15.889  -3.605  1.00 20.00     0.259 A 
HETATM    4  C5  UNL     1     -35.032  16.414  -1.721  1.00 20.00     0.017 C 
HETATM    5  F7  UNL     1     -32.364  14.977  -3.916  1.00 20.00    -0.205 F 
HETATM    6  F8  UNL     1     -32.737  17.110  -3.437  1.00 20.00    -0.205 F 
ENDROOT
BRANCH   1   7
HETATM    7  C1  UNL     1     -34.998  14.706  -5.160  1.00 20.00     0.229 C 
HETATM    8  O6  UNL     1     -34.307  14.493  -6.151  1.00 20.00    -0.279 OA
HETATM    9 CL9  UNL     1     -36.402  13.804  -4.672  1.00 20.00    -0.043 Cl
ENDBRANCH   1   7
TORSDOF 1
ENDMDL
MODEL 7
REMARK VINA RESULT:      -4.3     12.179     12.754
REMARK  1 active torsions:
REMARK  status: ('A' for Active; 'I' for Inactive)
REMARK    1  A    between atoms: C1_1  and  C2_2 
ROOT
HETATM    1  C2  UNL     1     -34.530  15.704  -4.626  1.00 20.00     0.154 A 
HETATM    2  C3  UNL     1     -34.544  15.186  -3.199  1.00 20.00     0.073 A 
HETATM    3  C4  UNL     1     -33.266  15.582  -3.846  1.00 20.00     0.259 A 
HETATM    4  C5  UNL     1     -35.122  16.017  -2.107  1.00 20.00     0.017 C 
HETATM    5  F7  UNL     1     -32.325  14.629  -4.169  1.00 20.00    -0.205 F 
HETATM    6  F8  UNL     1     -32.586  16.709  -3.443  1.00 20.00    -0.205 F 
ENDROOT
BRANCH   1   7
HETATM    7  C1  UNL     1     -34.799  14.770  -5.724  1.00 20.00     0.229 C 
HETATM    8  O6  UNL     1     -35.696  13.936  -5.656  1.00 20.00    -0.279 OA
HETATM    9 CL9  UNL     1     -33.718  15.009  -7.064  1.00 20.00    -0.043 Cl
ENDBRANCH   1   7
TORSDOF 1
ENDMDL
MODEL 8
REMARK VINA RESULT:      -3.9      3.501      4.028
REMARK  1 active torsions:
REMARK  status: ('A' for Active; 'I' for Inactive)
REMARK    1  A    between atoms: C1_1  and  C2_2 
ROOT
HETATM    1  C2  UNL     1     -33.245   7.284   2.047  1.00 20.00     0.154 A 
HETATM    2  C3  UNL     1     -32.641   5.945   2.431  1.00 20.00     0.073 A 
HETATM    3  C4  UNL     1     -32.661   7.071   3.401  1.00 20.00     0.259 A 
HETATM    4  C5  UNL     1     -33.518   4.760   2.636  1.00 20.00     0.017 C 
HETATM    5  F7  UNL     1     -31.489   7.691   3.772  1.00 20.00    -0.205 F 
HETATM    6  F8  UNL     1     -33.474   7.036   4.511  1.00 20.00    -0.205 F 
ENDROOT
BRANCH   1   7
HETATM    7  C1  UNL     1     -32.541   8.130   1.078  1.00 20.00     0.229 C 
HETATM    8  O6  UNL     1     -31.669   7.679   0.342  1.00 20.00    -0.279 OA
HETATM    9 CL9  UNL     1     -33.097   9.777   1.123  1.00 20.00    -0.043 Cl
ENDBRANCH   1   7
TORSDOF 1
ENDMDL
MODEL 9
REMARK VINA RESULT:      -3.9      9.093      9.526
REMARK  1 active torsions:
REMARK  status: ('A' for Active; 'I' for Inactive)
REMARK    1  A    between atoms: C1_1  and  C2_2 
ROOT
HETATM    1  C2  UNL     1     -42.612   6.695  -0.336  1.00 20.00     0.154 A 
HETATM    2  C3  UNL     1     -41.507   7.360   0.467  1.00 20.00     0.073 A 
HETATM    3  C4  UNL     1     -41.214   6.739  -0.851  1.00 20.00     0.259 A 
HETATM    4  C5  UNL     1     -41.484   8.841   0.622  1.00 20.00     0.017 C 
HETATM    5  F7  UNL     1     -40.451   5.594  -0.927  1.00 20.00    -0.205 F 
HETATM    6  F8  UNL     1     -40.901   7.512  -1.946  1.00 20.00    -0.205 F 
ENDROOT
BRANCH   1   7
HETATM    7  C1  UNL     1     -43.171   5.425   0.140  1.00 20.00     0.229 C 
HETATM    8  O6  UNL     1     -43.417   4.501  -0.628  1.00 20.00    -0.279 OA
HETATM    9 CL9  UNL     1     -43.416   5.424   1.861  1.00 20.00    -0.043 Cl
ENDBRANCH   1   7
TORSDOF 1
ENDMDL
