MODEL 1
REMARK VINA RESULT:      -5.2      0.000      0.000
REMARK  1 active torsions:
REMARK  status: ('A' for Active; 'I' for Inactive)
REMARK    1  A    between atoms: C5_5  and  O10_10 
ROOT
HETATM    1  C1  UNL     1     -25.189  19.261   9.368  1.00 20.00     0.011 A 
HETATM    2  C2  UNL     1     -24.390  19.179   8.225  1.00 20.00     0.040 A 
HETATM    3  C3  UNL     1     -24.942  18.378  10.405  1.00 20.00    -0.049 A 
HETATM    4  C4  UNL     1     -23.912  17.435  10.322  1.00 20.00    -0.010 A 
HETATM    5  C5  UNL     1     -23.356  18.232   8.141  1.00 20.00     0.104 A 
HETATM    6  C6  UNL     1     -23.106  17.354   9.199  1.00 20.00     0.156 A 
HETATM    7  C7  UNL     1     -25.632  18.298  11.731  1.00 20.00     0.039 C 
HETATM    8  C8  UNL     1     -23.816  16.637  11.584  1.00 20.00     0.042 C 
HETATM    9  C9  UNL     1     -25.192  16.907  12.211  1.00 20.00     0.009 C 
HETATM   10  F11 UNL     1     -22.114  16.459   9.129  1.00 20.00    -0.203 F 
ENDROOT
BRANCH   5  11
HETATM   11  O10 UNL     1     -22.585  18.177   7.019  1.00 20.00    -0.358 OA
HETATM   12  H20 UNL     1     -22.179  17.301   6.935  1.00 20.00     0.217 HD
ENDBRANCH   5  11
TORSDOF 1
ENDMDL
MODEL 2
REMARK VINA RESULT:      -5.2     16.302     16.732
REMARK  1 active torsions:
REMARK  status: ('A' for Active; 'I' for Inactive)
REMARK    1  A    between atoms: C5_5  and  O10_10 
ROOT
HETATM    1  C1  UNL     1     -34.092   4.557   3.088  1.00 20.00     0.011 A 
HETATM    2  C2  UNL     1     -34.758   4.395   4.305  1.00 20.00     0.040 A 
HETATM    3  C3  UNL     1     -33.370   5.720   2.885  1.00 20.00    -0.049 A 
HETATM    4  C4  UNL     1     -33.293   6.705   3.877  1.00 20.00    -0.010 A 
HETATM    5  C5  UNL     1     -34.682   5.383   5.300  1.00 20.00     0.104 A 
HETATM    6  C6  UNL     1     -33.939   6.548   5.091  1.00 20.00     0.156 A 
HETATM    7  C7  UNL     1     -32.551   6.101   1.692  1.00 20.00     0.039 C 
HETATM    8  C8  UNL     1     -32.416   7.835   3.440  1.00 20.00     0.042 C 
HETATM    9  C9  UNL     1     -32.376   7.610   1.920  1.00 20.00     0.009 C 
HETATM   10  F11 UNL     1     -33.852   7.486   6.042  1.00 20.00    -0.203 F 
ENDROOT
BRANCH   5  11
HETATM   11  O10 UNL     1     -35.334   5.199   6.482  1.00 20.00    -0.358 OA
HETATM   12  H20 UNL     1     -34.911   5.718   7.182  1.00 20.00     0.217 HD
ENDBRANCH   5  11
TORSDOF 1
ENDMDL
MODEL 3
REMARK VINA RESULT:      -5.0     15.897     16.135
REMARK  1 active torsions:
REMARK  status: ('A' for Active; 'I' for Inactive)
REMARK    1  A    between atoms: C5_5  and  O10_10 
ROOT
HETATM    1  C1  UNL     1     -34.100   4.983   2.685  1.00 20.00     0.011 A 
HETATM    2  C2  UNL     1     -33.212   5.688   1.869  1.00 20.00     0.040 A 
HETATM    3  C3  UNL     1     -34.262   5.403   3.993  1.00 20.00    -0.049 A 
HETATM    4  C4  UNL     1     -33.568   6.514   4.487  1.00 20.00    -0.010 A 
HETATM    5  C5  UNL     1     -32.514   6.802   2.364  1.00 20.00     0.104 A 
HETATM    6  C6  UNL     1     -32.695   7.226   3.683  1.00 20.00     0.156 A 
HETATM    7  C7  UNL     1     -35.175   4.838   5.036  1.00 20.00     0.039 C 
HETATM    8  C8  UNL     1     -33.952   6.795   5.905  1.00 20.00     0.042 C 
HETATM    9  C9  UNL     1     -34.585   5.456   6.313  1.00 20.00     0.009 C 
HETATM   10  F11 UNL     1     -32.044   8.295   4.156  1.00 20.00    -0.203 F 
ENDROOT
BRANCH   5  11
HETATM   11  O10 UNL     1     -31.659   7.478   1.547  1.00 20.00    -0.358 OA
HETATM   12  H20 UNL     1     -31.903   8.415   1.509  1.00 20.00     0.217 HD
ENDBRANCH   5  11
TORSDOF 1
ENDMDL
MODEL 4
REMARK VINA RESULT:      -4.9     16.518     17.542
REMARK  1 active torsions:
REMARK  status: ('A' for Active; 'I' for Inactive)
REMARK    1  A    between atoms: C5_5  and  O10_10 
ROOT
HETATM    1  C1  UNL     1     -36.719  16.004  -3.474  1.00 20.00     0.011 A 
HETATM    2  C2  UNL     1     -36.862  14.719  -4.002  1.00 20.00     0.040 A 
HETATM    3  C3  UNL     1     -35.448  16.438  -3.140  1.00 20.00    -0.049 A 
HETATM    4  C4  UNL     1     -34.330  15.620  -3.338  1.00 20.00    -0.010 A 
HETATM    5  C5  UNL     1     -35.741  13.897  -4.199  1.00 20.00     0.104 A 
HETATM    6  C6  UNL     1     -34.460  14.349  -3.872  1.00 20.00     0.156 A 
HETATM    7  C7  UNL     1     -35.041  17.774  -2.600  1.00 20.00     0.039 C 
HETATM    8  C8  UNL     1     -33.073  16.331  -2.950  1.00 20.00     0.042 C 
HETATM    9  C9  UNL     1     -33.630  17.466  -2.076  1.00 20.00     0.009 C 
HETATM   10  F11 UNL     1     -33.387  13.575  -4.072  1.00 20.00    -0.203 F 
ENDROOT
BRANCH   5  11
HETATM   11  O10 UNL     1     -35.906  12.650  -4.723  1.00 20.00    -0.358 OA
HETATM   12  H20 UNL     1     -35.057  12.306  -5.040  1.00 20.00     0.217 HD
ENDBRANCH   5  11
TORSDOF 1
ENDMDL
MODEL 5
REMARK VINA RESULT:      -4.9     15.934     16.146
REMARK  1 active torsions:
REMARK  status: ('A' for Active; 'I' for Inactive)
REMARK    1  A    between atoms: C5_5  and  O10_10 
ROOT
HETATM    1  C1  UNL     1     -32.717   7.688   4.785  1.00 20.00     0.011 A 
HETATM    2  C2  UNL     1     -32.208   7.913   3.504  1.00 20.00     0.040 A 
HETATM    3  C3  UNL     1     -33.550   6.600   4.978  1.00 20.00    -0.049 A 
HETATM    4  C4  UNL     1     -33.865   5.735   3.924  1.00 20.00    -0.010 A 
HETATM    5  C5  UNL     1     -32.525   7.045   2.445  1.00 20.00     0.104 A 
HETATM    6  C6  UNL     1     -33.355   5.941   2.654  1.00 20.00     0.156 A 
HETATM    7  C7  UNL     1     -34.181   6.137   6.254  1.00 20.00     0.039 C 
HETATM    8  C8  UNL     1     -34.735   4.613   4.396  1.00 20.00     0.042 C 
HETATM    9  C9  UNL     1     -35.262   5.184   5.722  1.00 20.00     0.009 C 
HETATM   10  F11 UNL     1     -33.649   5.104   1.652  1.00 20.00    -0.203 F 
ENDROOT
BRANCH   5  11
HETATM   11  O10 UNL     1     -32.009   7.281   1.206  1.00 20.00    -0.358 OA
HETATM   12  H20 UNL     1     -31.323   6.628   0.999  1.00 20.00     0.217 HD
ENDBRANCH   5  11
TORSDOF 1
ENDMDL
MODEL 6
REMARK VINA RESULT:      -4.9      2.343      3.706
REMARK  1 active torsions:
REMARK  status: ('A' for Active; 'I' for Inactive)
REMARK    1  A    between atoms: C5_5  and  O10_10 
ROOT
HETATM    1  C1  UNL     1     -22.430  17.964   8.632  1.00 20.00     0.011 A 
HETATM    2  C2  UNL     1     -22.015  17.453   9.864  1.00 20.00     0.040 A 
HETATM    3  C3  UNL     1     -23.695  18.517   8.544  1.00 20.00    -0.049 A 
HETATM    4  C4  UNL     1     -24.537  18.578   9.661  1.00 20.00    -0.010 A 
HETATM    5  C5  UNL     1     -22.859  17.513  10.985  1.00 20.00     0.104 A 
HETATM    6  C6  UNL     1     -24.130  18.085  10.889  1.00 20.00     0.156 A 
HETATM    7  C7  UNL     1     -24.342  19.156   7.354  1.00 20.00     0.039 C 
HETATM    8  C8  UNL     1     -25.822  19.263   9.323  1.00 20.00     0.042 C 
HETATM    9  C9  UNL     1     -25.815  19.170   7.789  1.00 20.00     0.009 C 
HETATM   10  F11 UNL     1     -24.933  18.158  11.957  1.00 20.00    -0.203 F 
ENDROOT
BRANCH   5  11
HETATM   11  O10 UNL     1     -22.429  17.014  12.178  1.00 20.00    -0.358 OA
HETATM   12  H20 UNL     1     -23.042  17.264  12.885  1.00 20.00     0.217 HD
ENDBRANCH   5  11
TORSDOF 1
ENDMDL
MODEL 7
REMARK VINA RESULT:      -4.8     16.148     17.201
REMARK  1 active torsions:
REMARK  status: ('A' for Active; 'I' for Inactive)
REMARK    1  A    between atoms: C5_5  and  O10_10 
ROOT
HETATM    1  C1  UNL     1     -32.882  15.447  -3.941  1.00 20.00     0.011 A 
HETATM    2  C2  UNL     1     -33.604  14.549  -4.730  1.00 20.00     0.040 A 
HETATM    3  C3  UNL     1     -33.557  16.143  -2.954  1.00 20.00    -0.049 A 
HETATM    4  C4  UNL     1     -34.926  15.946  -2.738  1.00 20.00    -0.010 A 
HETATM    5  C5  UNL     1     -34.978  14.352  -4.515  1.00 20.00     0.104 A 
HETATM    6  C6  UNL     1     -35.648  15.049  -3.507  1.00 20.00     0.156 A 
HETATM    7  C7  UNL     1     -32.998  17.121  -1.968  1.00 20.00     0.039 C 
HETATM    8  C8  UNL     1     -35.409  16.772  -1.588  1.00 20.00     0.042 C 
HETATM    9  C9  UNL     1     -34.279  17.806  -1.469  1.00 20.00     0.009 C 
HETATM   10  F11 UNL     1     -36.954  14.854  -3.288  1.00 20.00    -0.203 F 
ENDROOT
BRANCH   5  11
HETATM   11  O10 UNL     1     -35.660  13.464  -5.292  1.00 20.00    -0.358 OA
HETATM   12  H20 UNL     1     -35.572  12.568  -4.934  1.00 20.00     0.217 HD
ENDBRANCH   5  11
TORSDOF 1
ENDMDL
MODEL 8
REMARK VINA RESULT:      -4.8     17.177     18.277
REMARK  1 active torsions:
REMARK  status: ('A' for Active; 'I' for Inactive)
REMARK    1  A    between atoms: C5_5  and  O10_10 
ROOT
HETATM    1  C1  UNL     1     -34.581  14.016  -4.045  1.00 20.00     0.011 A 
HETATM    2  C2  UNL     1     -35.870  13.569  -4.348  1.00 20.00     0.040 A 
HETATM    3  C3  UNL     1     -34.430  15.310  -3.576  1.00 20.00    -0.049 A 
HETATM    4  C4  UNL     1     -35.536  16.147  -3.395  1.00 20.00    -0.010 A 
HETATM    5  C5  UNL     1     -36.980  14.409  -4.167  1.00 20.00     0.104 A 
HETATM    6  C6  UNL     1     -36.818  15.709  -3.680  1.00 20.00     0.156 A 
HETATM    7  C7  UNL     1     -33.168  15.995  -3.153  1.00 20.00     0.039 C 
HETATM    8  C8  UNL     1     -35.118  17.469  -2.833  1.00 20.00     0.042 C 
HETATM    9  C9  UNL     1     -33.615  17.465  -3.150  1.00 20.00     0.009 C 
HETATM   10  F11 UNL     1     -37.875  16.509  -3.493  1.00 20.00    -0.203 F 
ENDROOT
BRANCH   5  11
HETATM   11  O10 UNL     1     -38.228  13.947  -4.462  1.00 20.00    -0.358 OA
HETATM   12  H20 UNL     1     -38.814  14.055  -3.698  1.00 20.00     0.217 HD
ENDBRANCH   5  11
TORSDOF 1
ENDMDL
MODEL 9
REMARK VINA RESULT:      -4.8     17.408     18.443
REMARK  1 active torsions:
REMARK  status: ('A' for Active; 'I' for Inactive)
REMARK    1  A    between atoms: C5_5  and  O10_10 
ROOT
HETATM    1  C1  UNL     1     -36.095  14.353  -3.749  1.00 20.00     0.011 A 
HETATM    2  C2  UNL     1     -36.319  13.963  -5.071  1.00 20.00     0.040 A 
HETATM    3  C3  UNL     1     -35.158  15.342  -3.506  1.00 20.00    -0.049 A 
HETATM    4  C4  UNL     1     -34.460  15.949  -4.556  1.00 20.00    -0.010 A 
HETATM    5  C5  UNL     1     -35.618  14.572  -6.125  1.00 20.00     0.104 A 
HETATM    6  C6  UNL     1     -34.684  15.579  -5.871  1.00 20.00     0.156 A 
HETATM    7  C7  UNL     1     -34.775  15.947  -2.191  1.00 20.00     0.039 C 
HETATM    8  C8  UNL     1     -33.547  17.017  -4.042  1.00 20.00     0.042 C 
HETATM    9  C9  UNL     1     -33.452  16.638  -2.556  1.00 20.00     0.009 C 
HETATM   10  F11 UNL     1     -34.024  16.172  -6.873  1.00 20.00    -0.203 F 
ENDROOT
BRANCH   5  11
HETATM   11  O10 UNL     1     -35.860  14.180  -7.408  1.00 20.00    -0.358 OA
HETATM   12  H20 UNL     1     -36.815  14.125  -7.566  1.00 20.00     0.217 HD
ENDBRANCH   5  11
TORSDOF 1
ENDMDL
