MODEL 1
REMARK VINA RESULT:      -4.5      0.000      0.000
REMARK  1 active torsions:
REMARK  status: ('A' for Active; 'I' for Inactive)
REMARK    1  A    between atoms: C5_5  and  C9_9 
ROOT
HETATM    1  C1  UNL     1     -33.574  17.564  -3.390  1.00 20.00    -0.021 C 
HETATM    2  C2  UNL     1     -34.859  17.754  -3.731  1.00 20.00    -0.024 C 
HETATM    3  C3  UNL     1     -33.708  15.167  -3.945  1.00 20.00    -0.065 C 
HETATM    4  C4  UNL     1     -32.814  14.284  -4.401  1.00 20.00     0.016 C 
HETATM    5  C6  UNL     1     -34.834  16.102  -2.132  1.00 20.00     0.023 C 
HETATM    6  C7  UNL     1     -33.468  16.169  -2.822  1.00 20.00     0.038 C 
HETATM    7  C8  UNL     1     -35.609  16.470  -3.408  1.00 20.00     0.028 C 
HETATM    8  C9  UNL     1     -35.170  15.329  -4.382  1.00 20.00     0.046 C 
HETATM    9  C11 UNL     1     -35.998  14.054  -4.200  1.00 20.00     0.029 C 
ENDROOT
BRANCH   8  10
HETATM   10  C5  UNL     1     -35.249  15.762  -5.825  1.00 20.00     0.136 C 
HETATM   11  C10 UNL     1     -36.627  15.951  -6.401  1.00 20.00     0.092 C 
HETATM   12  O12 UNL     1     -34.237  15.953  -6.498  1.00 20.00    -0.297 OA
ENDBRANCH   8  10
TORSDOF 1
ENDMDL
MODEL 2
REMARK VINA RESULT:      -4.5      1.084      1.773
REMARK  1 active torsions:
REMARK  status: ('A' for Active; 'I' for Inactive)
REMARK    1  A    between atoms: C5_5  and  C9_9 
ROOT
HETATM    1  C1  UNL     1     -33.425  16.098  -2.950  1.00 20.00    -0.021 C 
HETATM    2  C2  UNL     1     -33.517  17.072  -3.870  1.00 20.00    -0.024 C 
HETATM    3  C3  UNL     1     -35.241  14.820  -4.019  1.00 20.00    -0.065 C 
HETATM    4  C4  UNL     1     -35.503  13.513  -4.114  1.00 20.00     0.016 C 
HETATM    5  C6  UNL     1     -35.604  16.848  -2.930  1.00 20.00     0.023 C 
HETATM    6  C7  UNL     1     -34.816  15.546  -2.749  1.00 20.00     0.038 C 
HETATM    7  C8  UNL     1     -34.974  17.155  -4.299  1.00 20.00     0.028 C 
HETATM    8  C9  UNL     1     -35.369  15.883  -5.119  1.00 20.00     0.046 C 
HETATM    9  C11 UNL     1     -36.782  15.978  -5.702  1.00 20.00     0.029 C 
ENDROOT
BRANCH   8  10
HETATM   10  C5  UNL     1     -34.394  15.612  -6.238  1.00 20.00     0.136 C 
HETATM   11  C10 UNL     1     -34.371  16.603  -7.370  1.00 20.00     0.092 C 
HETATM   12  O12 UNL     1     -33.653  14.630  -6.224  1.00 20.00    -0.297 OA
ENDBRANCH   8  10
TORSDOF 1
ENDMDL
MODEL 3
REMARK VINA RESULT:      -4.4      1.631      2.452
REMARK  1 active torsions:
REMARK  status: ('A' for Active; 'I' for Inactive)
REMARK    1  A    between atoms: C5_5  and  C9_9 
ROOT
HETATM    1  C1  UNL     1     -34.196  17.008  -2.366  1.00 20.00    -0.021 C 
HETATM    2  C2  UNL     1     -34.855  15.849  -2.207  1.00 20.00    -0.024 C 
HETATM    3  C3  UNL     1     -34.551  16.956  -4.804  1.00 20.00    -0.065 C 
HETATM    4  C4  UNL     1     -34.694  17.914  -5.726  1.00 20.00     0.016 C 
HETATM    5  C6  UNL     1     -33.157  15.446  -3.705  1.00 20.00     0.023 C 
HETATM    6  C7  UNL     1     -33.498  16.940  -3.703  1.00 20.00     0.038 C 
HETATM    7  C8  UNL     1     -34.611  15.013  -3.455  1.00 20.00     0.028 C 
HETATM    8  C9  UNL     1     -35.344  15.648  -4.682  1.00 20.00     0.046 C 
HETATM    9  C11 UNL     1     -35.256  14.771  -5.934  1.00 20.00     0.029 C 
ENDROOT
BRANCH   8  10
HETATM   10  C5  UNL     1     -36.795  15.931  -4.384  1.00 20.00     0.136 C 
HETATM   11  C10 UNL     1     -37.716  14.742  -4.309  1.00 20.00     0.092 C 
HETATM   12  O12 UNL     1     -37.206  17.077  -4.208  1.00 20.00    -0.297 OA
ENDBRANCH   8  10
TORSDOF 1
ENDMDL
MODEL 4
REMARK VINA RESULT:      -4.4      1.510      2.785
REMARK  1 active torsions:
REMARK  status: ('A' for Active; 'I' for Inactive)
REMARK    1  A    between atoms: C5_5  and  C9_9 
ROOT
HETATM    1  C1  UNL     1     -35.494  16.698  -2.469  1.00 20.00    -0.021 C 
HETATM    2  C2  UNL     1     -34.898  15.496  -2.410  1.00 20.00    -0.024 C 
HETATM    3  C3  UNL     1     -35.806  16.503  -4.905  1.00 20.00    -0.065 C 
HETATM    4  C4  UNL     1     -36.735  16.968  -5.746  1.00 20.00     0.016 C 
HETATM    5  C6  UNL     1     -33.708  16.754  -3.923  1.00 20.00     0.023 C 
HETATM    6  C7  UNL     1     -35.131  17.308  -3.802  1.00 20.00     0.038 C 
HETATM    7  C8  UNL     1     -34.151  15.295  -3.720  1.00 20.00     0.028 C 
HETATM    8  C9  UNL     1     -35.165  15.109  -4.896  1.00 20.00     0.046 C 
HETATM    9  C11 UNL     1     -34.472  14.756  -6.216  1.00 20.00     0.029 C 
ENDROOT
BRANCH   8  10
HETATM   10  C5  UNL     1     -36.195  14.051  -4.587  1.00 20.00     0.136 C 
HETATM   11  C10 UNL     1     -37.606  14.524  -4.363  1.00 20.00     0.092 C 
HETATM   12  O12 UNL     1     -35.897  12.859  -4.523  1.00 20.00    -0.297 OA
ENDBRANCH   8  10
TORSDOF 1
ENDMDL
MODEL 5
REMARK VINA RESULT:      -4.3      1.428      2.940
REMARK  1 active torsions:
REMARK  status: ('A' for Active; 'I' for Inactive)
REMARK    1  A    between atoms: C5_5  and  C9_9 
ROOT
HETATM    1  C1  UNL     1     -35.145  16.226  -1.848  1.00 20.00    -0.021 C 
HETATM    2  C2  UNL     1     -33.912  16.332  -2.370  1.00 20.00    -0.024 C 
HETATM    3  C3  UNL     1     -36.041  15.345  -3.968  1.00 20.00    -0.065 C 
HETATM    4  C4  UNL     1     -37.032  14.495  -4.257  1.00 20.00     0.016 C 
HETATM    5  C6  UNL     1     -35.314  17.546  -3.729  1.00 20.00     0.023 C 
HETATM    6  C7  UNL     1     -36.123  16.491  -2.967  1.00 20.00     0.038 C 
HETATM    7  C8  UNL     1     -34.071  16.650  -3.849  1.00 20.00     0.028 C 
HETATM    8  C9  UNL     1     -34.648  15.411  -4.608  1.00 20.00     0.046 C 
HETATM    9  C11 UNL     1     -34.692  15.622  -6.124  1.00 20.00     0.029 C 
ENDROOT
BRANCH   8  10
HETATM   10  C5  UNL     1     -33.865  14.156  -4.311  1.00 20.00     0.136 C 
HETATM   11  C10 UNL     1     -32.370  14.238  -4.464  1.00 20.00     0.092 C 
HETATM   12  O12 UNL     1     -34.421  13.117  -3.958  1.00 20.00    -0.297 OA
ENDBRANCH   8  10
TORSDOF 1
ENDMDL
MODEL 6
REMARK VINA RESULT:      -4.3      1.345      2.245
REMARK  1 active torsions:
REMARK  status: ('A' for Active; 'I' for Inactive)
REMARK    1  A    between atoms: C5_5  and  C9_9 
ROOT
HETATM    1  C1  UNL     1     -32.991  15.532  -3.621  1.00 20.00    -0.021 C 
HETATM    2  C2  UNL     1     -34.016  16.029  -2.910  1.00 20.00    -0.024 C 
HETATM    3  C3  UNL     1     -34.380  15.377  -5.650  1.00 20.00    -0.065 C 
HETATM    4  C4  UNL     1     -34.104  15.473  -6.954  1.00 20.00     0.016 C 
HETATM    5  C6  UNL     1     -34.725  14.024  -3.784  1.00 20.00     0.023 C 
HETATM    6  C7  UNL     1     -33.575  14.576  -4.633  1.00 20.00     0.038 C 
HETATM    7  C8  UNL     1     -35.293  15.417  -3.467  1.00 20.00     0.028 C 
HETATM    8  C9  UNL     1     -35.579  15.974  -4.900  1.00 20.00     0.046 C 
HETATM    9  C11 UNL     1     -36.928  15.506  -5.451  1.00 20.00     0.029 C 
ENDROOT
BRANCH   8  10
HETATM   10  C5  UNL     1     -35.532  17.481  -4.935  1.00 20.00     0.136 C 
HETATM   11  C10 UNL     1     -36.686  18.210  -4.302  1.00 20.00     0.092 C 
HETATM   12  O12 UNL     1     -34.594  18.086  -5.454  1.00 20.00    -0.297 OA
ENDBRANCH   8  10
TORSDOF 1
ENDMDL
MODEL 7
REMARK VINA RESULT:      -4.3      1.294      3.511
REMARK  1 active torsions:
REMARK  status: ('A' for Active; 'I' for Inactive)
REMARK    1  A    between atoms: C5_5  and  C9_9 
ROOT
HETATM    1  C1  UNL     1     -34.562  14.978  -5.990  1.00 20.00    -0.021 C 
HETATM    2  C2  UNL     1     -33.561  14.799  -5.113  1.00 20.00    -0.024 C 
HETATM    3  C3  UNL     1     -35.862  16.276  -4.347  1.00 20.00    -0.065 C 
HETATM    4  C4  UNL     1     -36.740  17.277  -4.464  1.00 20.00     0.016 C 
HETATM    5  C6  UNL     1     -35.469  13.991  -4.116  1.00 20.00     0.023 C 
HETATM    6  C7  UNL     1     -35.846  15.011  -5.195  1.00 20.00     0.038 C 
HETATM    7  C8  UNL     1     -34.180  14.732  -3.725  1.00 20.00     0.028 C 
HETATM    8  C9  UNL     1     -34.736  16.134  -3.314  1.00 20.00     0.046 C 
HETATM    9  C11 UNL     1     -35.239  16.163  -1.868  1.00 20.00     0.029 C 
ENDROOT
BRANCH   8  10
HETATM   10  C5  UNL     1     -33.706  17.222  -3.496  1.00 20.00     0.136 C 
HETATM   11  C10 UNL     1     -32.709  17.403  -2.383  1.00 20.00     0.092 C 
HETATM   12  O12 UNL     1     -33.681  17.924  -4.505  1.00 20.00    -0.297 OA
ENDBRANCH   8  10
TORSDOF 1
ENDMDL
MODEL 8
REMARK VINA RESULT:      -4.2      1.702      3.194
REMARK  1 active torsions:
REMARK  status: ('A' for Active; 'I' for Inactive)
REMARK    1  A    between atoms: C5_5  and  C9_9 
ROOT
HETATM    1  C1  UNL     1     -35.748  13.741  -4.401  1.00 20.00    -0.021 C 
HETATM    2  C2  UNL     1     -35.936  14.444  -5.530  1.00 20.00    -0.024 C 
HETATM    3  C3  UNL     1     -34.918  15.734  -3.214  1.00 20.00    -0.065 C 
HETATM    4  C4  UNL     1     -34.967  16.121  -1.936  1.00 20.00     0.016 C 
HETATM    5  C6  UNL     1     -33.730  14.714  -4.940  1.00 20.00     0.023 C 
HETATM    6  C7  UNL     1     -34.551  14.338  -3.701  1.00 20.00     0.038 C 
HETATM    7  C8  UNL     1     -34.870  15.529  -5.571  1.00 20.00     0.028 C 
HETATM    8  C9  UNL     1     -35.144  16.598  -4.463  1.00 20.00     0.046 C 
HETATM    9  C11 UNL     1     -34.188  17.791  -4.551  1.00 20.00     0.029 C 
ENDROOT
BRANCH   8  10
HETATM   10  C5  UNL     1     -36.564  17.104  -4.510  1.00 20.00     0.136 C 
HETATM   11  C10 UNL     1     -36.921  18.014  -5.655  1.00 20.00     0.092 C 
HETATM   12  O12 UNL     1     -37.391  16.786  -3.656  1.00 20.00    -0.297 OA
ENDBRANCH   8  10
TORSDOF 1
ENDMDL
MODEL 9
REMARK VINA RESULT:      -4.1      1.502      2.796
REMARK  1 active torsions:
REMARK  status: ('A' for Active; 'I' for Inactive)
REMARK    1  A    between atoms: C5_5  and  C9_9 
ROOT
HETATM    1  C1  UNL     1     -34.261  14.020  -3.825  1.00 20.00    -0.021 C 
HETATM    2  C2  UNL     1     -33.594  14.766  -4.720  1.00 20.00    -0.024 C 
HETATM    3  C3  UNL     1     -36.372  15.192  -4.317  1.00 20.00    -0.065 C 
HETATM    4  C4  UNL     1     -37.654  14.814  -4.290  1.00 20.00     0.016 C 
HETATM    5  C6  UNL     1     -34.581  16.226  -3.244  1.00 20.00     0.023 C 
HETATM    6  C7  UNL     1     -35.341  14.896  -3.235  1.00 20.00     0.038 C 
HETATM    7  C8  UNL     1     -34.246  16.140  -4.742  1.00 20.00     0.028 C 
HETATM    8  C9  UNL     1     -35.672  16.052  -5.378  1.00 20.00     0.046 C 
HETATM    9  C11 UNL     1     -36.318  17.428  -5.560  1.00 20.00     0.029 C 
ENDROOT
BRANCH   8  10
HETATM   10  C5  UNL     1     -35.649  15.341  -6.708  1.00 20.00     0.136 C 
HETATM   11  C10 UNL     1     -34.995  16.067  -7.853  1.00 20.00     0.092 C 
HETATM   12  O12 UNL     1     -36.140  14.222  -6.850  1.00 20.00    -0.297 OA
ENDBRANCH   8  10
TORSDOF 1
ENDMDL
