MODEL 1
REMARK VINA RESULT:      -4.9      0.000      0.000
REMARK  2 active torsions:
REMARK  status: ('A' for Active; 'I' for Inactive)
REMARK    1  A    between atoms: C1_1  and  C8_8 
REMARK    2  A    between atoms: C2_2  and  C9_9 
ROOT
HETATM    1  C3  UNL     1     -33.861   6.579   5.453  1.00 20.00     0.082 C 
HETATM    2  C6  UNL     1     -35.458   5.321   3.953  1.00 20.00     0.040 A 
HETATM    3  C7  UNL     1     -34.230   4.474   4.107  1.00 20.00     0.040 A 
HETATM    4  C9  UNL     1     -34.118   5.978   4.177  1.00 20.00     0.112 A 
HETATM    5  N10 UNL     1     -33.655   7.067   6.486  1.00 20.00    -0.195 NA
ENDROOT
BRANCH   4   6
HETATM    6  C2  UNL     1     -33.507   6.665   3.075  1.00 20.00    -0.081 C 
HETATM    7  C1  UNL     1     -32.996   7.238   2.152  1.00 20.00    -0.100 C 
BRANCH   7   8
HETATM    8  C8  UNL     1     -32.374   7.939   1.030  1.00 20.00     0.065 A 
HETATM    9  C4  UNL     1     -32.792   9.346   0.769  1.00 20.00     0.018 A 
HETATM   10  C5  UNL     1     -33.223   8.248  -0.157  1.00 20.00     0.018 A 
ENDBRANCH   7   8
ENDBRANCH   4   6
TORSDOF 2
ENDMDL
MODEL 2
REMARK VINA RESULT:      -4.8     10.465     11.442
REMARK  2 active torsions:
REMARK  status: ('A' for Active; 'I' for Inactive)
REMARK    1  A    between atoms: C1_1  and  C8_8 
REMARK    2  A    between atoms: C2_2  and  C9_9 
ROOT
HETATM    1  C3  UNL     1     -35.394  13.704  -4.217  1.00 20.00     0.082 C 
HETATM    2  C6  UNL     1     -33.896  15.496  -5.180  1.00 20.00     0.040 A 
HETATM    3  C7  UNL     1     -33.029  14.578  -4.372  1.00 20.00     0.040 A 
HETATM    4  C9  UNL     1     -34.475  14.779  -3.984  1.00 20.00     0.112 A 
HETATM    5  N10 UNL     1     -36.140  12.835  -4.406  1.00 20.00    -0.195 NA
ENDROOT
BRANCH   4   6
HETATM    6  C2  UNL     1     -34.760  15.546  -2.806  1.00 20.00    -0.081 C 
HETATM    7  C1  UNL     1     -35.000  16.188  -1.820  1.00 20.00    -0.100 C 
BRANCH   7   8
HETATM    8  C8  UNL     1     -35.290  16.970  -0.619  1.00 20.00     0.065 A 
HETATM    9  C4  UNL     1     -35.544  18.430  -0.783  1.00 20.00     0.018 A 
HETATM   10  C5  UNL     1     -34.265  17.952  -0.161  1.00 20.00     0.018 A 
ENDBRANCH   7   8
ENDBRANCH   4   6
TORSDOF 2
ENDMDL
MODEL 3
REMARK VINA RESULT:      -4.5     10.654     11.871
REMARK  2 active torsions:
REMARK  status: ('A' for Active; 'I' for Inactive)
REMARK    1  A    between atoms: C1_1  and  C8_8 
REMARK    2  A    between atoms: C2_2  and  C9_9 
ROOT
HETATM    1  C3  UNL     1     -31.705  18.245  -0.821  1.00 20.00     0.082 C 
HETATM    2  C6  UNL     1     -34.023  19.156  -1.250  1.00 20.00     0.040 A 
HETATM    3  C7  UNL     1     -34.145  18.117  -0.175  1.00 20.00     0.040 A 
HETATM    4  C9  UNL     1     -33.060  17.994  -1.218  1.00 20.00     0.112 A 
HETATM    5  N10 UNL     1     -30.609  18.449  -0.500  1.00 20.00    -0.195 NA
ENDROOT
BRANCH   4   6
HETATM    6  C2  UNL     1     -33.195  16.975  -2.219  1.00 20.00    -0.081 C 
HETATM    7  C1  UNL     1     -33.309  16.122  -3.057  1.00 20.00    -0.100 C 
BRANCH   7   8
HETATM    8  C8  UNL     1     -33.445  15.084  -4.077  1.00 20.00     0.065 A 
HETATM    9  C4  UNL     1     -34.563  15.212  -5.056  1.00 20.00     0.018 A 
HETATM   10  C5  UNL     1     -34.615  14.163  -3.984  1.00 20.00     0.018 A 
ENDBRANCH   7   8
ENDBRANCH   4   6
TORSDOF 2
ENDMDL
MODEL 4
REMARK VINA RESULT:      -4.3      1.516      2.025
REMARK  2 active torsions:
REMARK  status: ('A' for Active; 'I' for Inactive)
REMARK    1  A    between atoms: C1_1  and  C8_8 
REMARK    2  A    between atoms: C2_2  and  C9_9 
ROOT
HETATM    1  C3  UNL     1     -34.032   4.685   3.958  1.00 20.00     0.082 C 
HETATM    2  C6  UNL     1     -33.444   6.545   5.563  1.00 20.00     0.040 A 
HETATM    3  C7  UNL     1     -34.834   6.809   5.066  1.00 20.00     0.040 A 
HETATM    4  C9  UNL     1     -33.845   6.089   4.181  1.00 20.00     0.112 A 
HETATM    5  N10 UNL     1     -34.183   3.548   3.777  1.00 20.00    -0.195 NA
ENDROOT
BRANCH   4   6
HETATM    6  C2  UNL     1     -33.308   6.792   3.053  1.00 20.00    -0.081 C 
HETATM    7  C1  UNL     1     -32.857   7.381   2.107  1.00 20.00    -0.100 C 
BRANCH   7   8
HETATM    8  C8  UNL     1     -32.311   8.099   0.957  1.00 20.00     0.065 A 
HETATM    9  C4  UNL     1     -32.801   9.483   0.702  1.00 20.00     0.018 A 
HETATM   10  C5  UNL     1     -33.218   8.358  -0.198  1.00 20.00     0.018 A 
ENDBRANCH   7   8
ENDBRANCH   4   6
TORSDOF 2
ENDMDL
MODEL 5
REMARK VINA RESULT:      -4.2     10.874     11.901
REMARK  2 active torsions:
REMARK  status: ('A' for Active; 'I' for Inactive)
REMARK    1  A    between atoms: C1_1  and  C8_8 
REMARK    2  A    between atoms: C2_2  and  C9_9 
ROOT
HETATM    1  C3  UNL     1     -33.321  14.960  -3.976  1.00 20.00     0.082 C 
HETATM    2  C6  UNL     1     -35.447  15.506  -2.725  1.00 20.00     0.040 A 
HETATM    3  C7  UNL     1     -35.389  16.409  -3.921  1.00 20.00     0.040 A 
HETATM    4  C9  UNL     1     -34.108  15.933  -3.278  1.00 20.00     0.112 A 
HETATM    5  N10 UNL     1     -32.683  14.171  -4.541  1.00 20.00    -0.195 NA
ENDROOT
BRANCH   4   6
HETATM    6  C2  UNL     1     -33.335  16.879  -2.526  1.00 20.00    -0.081 C 
HETATM    7  C1  UNL     1     -32.688  17.671  -1.896  1.00 20.00    -0.100 C 
BRANCH   7   8
HETATM    8  C8  UNL     1     -31.899  18.634  -1.129  1.00 20.00     0.065 A 
HETATM    9  C4  UNL     1     -30.878  18.102  -0.182  1.00 20.00     0.018 A 
HETATM   10  C5  UNL     1     -32.141  18.721   0.339  1.00 20.00     0.018 A 
ENDBRANCH   7   8
ENDBRANCH   4   6
TORSDOF 2
ENDMDL
MODEL 6
REMARK VINA RESULT:      -4.1     10.678     11.402
REMARK  2 active torsions:
REMARK  status: ('A' for Active; 'I' for Inactive)
REMARK    1  A    between atoms: C1_1  and  C8_8 
REMARK    2  A    between atoms: C2_2  and  C9_9 
ROOT
HETATM    1  C3  UNL     1     -33.144  17.832  -1.203  1.00 20.00     0.082 C 
HETATM    2  C6  UNL     1     -35.645  18.187  -1.126  1.00 20.00     0.040 A 
HETATM    3  C7  UNL     1     -35.301  17.203  -0.047  1.00 20.00     0.040 A 
HETATM    4  C9  UNL     1     -34.459  17.268  -1.300  1.00 20.00     0.112 A 
HETATM    5  N10 UNL     1     -32.080  18.289  -1.126  1.00 20.00    -0.195 NA
ENDROOT
BRANCH   4   6
HETATM    6  C2  UNL     1     -34.566  16.195  -2.245  1.00 20.00    -0.081 C 
HETATM    7  C1  UNL     1     -34.655  15.296  -3.036  1.00 20.00    -0.100 C 
BRANCH   7   8
HETATM    8  C8  UNL     1     -34.765  14.202  -4.001  1.00 20.00     0.065 A 
HETATM    9  C4  UNL     1     -35.247  14.530  -5.373  1.00 20.00     0.018 A 
HETATM   10  C5  UNL     1     -36.130  13.778  -4.422  1.00 20.00     0.018 A 
ENDBRANCH   7   8
ENDBRANCH   4   6
TORSDOF 2
ENDMDL
MODEL 7
REMARK VINA RESULT:      -4.0     11.229     12.523
REMARK  2 active torsions:
REMARK  status: ('A' for Active; 'I' for Inactive)
REMARK    1  A    between atoms: C1_1  and  C8_8 
REMARK    2  A    between atoms: C2_2  and  C9_9 
ROOT
HETATM    1  C3  UNL     1     -34.367  17.119  -4.809  1.00 20.00     0.082 C 
HETATM    2  C6  UNL     1     -33.204  15.030  -3.992  1.00 20.00     0.040 A 
HETATM    3  C7  UNL     1     -34.489  15.152  -3.229  1.00 20.00     0.040 A 
HETATM    4  C9  UNL     1     -33.785  16.397  -3.717  1.00 20.00     0.112 A 
HETATM    5  N10 UNL     1     -34.837  17.705  -5.695  1.00 20.00    -0.195 NA
ENDROOT
BRANCH   4   6
HETATM    6  C2  UNL     1     -33.131  17.229  -2.749  1.00 20.00    -0.081 C 
HETATM    7  C1  UNL     1     -32.583  17.927  -1.939  1.00 20.00    -0.100 C 
BRANCH   7   8
HETATM    8  C8  UNL     1     -31.917  18.774  -0.952  1.00 20.00     0.065 A 
HETATM    9  C4  UNL     1     -30.876  18.149  -0.086  1.00 20.00     0.018 A 
HETATM   10  C5  UNL     1     -32.208  18.528   0.490  1.00 20.00     0.018 A 
ENDBRANCH   7   8
ENDBRANCH   4   6
TORSDOF 2
ENDMDL
MODEL 8
REMARK VINA RESULT:      -4.0     10.510     11.755
REMARK  2 active torsions:
REMARK  status: ('A' for Active; 'I' for Inactive)
REMARK    1  A    between atoms: C1_1  and  C8_8 
REMARK    2  A    between atoms: C2_2  and  C9_9 
ROOT
HETATM    1  C3  UNL     1     -34.211  17.851  -0.439  1.00 20.00     0.082 C 
HETATM    2  C6  UNL     1     -31.802  18.225  -1.105  1.00 20.00     0.040 A 
HETATM    3  C7  UNL     1     -32.646  19.117  -1.966  1.00 20.00     0.040 A 
HETATM    4  C9  UNL     1     -33.209  17.808  -1.463  1.00 20.00     0.112 A 
HETATM    5  N10 UNL     1     -35.022  17.885   0.390  1.00 20.00    -0.195 NA
ENDROOT
BRANCH   4   6
HETATM    6  C2  UNL     1     -33.380  16.738  -2.403  1.00 20.00    -0.081 C 
HETATM    7  C1  UNL     1     -33.522  15.842  -3.190  1.00 20.00    -0.100 C 
BRANCH   7   8
HETATM    8  C8  UNL     1     -33.697  14.751  -4.147  1.00 20.00     0.065 A 
HETATM    9  C4  UNL     1     -34.692  14.936  -5.241  1.00 20.00     0.018 A 
HETATM   10  C5  UNL     1     -34.980  13.992  -4.112  1.00 20.00     0.018 A 
ENDBRANCH   7   8
ENDBRANCH   4   6
TORSDOF 2
ENDMDL
MODEL 9
REMARK VINA RESULT:      -4.0     11.433     12.223
REMARK  2 active torsions:
REMARK  status: ('A' for Active; 'I' for Inactive)
REMARK    1  A    between atoms: C1_1  and  C8_8 
REMARK    2  A    between atoms: C2_2  and  C9_9 
ROOT
HETATM    1  C3  UNL     1     -37.152  14.471  -4.743  1.00 20.00     0.082 C 
HETATM    2  C6  UNL     1     -36.303  16.044  -6.528  1.00 20.00     0.040 A 
HETATM    3  C7  UNL     1     -35.552  14.755  -6.677  1.00 20.00     0.040 A 
HETATM    4  C9  UNL     1     -36.047  15.182  -5.315  1.00 20.00     0.112 A 
HETATM    5  N10 UNL     1     -38.047  13.896  -4.278  1.00 20.00    -0.195 NA
ENDROOT
BRANCH   4   6
HETATM    6  C2  UNL     1     -35.082  15.633  -4.355  1.00 20.00    -0.081 C 
HETATM    7  C1  UNL     1     -34.273  16.010  -3.551  1.00 20.00    -0.100 C 
BRANCH   7   8
HETATM    8  C8  UNL     1     -33.290  16.471  -2.572  1.00 20.00     0.065 A 
HETATM    9  C4  UNL     1     -33.732  17.472  -1.559  1.00 20.00     0.018 A 
HETATM   10  C5  UNL     1     -32.813  17.880  -2.673  1.00 20.00     0.018 A 
ENDBRANCH   7   8
ENDBRANCH   4   6
TORSDOF 2
ENDMDL
