MODEL 1
REMARK VINA RESULT:      -4.2      0.000      0.000
REMARK  1 active torsions:
REMARK  status: ('A' for Active; 'I' for Inactive)
REMARK    1  A    between atoms: C1_1  and  C5_5 
ROOT
HETATM    1  C2  UNL     1     -34.040  15.879  -2.608  1.00 20.00     0.002 C 
HETATM    2  C3  UNL     1     -35.543  15.755  -2.870  1.00 20.00     0.017 C 
HETATM    3  C4  UNL     1     -33.339  15.543  -3.921  1.00 20.00     0.010 C 
HETATM    4  C5  UNL     1     -35.694  15.244  -4.317  1.00 20.00     0.023 C 
HETATM    5  C6  UNL     1     -34.399  15.762  -5.019  1.00 20.00    -0.034 C 
HETATM    6  C8  UNL     1     -35.850  13.715  -4.315  1.00 20.00     0.024 C 
HETATM    7  C9  UNL     1     -34.466  17.269  -5.362  1.00 20.00     0.016 C 
HETATM    8  C10 UNL     1     -34.019  15.001  -6.296  1.00 20.00     0.016 C 
ENDROOT
BRANCH   4   9
HETATM    9  C1  UNL     1     -36.950  15.798  -4.938  1.00 20.00     0.132 C 
HETATM   10  C7  UNL     1     -37.732  16.784  -4.116  1.00 20.00     0.091 C 
HETATM   11  O11 UNL     1     -37.317  15.460  -6.063  1.00 20.00    -0.298 OA
ENDBRANCH   4   9
TORSDOF 1
ENDMDL
MODEL 2
REMARK VINA RESULT:      -4.2      1.926      3.382
REMARK  1 active torsions:
REMARK  status: ('A' for Active; 'I' for Inactive)
REMARK    1  A    between atoms: C1_1  and  C5_5 
ROOT
HETATM    1  C2  UNL     1     -36.282  13.722  -4.643  1.00 20.00     0.002 C 
HETATM    2  C3  UNL     1     -34.979  13.861  -3.854  1.00 20.00     0.017 C 
HETATM    3  C4  UNL     1     -36.733  15.137  -4.995  1.00 20.00     0.010 C 
HETATM    4  C5  UNL     1     -34.740  15.373  -3.667  1.00 20.00     0.023 C 
HETATM    5  C6  UNL     1     -35.465  16.007  -4.896  1.00 20.00    -0.034 C 
HETATM    6  C8  UNL     1     -35.289  15.822  -2.303  1.00 20.00     0.024 C 
HETATM    7  C9  UNL     1     -34.654  15.866  -6.207  1.00 20.00     0.016 C 
HETATM    8  C10 UNL     1     -35.836  17.485  -4.725  1.00 20.00     0.016 C 
ENDROOT
BRANCH   4   9
HETATM    9  C1  UNL     1     -33.263  15.670  -3.649  1.00 20.00     0.132 C 
HETATM   10  C7  UNL     1     -32.841  16.959  -3.000  1.00 20.00     0.091 C 
HETATM   11  O11 UNL     1     -32.443  14.895  -4.139  1.00 20.00    -0.298 OA
ENDBRANCH   4   9
TORSDOF 1
ENDMDL
MODEL 3
REMARK VINA RESULT:      -4.1      1.465      3.030
REMARK  1 active torsions:
REMARK  status: ('A' for Active; 'I' for Inactive)
REMARK    1  A    between atoms: C1_1  and  C5_5 
ROOT
HETATM    1  C2  UNL     1     -33.828  16.042  -2.690  1.00 20.00     0.002 C 
HETATM    2  C3  UNL     1     -33.504  16.113  -4.184  1.00 20.00     0.017 C 
HETATM    3  C4  UNL     1     -35.301  15.656  -2.581  1.00 20.00     0.010 C 
HETATM    4  C5  UNL     1     -34.829  15.865  -4.932  1.00 20.00     0.023 C 
HETATM    5  C6  UNL     1     -35.651  14.996  -3.929  1.00 20.00    -0.034 C 
HETATM    6  C8  UNL     1     -35.482  17.209  -5.294  1.00 20.00     0.024 C 
HETATM    7  C9  UNL     1     -35.192  13.519  -3.901  1.00 20.00     0.016 C 
HETATM    8  C10 UNL     1     -37.168  15.017  -4.162  1.00 20.00     0.016 C 
ENDROOT
BRANCH   4   9
HETATM    9  C1  UNL     1     -34.569  15.156  -6.235  1.00 20.00     0.132 C 
HETATM   10  C7  UNL     1     -35.704  15.114  -7.220  1.00 20.00     0.091 C 
HETATM   11  O11 UNL     1     -33.480  14.637  -6.482  1.00 20.00    -0.298 OA
ENDBRANCH   4   9
TORSDOF 1
ENDMDL
MODEL 4
REMARK VINA RESULT:      -4.0      1.535      2.215
REMARK  1 active torsions:
REMARK  status: ('A' for Active; 'I' for Inactive)
REMARK    1  A    between atoms: C1_1  and  C5_5 
ROOT
HETATM    1  C2  UNL     1     -35.820  17.746  -4.694  1.00 20.00     0.002 C 
HETATM    2  C3  UNL     1     -36.447  16.550  -3.975  1.00 20.00     0.017 C 
HETATM    3  C4  UNL     1     -34.742  17.185  -5.618  1.00 20.00     0.010 C 
HETATM    4  C5  UNL     1     -35.650  15.306  -4.419  1.00 20.00     0.023 C 
HETATM    5  C6  UNL     1     -35.117  15.704  -5.831  1.00 20.00    -0.034 C 
HETATM    6  C8  UNL     1     -34.553  14.996  -3.387  1.00 20.00     0.024 C 
HETATM    7  C9  UNL     1     -36.203  15.612  -6.929  1.00 20.00     0.016 C 
HETATM    8  C10 UNL     1     -33.897  14.901  -6.301  1.00 20.00     0.016 C 
ENDROOT
BRANCH   4   9
HETATM    9  C1  UNL     1     -36.548  14.097  -4.459  1.00 20.00     0.132 C 
HETATM   10  C7  UNL     1     -38.021  14.343  -4.283  1.00 20.00     0.091 C 
HETATM   11  O11 UNL     1     -36.098  12.964  -4.629  1.00 20.00    -0.298 OA
ENDBRANCH   4   9
TORSDOF 1
ENDMDL
MODEL 5
REMARK VINA RESULT:      -4.0      1.595      2.768
REMARK  1 active torsions:
REMARK  status: ('A' for Active; 'I' for Inactive)
REMARK    1  A    between atoms: C1_1  and  C5_5 
ROOT
HETATM    1  C2  UNL     1     -36.677  14.013  -4.515  1.00 20.00     0.002 C 
HETATM    2  C3  UNL     1     -36.657  15.405  -5.151  1.00 20.00     0.017 C 
HETATM    3  C4  UNL     1     -35.239  13.693  -4.118  1.00 20.00     0.010 C 
HETATM    4  C5  UNL     1     -35.178  15.838  -5.209  1.00 20.00     0.023 C 
HETATM    5  C6  UNL     1     -34.528  15.057  -4.023  1.00 20.00    -0.034 C 
HETATM    6  C8  UNL     1     -34.591  15.503  -6.590  1.00 20.00     0.024 C 
HETATM    7  C9  UNL     1     -34.839  15.693  -2.647  1.00 20.00     0.016 C 
HETATM    8  C10 UNL     1     -33.007  14.883  -4.132  1.00 20.00     0.016 C 
ENDROOT
BRANCH   4   9
HETATM    9  C1  UNL     1     -35.064  17.331  -5.050  1.00 20.00     0.132 C 
HETATM   10  C7  UNL     1     -36.341  18.083  -4.789  1.00 20.00     0.091 C 
HETATM   11  O11 UNL     1     -33.980  17.908  -5.129  1.00 20.00    -0.298 OA
ENDBRANCH   4   9
TORSDOF 1
ENDMDL
MODEL 6
REMARK VINA RESULT:      -3.9      1.718      3.243
REMARK  1 active torsions:
REMARK  status: ('A' for Active; 'I' for Inactive)
REMARK    1  A    between atoms: C1_1  and  C5_5 
ROOT
HETATM    1  C2  UNL     1     -34.324  15.021  -6.747  1.00 20.00     0.002 C 
HETATM    2  C3  UNL     1     -33.660  15.010  -5.368  1.00 20.00     0.017 C 
HETATM    3  C4  UNL     1     -35.831  15.051  -6.507  1.00 20.00     0.010 C 
HETATM    4  C5  UNL     1     -34.801  14.930  -4.334  1.00 20.00     0.023 C 
HETATM    5  C6  UNL     1     -36.005  15.593  -5.074  1.00 20.00    -0.034 C 
HETATM    6  C8  UNL     1     -35.032  13.466  -3.927  1.00 20.00     0.024 C 
HETATM    7  C9  UNL     1     -35.911  17.138  -5.106  1.00 20.00     0.016 C 
HETATM    8  C10 UNL     1     -37.383  15.213  -4.517  1.00 20.00     0.016 C 
ENDROOT
BRANCH   4   9
HETATM    9  C1  UNL     1     -34.419  15.665  -3.076  1.00 20.00     0.132 C 
HETATM   10  C7  UNL     1     -33.089  16.367  -3.081  1.00 20.00     0.091 C 
HETATM   11  O11 UNL     1     -35.160  15.691  -2.093  1.00 20.00    -0.298 OA
ENDBRANCH   4   9
TORSDOF 1
ENDMDL
MODEL 7
REMARK VINA RESULT:      -3.9      1.332      2.911
REMARK  1 active torsions:
REMARK  status: ('A' for Active; 'I' for Inactive)
REMARK    1  A    between atoms: C1_1  and  C5_5 
ROOT
HETATM    1  C2  UNL     1     -34.040  18.250  -5.031  1.00 20.00     0.002 C 
HETATM    2  C3  UNL     1     -34.713  17.102  -5.785  1.00 20.00     0.017 C 
HETATM    3  C4  UNL     1     -34.166  17.930  -3.544  1.00 20.00     0.010 C 
HETATM    4  C5  UNL     1     -35.318  16.171  -4.715  1.00 20.00     0.023 C 
HETATM    5  C6  UNL     1     -34.404  16.409  -3.472  1.00 20.00    -0.034 C 
HETATM    6  C8  UNL     1     -36.798  16.525  -4.494  1.00 20.00     0.024 C 
HETATM    7  C9  UNL     1     -33.043  15.681  -3.583  1.00 20.00     0.016 C 
HETATM    8  C10 UNL     1     -35.039  16.025  -2.130  1.00 20.00     0.016 C 
ENDROOT
BRANCH   4   9
HETATM    9  C1  UNL     1     -35.290  14.742  -5.190  1.00 20.00     0.132 C 
HETATM   10  C7  UNL     1     -36.192  13.774  -4.474  1.00 20.00     0.091 C 
HETATM   11  O11 UNL     1     -34.567  14.384  -6.119  1.00 20.00    -0.298 OA
ENDBRANCH   4   9
TORSDOF 1
ENDMDL
MODEL 8
REMARK VINA RESULT:      -3.9      1.145      1.788
REMARK  1 active torsions:
REMARK  status: ('A' for Active; 'I' for Inactive)
REMARK    1  A    between atoms: C1_1  and  C5_5 
ROOT
HETATM    1  C2  UNL     1     -33.939  16.084  -2.604  1.00 20.00     0.002 C 
HETATM    2  C3  UNL     1     -34.733  14.982  -3.309  1.00 20.00     0.017 C 
HETATM    3  C4  UNL     1     -33.735  17.198  -3.627  1.00 20.00     0.010 C 
HETATM    4  C5  UNL     1     -34.896  15.429  -4.775  1.00 20.00     0.023 C 
HETATM    5  C6  UNL     1     -34.836  16.987  -4.686  1.00 20.00    -0.034 C 
HETATM    6  C8  UNL     1     -33.790  14.798  -5.637  1.00 20.00     0.024 C 
HETATM    7  C9  UNL     1     -36.156  17.608  -4.171  1.00 20.00     0.016 C 
HETATM    8  C10 UNL     1     -34.463  17.687  -5.999  1.00 20.00     0.016 C 
ENDROOT
BRANCH   4   9
HETATM    9  C1  UNL     1     -36.204  14.931  -5.332  1.00 20.00     0.132 C 
HETATM   10  C7  UNL     1     -37.176  14.340  -4.348  1.00 20.00     0.091 C 
HETATM   11  O11 UNL     1     -36.464  15.006  -6.533  1.00 20.00    -0.298 OA
ENDBRANCH   4   9
TORSDOF 1
ENDMDL
MODEL 9
REMARK VINA RESULT:      -3.8      1.664      3.210
REMARK  1 active torsions:
REMARK  status: ('A' for Active; 'I' for Inactive)
REMARK    1  A    between atoms: C1_1  and  C5_5 
ROOT
HETATM    1  C2  UNL     1     -37.140  17.053  -5.125  1.00 20.00     0.002 C 
HETATM    2  C3  UNL     1     -36.372  15.981  -5.901  1.00 20.00     0.017 C 
HETATM    3  C4  UNL     1     -36.612  17.019  -3.694  1.00 20.00     0.010 C 
HETATM    4  C5  UNL     1     -35.471  15.261  -4.878  1.00 20.00     0.023 C 
HETATM    5  C6  UNL     1     -35.226  16.350  -3.785  1.00 20.00    -0.034 C 
HETATM    6  C8  UNL     1     -36.174  13.993  -4.367  1.00 20.00     0.024 C 
HETATM    7  C9  UNL     1     -34.183  17.408  -4.218  1.00 20.00     0.016 C 
HETATM    8  C10 UNL     1     -34.802  15.797  -2.418  1.00 20.00     0.016 C 
ENDROOT
BRANCH   4   9
HETATM    9  C1  UNL     1     -34.195  14.804  -5.535  1.00 20.00     0.132 C 
HETATM   10  C7  UNL     1     -34.015  15.163  -6.984  1.00 20.00     0.091 C 
HETATM   11  O11 UNL     1     -33.342  14.169  -4.916  1.00 20.00    -0.298 OA
ENDBRANCH   4   9
TORSDOF 1
ENDMDL
