MODEL 1
REMARK VINA RESULT:      -5.2      0.000      0.000
REMARK  1 active torsions:
REMARK  status: ('A' for Active; 'I' for Inactive)
REMARK    1  A    between atoms: C1_1  and  C3_3 
ROOT
HETATM    1  C1  UNL     1     -33.144  18.190  -0.377  1.00 20.00    -0.010 C 
HETATM    2  C2  UNL     1     -33.670  17.597  -1.460  1.00 20.00    -0.066 C 
HETATM    3  C4  UNL     1     -33.987  18.515   0.822  1.00 20.00     0.042 C 
HETATM    4  C5  UNL     1     -32.937  16.946  -2.602  1.00 20.00     0.035 C 
HETATM    5  C6  UNL     1     -35.145  17.520   0.962  1.00 20.00     0.005 C 
HETATM    6  C7  UNL     1     -33.960  15.960  -3.177  1.00 20.00     0.005 C 
HETATM    7  C8  UNL     1     -35.981  17.453  -0.314  1.00 20.00     0.009 C 
HETATM    8  C9  UNL     1     -35.072  15.866  -2.132  1.00 20.00     0.009 C 
HETATM    9  C10 UNL     1     -35.142  17.286  -1.583  1.00 20.00     0.015 C 
ENDROOT
BRANCH   1  10
HETATM   10  C3  UNL     1     -31.703  18.445  -0.290  1.00 20.00     0.152 C 
HETATM   11  C11 UNL     1     -31.006  18.127   1.007  1.00 20.00     0.096 C 
HETATM   12  O12 UNL     1     -31.091  18.912  -1.252  1.00 20.00    -0.293 OA
ENDBRANCH   1  10
TORSDOF 1
ENDMDL
MODEL 2
REMARK VINA RESULT:      -5.1      3.458      5.386
REMARK  1 active torsions:
REMARK  status: ('A' for Active; 'I' for Inactive)
REMARK    1  A    between atoms: C1_1  and  C3_3 
ROOT
HETATM    1  C1  UNL     1     -36.233  15.078  -3.956  1.00 20.00    -0.010 C 
HETATM    2  C2  UNL     1     -35.215  15.577  -3.238  1.00 20.00    -0.066 C 
HETATM    3  C4  UNL     1     -37.616  15.654  -3.858  1.00 20.00     0.042 C 
HETATM    4  C5  UNL     1     -33.743  15.326  -3.425  1.00 20.00     0.035 C 
HETATM    5  C6  UNL     1     -37.562  17.147  -3.515  1.00 20.00     0.005 C 
HETATM    6  C7  UNL     1     -33.079  16.552  -2.789  1.00 20.00     0.005 C 
HETATM    7  C8  UNL     1     -36.754  17.399  -2.243  1.00 20.00     0.009 C 
HETATM    8  C9  UNL     1     -34.203  17.569  -2.589  1.00 20.00     0.009 C 
HETATM    9  C10 UNL     1     -35.397  16.690  -2.234  1.00 20.00     0.015 C 
ENDROOT
BRANCH   1  10
HETATM   10  C3  UNL     1     -36.002  14.017  -4.942  1.00 20.00     0.152 C 
HETATM   11  C11 UNL     1     -35.758  14.421  -6.372  1.00 20.00     0.096 C 
HETATM   12  O12 UNL     1     -36.016  12.833  -4.601  1.00 20.00    -0.293 OA
ENDBRANCH   1  10
TORSDOF 1
ENDMDL
MODEL 3
REMARK VINA RESULT:      -5.1      3.490      5.356
REMARK  1 active torsions:
REMARK  status: ('A' for Active; 'I' for Inactive)
REMARK    1  A    between atoms: C1_1  and  C3_3 
ROOT
HETATM    1  C1  UNL     1     -36.514  15.752  -3.588  1.00 20.00    -0.010 C 
HETATM    2  C2  UNL     1     -35.248  15.317  -3.491  1.00 20.00    -0.066 C 
HETATM    3  C4  UNL     1     -37.005  16.916  -2.776  1.00 20.00     0.042 C 
HETATM    4  C5  UNL     1     -34.521  14.381  -4.419  1.00 20.00     0.035 C 
HETATM    5  C6  UNL     1     -35.863  17.896  -2.482  1.00 20.00     0.005 C 
HETATM    6  C7  UNL     1     -33.043  14.720  -4.194  1.00 20.00     0.005 C 
HETATM    7  C8  UNL     1     -34.685  17.195  -1.808  1.00 20.00     0.009 C 
HETATM    8  C9  UNL     1     -33.038  16.039  -3.421  1.00 20.00     0.009 C 
HETATM    9  C10 UNL     1     -34.257  15.907  -2.517  1.00 20.00     0.015 C 
ENDROOT
BRANCH   1  10
HETATM   10  C3  UNL     1     -37.432  15.168  -4.571  1.00 20.00     0.152 C 
HETATM   11  C11 UNL     1     -37.744  15.967  -5.809  1.00 20.00     0.096 C 
HETATM   12  O12 UNL     1     -37.933  14.059  -4.377  1.00 20.00    -0.293 OA
ENDBRANCH   1  10
TORSDOF 1
ENDMDL
MODEL 4
REMARK VINA RESULT:      -5.0      4.348      6.237
REMARK  1 active torsions:
REMARK  status: ('A' for Active; 'I' for Inactive)
REMARK    1  A    between atoms: C1_1  and  C3_3 
ROOT
HETATM    1  C1  UNL     1     -36.037  14.841  -4.257  1.00 20.00    -0.010 C 
HETATM    2  C2  UNL     1     -35.369  14.711  -5.414  1.00 20.00    -0.066 C 
HETATM    3  C4  UNL     1     -35.314  15.051  -2.957  1.00 20.00     0.042 C 
HETATM    4  C5  UNL     1     -35.923  14.788  -6.812  1.00 20.00     0.035 C 
HETATM    5  C6  UNL     1     -33.991  15.792  -3.182  1.00 20.00     0.005 C 
HETATM    6  C7  UNL     1     -34.709  15.177  -7.663  1.00 20.00     0.005 C 
HETATM    7  C8  UNL     1     -33.115  15.071  -4.205  1.00 20.00     0.009 C 
HETATM    8  C9  UNL     1     -33.636  15.623  -6.670  1.00 20.00     0.009 C 
HETATM    9  C10 UNL     1     -33.861  14.690  -5.486  1.00 20.00     0.015 C 
ENDROOT
BRANCH   1  10
HETATM   10  C3  UNL     1     -37.502  14.885  -4.240  1.00 20.00     0.152 C 
HETATM   11  C11 UNL     1     -38.167  16.228  -4.084  1.00 20.00     0.096 C 
HETATM   12  O12 UNL     1     -38.161  13.849  -4.344  1.00 20.00    -0.293 OA
ENDBRANCH   1  10
TORSDOF 1
ENDMDL
MODEL 5
REMARK VINA RESULT:      -4.8      3.603      6.211
REMARK  1 active torsions:
REMARK  status: ('A' for Active; 'I' for Inactive)
REMARK    1  A    between atoms: C1_1  and  C3_3 
ROOT
HETATM    1  C1  UNL     1     -35.934  15.279  -5.014  1.00 20.00    -0.010 C 
HETATM    2  C2  UNL     1     -35.295  16.012  -4.089  1.00 20.00    -0.066 C 
HETATM    3  C4  UNL     1     -35.802  15.582  -6.479  1.00 20.00     0.042 C 
HETATM    4  C5  UNL     1     -35.080  15.680  -2.636  1.00 20.00     0.035 C 
HETATM    5  C6  UNL     1     -34.438  16.210  -6.786  1.00 20.00     0.005 C 
HETATM    6  C7  UNL     1     -33.843  16.502  -2.254  1.00 20.00     0.005 C 
HETATM    7  C8  UNL     1     -34.188  17.449  -5.928  1.00 20.00     0.009 C 
HETATM    8  C9  UNL     1     -33.239  16.974  -3.577  1.00 20.00     0.009 C 
HETATM    9  C10 UNL     1     -34.470  17.226  -4.440  1.00 20.00     0.015 C 
ENDROOT
BRANCH   1  10
HETATM   10  C3  UNL     1     -36.699  14.089  -4.628  1.00 20.00     0.152 C 
HETATM   11  C11 UNL     1     -38.140  14.274  -4.230  1.00 20.00     0.096 C 
HETATM   12  O12 UNL     1     -36.168  12.978  -4.625  1.00 20.00    -0.293 OA
ENDBRANCH   1  10
TORSDOF 1
ENDMDL
MODEL 6
REMARK VINA RESULT:      -4.6     13.378     15.341
REMARK  1 active torsions:
REMARK  status: ('A' for Active; 'I' for Inactive)
REMARK    1  A    between atoms: C1_1  and  C3_3 
ROOT
HETATM    1  C1  UNL     1     -24.340  17.776  11.416  1.00 20.00    -0.010 C 
HETATM    2  C2  UNL     1     -24.175  17.918  10.091  1.00 20.00    -0.066 C 
HETATM    3  C4  UNL     1     -23.197  17.390  12.308  1.00 20.00     0.042 C 
HETATM    4  C5  UNL     1     -25.112  18.571   9.110  1.00 20.00     0.035 C 
HETATM    5  C6  UNL     1     -21.865  17.890  11.737  1.00 20.00     0.005 C 
HETATM    6  C7  UNL     1     -24.197  18.981   7.950  1.00 20.00     0.005 C 
HETATM    7  C8  UNL     1     -21.653  17.402  10.305  1.00 20.00     0.009 C 
HETATM    8  C9  UNL     1     -22.771  18.847   8.485  1.00 20.00     0.009 C 
HETATM    9  C10 UNL     1     -22.865  17.631   9.399  1.00 20.00     0.015 C 
ENDROOT
BRANCH   1  10
HETATM   10  C3  UNL     1     -25.624  18.097  12.048  1.00 20.00     0.152 C 
HETATM   11  C11 UNL     1     -26.575  16.964  12.332  1.00 20.00     0.096 C 
HETATM   12  O12 UNL     1     -25.910  19.262  12.327  1.00 20.00    -0.293 OA
ENDBRANCH   1  10
TORSDOF 1
ENDMDL
MODEL 7
REMARK VINA RESULT:      -4.6      3.651      5.636
REMARK  1 active torsions:
REMARK  status: ('A' for Active; 'I' for Inactive)
REMARK    1  A    between atoms: C1_1  and  C3_3 
ROOT
HETATM    1  C1  UNL     1     -35.239  15.043  -4.073  1.00 20.00    -0.010 C 
HETATM    2  C2  UNL     1     -34.793  15.798  -5.090  1.00 20.00    -0.066 C 
HETATM    3  C4  UNL     1     -34.800  15.298  -2.660  1.00 20.00     0.042 C 
HETATM    4  C5  UNL     1     -35.339  15.874  -6.491  1.00 20.00     0.035 C 
HETATM    5  C6  UNL     1     -34.479  16.781  -2.448  1.00 20.00     0.005 C 
HETATM    6  C7  UNL     1     -34.884  17.251  -6.985  1.00 20.00     0.005 C 
HETATM    7  C8  UNL     1     -33.446  17.279  -3.457  1.00 20.00     0.009 C 
HETATM    8  C9  UNL     1     -34.411  17.999  -5.738  1.00 20.00     0.009 C 
HETATM    9  C10 UNL     1     -33.774  16.895  -4.903  1.00 20.00     0.015 C 
ENDROOT
BRANCH   1  10
HETATM   10  C3  UNL     1     -36.252  14.008  -4.299  1.00 20.00     0.152 C 
HETATM   11  C11 UNL     1     -37.702  14.406  -4.211  1.00 20.00     0.096 C 
HETATM   12  O12 UNL     1     -35.918  12.848  -4.546  1.00 20.00    -0.293 OA
ENDBRANCH   1  10
TORSDOF 1
ENDMDL
MODEL 8
REMARK VINA RESULT:      -4.6      3.484      5.986
REMARK  1 active torsions:
REMARK  status: ('A' for Active; 'I' for Inactive)
REMARK    1  A    between atoms: C1_1  and  C3_3 
ROOT
HETATM    1  C1  UNL     1     -36.187  15.327  -4.360  1.00 20.00    -0.010 C 
HETATM    2  C2  UNL     1     -35.845  16.291  -3.491  1.00 20.00    -0.066 C 
HETATM    3  C4  UNL     1     -35.152  14.439  -4.988  1.00 20.00     0.042 C 
HETATM    4  C5  UNL     1     -36.748  17.060  -2.563  1.00 20.00     0.035 C 
HETATM    5  C6  UNL     1     -33.949  14.259  -4.056  1.00 20.00     0.005 C 
HETATM    6  C7  UNL     1     -35.809  17.532  -1.448  1.00 20.00     0.005 C 
HETATM    7  C8  UNL     1     -33.359  15.605  -3.639  1.00 20.00     0.009 C 
HETATM    8  C9  UNL     1     -34.521  16.728  -1.629  1.00 20.00     0.009 C 
HETATM    9  C10 UNL     1     -34.409  16.602  -3.143  1.00 20.00     0.015 C 
ENDROOT
BRANCH   1  10
HETATM   10  C3  UNL     1     -37.597  15.041  -4.643  1.00 20.00     0.152 C 
HETATM   11  C11 UNL     1     -38.392  16.078  -5.393  1.00 20.00     0.096 C 
HETATM   12  O12 UNL     1     -38.109  13.985  -4.269  1.00 20.00    -0.293 OA
ENDBRANCH   1  10
TORSDOF 1
ENDMDL
MODEL 9
REMARK VINA RESULT:      -4.6      3.395      5.822
REMARK  1 active torsions:
REMARK  status: ('A' for Active; 'I' for Inactive)
REMARK    1  A    between atoms: C1_1  and  C3_3 
ROOT
HETATM    1  C1  UNL     1     -34.842  15.914  -5.911  1.00 20.00    -0.010 C 
HETATM    2  C2  UNL     1     -34.261  16.053  -4.709  1.00 20.00    -0.066 C 
HETATM    3  C4  UNL     1     -35.596  14.668  -6.276  1.00 20.00     0.042 C 
HETATM    4  C5  UNL     1     -33.733  17.314  -4.080  1.00 20.00     0.035 C 
HETATM    5  C6  UNL     1     -36.214  14.021  -5.031  1.00 20.00     0.005 C 
HETATM    6  C7  UNL     1     -33.767  17.014  -2.577  1.00 20.00     0.005 C 
HETATM    7  C8  UNL     1     -35.159  13.749  -3.961  1.00 20.00     0.009 C 
HETATM    8  C9  UNL     1     -34.619  15.753  -2.430  1.00 20.00     0.009 C 
HETATM    9  C10 UNL     1     -34.258  14.953  -3.675  1.00 20.00     0.015 C 
ENDROOT
BRANCH   1  10
HETATM   10  C3  UNL     1     -34.846  17.022  -6.872  1.00 20.00     0.152 C 
HETATM   11  C11 UNL     1     -36.033  17.950  -6.877  1.00 20.00     0.096 C 
HETATM   12  O12 UNL     1     -33.905  17.177  -7.652  1.00 20.00    -0.293 OA
ENDBRANCH   1  10
TORSDOF 1
ENDMDL
