MODEL 1
REMARK VINA RESULT:      -5.0      0.000      0.000
REMARK  1 active torsions:
REMARK  status: ('A' for Active; 'I' for Inactive)
REMARK    1  A    between atoms: C3_3  and  C7_7 
ROOT
HETATM    1  C1  UNL     1     -33.677  17.683  -1.537  1.00 20.00    -0.020 C 
HETATM    2  C2  UNL     1     -34.777  16.971  -1.236  1.00 20.00    -0.086 C 
HETATM    3  C4  UNL     1     -35.246  15.818  -2.089  1.00 20.00     0.045 C 
HETATM    4  C5  UNL     1     -33.063  16.023  -3.343  1.00 20.00     0.020 C 
HETATM    5  C6  UNL     1     -32.782  17.400  -2.717  1.00 20.00     0.005 C 
HETATM    6  C7  UNL     1     -34.561  15.746  -3.460  1.00 20.00     0.059 C 
HETATM    7  C8  UNL     1     -35.609  17.276  -0.026  1.00 20.00     0.043 C 
HETATM    8  C10 UNL     1     -32.910  18.524  -3.747  1.00 20.00     0.014 C 
ENDROOT
BRANCH   6   9
HETATM    9  C3  UNL     1     -34.787  14.391  -4.056  1.00 20.00     0.127 C 
HETATM   10  C9  UNL     1     -36.214  14.007  -4.344  1.00 20.00     0.091 C 
HETATM   11  O11 UNL     1     -33.853  13.629  -4.299  1.00 20.00    -0.298 OA
ENDBRANCH   6   9
TORSDOF 1
ENDMDL
MODEL 2
REMARK VINA RESULT:      -4.8      2.028      3.029
REMARK  1 active torsions:
REMARK  status: ('A' for Active; 'I' for Inactive)
REMARK    1  A    between atoms: C3_3  and  C7_7 
ROOT
HETATM    1  C1  UNL     1     -33.745  15.514  -3.183  1.00 20.00    -0.020 C 
HETATM    2  C2  UNL     1     -34.667  16.293  -2.592  1.00 20.00    -0.086 C 
HETATM    3  C4  UNL     1     -36.137  16.185  -2.917  1.00 20.00     0.045 C 
HETATM    4  C5  UNL     1     -35.564  14.104  -4.229  1.00 20.00     0.020 C 
HETATM    5  C6  UNL     1     -34.063  14.441  -4.192  1.00 20.00     0.005 C 
HETATM    6  C7  UNL     1     -36.431  15.362  -4.178  1.00 20.00     0.059 C 
HETATM    7  C8  UNL     1     -34.295  17.320  -1.564  1.00 20.00     0.043 C 
HETATM    8  C10 UNL     1     -33.544  14.857  -5.571  1.00 20.00     0.014 C 
ENDROOT
BRANCH   6   9
HETATM    9  C3  UNL     1     -37.881  14.986  -4.197  1.00 20.00     0.127 C 
HETATM   10  C9  UNL     1     -38.871  16.094  -3.961  1.00 20.00     0.091 C 
HETATM   11  O11 UNL     1     -38.244  13.828  -4.398  1.00 20.00    -0.298 OA
ENDBRANCH   6   9
TORSDOF 1
ENDMDL
MODEL 3
REMARK VINA RESULT:      -4.8      1.930      3.342
REMARK  1 active torsions:
REMARK  status: ('A' for Active; 'I' for Inactive)
REMARK    1  A    between atoms: C3_3  and  C7_7 
ROOT
HETATM    1  C1  UNL     1     -33.609  16.219  -3.195  1.00 20.00    -0.020 C 
HETATM    2  C2  UNL     1     -33.736  15.088  -3.909  1.00 20.00    -0.086 C 
HETATM    3  C4  UNL     1     -35.084  14.523  -4.285  1.00 20.00     0.045 C 
HETATM    4  C5  UNL     1     -36.085  16.675  -3.421  1.00 20.00     0.020 C 
HETATM    5  C6  UNL     1     -34.769  17.058  -2.723  1.00 20.00     0.005 C 
HETATM    6  C7  UNL     1     -36.253  15.160  -3.524  1.00 20.00     0.059 C 
HETATM    7  C8  UNL     1     -32.542  14.313  -4.384  1.00 20.00     0.043 C 
HETATM    8  C10 UNL     1     -34.889  16.968  -1.201  1.00 20.00     0.014 C 
ENDROOT
BRANCH   6   9
HETATM    9  C3  UNL     1     -37.537  14.833  -4.224  1.00 20.00     0.127 C 
HETATM   10  C9  UNL     1     -38.372  15.997  -4.685  1.00 20.00     0.091 C 
HETATM   11  O11 UNL     1     -37.891  13.670  -4.412  1.00 20.00    -0.298 OA
ENDBRANCH   6   9
TORSDOF 1
ENDMDL
MODEL 4
REMARK VINA RESULT:      -4.7      2.365      4.543
REMARK  1 active torsions:
REMARK  status: ('A' for Active; 'I' for Inactive)
REMARK    1  A    between atoms: C3_3  and  C7_7 
ROOT
HETATM    1  C1  UNL     1     -35.089  15.694  -2.722  1.00 20.00    -0.020 C 
HETATM    2  C2  UNL     1     -33.831  15.727  -3.196  1.00 20.00    -0.086 C 
HETATM    3  C4  UNL     1     -32.810  16.719  -2.695  1.00 20.00     0.045 C 
HETATM    4  C5  UNL     1     -34.474  17.331  -0.896  1.00 20.00     0.020 C 
HETATM    5  C6  UNL     1     -35.608  16.599  -1.635  1.00 20.00     0.005 C 
HETATM    6  C7  UNL     1     -33.413  17.857  -1.862  1.00 20.00     0.059 C 
HETATM    7  C8  UNL     1     -33.359  14.774  -4.253  1.00 20.00     0.043 C 
HETATM    8  C10 UNL     1     -36.626  17.581  -2.220  1.00 20.00     0.014 C 
ENDROOT
BRANCH   6   9
HETATM    9  C3  UNL     1     -32.322  18.545  -1.099  1.00 20.00     0.127 C 
HETATM   10  C9  UNL     1     -32.443  18.548   0.401  1.00 20.00     0.091 C 
HETATM   11  O11 UNL     1     -31.373  19.079  -1.671  1.00 20.00    -0.298 OA
ENDBRANCH   6   9
TORSDOF 1
ENDMDL
MODEL 5
REMARK VINA RESULT:      -4.5      2.522      4.039
REMARK  1 active torsions:
REMARK  status: ('A' for Active; 'I' for Inactive)
REMARK    1  A    between atoms: C3_3  and  C7_7 
ROOT
HETATM    1  C1  UNL     1     -32.958  17.138  -2.667  1.00 20.00    -0.020 C 
HETATM    2  C2  UNL     1     -33.961  16.245  -2.610  1.00 20.00    -0.086 C 
HETATM    3  C4  UNL     1     -35.079  16.357  -1.602  1.00 20.00     0.045 C 
HETATM    4  C5  UNL     1     -34.162  18.639  -1.027  1.00 20.00     0.020 C 
HETATM    5  C6  UNL     1     -32.850  18.348  -1.776  1.00 20.00     0.005 C 
HETATM    6  C7  UNL     1     -34.798  17.362  -0.478  1.00 20.00     0.059 C 
HETATM    7  C8  UNL     1     -34.037  15.078  -3.550  1.00 20.00     0.043 C 
HETATM    8  C10 UNL     1     -31.675  18.177  -0.810  1.00 20.00     0.014 C 
ENDROOT
BRANCH   6   9
HETATM    9  C3  UNL     1     -36.080  17.690   0.225  1.00 20.00     0.127 C 
HETATM   10  C9  UNL     1     -37.220  18.166  -0.633  1.00 20.00     0.091 C 
HETATM   11  O11 UNL     1     -36.194  17.574   1.445  1.00 20.00    -0.298 OA
ENDBRANCH   6   9
TORSDOF 1
ENDMDL
MODEL 6
REMARK VINA RESULT:      -4.5      2.103      2.619
REMARK  1 active torsions:
REMARK  status: ('A' for Active; 'I' for Inactive)
REMARK    1  A    between atoms: C3_3  and  C7_7 
ROOT
HETATM    1  C1  UNL     1     -35.557  16.634  -2.310  1.00 20.00    -0.020 C 
HETATM    2  C2  UNL     1     -36.520  16.790  -3.235  1.00 20.00    -0.086 C 
HETATM    3  C4  UNL     1     -36.397  16.220  -4.626  1.00 20.00     0.045 C 
HETATM    4  C5  UNL     1     -34.345  14.997  -3.806  1.00 20.00     0.020 C 
HETATM    5  C6  UNL     1     -34.283  15.862  -2.536  1.00 20.00     0.005 C 
HETATM    6  C7  UNL     1     -34.980  15.748  -4.976  1.00 20.00     0.059 C 
HETATM    7  C8  UNL     1     -37.787  17.538  -2.939  1.00 20.00     0.043 C 
HETATM    8  C10 UNL     1     -33.092  16.823  -2.566  1.00 20.00     0.014 C 
ENDROOT
BRANCH   6   9
HETATM    9  C3  UNL     1     -35.037  14.863  -6.183  1.00 20.00     0.127 C 
HETATM   10  C9  UNL     1     -34.010  15.113  -7.255  1.00 20.00     0.091 C 
HETATM   11  O11 UNL     1     -35.881  13.974  -6.293  1.00 20.00    -0.298 OA
ENDBRANCH   6   9
TORSDOF 1
ENDMDL
MODEL 7
REMARK VINA RESULT:      -4.4      1.457      2.962
REMARK  1 active torsions:
REMARK  status: ('A' for Active; 'I' for Inactive)
REMARK    1  A    between atoms: C3_3  and  C7_7 
ROOT
HETATM    1  C1  UNL     1     -34.061  18.421  -0.655  1.00 20.00    -0.020 C 
HETATM    2  C2  UNL     1     -33.072  17.884  -1.391  1.00 20.00    -0.086 C 
HETATM    3  C4  UNL     1     -33.309  16.733  -2.337  1.00 20.00     0.045 C 
HETATM    4  C5  UNL     1     -35.778  17.069  -1.925  1.00 20.00     0.020 C 
HETATM    5  C6  UNL     1     -35.498  17.969  -0.710  1.00 20.00     0.005 C 
HETATM    6  C7  UNL     1     -34.666  16.044  -2.142  1.00 20.00     0.059 C 
HETATM    7  C8  UNL     1     -31.665  18.401  -1.322  1.00 20.00     0.043 C 
HETATM    8  C10 UNL     1     -35.876  17.280   0.603  1.00 20.00     0.014 C 
ENDROOT
BRANCH   6   9
HETATM    9  C3  UNL     1     -34.971  15.202  -3.343  1.00 20.00     0.127 C 
HETATM   10  C9  UNL     1     -33.798  14.757  -4.173  1.00 20.00     0.091 C 
HETATM   11  O11 UNL     1     -36.124  14.890  -3.636  1.00 20.00    -0.298 OA
ENDBRANCH   6   9
TORSDOF 1
ENDMDL
MODEL 8
REMARK VINA RESULT:      -4.3      2.354      4.519
REMARK  1 active torsions:
REMARK  status: ('A' for Active; 'I' for Inactive)
REMARK    1  A    between atoms: C3_3  and  C7_7 
ROOT
HETATM    1  C1  UNL     1     -34.982  15.101  -3.495  1.00 20.00    -0.020 C 
HETATM    2  C2  UNL     1     -33.663  15.351  -3.562  1.00 20.00    -0.086 C 
HETATM    3  C4  UNL     1     -33.015  16.461  -2.772  1.00 20.00     0.045 C 
HETATM    4  C5  UNL     1     -35.219  16.718  -1.567  1.00 20.00     0.020 C 
HETATM    5  C6  UNL     1     -35.944  15.860  -2.617  1.00 20.00     0.005 C 
HETATM    6  C7  UNL     1     -34.016  17.449  -2.161  1.00 20.00     0.059 C 
HETATM    7  C8  UNL     1     -32.746  14.537  -4.427  1.00 20.00     0.043 C 
HETATM    8  C10 UNL     1     -36.883  16.702  -3.484  1.00 20.00     0.014 C 
ENDROOT
BRANCH   6   9
HETATM    9  C3  UNL     1     -33.332  18.257  -1.101  1.00 20.00     0.127 C 
HETATM   10  C9  UNL     1     -31.829  18.313  -1.157  1.00 20.00     0.091 C 
HETATM   11  O11 UNL     1     -33.967  18.846  -0.228  1.00 20.00    -0.298 OA
ENDBRANCH   6   9
TORSDOF 1
ENDMDL
MODEL 9
REMARK VINA RESULT:      -4.3      1.726      2.598
REMARK  1 active torsions:
REMARK  status: ('A' for Active; 'I' for Inactive)
REMARK    1  A    between atoms: C3_3  and  C7_7 
ROOT
HETATM    1  C1  UNL     1     -35.936  17.942  -2.477  1.00 20.00    -0.020 C 
HETATM    2  C2  UNL     1     -34.972  17.285  -1.808  1.00 20.00    -0.086 C 
HETATM    3  C4  UNL     1     -34.458  15.940  -2.257  1.00 20.00     0.045 C 
HETATM    4  C5  UNL     1     -35.795  16.276  -4.373  1.00 20.00     0.020 C 
HETATM    5  C6  UNL     1     -36.578  17.441  -3.745  1.00 20.00     0.005 C 
HETATM    6  C7  UNL     1     -35.335  15.268  -3.321  1.00 20.00     0.059 C 
HETATM    7  C8  UNL     1     -34.342  17.852  -0.571  1.00 20.00     0.043 C 
HETATM    8  C10 UNL     1     -38.035  17.060  -3.472  1.00 20.00     0.014 C 
ENDROOT
BRANCH   6   9
HETATM    9  C3  UNL     1     -34.562  14.162  -3.974  1.00 20.00     0.127 C 
HETATM   10  C9  UNL     1     -33.168  14.492  -4.436  1.00 20.00     0.091 C 
HETATM   11  O11 UNL     1     -35.044  13.040  -4.125  1.00 20.00    -0.298 OA
ENDBRANCH   6   9
TORSDOF 1
ENDMDL
