MODEL 1
REMARK VINA RESULT:      -4.3      0.000      0.000
REMARK  1 active torsions:
REMARK  status: ('A' for Active; 'I' for Inactive)
REMARK    1  A    between atoms: C1_1  and  C4_4 
ROOT
HETATM    1  C2  UNL     1     -34.705   5.195   5.917  1.00 20.00     0.014 A 
HETATM    2  C3  UNL     1     -34.115   6.572   5.879  1.00 20.00     0.014 A 
HETATM    3  C4  UNL     1     -34.727   5.986   4.636  1.00 20.00     0.066 A 
ENDROOT
BRANCH   3   4
HETATM    4  C1  UNL     1     -33.855   5.584   3.526  1.00 20.00     0.193 C 
HETATM    5  O5  UNL     1     -33.839   4.442   3.092  1.00 20.00    -0.286 OA
HETATM    6  I6  UNL     1     -32.593   6.968   2.635  1.00 20.00    -0.001 I 
ENDBRANCH   3   4
TORSDOF 1
ENDMDL
MODEL 2
REMARK VINA RESULT:      -4.0      1.767      1.924
REMARK  1 active torsions:
REMARK  status: ('A' for Active; 'I' for Inactive)
REMARK    1  A    between atoms: C1_1  and  C4_4 
ROOT
HETATM    1  C2  UNL     1     -34.586   4.405   4.364  1.00 20.00     0.014 A 
HETATM    2  C3  UNL     1     -34.927   5.037   5.679  1.00 20.00     0.014 A 
HETATM    3  C4  UNL     1     -34.728   5.901   4.463  1.00 20.00     0.066 A 
ENDROOT
BRANCH   3   4
HETATM    4  C1  UNL     1     -33.532   6.745   4.370  1.00 20.00     0.193 C 
HETATM    5  O5  UNL     1     -33.055   7.307   5.345  1.00 20.00    -0.286 OA
HETATM    6  I6  UNL     1     -32.588   7.023   2.545  1.00 20.00    -0.001 I 
ENDBRANCH   3   4
TORSDOF 1
ENDMDL
MODEL 3
REMARK VINA RESULT:      -3.6      2.392      3.194
REMARK  1 active torsions:
REMARK  status: ('A' for Active; 'I' for Inactive)
REMARK    1  A    between atoms: C1_1  and  C4_4 
ROOT
HETATM    1  C2  UNL     1     -31.798   7.404   3.167  1.00 20.00     0.014 A 
HETATM    2  C3  UNL     1     -32.412   7.359   1.801  1.00 20.00     0.014 A 
HETATM    3  C4  UNL     1     -33.241   7.008   3.007  1.00 20.00     0.066 A 
ENDROOT
BRANCH   3   4
HETATM    4  C1  UNL     1     -33.634   5.612   3.227  1.00 20.00     0.193 C 
HETATM    5  O5  UNL     1     -33.268   4.709   2.490  1.00 20.00    -0.286 OA
HETATM    6  I6  UNL     1     -34.850   5.108   4.829  1.00 20.00    -0.001 I 
ENDBRANCH   3   4
TORSDOF 1
ENDMDL
MODEL 4
REMARK VINA RESULT:      -3.5     11.979     12.375
REMARK  1 active torsions:
REMARK  status: ('A' for Active; 'I' for Inactive)
REMARK    1  A    between atoms: C1_1  and  C4_4 
ROOT
HETATM    1  C2  UNL     1     -33.378  14.772  -4.639  1.00 20.00     0.014 A 
HETATM    2  C3  UNL     1     -34.036  15.600  -3.577  1.00 20.00     0.014 A 
HETATM    3  C4  UNL     1     -34.418  14.154  -3.743  1.00 20.00     0.066 A 
ENDROOT
BRANCH   3   4
HETATM    4  C1  UNL     1     -35.736  13.818  -4.292  1.00 20.00     0.193 C 
HETATM    5  O5  UNL     1     -36.018  12.687  -4.659  1.00 20.00    -0.286 OA
HETATM    6  I6  UNL     1     -37.198  15.277  -4.470  1.00 20.00    -0.001 I 
ENDBRANCH   3   4
TORSDOF 1
ENDMDL
MODEL 5
REMARK VINA RESULT:      -3.5     16.713     17.319
REMARK  1 active torsions:
REMARK  status: ('A' for Active; 'I' for Inactive)
REMARK    1  A    between atoms: C1_1  and  C4_4 
ROOT
HETATM    1  C2  UNL     1     -23.072  17.365  11.512  1.00 20.00     0.014 A 
HETATM    2  C3  UNL     1     -24.013  16.661  10.582  1.00 20.00     0.014 A 
HETATM    3  C4  UNL     1     -22.763  17.298  10.041  1.00 20.00     0.066 A 
ENDROOT
BRANCH   3   4
HETATM    4  C1  UNL     1     -22.871  18.513   9.226  1.00 20.00     0.193 C 
HETATM    5  O5  UNL     1     -21.905  19.221   8.981  1.00 20.00    -0.286 OA
HETATM    6  I6  UNL     1     -24.704  19.087   8.443  1.00 20.00    -0.001 I 
ENDBRANCH   3   4
TORSDOF 1
ENDMDL
MODEL 6
REMARK VINA RESULT:      -3.4      9.080      9.427
REMARK  1 active torsions:
REMARK  status: ('A' for Active; 'I' for Inactive)
REMARK    1  A    between atoms: C1_1  and  C4_4 
ROOT
HETATM    1  C2  UNL     1     -41.316   8.515  -0.357  1.00 20.00     0.014 A 
HETATM    2  C3  UNL     1     -42.468   8.052   0.482  1.00 20.00     0.014 A 
HETATM    3  C4  UNL     1     -41.310   7.126   0.223  1.00 20.00     0.066 A 
ENDROOT
BRANCH   3   4
HETATM    4  C1  UNL     1     -41.497   5.973  -0.665  1.00 20.00     0.193 C 
HETATM    5  O5  UNL     1     -40.555   5.333  -1.107  1.00 20.00    -0.286 OA
HETATM    6  I6  UNL     1     -43.405   5.374  -1.213  1.00 20.00    -0.001 I 
ENDBRANCH   3   4
TORSDOF 1
ENDMDL
MODEL 7
REMARK VINA RESULT:      -3.4      2.010      2.995
REMARK  1 active torsions:
REMARK  status: ('A' for Active; 'I' for Inactive)
REMARK    1  A    between atoms: C1_1  and  C4_4 
ROOT
HETATM    1  C2  UNL     1     -32.785   6.264   2.636  1.00 20.00     0.014 A 
HETATM    2  C3  UNL     1     -33.040   4.844   2.231  1.00 20.00     0.014 A 
HETATM    3  C4  UNL     1     -34.119   5.629   2.926  1.00 20.00     0.066 A 
ENDROOT
BRANCH   3   4
HETATM    4  C1  UNL     1     -34.473   5.294   4.309  1.00 20.00     0.193 C 
HETATM    5  O5  UNL     1     -35.015   4.240   4.606  1.00 20.00    -0.286 OA
HETATM    6  I6  UNL     1     -34.057   6.624   5.846  1.00 20.00    -0.001 I 
ENDBRANCH   3   4
TORSDOF 1
ENDMDL
MODEL 8
REMARK VINA RESULT:      -3.4     16.485     16.797
REMARK  1 active torsions:
REMARK  status: ('A' for Active; 'I' for Inactive)
REMARK    1  A    between atoms: C1_1  and  C4_4 
ROOT
HETATM    1  C2  UNL     1     -24.308  18.113   9.775  1.00 20.00     0.014 A 
HETATM    2  C3  UNL     1     -22.950  18.662   9.459  1.00 20.00     0.014 A 
HETATM    3  C4  UNL     1     -24.168  19.263   8.813  1.00 20.00     0.066 A 
ENDROOT
BRANCH   3   4
HETATM    4  C1  UNL     1     -24.407  19.039   7.383  1.00 20.00     0.193 C 
HETATM    5  O5  UNL     1     -23.507  18.740   6.612  1.00 20.00    -0.286 OA
HETATM    6  I6  UNL     1     -26.319  19.224   6.601  1.00 20.00    -0.001 I 
ENDBRANCH   3   4
TORSDOF 1
ENDMDL
MODEL 9
REMARK VINA RESULT:      -3.4     12.524     12.895
REMARK  1 active torsions:
REMARK  status: ('A' for Active; 'I' for Inactive)
REMARK    1  A    between atoms: C1_1  and  C4_4 
ROOT
HETATM    1  C2  UNL     1     -33.504  16.795  -3.515  1.00 20.00     0.014 A 
HETATM    2  C3  UNL     1     -34.242  15.897  -2.569  1.00 20.00     0.014 A 
HETATM    3  C4  UNL     1     -33.489  15.305  -3.730  1.00 20.00     0.066 A 
ENDROOT
BRANCH   3   4
HETATM    4  C1  UNL     1     -34.236  14.732  -4.854  1.00 20.00     0.193 C 
HETATM    5  O5  UNL     1     -33.728  14.556  -5.951  1.00 20.00    -0.286 OA
HETATM    6  I6  UNL     1     -36.223  14.185  -4.618  1.00 20.00    -0.001 I 
ENDBRANCH   3   4
TORSDOF 1
ENDMDL
