MODEL 1
REMARK VINA RESULT:      -4.2      0.000      0.000
REMARK  1 active torsions:
REMARK  status: ('A' for Active; 'I' for Inactive)
REMARK    1  A    between atoms: C2_2  and  C4_4 
ROOT
HETATM    1  C1  UNL     1     -32.953   4.975   2.504  1.00 20.00     0.318 A 
HETATM    2  C2  UNL     1     -34.107   5.772   3.065  1.00 20.00     0.357 A 
HETATM    3  C3  UNL     1     -32.534   7.331   2.058  1.00 20.00     0.310 C 
HETATM    4  N5  UNL     1     -32.750   6.305   3.071  1.00 20.00     0.102 N 
ENDROOT
BRANCH   2   5
HETATM    5  C4  UNL     1     -34.732   5.380   4.357  1.00 20.00     0.419 C 
HETATM    6  F6  UNL     1     -34.303   6.163   5.377  1.00 20.00    -0.169 F 
HETATM    7  F7  UNL     1     -36.083   5.485   4.309  1.00 20.00    -0.169 F 
HETATM    8  F8  UNL     1     -34.440   4.097   4.683  1.00 20.00    -0.169 F 
ENDBRANCH   2   5
TORSDOF 1
ENDMDL
MODEL 2
REMARK VINA RESULT:      -4.2      0.002      1.337
REMARK  1 active torsions:
REMARK  status: ('A' for Active; 'I' for Inactive)
REMARK    1  A    between atoms: C2_2  and  C4_4 
ROOT
HETATM    1  C1  UNL     1     -32.953   4.973   2.505  1.00 20.00     0.318 A 
HETATM    2  C2  UNL     1     -34.107   5.770   3.066  1.00 20.00     0.357 A 
HETATM    3  C3  UNL     1     -32.534   7.329   2.059  1.00 20.00     0.310 C 
HETATM    4  N5  UNL     1     -32.750   6.303   3.072  1.00 20.00     0.102 N 
ENDROOT
BRANCH   2   5
HETATM    5  C4  UNL     1     -34.732   5.378   4.358  1.00 20.00     0.419 C 
HETATM    6  F6  UNL     1     -34.439   4.096   4.686  1.00 20.00    -0.169 F 
HETATM    7  F7  UNL     1     -34.304   6.163   5.377  1.00 20.00    -0.169 F 
HETATM    8  F8  UNL     1     -36.083   5.483   4.310  1.00 20.00    -0.169 F 
ENDBRANCH   2   5
TORSDOF 1
ENDMDL
MODEL 3
REMARK VINA RESULT:      -4.2      0.020      1.337
REMARK  1 active torsions:
REMARK  status: ('A' for Active; 'I' for Inactive)
REMARK    1  A    between atoms: C2_2  and  C4_4 
ROOT
HETATM    1  C1  UNL     1     -32.950   4.975   2.531  1.00 20.00     0.318 A 
HETATM    2  C2  UNL     1     -34.110   5.772   3.079  1.00 20.00     0.357 A 
HETATM    3  C3  UNL     1     -32.536   7.330   2.074  1.00 20.00     0.310 C 
HETATM    4  N5  UNL     1     -32.755   6.309   3.091  1.00 20.00     0.102 N 
ENDROOT
BRANCH   2   5
HETATM    5  C4  UNL     1     -34.743   5.385   4.369  1.00 20.00     0.419 C 
HETATM    6  F6  UNL     1     -36.093   5.495   4.315  1.00 20.00    -0.169 F 
HETATM    7  F7  UNL     1     -34.457   4.101   4.699  1.00 20.00    -0.169 F 
HETATM    8  F8  UNL     1     -34.315   6.168   5.389  1.00 20.00    -0.169 F 
ENDBRANCH   2   5
TORSDOF 1
ENDMDL
MODEL 4
REMARK VINA RESULT:      -3.9      1.289      1.580
REMARK  1 active torsions:
REMARK  status: ('A' for Active; 'I' for Inactive)
REMARK    1  A    between atoms: C2_2  and  C4_4 
ROOT
HETATM    1  C1  UNL     1     -33.480   7.192   5.065  1.00 20.00     0.318 A 
HETATM    2  C2  UNL     1     -33.611   5.789   4.520  1.00 20.00     0.357 A 
HETATM    3  C3  UNL     1     -32.378   7.116   2.896  1.00 20.00     0.310 C 
HETATM    4  N5  UNL     1     -33.625   6.946   3.634  1.00 20.00     0.102 N 
ENDROOT
BRANCH   2   5
HETATM    5  C4  UNL     1     -34.869   5.021   4.721  1.00 20.00     0.419 C 
HETATM    6  F6  UNL     1     -35.177   4.900   6.035  1.00 20.00    -0.169 F 
HETATM    7  F7  UNL     1     -35.923   5.624   4.115  1.00 20.00    -0.169 F 
HETATM    8  F8  UNL     1     -34.775   3.769   4.212  1.00 20.00    -0.169 F 
ENDBRANCH   2   5
TORSDOF 1
ENDMDL
MODEL 5
REMARK VINA RESULT:      -3.8      1.340      1.457
REMARK  1 active torsions:
REMARK  status: ('A' for Active; 'I' for Inactive)
REMARK    1  A    between atoms: C2_2  and  C4_4 
ROOT
HETATM    1  C1  UNL     1     -34.065   5.011   3.352  1.00 20.00     0.318 A 
HETATM    2  C2  UNL     1     -34.313   6.167   4.292  1.00 20.00     0.357 A 
HETATM    3  C3  UNL     1     -32.796   6.926   2.548  1.00 20.00     0.310 C 
HETATM    4  N5  UNL     1     -33.020   5.988   3.642  1.00 20.00     0.102 N 
ENDROOT
BRANCH   2   5
HETATM    5  C4  UNL     1     -34.420   5.932   5.757  1.00 20.00     0.419 C 
HETATM    6  F6  UNL     1     -34.382   7.095   6.453  1.00 20.00    -0.169 F 
HETATM    7  F7  UNL     1     -35.580   5.309   6.079  1.00 20.00    -0.169 F 
HETATM    8  F8  UNL     1     -33.406   5.156   6.213  1.00 20.00    -0.169 F 
ENDBRANCH   2   5
TORSDOF 1
ENDMDL
MODEL 6
REMARK VINA RESULT:      -3.8      2.618      3.538
REMARK  1 active torsions:
REMARK  status: ('A' for Active; 'I' for Inactive)
REMARK    1  A    between atoms: C2_2  and  C4_4 
ROOT
HETATM    1  C1  UNL     1     -33.708   6.715   5.280  1.00 20.00     0.318 A 
HETATM    2  C2  UNL     1     -33.856   6.791   3.779  1.00 20.00     0.357 A 
HETATM    3  C3  UNL     1     -35.458   5.161   4.611  1.00 20.00     0.310 C 
HETATM    4  N5  UNL     1     -34.054   5.536   4.492  1.00 20.00     0.102 N 
ENDROOT
BRANCH   2   5
HETATM    5  C4  UNL     1     -32.655   6.945   2.914  1.00 20.00     0.419 C 
HETATM    6  F6  UNL     1     -31.610   7.468   3.599  1.00 20.00    -0.169 F 
HETATM    7  F7  UNL     1     -32.250   5.754   2.407  1.00 20.00    -0.169 F 
HETATM    8  F8  UNL     1     -32.900   7.767   1.863  1.00 20.00    -0.169 F 
ENDBRANCH   2   5
TORSDOF 1
ENDMDL
MODEL 7
REMARK VINA RESULT:      -3.8      3.865      4.553
REMARK  1 active torsions:
REMARK  status: ('A' for Active; 'I' for Inactive)
REMARK    1  A    between atoms: C2_2  and  C4_4 
ROOT
HETATM    1  C1  UNL     1     -32.177   7.365   3.039  1.00 20.00     0.318 A 
HETATM    2  C2  UNL     1     -33.136   7.587   1.895  1.00 20.00     0.357 A 
HETATM    3  C3  UNL     1     -33.472   5.327   2.729  1.00 20.00     0.310 C 
HETATM    4  N5  UNL     1     -32.540   6.279   2.134  1.00 20.00     0.102 N 
ENDROOT
BRANCH   2   5
HETATM    5  C4  UNL     1     -32.710   8.364   0.699  1.00 20.00     0.419 C 
HETATM    6  F6  UNL     1     -31.498   7.959   0.247  1.00 20.00    -0.169 F 
HETATM    7  F7  UNL     1     -33.588   8.224  -0.325  1.00 20.00    -0.169 F 
HETATM    8  F8  UNL     1     -32.617   9.688   0.971  1.00 20.00    -0.169 F 
ENDBRANCH   2   5
TORSDOF 1
ENDMDL
MODEL 8
REMARK VINA RESULT:      -3.7      2.315      3.163
REMARK  1 active torsions:
REMARK  status: ('A' for Active; 'I' for Inactive)
REMARK    1  A    between atoms: C2_2  and  C4_4 
ROOT
HETATM    1  C1  UNL     1     -35.278   5.293   4.267  1.00 20.00     0.318 A 
HETATM    2  C2  UNL     1     -33.791   5.226   4.017  1.00 20.00     0.357 A 
HETATM    3  C3  UNL     1     -34.153   6.500   6.057  1.00 20.00     0.310 C 
HETATM    4  N5  UNL     1     -34.400   6.403   4.623  1.00 20.00     0.102 N 
ENDROOT
BRANCH   2   5
HETATM    5  C4  UNL     1     -33.258   5.324   2.631  1.00 20.00     0.419 C 
HETATM    6  F6  UNL     1     -32.585   4.203   2.274  1.00 20.00    -0.169 F 
HETATM    7  F7  UNL     1     -34.253   5.501   1.726  1.00 20.00    -0.169 F 
HETATM    8  F8  UNL     1     -32.403   6.367   2.498  1.00 20.00    -0.169 F 
ENDBRANCH   2   5
TORSDOF 1
ENDMDL
MODEL 9
REMARK VINA RESULT:      -3.5      8.892      9.465
REMARK  1 active torsions:
REMARK  status: ('A' for Active; 'I' for Inactive)
REMARK    1  A    between atoms: C2_2  and  C4_4 
ROOT
HETATM    1  C1  UNL     1     -41.527   6.063   0.082  1.00 20.00     0.318 A 
HETATM    2  C2  UNL     1     -41.791   7.361   0.808  1.00 20.00     0.357 A 
HETATM    3  C3  UNL     1     -43.373   5.705   1.629  1.00 20.00     0.310 C 
HETATM    4  N5  UNL     1     -42.879   6.449   0.476  1.00 20.00     0.102 N 
ENDROOT
BRANCH   2   5
HETATM    5  C4  UNL     1     -41.694   8.658   0.084  1.00 20.00     0.419 C 
HETATM    6  F6  UNL     1     -41.236   9.646   0.891  1.00 20.00    -0.169 F 
HETATM    7  F7  UNL     1     -40.848   8.576  -0.973  1.00 20.00    -0.169 F 
HETATM    8  F8  UNL     1     -42.899   9.053  -0.394  1.00 20.00    -0.169 F 
ENDBRANCH   2   5
TORSDOF 1
ENDMDL
