MODEL 1
REMARK VINA RESULT:      -5.5      0.000      0.000
REMARK  1 active torsions:
REMARK  status: ('A' for Active; 'I' for Inactive)
REMARK    1  A    between atoms: C3_3  and  C5_5 
ROOT
HETATM    1  C1  UNL     1     -33.249   5.757   2.145  1.00 20.00     0.050 A 
HETATM    2  C2  UNL     1     -33.766   5.552   3.444  1.00 20.00    -0.026 A 
HETATM    3  C3  UNL     1     -32.732   7.036   2.140  1.00 20.00     0.113 A 
HETATM    4  C4  UNL     1     -33.521   6.719   4.131  1.00 20.00     0.060 A 
HETATM    5  C6  UNL     1     -34.433   4.386   4.079  1.00 20.00     0.041 C 
HETATM    6  C7  UNL     1     -33.883   7.041   5.527  1.00 20.00     0.066 C 
HETATM    7  C8  UNL     1     -35.137   4.805   5.388  1.00 20.00     0.005 C 
HETATM    8  C9  UNL     1     -34.267   5.738   6.259  1.00 20.00     0.007 C 
HETATM    9  O11 UNL     1     -32.896   7.635   3.354  1.00 20.00    -0.311 OA
ENDROOT
BRANCH   3  10
HETATM   10  C5  UNL     1     -32.088   7.785   1.115  1.00 20.00     0.295 C 
HETATM   11  O10 UNL     1     -32.615   8.739   0.502  1.00 20.00    -0.299 OA
ENDBRANCH   3  10
TORSDOF 1
ENDMDL
MODEL 2
REMARK VINA RESULT:      -5.0     10.981     11.785
REMARK  1 active torsions:
REMARK  status: ('A' for Active; 'I' for Inactive)
REMARK    1  A    between atoms: C3_3  and  C5_5 
ROOT
HETATM    1  C1  UNL     1     -33.288  15.929  -3.431  1.00 20.00     0.050 A 
HETATM    2  C2  UNL     1     -33.422  16.815  -2.339  1.00 20.00    -0.026 A 
HETATM    3  C3  UNL     1     -34.414  15.130  -3.412  1.00 20.00     0.113 A 
HETATM    4  C4  UNL     1     -34.618  16.493  -1.742  1.00 20.00     0.060 A 
HETATM    5  C6  UNL     1     -32.558  17.914  -1.837  1.00 20.00     0.041 C 
HETATM    6  C7  UNL     1     -35.224  17.103  -0.539  1.00 20.00     0.066 C 
HETATM    7  C8  UNL     1     -32.967  18.320  -0.404  1.00 20.00     0.005 C 
HETATM    8  C9  UNL     1     -34.497  18.429  -0.231  1.00 20.00     0.007 C 
HETATM    9  O11 UNL     1     -35.235  15.468  -2.377  1.00 20.00    -0.311 OA
ENDROOT
BRANCH   3  10
HETATM   10  C5  UNL     1     -34.825  14.066  -4.262  1.00 20.00     0.295 C 
HETATM   11  O10 UNL     1     -34.752  12.854  -3.960  1.00 20.00    -0.299 OA
ENDBRANCH   3  10
TORSDOF 1
ENDMDL
MODEL 3
REMARK VINA RESULT:      -5.0     15.943     16.552
REMARK  1 active torsions:
REMARK  status: ('A' for Active; 'I' for Inactive)
REMARK    1  A    between atoms: C3_3  and  C5_5 
ROOT
HETATM    1  C1  UNL     1     -25.346  18.989   8.791  1.00 20.00     0.050 A 
HETATM    2  C2  UNL     1     -24.627  18.556   9.927  1.00 20.00    -0.026 A 
HETATM    3  C3  UNL     1     -24.456  18.943   7.737  1.00 20.00     0.113 A 
HETATM    4  C4  UNL     1     -23.357  18.275   9.479  1.00 20.00     0.060 A 
HETATM    5  C6  UNL     1     -25.023  18.372  11.347  1.00 20.00     0.041 C 
HETATM    6  C7  UNL     1     -22.199  17.808  10.272  1.00 20.00     0.066 C 
HETATM    7  C8  UNL     1     -23.777  18.242  12.250  1.00 20.00     0.005 C 
HETATM    8  C9  UNL     1     -22.700  17.316  11.646  1.00 20.00     0.007 C 
HETATM    9  O11 UNL     1     -23.231  18.507   8.152  1.00 20.00    -0.311 OA
ENDROOT
BRANCH   3  10
HETATM   10  C5  UNL     1     -24.613  19.263   6.360  1.00 20.00     0.295 C 
HETATM   11  O10 UNL     1     -23.687  19.234   5.519  1.00 20.00    -0.299 OA
ENDBRANCH   3  10
TORSDOF 1
ENDMDL
MODEL 4
REMARK VINA RESULT:      -4.8     11.424     11.960
REMARK  1 active torsions:
REMARK  status: ('A' for Active; 'I' for Inactive)
REMARK    1  A    between atoms: C3_3  and  C5_5 
ROOT
HETATM    1  C1  UNL     1     -34.823  15.470  -2.879  1.00 20.00     0.050 A 
HETATM    2  C2  UNL     1     -34.523  16.468  -1.925  1.00 20.00    -0.026 A 
HETATM    3  C3  UNL     1     -33.739  15.421  -3.731  1.00 20.00     0.113 A 
HETATM    4  C4  UNL     1     -33.279  16.947  -2.265  1.00 20.00     0.060 A 
HETATM    5  C6  UNL     1     -35.273  16.981  -0.750  1.00 20.00     0.041 C 
HETATM    6  C7  UNL     1     -32.510  18.021  -1.603  1.00 20.00     0.066 C 
HETATM    7  C8  UNL     1     -34.681  18.322  -0.266  1.00 20.00     0.005 C 
HETATM    8  C9  UNL     1     -33.137  18.308  -0.223  1.00 20.00     0.007 C 
HETATM    9  O11 UNL     1     -32.787  16.325  -3.362  1.00 20.00    -0.311 OA
ENDROOT
BRANCH   3  10
HETATM   10  C5  UNL     1     -33.477  14.613  -4.872  1.00 20.00     0.295 C 
HETATM   11  O10 UNL     1     -34.309  14.381  -5.778  1.00 20.00    -0.299 OA
ENDBRANCH   3  10
TORSDOF 1
ENDMDL
MODEL 5
REMARK VINA RESULT:      -4.6     11.094     12.900
REMARK  1 active torsions:
REMARK  status: ('A' for Active; 'I' for Inactive)
REMARK    1  A    between atoms: C3_3  and  C5_5 
ROOT
HETATM    1  C1  UNL     1     -34.558  15.081  -3.109  1.00 20.00     0.050 A 
HETATM    2  C2  UNL     1     -33.963  16.359  -3.198  1.00 20.00    -0.026 A 
HETATM    3  C3  UNL     1     -35.339  14.945  -4.239  1.00 20.00     0.113 A 
HETATM    4  C4  UNL     1     -34.423  16.902  -4.376  1.00 20.00     0.060 A 
HETATM    5  C6  UNL     1     -33.017  17.083  -2.311  1.00 20.00     0.041 C 
HETATM    6  C7  UNL     1     -34.125  18.238  -4.934  1.00 20.00     0.066 C 
HETATM    7  C8  UNL     1     -32.973  18.585  -2.666  1.00 20.00     0.005 C 
HETATM    8  C9  UNL     1     -32.912  18.833  -4.189  1.00 20.00     0.007 C 
HETATM    9  O11 UNL     1     -35.264  16.060  -5.021  1.00 20.00    -0.311 OA
ENDROOT
BRANCH   3  10
HETATM   10  C5  UNL     1     -36.165  13.877  -4.687  1.00 20.00     0.295 C 
HETATM   11  O10 UNL     1     -35.894  12.665  -4.537  1.00 20.00    -0.299 OA
ENDBRANCH   3  10
TORSDOF 1
ENDMDL
MODEL 6
REMARK VINA RESULT:      -4.5     11.291     12.203
REMARK  1 active torsions:
REMARK  status: ('A' for Active; 'I' for Inactive)
REMARK    1  A    between atoms: C3_3  and  C5_5 
ROOT
HETATM    1  C1  UNL     1     -34.104  17.535  -1.375  1.00 20.00     0.050 A 
HETATM    2  C2  UNL     1     -34.427  16.540  -2.325  1.00 20.00    -0.026 A 
HETATM    3  C3  UNL     1     -32.757  17.789  -1.535  1.00 20.00     0.113 A 
HETATM    4  C4  UNL     1     -33.256  16.269  -2.993  1.00 20.00     0.060 A 
HETATM    5  C6  UNL     1     -35.705  15.860  -2.660  1.00 20.00     0.041 C 
HETATM    6  C7  UNL     1     -33.037  15.283  -4.074  1.00 20.00     0.066 C 
HETATM    7  C8  UNL     1     -35.445  14.595  -3.507  1.00 20.00     0.005 C 
HETATM    8  C9  UNL     1     -34.406  14.832  -4.625  1.00 20.00     0.007 C 
HETATM    9  O11 UNL     1     -32.228  17.014  -2.525  1.00 20.00    -0.311 OA
ENDROOT
BRANCH   3  10
HETATM   10  C5  UNL     1     -31.884  18.688  -0.861  1.00 20.00     0.295 C 
HETATM   11  O10 UNL     1     -30.689  18.438  -0.588  1.00 20.00    -0.299 OA
ENDBRANCH   3  10
TORSDOF 1
ENDMDL
MODEL 7
REMARK VINA RESULT:      -4.3     11.577     12.518
REMARK  1 active torsions:
REMARK  status: ('A' for Active; 'I' for Inactive)
REMARK    1  A    between atoms: C3_3  and  C5_5 
ROOT
HETATM    1  C1  UNL     1     -33.529  18.198  -0.086  1.00 20.00     0.050 A 
HETATM    2  C2  UNL     1     -34.024  17.401  -1.143  1.00 20.00    -0.026 A 
HETATM    3  C3  UNL     1     -32.223  18.498  -0.415  1.00 20.00     0.113 A 
HETATM    4  C4  UNL     1     -32.985  17.281  -2.036  1.00 20.00     0.060 A 
HETATM    5  C6  UNL     1     -35.351  16.779  -1.385  1.00 20.00     0.041 C 
HETATM    6  C7  UNL     1     -32.966  16.527  -3.307  1.00 20.00     0.066 C 
HETATM    7  C8  UNL     1     -35.258  15.706  -2.492  1.00 20.00     0.005 C 
HETATM    8  C9  UNL     1     -34.415  16.171  -3.700  1.00 20.00     0.007 C 
HETATM    9  O11 UNL     1     -31.880  17.938  -1.610  1.00 20.00    -0.311 OA
ENDROOT
BRANCH   3  10
HETATM   10  C5  UNL     1     -31.235  19.262   0.265  1.00 20.00     0.295 C 
HETATM   11  O10 UNL     1     -30.164  18.793   0.711  1.00 20.00    -0.299 OA
ENDBRANCH   3  10
TORSDOF 1
ENDMDL
MODEL 8
REMARK VINA RESULT:      -4.2     11.128     12.721
REMARK  1 active torsions:
REMARK  status: ('A' for Active; 'I' for Inactive)
REMARK    1  A    between atoms: C3_3  and  C5_5 
ROOT
HETATM    1  C1  UNL     1     -38.240  16.221  -4.017  1.00 20.00     0.050 A 
HETATM    2  C2  UNL     1     -36.909  15.750  -3.997  1.00 20.00    -0.026 A 
HETATM    3  C3  UNL     1     -39.024  15.132  -4.340  1.00 20.00     0.113 A 
HETATM    4  C4  UNL     1     -36.983  14.411  -4.305  1.00 20.00     0.060 A 
HETATM    5  C6  UNL     1     -35.617  16.423  -3.706  1.00 20.00     0.041 C 
HETATM    6  C7  UNL     1     -35.868  13.449  -4.441  1.00 20.00     0.066 C 
HETATM    7  C8  UNL     1     -34.430  15.561  -4.187  1.00 20.00     0.005 C 
HETATM    8  C9  UNL     1     -34.596  14.068  -3.826  1.00 20.00     0.007 C 
HETATM    9  O11 UNL     1     -38.260  14.017  -4.521  1.00 20.00    -0.311 OA
ENDROOT
BRANCH   3  10
HETATM   10  C5  UNL     1     -40.432  15.003  -4.504  1.00 20.00     0.295 C 
HETATM   11  O10 UNL     1     -40.979  14.218  -5.309  1.00 20.00    -0.299 OA
ENDBRANCH   3  10
TORSDOF 1
ENDMDL
MODEL 9
REMARK VINA RESULT:      -4.2     11.524     12.364
REMARK  1 active torsions:
REMARK  status: ('A' for Active; 'I' for Inactive)
REMARK    1  A    between atoms: C3_3  and  C5_5 
ROOT
HETATM    1  C1  UNL     1     -35.595  17.109   0.141  1.00 20.00     0.050 A 
HETATM    2  C2  UNL     1     -34.870  16.865  -1.047  1.00 20.00    -0.026 A 
HETATM    3  C3  UNL     1     -34.846  18.016   0.862  1.00 20.00     0.113 A 
HETATM    4  C4  UNL     1     -33.740  17.644  -0.961  1.00 20.00     0.060 A 
HETATM    5  C6  UNL     1     -35.149  16.005  -2.226  1.00 20.00     0.041 C 
HETATM    6  C7  UNL     1     -32.631  17.743  -1.934  1.00 20.00     0.066 C 
HETATM    7  C8  UNL     1     -33.873  15.804  -3.072  1.00 20.00     0.005 C 
HETATM    8  C9  UNL     1     -33.081  17.115  -3.270  1.00 20.00     0.007 C 
HETATM    9  O11 UNL     1     -33.704  18.349   0.194  1.00 20.00    -0.311 OA
ENDROOT
BRANCH   3  10
HETATM   10  C5  UNL     1     -35.072  18.625   2.129  1.00 20.00     0.295 C 
HETATM   11  O10 UNL     1     -34.277  18.564   3.092  1.00 20.00    -0.299 OA
ENDBRANCH   3  10
TORSDOF 1
ENDMDL
