MODEL 1
REMARK VINA RESULT:      -5.5      0.000      0.000
REMARK  1 active torsions:
REMARK  status: ('A' for Active; 'I' for Inactive)
REMARK    1  A    between atoms: C1_1  and  C6_6 
ROOT
HETATM    1  C1  UNL     1     -32.809   7.348   2.013  1.00 20.00    -0.100 C 
HETATM    2  C2  UNL     1     -32.736   8.181   1.152  1.00 20.00    -0.111 C 
HETATM    3  C7  UNL     1     -32.648   9.197   0.104  1.00 20.00     0.112 C 
ENDROOT
BRANCH   1   4
HETATM    4  C6  UNL     1     -32.898   6.331   3.063  1.00 20.00     0.090 C 
HETATM    5  C4  UNL     1     -33.808   6.742   4.202  1.00 20.00     0.072 C 
HETATM    6  C3  UNL     1     -34.286   5.390   4.629  1.00 20.00     0.004 C 
HETATM    7  C8  UNL     1     -34.917   5.194   5.969  1.00 20.00     0.065 C 
HETATM    8  N9  UNL     1     -34.158   4.422   3.773  1.00 20.00    -0.297 NA
HETATM    9  C5  UNL     1     -33.543   5.038   2.579  1.00 20.00     0.166 C 
ENDBRANCH   1   4
TORSDOF 1
ENDMDL
MODEL 2
REMARK VINA RESULT:      -4.1      9.209      9.792
REMARK  1 active torsions:
REMARK  status: ('A' for Active; 'I' for Inactive)
REMARK    1  A    between atoms: C1_1  and  C6_6 
ROOT
HETATM    1  C1  UNL     1     -41.619   4.719  -1.580  1.00 20.00    -0.100 C 
HETATM    2  C2  UNL     1     -41.891   3.889  -2.404  1.00 20.00    -0.111 C 
HETATM    3  C7  UNL     1     -42.222   2.879  -3.409  1.00 20.00     0.112 C 
ENDROOT
BRANCH   1   4
HETATM    4  C6  UNL     1     -41.288   5.730  -0.576  1.00 20.00     0.090 C 
HETATM    5  C4  UNL     1     -41.283   7.137  -1.139  1.00 20.00     0.072 C 
HETATM    6  C3  UNL     1     -41.682   7.891   0.090  1.00 20.00     0.004 C 
HETATM    7  C8  UNL     1     -41.458   9.365   0.186  1.00 20.00     0.065 C 
HETATM    8  N9  UNL     1     -42.258   7.213   1.036  1.00 20.00    -0.297 NA
HETATM    9  C5  UNL     1     -42.330   5.826   0.532  1.00 20.00     0.166 C 
ENDBRANCH   1   4
TORSDOF 1
ENDMDL
MODEL 3
REMARK VINA RESULT:      -4.1     15.965     16.672
REMARK  1 active torsions:
REMARK  status: ('A' for Active; 'I' for Inactive)
REMARK    1  A    between atoms: C1_1  and  C6_6 
ROOT
HETATM    1  C1  UNL     1     -24.706  18.945   7.862  1.00 20.00    -0.100 C 
HETATM    2  C2  UNL     1     -25.548  18.918   7.005  1.00 20.00    -0.111 C 
HETATM    3  C7  UNL     1     -26.571  18.886   5.962  1.00 20.00     0.112 C 
ENDROOT
BRANCH   1   4
HETATM    4  C6  UNL     1     -23.681  18.977   8.906  1.00 20.00     0.090 C 
HETATM    5  C4  UNL     1     -24.163  18.397  10.220  1.00 20.00     0.072 C 
HETATM    6  C3  UNL     1     -22.862  17.876  10.746  1.00 20.00     0.004 C 
HETATM    7  C8  UNL     1     -22.705  17.543  12.194  1.00 20.00     0.065 C 
HETATM    8  N9  UNL     1     -21.908  17.698   9.884  1.00 20.00    -0.297 NA
HETATM    9  C5  UNL     1     -22.480  18.096   8.581  1.00 20.00     0.166 C 
ENDBRANCH   1   4
TORSDOF 1
ENDMDL
MODEL 4
REMARK VINA RESULT:      -4.1     11.234     12.169
REMARK  1 active torsions:
REMARK  status: ('A' for Active; 'I' for Inactive)
REMARK    1  A    between atoms: C1_1  and  C6_6 
ROOT
HETATM    1  C1  UNL     1     -34.952  15.811  -2.374  1.00 20.00    -0.100 C 
HETATM    2  C2  UNL     1     -35.001  16.521  -1.406  1.00 20.00    -0.111 C 
HETATM    3  C7  UNL     1     -35.061  17.383  -0.228  1.00 20.00     0.112 C 
ENDROOT
BRANCH   1   4
HETATM    4  C6  UNL     1     -34.893  14.946  -3.553  1.00 20.00     0.090 C 
HETATM    5  C4  UNL     1     -35.754  15.449  -4.693  1.00 20.00     0.072 C 
HETATM    6  C3  UNL     1     -34.961  14.919  -5.847  1.00 20.00     0.004 C 
HETATM    7  C8  UNL     1     -35.575  14.807  -7.204  1.00 20.00     0.065 C 
HETATM    8  N9  UNL     1     -33.724  14.603  -5.615  1.00 20.00    -0.297 NA
HETATM    9  C5  UNL     1     -33.506  14.904  -4.185  1.00 20.00     0.166 C 
ENDBRANCH   1   4
TORSDOF 1
ENDMDL
MODEL 5
REMARK VINA RESULT:      -4.0     11.158     11.768
REMARK  1 active torsions:
REMARK  status: ('A' for Active; 'I' for Inactive)
REMARK    1  A    between atoms: C1_1  and  C6_6 
ROOT
HETATM    1  C1  UNL     1     -33.339  16.688  -2.481  1.00 20.00    -0.100 C 
HETATM    2  C2  UNL     1     -32.787  17.685  -2.103  1.00 20.00    -0.111 C 
HETATM    3  C7  UNL     1     -32.116  18.899  -1.641  1.00 20.00     0.112 C 
ENDROOT
BRANCH   1   4
HETATM    4  C6  UNL     1     -34.011  15.473  -2.943  1.00 20.00     0.090 C 
HETATM    5  C4  UNL     1     -35.506  15.656  -3.110  1.00 20.00     0.072 C 
HETATM    6  C3  UNL     1     -35.748  14.675  -4.213  1.00 20.00     0.004 C 
HETATM    7  C8  UNL     1     -37.128  14.182  -4.503  1.00 20.00     0.065 C 
HETATM    8  N9  UNL     1     -34.718  14.310  -4.914  1.00 20.00    -0.297 NA
HETATM    9  C5  UNL     1     -33.576  15.052  -4.342  1.00 20.00     0.166 C 
ENDBRANCH   1   4
TORSDOF 1
ENDMDL
MODEL 6
REMARK VINA RESULT:      -4.0     11.150     11.986
REMARK  1 active torsions:
REMARK  status: ('A' for Active; 'I' for Inactive)
REMARK    1  A    between atoms: C1_1  and  C6_6 
ROOT
HETATM    1  C1  UNL     1     -32.617  17.888  -1.279  1.00 20.00    -0.100 C 
HETATM    2  C2  UNL     1     -31.800  18.324  -0.514  1.00 20.00    -0.111 C 
HETATM    3  C7  UNL     1     -30.805  18.853   0.417  1.00 20.00     0.112 C 
ENDROOT
BRANCH   1   4
HETATM    4  C6  UNL     1     -33.613  17.357  -2.211  1.00 20.00     0.090 C 
HETATM    5  C4  UNL     1     -33.100  16.176  -3.008  1.00 20.00     0.072 C 
HETATM    6  C3  UNL     1     -34.389  15.445  -3.215  1.00 20.00     0.004 C 
HETATM    7  C8  UNL     1     -34.509  14.397  -4.273  1.00 20.00     0.065 C 
HETATM    8  N9  UNL     1     -35.369  15.741  -2.416  1.00 20.00    -0.297 NA
HETATM    9  C5  UNL     1     -34.829  16.771  -1.504  1.00 20.00     0.166 C 
ENDBRANCH   1   4
TORSDOF 1
ENDMDL
MODEL 7
REMARK VINA RESULT:      -3.7      9.856     10.444
REMARK  1 active torsions:
REMARK  status: ('A' for Active; 'I' for Inactive)
REMARK    1  A    between atoms: C1_1  and  C6_6 
ROOT
HETATM    1  C1  UNL     1     -42.199   3.881  -2.370  1.00 20.00    -0.100 C 
HETATM    2  C2  UNL     1     -41.962   3.109  -3.258  1.00 20.00    -0.111 C 
HETATM    3  C7  UNL     1     -41.675   2.168  -4.340  1.00 20.00     0.112 C 
ENDROOT
BRANCH   1   4
HETATM    4  C6  UNL     1     -42.488   4.823  -1.287  1.00 20.00     0.090 C 
HETATM    5  C4  UNL     1     -41.259   5.575  -0.820  1.00 20.00     0.072 C 
HETATM    6  C3  UNL     1     -41.908   6.849  -0.378  1.00 20.00     0.004 C 
HETATM    7  C8  UNL     1     -41.188   7.798   0.524  1.00 20.00     0.065 C 
HETATM    8  N9  UNL     1     -43.095   7.097  -0.842  1.00 20.00    -0.297 NA
HETATM    9  C5  UNL     1     -43.417   5.951  -1.718  1.00 20.00     0.166 C 
ENDBRANCH   1   4
TORSDOF 1
ENDMDL
MODEL 8
REMARK VINA RESULT:      -3.7     11.279     11.988
REMARK  1 active torsions:
REMARK  status: ('A' for Active; 'I' for Inactive)
REMARK    1  A    between atoms: C1_1  and  C6_6 
ROOT
HETATM    1  C1  UNL     1     -33.895  15.287  -5.035  1.00 20.00    -0.100 C 
HETATM    2  C2  UNL     1     -33.916  15.180  -6.231  1.00 20.00    -0.111 C 
HETATM    3  C7  UNL     1     -33.940  15.051  -7.687  1.00 20.00     0.112 C 
ENDROOT
BRANCH   1   4
HETATM    4  C6  UNL     1     -33.870  15.417  -3.578  1.00 20.00     0.090 C 
HETATM    5  C4  UNL     1     -33.234  16.712  -3.115  1.00 20.00     0.072 C 
HETATM    6  C3  UNL     1     -33.991  16.911  -1.840  1.00 20.00     0.004 C 
HETATM    7  C8  UNL     1     -33.485  17.848  -0.792  1.00 20.00     0.065 C 
HETATM    8  N9  UNL     1     -35.110  16.264  -1.712  1.00 20.00    -0.297 NA
HETATM    9  C5  UNL     1     -35.264  15.501  -2.968  1.00 20.00     0.166 C 
ENDBRANCH   1   4
TORSDOF 1
ENDMDL
MODEL 9
REMARK VINA RESULT:      -3.7     11.330     12.079
REMARK  1 active torsions:
REMARK  status: ('A' for Active; 'I' for Inactive)
REMARK    1  A    between atoms: C1_1  and  C6_6 
ROOT
HETATM    1  C1  UNL     1     -35.003  15.255  -3.368  1.00 20.00    -0.100 C 
HETATM    2  C2  UNL     1     -35.535  14.720  -4.302  1.00 20.00    -0.111 C 
HETATM    3  C7  UNL     1     -36.182  14.069  -5.440  1.00 20.00     0.112 C 
ENDROOT
BRANCH   1   4
HETATM    4  C6  UNL     1     -34.355  15.908  -2.230  1.00 20.00     0.090 C 
HETATM    5  C4  UNL     1     -33.134  16.710  -2.630  1.00 20.00     0.072 C 
HETATM    6  C3  UNL     1     -33.180  17.766  -1.570  1.00 20.00     0.004 C 
HETATM    7  C8  UNL     1     -31.977  18.601  -1.274  1.00 20.00     0.065 C 
HETATM    8  N9  UNL     1     -34.313  17.938  -0.959  1.00 20.00    -0.297 NA
HETATM    9  C5  UNL     1     -35.238  16.962  -1.572  1.00 20.00     0.166 C 
ENDBRANCH   1   4
TORSDOF 1
ENDMDL
