MODEL 1
REMARK VINA RESULT:      -4.5      0.000      0.000
REMARK  1 active torsions:
REMARK  status: ('A' for Active; 'I' for Inactive)
REMARK    1  A    between atoms: C3_3  and  N9_9 
ROOT
HETATM    1  C1  UNL     1     -32.757   7.071   2.142  1.00 20.00     0.096 C 
HETATM    2  C2  UNL     1     -33.265   5.870   2.713  1.00 20.00     0.040 A 
HETATM    3  C3  UNL     1     -34.040   5.626   3.795  1.00 20.00     0.005 A 
HETATM    4  C4  UNL     1     -33.131   4.424   2.319  1.00 20.00     0.057 A 
HETATM    5  C5  UNL     1     -34.002   4.116   3.543  1.00 20.00     0.057 A 
HETATM    6  N8  UNL     1     -32.343   8.051   1.679  1.00 20.00    -0.192 NA
ENDROOT
BRANCH   3   7
HETATM    7  N9  UNL     1     -34.650   6.283   4.760  1.00 20.00    -0.283 NA
HETATM    8  C6  UNL     1     -34.718   5.631   6.078  1.00 20.00     0.110 A 
HETATM    9  C7  UNL     1     -33.814   6.785   5.864  1.00 20.00     0.110 A 
ENDBRANCH   3   7
TORSDOF 1
ENDMDL
MODEL 2
REMARK VINA RESULT:      -4.4     11.249     11.937
REMARK  1 active torsions:
REMARK  status: ('A' for Active; 'I' for Inactive)
REMARK    1  A    between atoms: C3_3  and  N9_9 
ROOT
HETATM    1  C1  UNL     1     -35.201  13.732  -4.107  1.00 20.00     0.096 C 
HETATM    2  C2  UNL     1     -34.371  14.791  -3.644  1.00 20.00     0.040 A 
HETATM    3  C3  UNL     1     -34.550  15.752  -2.708  1.00 20.00     0.005 A 
HETATM    4  C4  UNL     1     -32.983  15.232  -4.021  1.00 20.00     0.057 A 
HETATM    5  C5  UNL     1     -33.160  16.337  -2.972  1.00 20.00     0.057 A 
HETATM    6  N8  UNL     1     -35.879  12.868  -4.485  1.00 20.00    -0.192 NA
ENDROOT
BRANCH   3   7
HETATM    7  N9  UNL     1     -35.463  16.159  -1.849  1.00 20.00    -0.283 NA
HETATM    8  C6  UNL     1     -35.039  17.130  -0.828  1.00 20.00     0.110 A 
HETATM    9  C7  UNL     1     -35.903  17.560  -1.951  1.00 20.00     0.110 A 
ENDBRANCH   3   7
TORSDOF 1
ENDMDL
MODEL 3
REMARK VINA RESULT:      -4.3     11.844     13.112
REMARK  1 active torsions:
REMARK  status: ('A' for Active; 'I' for Inactive)
REMARK    1  A    between atoms: C3_3  and  N9_9 
ROOT
HETATM    1  C1  UNL     1     -36.969  14.350  -4.219  1.00 20.00     0.096 C 
HETATM    2  C2  UNL     1     -35.619  14.783  -4.094  1.00 20.00     0.040 A 
HETATM    3  C3  UNL     1     -34.597  14.863  -4.978  1.00 20.00     0.005 A 
HETATM    4  C4  UNL     1     -34.827  15.317  -2.931  1.00 20.00     0.057 A 
HETATM    5  C5  UNL     1     -33.649  15.412  -3.908  1.00 20.00     0.057 A 
HETATM    6  N8  UNL     1     -38.070  13.997  -4.322  1.00 20.00    -0.192 NA
ENDROOT
BRANCH   3   7
HETATM    7  N9  UNL     1     -34.348  14.616  -6.249  1.00 20.00    -0.283 NA
HETATM    8  C6  UNL     1     -35.374  15.016  -7.225  1.00 20.00     0.110 A 
HETATM    9  C7  UNL     1     -34.106  15.775  -7.123  1.00 20.00     0.110 A 
ENDBRANCH   3   7
TORSDOF 1
ENDMDL
MODEL 4
REMARK VINA RESULT:      -4.1     16.685     16.974
REMARK  1 active torsions:
REMARK  status: ('A' for Active; 'I' for Inactive)
REMARK    1  A    between atoms: C3_3  and  N9_9 
ROOT
HETATM    1  C1  UNL     1     -22.454  17.546   7.985  1.00 20.00     0.096 C 
HETATM    2  C2  UNL     1     -23.521  18.172   8.688  1.00 20.00     0.040 A 
HETATM    3  C3  UNL     1     -24.004  18.021   9.943  1.00 20.00     0.005 A 
HETATM    4  C4  UNL     1     -24.506  19.240   8.296  1.00 20.00     0.057 A 
HETATM    5  C5  UNL     1     -25.080  19.086   9.710  1.00 20.00     0.057 A 
HETATM    6  N8  UNL     1     -21.584  17.034   7.412  1.00 20.00    -0.192 NA
ENDROOT
BRANCH   3   7
HETATM    7  N9  UNL     1     -23.773  17.310  11.029  1.00 20.00    -0.283 NA
HETATM    8  C6  UNL     1     -22.606  17.688  11.843  1.00 20.00     0.110 A 
HETATM    9  C7  UNL     1     -23.976  17.978  12.324  1.00 20.00     0.110 A 
ENDBRANCH   3   7
TORSDOF 1
ENDMDL
MODEL 5
REMARK VINA RESULT:      -4.0     16.377     16.970
REMARK  1 active torsions:
REMARK  status: ('A' for Active; 'I' for Inactive)
REMARK    1  A    between atoms: C3_3  and  N9_9 
ROOT
HETATM    1  C1  UNL     1     -23.408  18.330   8.418  1.00 20.00     0.096 C 
HETATM    2  C2  UNL     1     -23.291  18.104   9.819  1.00 20.00     0.040 A 
HETATM    3  C3  UNL     1     -24.201  18.064  10.819  1.00 20.00     0.005 A 
HETATM    4  C4  UNL     1     -22.108  17.821  10.706  1.00 20.00     0.057 A 
HETATM    5  C5  UNL     1     -23.116  17.777  11.861  1.00 20.00     0.057 A 
HETATM    6  N8  UNL     1     -23.504  18.515   7.277  1.00 20.00    -0.192 NA
ENDROOT
BRANCH   3   7
HETATM    7  N9  UNL     1     -25.500  18.195  11.000  1.00 20.00    -0.283 NA
HETATM    8  C6  UNL     1     -26.068  17.622  12.231  1.00 20.00     0.110 A 
HETATM    9  C7  UNL     1     -25.940  19.090  12.082  1.00 20.00     0.110 A 
ENDBRANCH   3   7
TORSDOF 1
ENDMDL
MODEL 6
REMARK VINA RESULT:      -4.0     11.828     12.669
REMARK  1 active torsions:
REMARK  status: ('A' for Active; 'I' for Inactive)
REMARK    1  A    between atoms: C3_3  and  N9_9 
ROOT
HETATM    1  C1  UNL     1     -37.118  14.277  -4.741  1.00 20.00     0.096 C 
HETATM    2  C2  UNL     1     -35.885  14.602  -5.374  1.00 20.00     0.040 A 
HETATM    3  C3  UNL     1     -34.635  14.800  -4.896  1.00 20.00     0.005 A 
HETATM    4  C4  UNL     1     -35.515  14.840  -6.813  1.00 20.00     0.057 A 
HETATM    5  C5  UNL     1     -34.090  15.078  -6.300  1.00 20.00     0.057 A 
HETATM    6  N8  UNL     1     -38.123  14.013  -4.223  1.00 20.00    -0.192 NA
ENDROOT
BRANCH   3   7
HETATM    7  N9  UNL     1     -33.987  14.797  -3.748  1.00 20.00    -0.283 NA
HETATM    8  C6  UNL     1     -33.188  15.990  -3.426  1.00 20.00     0.110 A 
HETATM    9  C7  UNL     1     -34.457  15.729  -2.710  1.00 20.00     0.110 A 
ENDBRANCH   3   7
TORSDOF 1
ENDMDL
MODEL 7
REMARK VINA RESULT:      -3.9     11.788     12.750
REMARK  1 active torsions:
REMARK  status: ('A' for Active; 'I' for Inactive)
REMARK    1  A    between atoms: C3_3  and  N9_9 
ROOT
HETATM    1  C1  UNL     1     -32.392  18.093  -1.591  1.00 20.00     0.096 C 
HETATM    2  C2  UNL     1     -33.504  17.234  -1.820  1.00 20.00     0.040 A 
HETATM    3  C3  UNL     1     -33.761  16.300  -2.765  1.00 20.00     0.005 A 
HETATM    4  C4  UNL     1     -34.807  17.044  -1.091  1.00 20.00     0.057 A 
HETATM    5  C5  UNL     1     -35.128  15.985  -2.152  1.00 20.00     0.057 A 
HETATM    6  N8  UNL     1     -31.485  18.793  -1.407  1.00 20.00    -0.192 NA
ENDROOT
BRANCH   3   7
HETATM    7  N9  UNL     1     -33.194  15.765  -3.828  1.00 20.00    -0.283 NA
HETATM    8  C6  UNL     1     -33.646  14.423  -4.227  1.00 20.00     0.110 A 
HETATM    9  C7  UNL     1     -34.031  15.607  -5.028  1.00 20.00     0.110 A 
ENDBRANCH   3   7
TORSDOF 1
ENDMDL
MODEL 8
REMARK VINA RESULT:      -3.9     16.325     17.028
REMARK  1 active torsions:
REMARK  status: ('A' for Active; 'I' for Inactive)
REMARK    1  A    between atoms: C3_3  and  N9_9 
ROOT
HETATM    1  C1  UNL     1     -24.596  18.746   8.102  1.00 20.00     0.096 C 
HETATM    2  C2  UNL     1     -23.385  18.188   8.602  1.00 20.00     0.040 A 
HETATM    3  C3  UNL     1     -22.942  17.933   9.855  1.00 20.00     0.005 A 
HETATM    4  C4  UNL     1     -22.148  17.671   7.918  1.00 20.00     0.057 A 
HETATM    5  C5  UNL     1     -21.617  17.377   9.326  1.00 20.00     0.057 A 
HETATM    6  N8  UNL     1     -25.583  19.201   7.696  1.00 20.00    -0.192 NA
ENDROOT
BRANCH   3   7
HETATM    7  N9  UNL     1     -23.344  18.051  11.104  1.00 20.00    -0.283 NA
HETATM    8  C6  UNL     1     -23.531  16.808  11.870  1.00 20.00     0.110 A 
HETATM    9  C7  UNL     1     -22.379  17.693  12.157  1.00 20.00     0.110 A 
ENDBRANCH   3   7
TORSDOF 1
ENDMDL
MODEL 9
REMARK VINA RESULT:      -3.9     11.613     12.152
REMARK  1 active torsions:
REMARK  status: ('A' for Active; 'I' for Inactive)
REMARK    1  A    between atoms: C3_3  and  N9_9 
ROOT
HETATM    1  C1  UNL     1     -35.029  16.493  -1.574  1.00 20.00     0.096 C 
HETATM    2  C2  UNL     1     -34.362  15.874  -2.669  1.00 20.00     0.040 A 
HETATM    3  C3  UNL     1     -34.727  14.895  -3.529  1.00 20.00     0.005 A 
HETATM    4  C4  UNL     1     -33.003  16.085  -3.280  1.00 20.00     0.057 A 
HETATM    5  C5  UNL     1     -33.385  14.972  -4.263  1.00 20.00     0.057 A 
HETATM    6  N8  UNL     1     -35.573  16.996  -0.681  1.00 20.00    -0.192 NA
ENDROOT
BRANCH   3   7
HETATM    7  N9  UNL     1     -35.753  14.104  -3.772  1.00 20.00    -0.283 NA
HETATM    8  C6  UNL     1     -37.004  14.744  -4.208  1.00 20.00     0.110 A 
HETATM    9  C7  UNL     1     -36.185  13.977  -5.174  1.00 20.00     0.110 A 
ENDBRANCH   3   7
TORSDOF 1
ENDMDL
