MODEL 1
REMARK VINA RESULT:      -5.1      0.000      0.000
REMARK  0 active torsions:
REMARK  status: ('A' for Active; 'I' for Inactive)
ROOT
HETATM    1  C1  UNL     1     -25.801  19.233   9.615  1.00 20.00     0.013 A 
HETATM    2  C2  UNL     1     -26.372  19.263  10.829  1.00 20.00    -0.025 A 
HETATM    3  C3  UNL     1     -24.537  18.593   9.454  1.00 20.00     0.035 A 
HETATM    4  C4  UNL     1     -23.865  18.004  10.450  1.00 20.00    -0.046 A 
HETATM    5  C5  UNL     1     -23.735  18.442   8.226  1.00 20.00     0.254 A 
HETATM    6  C6  UNL     1     -25.743  18.646  12.054  1.00 20.00     0.031 A 
HETATM    7  C7  UNL     1     -24.371  17.954  11.854  1.00 20.00     0.040 A 
HETATM    8  C8  UNL     1     -22.575  17.411  10.011  1.00 20.00     0.161 A 
HETATM    9  C9  UNL     1     -21.534  17.383   7.683  1.00 20.00     0.153 C 
HETATM   10  N10 UNL     1     -22.592  17.742   8.603  1.00 20.00    -0.348 N 
HETATM   11  O11 UNL     1     -24.054  18.864   7.128  1.00 20.00    -0.267 OA
ENDROOT
TORSDOF 0
ENDMDL
MODEL 2
REMARK VINA RESULT:      -4.7     14.873     16.050
REMARK  0 active torsions:
REMARK  status: ('A' for Active; 'I' for Inactive)
ROOT
HETATM    1  C1  UNL     1     -32.804  15.803  -3.589  1.00 20.00     0.013 A 
HETATM    2  C2  UNL     1     -33.353  14.813  -4.308  1.00 20.00    -0.025 A 
HETATM    3  C3  UNL     1     -33.575  16.438  -2.571  1.00 20.00     0.035 A 
HETATM    4  C4  UNL     1     -34.837  16.108  -2.275  1.00 20.00    -0.046 A 
HETATM    5  C5  UNL     1     -33.178  17.534  -1.669  1.00 20.00     0.254 A 
HETATM    6  C6  UNL     1     -34.766  14.324  -4.098  1.00 20.00     0.031 A 
HETATM    7  C7  UNL     1     -35.583  15.027  -2.985  1.00 20.00     0.040 A 
HETATM    8  C8  UNL     1     -35.409  16.924  -1.172  1.00 20.00     0.161 A 
HETATM    9  C9  UNL     1     -34.314  18.799   0.166  1.00 20.00     0.153 C 
HETATM   10  N10 UNL     1     -34.287  17.785  -0.866  1.00 20.00    -0.348 N 
HETATM   11  O11 UNL     1     -32.086  18.076  -1.668  1.00 20.00    -0.267 OA
ENDROOT
TORSDOF 0
ENDMDL
MODEL 3
REMARK VINA RESULT:      -4.6     17.559     18.674
REMARK  0 active torsions:
REMARK  status: ('A' for Active; 'I' for Inactive)
ROOT
HETATM    1  C1  UNL     1     -34.875  14.115  -4.145  1.00 20.00     0.013 A 
HETATM    2  C2  UNL     1     -33.615  14.522  -3.930  1.00 20.00    -0.025 A 
HETATM    3  C3  UNL     1     -35.949  15.032  -3.946  1.00 20.00     0.035 A 
HETATM    4  C4  UNL     1     -35.785  16.299  -3.551  1.00 20.00    -0.046 A 
HETATM    5  C5  UNL     1     -37.395  14.803  -4.121  1.00 20.00     0.254 A 
HETATM    6  C6  UNL     1     -33.263  15.919  -3.482  1.00 20.00     0.031 A 
HETATM    7  C7  UNL     1     -34.446  16.898  -3.274  1.00 20.00     0.040 A 
HETATM    8  C8  UNL     1     -37.068  17.039  -3.422  1.00 20.00     0.161 A 
HETATM    9  C9  UNL     1     -39.443  16.213  -3.846  1.00 20.00     0.153 C 
HETATM   10  N10 UNL     1     -38.011  16.010  -3.802  1.00 20.00    -0.348 N 
HETATM   11  O11 UNL     1     -37.897  13.750  -4.476  1.00 20.00    -0.267 OA
ENDROOT
TORSDOF 0
ENDMDL
MODEL 4
REMARK VINA RESULT:      -4.5     14.830     15.953
REMARK  0 active torsions:
REMARK  status: ('A' for Active; 'I' for Inactive)
ROOT
HETATM    1  C1  UNL     1     -35.445  15.296  -2.687  1.00 20.00     0.013 A 
HETATM    2  C2  UNL     1     -35.020  14.589  -3.744  1.00 20.00    -0.025 A 
HETATM    3  C3  UNL     1     -34.587  16.282  -2.115  1.00 20.00     0.035 A 
HETATM    4  C4  UNL     1     -33.360  16.558  -2.571  1.00 20.00    -0.046 A 
HETATM    5  C5  UNL     1     -34.844  17.166  -0.964  1.00 20.00     0.254 A 
HETATM    6  C6  UNL     1     -33.662  14.780  -4.375  1.00 20.00     0.031 A 
HETATM    7  C7  UNL     1     -32.749  15.857  -3.739  1.00 20.00     0.040 A 
HETATM    8  C8  UNL     1     -32.678  17.628  -1.796  1.00 20.00     0.161 A 
HETATM    9  C9  UNL     1     -33.536  18.945   0.212  1.00 20.00     0.153 C 
HETATM   10  N10 UNL     1     -33.696  17.939  -0.815  1.00 20.00    -0.348 N 
HETATM   11  O11 UNL     1     -35.873  17.179  -0.310  1.00 20.00    -0.267 OA
ENDROOT
TORSDOF 0
ENDMDL
MODEL 5
REMARK VINA RESULT:      -4.5     15.977     16.932
REMARK  0 active torsions:
REMARK  status: ('A' for Active; 'I' for Inactive)
ROOT
HETATM    1  C1  UNL     1     -32.784  16.579  -2.898  1.00 20.00     0.013 A 
HETATM    2  C2  UNL     1     -32.789  17.461  -1.888  1.00 20.00    -0.025 A 
HETATM    3  C3  UNL     1     -33.992  15.904  -3.242  1.00 20.00     0.035 A 
HETATM    4  C4  UNL     1     -35.158  16.095  -2.615  1.00 20.00    -0.046 A 
HETATM    5  C5  UNL     1     -34.215  14.906  -4.304  1.00 20.00     0.254 A 
HETATM    6  C6  UNL     1     -34.022  17.787  -1.081  1.00 20.00     0.031 A 
HETATM    7  C7  UNL     1     -35.323  17.044  -1.475  1.00 20.00     0.040 A 
HETATM    8  C8  UNL     1     -36.261  15.267  -3.173  1.00 20.00     0.161 A 
HETATM    9  C9  UNL     1     -36.195  13.601  -5.102  1.00 20.00     0.153 C 
HETATM   10  N10 UNL     1     -35.562  14.562  -4.225  1.00 20.00    -0.348 N 
HETATM   11  O11 UNL     1     -33.359  14.499  -5.070  1.00 20.00    -0.267 OA
ENDROOT
TORSDOF 0
ENDMDL
MODEL 6
REMARK VINA RESULT:      -4.4     15.010     15.910
REMARK  0 active torsions:
REMARK  status: ('A' for Active; 'I' for Inactive)
ROOT
HETATM    1  C1  UNL     1     -35.432  16.833  -0.859  1.00 20.00     0.013 A 
HETATM    2  C2  UNL     1     -34.906  17.658   0.058  1.00 20.00    -0.025 A 
HETATM    3  C3  UNL     1     -34.667  16.494  -2.014  1.00 20.00     0.035 A 
HETATM    4  C4  UNL     1     -33.433  16.950  -2.252  1.00 20.00    -0.046 A 
HETATM    5  C5  UNL     1     -35.042  15.615  -3.137  1.00 20.00     0.254 A 
HETATM    6  C6  UNL     1     -33.527  18.258  -0.064  1.00 20.00     0.031 A 
HETATM    7  C7  UNL     1     -32.714  17.874  -1.326  1.00 20.00     0.040 A 
HETATM    8  C8  UNL     1     -32.860  16.441  -3.527  1.00 20.00     0.161 A 
HETATM    9  C9  UNL     1     -33.907  14.868  -5.238  1.00 20.00     0.153 C 
HETATM   10  N10 UNL     1     -33.949  15.615  -4.000  1.00 20.00    -0.348 N 
HETATM   11  O11 UNL     1     -36.107  15.030  -3.241  1.00 20.00    -0.267 OA
ENDROOT
TORSDOF 0
ENDMDL
MODEL 7
REMARK VINA RESULT:      -4.2     11.411     12.496
REMARK  0 active torsions:
REMARK  status: ('A' for Active; 'I' for Inactive)
ROOT
HETATM    1  C1  UNL     1     -33.336  17.792  -0.925  1.00 20.00     0.013 A 
HETATM    2  C2  UNL     1     -34.647  17.529  -0.818  1.00 20.00    -0.025 A 
HETATM    3  C3  UNL     1     -32.608  18.200   0.231  1.00 20.00     0.035 A 
HETATM    4  C4  UNL     1     -33.153  18.343   1.444  1.00 20.00    -0.046 A 
HETATM    5  C5  UNL     1     -31.177  18.536   0.343  1.00 20.00     0.254 A 
HETATM    6  C6  UNL     1     -35.409  17.644   0.480  1.00 20.00     0.031 A 
HETATM    7  C7  UNL     1     -34.597  18.087   1.723  1.00 20.00     0.040 A 
HETATM    8  C8  UNL     1     -32.173  18.778   2.475  1.00 20.00     0.161 A 
HETATM    9  C9  UNL     1     -29.684  19.263   2.214  1.00 20.00     0.153 C 
HETATM   10  N10 UNL     1     -30.969  18.869   1.679  1.00 20.00    -0.348 N 
HETATM   11  O11 UNL     1     -30.380  18.511  -0.579  1.00 20.00    -0.267 OA
ENDROOT
TORSDOF 0
ENDMDL
MODEL 8
REMARK VINA RESULT:      -4.2     13.504     14.756
REMARK  0 active torsions:
REMARK  status: ('A' for Active; 'I' for Inactive)
ROOT
HETATM    1  C1  UNL     1     -35.152  16.449  -1.541  1.00 20.00     0.013 A 
HETATM    2  C2  UNL     1     -34.457  16.186  -2.658  1.00 20.00    -0.025 A 
HETATM    3  C3  UNL     1     -34.597  17.328  -0.564  1.00 20.00     0.035 A 
HETATM    4  C4  UNL     1     -33.405  17.923  -0.686  1.00 20.00    -0.046 A 
HETATM    5  C5  UNL     1     -35.178  17.754   0.722  1.00 20.00     0.254 A 
HETATM    6  C6  UNL     1     -33.098  16.777  -2.944  1.00 20.00     0.031 A 
HETATM    7  C7  UNL     1     -32.517  17.730  -1.870  1.00 20.00     0.040 A 
HETATM    8  C8  UNL     1     -33.066  18.789   0.474  1.00 20.00     0.161 A 
HETATM    9  C9  UNL     1     -34.430  19.256   2.577  1.00 20.00     0.153 C 
HETATM   10  N10 UNL     1     -34.243  18.611   1.296  1.00 20.00    -0.348 N 
HETATM   11  O11 UNL     1     -36.263  17.398   1.150  1.00 20.00    -0.267 OA
ENDROOT
TORSDOF 0
ENDMDL
MODEL 9
REMARK VINA RESULT:      -4.1     17.406     18.337
REMARK  0 active torsions:
REMARK  status: ('A' for Active; 'I' for Inactive)
ROOT
HETATM    1  C1  UNL     1     -34.717  15.321  -2.992  1.00 20.00     0.013 A 
HETATM    2  C2  UNL     1     -34.165  16.236  -2.181  1.00 20.00    -0.025 A 
HETATM    3  C3  UNL     1     -34.837  15.603  -4.385  1.00 20.00     0.035 A 
HETATM    4  C4  UNL     1     -34.426  16.742  -4.954  1.00 20.00    -0.046 A 
HETATM    5  C5  UNL     1     -35.404  14.754  -5.448  1.00 20.00     0.254 A 
HETATM    6  C6  UNL     1     -33.652  17.570  -2.668  1.00 20.00     0.031 A 
HETATM    7  C7  UNL     1     -33.791  17.853  -4.185  1.00 20.00     0.040 A 
HETATM    8  C8  UNL     1     -34.667  16.780  -6.421  1.00 20.00     0.161 A 
HETATM    9  C9  UNL     1     -35.724  15.006  -7.916  1.00 20.00     0.153 C 
HETATM   10  N10 UNL     1     -35.282  15.487  -6.625  1.00 20.00    -0.348 N 
HETATM   11  O11 UNL     1     -35.873  13.642  -5.276  1.00 20.00    -0.267 OA
ENDROOT
TORSDOF 0
ENDMDL
