MODEL 1
REMARK VINA RESULT:      -4.2      0.000      0.000
REMARK  1 active torsions:
REMARK  status: ('A' for Active; 'I' for Inactive)
REMARK    1  A    between atoms: C1_1  and  N7_7 
ROOT
HETATM    1  C2  UNL     1     -24.875  18.566  10.554  1.00 20.00     0.159 C 
HETATM    2  C3  UNL     1     -25.155  18.250  12.010  1.00 20.00     0.138 C 
HETATM    3  C4  UNL     1     -23.163  17.207  11.475  1.00 20.00     0.221 C 
HETATM    4  C5  UNL     1     -26.610  17.934  12.295  1.00 20.00     0.041 C 
HETATM    5  C6  UNL     1     -22.023  17.767  12.313  1.00 20.00     0.063 C 
HETATM    6  N7  UNL     1     -23.533  18.075  10.379  1.00 20.00    -0.330 N 
HETATM    7  O9  UNL     1     -24.343  17.091  12.290  1.00 20.00    -0.360 OA
ENDROOT
BRANCH   6   8
HETATM    8  C1  UNL     1     -22.780  18.286   9.249  1.00 20.00     0.352 C 
HETATM    9  O8  UNL     1     -22.085  19.263   8.994  1.00 20.00    -0.283 OA
ENDBRANCH   6   8
TORSDOF 1
ENDMDL
MODEL 2
REMARK VINA RESULT:      -4.1     18.086     18.920
REMARK  1 active torsions:
REMARK  status: ('A' for Active; 'I' for Inactive)
REMARK    1  A    between atoms: C1_1  and  N7_7 
ROOT
HETATM    1  C2  UNL     1     -35.170  15.605  -3.019  1.00 20.00     0.159 C 
HETATM    2  C3  UNL     1     -33.967  16.490  -3.280  1.00 20.00     0.138 C 
HETATM    3  C4  UNL     1     -33.749  14.648  -4.659  1.00 20.00     0.221 C 
HETATM    4  C5  UNL     1     -33.374  17.097  -2.024  1.00 20.00     0.041 C 
HETATM    5  C6  UNL     1     -33.774  15.068  -6.121  1.00 20.00     0.063 C 
HETATM    6  N7  UNL     1     -35.066  14.618  -4.062  1.00 20.00    -0.330 N 
HETATM    7  O9  UNL     1     -33.002  15.613  -3.897  1.00 20.00    -0.360 OA
ENDROOT
BRANCH   6   8
HETATM    8  C1  UNL     1     -36.037  13.684  -4.334  1.00 20.00     0.352 C 
HETATM    9  O8  UNL     1     -35.877  12.482  -4.513  1.00 20.00    -0.283 OA
ENDBRANCH   6   8
TORSDOF 1
ENDMDL
MODEL 3
REMARK VINA RESULT:      -3.9      1.694      1.929
REMARK  1 active torsions:
REMARK  status: ('A' for Active; 'I' for Inactive)
REMARK    1  A    between atoms: C1_1  and  N7_7 
ROOT
HETATM    1  C2  UNL     1     -24.952  18.466  10.250  1.00 20.00     0.159 C 
HETATM    2  C3  UNL     1     -24.257  17.704  11.360  1.00 20.00     0.138 C 
HETATM    3  C4  UNL     1     -23.071  17.282   9.421  1.00 20.00     0.221 C 
HETATM    4  C5  UNL     1     -25.211  17.031  12.327  1.00 20.00     0.041 C 
HETATM    5  C6  UNL     1     -21.648  17.805   9.539  1.00 20.00     0.063 C 
HETATM    6  N7  UNL     1     -24.033  18.329   9.151  1.00 20.00    -0.330 N 
HETATM    7  O9  UNL     1     -23.475  16.704  10.675  1.00 20.00    -0.360 OA
ENDROOT
BRANCH   6   8
HETATM    8  C1  UNL     1     -24.158  18.998   7.957  1.00 20.00     0.352 C 
HETATM    9  O8  UNL     1     -23.728  18.648   6.864  1.00 20.00    -0.283 OA
ENDBRANCH   6   8
TORSDOF 1
ENDMDL
MODEL 4
REMARK VINA RESULT:      -3.8     19.592     20.481
REMARK  1 active torsions:
REMARK  status: ('A' for Active; 'I' for Inactive)
REMARK    1  A    between atoms: C1_1  and  N7_7 
ROOT
HETATM    1  C2  UNL     1     -35.641  14.507  -6.200  1.00 20.00     0.159 C 
HETATM    2  C3  UNL     1     -34.263  15.078  -6.469  1.00 20.00     0.138 C 
HETATM    3  C4  UNL     1     -34.975  15.979  -4.463  1.00 20.00     0.221 C 
HETATM    4  C5  UNL     1     -34.036  15.462  -7.918  1.00 20.00     0.041 C 
HETATM    5  C6  UNL     1     -34.054  15.555  -3.329  1.00 20.00     0.063 C 
HETATM    6  N7  UNL     1     -35.901  14.938  -4.851  1.00 20.00    -0.330 N 
HETATM    7  O9  UNL     1     -34.192  16.255  -5.638  1.00 20.00    -0.360 OA
ENDROOT
BRANCH   6   8
HETATM    8  C1  UNL     1     -36.978  14.520  -4.106  1.00 20.00     0.352 C 
HETATM    9  O8  UNL     1     -37.868  13.755  -4.457  1.00 20.00    -0.283 OA
ENDBRANCH   6   8
TORSDOF 1
ENDMDL
MODEL 5
REMARK VINA RESULT:      -3.8      1.759      3.489
REMARK  1 active torsions:
REMARK  status: ('A' for Active; 'I' for Inactive)
REMARK    1  A    between atoms: C1_1  and  N7_7 
ROOT
HETATM    1  C2  UNL     1     -24.108  18.399   9.261  1.00 20.00     0.159 C 
HETATM    2  C3  UNL     1     -23.107  17.264   9.187  1.00 20.00     0.138 C 
HETATM    3  C4  UNL     1     -23.927  17.288  11.348  1.00 20.00     0.221 C 
HETATM    4  C5  UNL     1     -21.858  17.603   8.398  1.00 20.00     0.041 C 
HETATM    5  C6  UNL     1     -24.656  15.989  11.659  1.00 20.00     0.063 C 
HETATM    6  N7  UNL     1     -24.718  18.197  10.548  1.00 20.00    -0.330 N 
HETATM    7  O9  UNL     1     -22.756  17.003  10.562  1.00 20.00    -0.360 OA
ENDROOT
BRANCH   6   8
HETATM    8  C1  UNL     1     -25.813  18.896  10.997  1.00 20.00     0.352 C 
HETATM    9  O8  UNL     1     -26.038  19.263  12.145  1.00 20.00    -0.283 OA
ENDBRANCH   6   8
TORSDOF 1
ENDMDL
MODEL 6
REMARK VINA RESULT:      -3.7     19.491     20.364
REMARK  1 active torsions:
REMARK  status: ('A' for Active; 'I' for Inactive)
REMARK    1  A    between atoms: C1_1  and  N7_7 
ROOT
HETATM    1  C2  UNL     1     -35.296  14.838  -6.574  1.00 20.00     0.159 C 
HETATM    2  C3  UNL     1     -34.259  15.938  -6.684  1.00 20.00     0.138 C 
HETATM    3  C4  UNL     1     -34.893  15.842  -4.463  1.00 20.00     0.221 C 
HETATM    4  C5  UNL     1     -34.419  16.805  -7.918  1.00 20.00     0.041 C 
HETATM    5  C6  UNL     1     -33.708  15.471  -3.584  1.00 20.00     0.063 C 
HETATM    6  N7  UNL     1     -35.460  14.703  -5.150  1.00 20.00    -0.330 N 
HETATM    7  O9  UNL     1     -34.456  16.739  -5.500  1.00 20.00    -0.360 OA
ENDROOT
BRANCH   6   8
HETATM    8  C1  UNL     1     -36.191  13.703  -4.553  1.00 20.00     0.352 C 
HETATM    9  O8  UNL     1     -35.863  12.531  -4.411  1.00 20.00    -0.283 OA
ENDBRANCH   6   8
TORSDOF 1
ENDMDL
MODEL 7
REMARK VINA RESULT:      -3.7     18.181     18.907
REMARK  1 active torsions:
REMARK  status: ('A' for Active; 'I' for Inactive)
REMARK    1  A    between atoms: C1_1  and  N7_7 
ROOT
HETATM    1  C2  UNL     1     -36.505  16.075  -3.605  1.00 20.00     0.159 C 
HETATM    2  C3  UNL     1     -35.463  16.985  -2.985  1.00 20.00     0.138 C 
HETATM    3  C4  UNL     1     -34.472  14.911  -3.231  1.00 20.00     0.221 C 
HETATM    4  C5  UNL     1     -36.017  17.906  -1.916  1.00 20.00     0.041 C 
HETATM    5  C6  UNL     1     -33.286  14.994  -4.181  1.00 20.00     0.063 C 
HETATM    6  N7  UNL     1     -35.743  14.895  -3.922  1.00 20.00    -0.330 N 
HETATM    7  O9  UNL     1     -34.501  16.084  -2.399  1.00 20.00    -0.360 OA
ENDROOT
BRANCH   6   8
HETATM    8  C1  UNL     1     -36.231  13.840  -4.655  1.00 20.00     0.352 C 
HETATM    9  O8  UNL     1     -35.909  12.662  -4.560  1.00 20.00    -0.283 OA
ENDBRANCH   6   8
TORSDOF 1
ENDMDL
MODEL 8
REMARK VINA RESULT:      -3.6      2.025      2.173
REMARK  1 active torsions:
REMARK  status: ('A' for Active; 'I' for Inactive)
REMARK    1  A    between atoms: C1_1  and  N7_7 
ROOT
HETATM    1  C2  UNL     1     -23.850  18.722   8.507  1.00 20.00     0.159 C 
HETATM    2  C3  UNL     1     -24.749  19.009   9.693  1.00 20.00     0.138 C 
HETATM    3  C4  UNL     1     -23.334  17.296  10.331  1.00 20.00     0.221 C 
HETATM    4  C5  UNL     1     -26.195  19.263   9.313  1.00 20.00     0.041 C 
HETATM    5  C6  UNL     1     -22.460  17.731  11.499  1.00 20.00     0.063 C 
HETATM    6  N7  UNL     1     -22.876  17.819   9.063  1.00 20.00    -0.330 N 
HETATM    7  O9  UNL     1     -24.663  17.822  10.507  1.00 20.00    -0.360 OA
ENDROOT
BRANCH   6   8
HETATM    8  C1  UNL     1     -21.747  17.403   8.398  1.00 20.00     0.352 C 
HETATM    9  O8  UNL     1     -21.690  16.634   7.446  1.00 20.00    -0.283 OA
ENDBRANCH   6   8
TORSDOF 1
ENDMDL
MODEL 9
REMARK VINA RESULT:      -3.6     16.641     17.273
REMARK  1 active torsions:
REMARK  status: ('A' for Active; 'I' for Inactive)
REMARK    1  A    between atoms: C1_1  and  N7_7 
ROOT
HETATM    1  C2  UNL     1     -33.400   6.769   4.673  1.00 20.00     0.159 C 
HETATM    2  C3  UNL     1     -34.058   5.459   5.057  1.00 20.00     0.138 C 
HETATM    3  C4  UNL     1     -33.892   5.469   2.752  1.00 20.00     0.221 C 
HETATM    4  C5  UNL     1     -35.085   5.595   6.164  1.00 20.00     0.041 C 
HETATM    5  C6  UNL     1     -33.002   4.330   2.274  1.00 20.00     0.063 C 
HETATM    6  N7  UNL     1     -33.138   6.590   3.269  1.00 20.00    -0.330 N 
HETATM    7  O9  UNL     1     -34.705   5.013   3.848  1.00 20.00    -0.360 OA
ENDROOT
BRANCH   6   8
HETATM    8  C1  UNL     1     -32.397   7.462   2.509  1.00 20.00     0.352 C 
HETATM    9  O8  UNL     1     -32.606   7.793   1.348  1.00 20.00    -0.283 OA
ENDBRANCH   6   8
TORSDOF 1
ENDMDL
