MODEL 1
REMARK VINA RESULT:      -3.9      0.000      0.000
REMARK  1 active torsions:
REMARK  status: ('A' for Active; 'I' for Inactive)
REMARK    1  A    between atoms: C1_1  and  C4_4 
ROOT
HETATM    1  C1  UNL     1     -33.429   6.687   3.531  1.00 20.00    -0.049 C 
HETATM    2  C2  UNL     1     -32.876   7.141   2.566  1.00 20.00     0.008 C 
HETATM    3 CL8  UNL     1     -32.070   7.805   1.158  1.00 20.00    -0.023 Cl
ENDROOT
BRANCH   1   4
HETATM    4  C4  UNL     1     -34.087   6.144   4.682  1.00 20.00     0.147 A 
HETATM    5  C3  UNL     1     -34.428   4.670   4.746  1.00 20.00     0.166 A 
HETATM    6  C5  UNL     1     -34.106   3.705   3.659  1.00 20.00     0.044 C 
HETATM    7  O7  UNL     1     -35.407   5.653   4.395  1.00 20.00    -0.356 OA
HETATM    8  C6  UNL     1     -34.008   6.930   5.951  1.00 20.00     0.063 C 
ENDBRANCH   1   4
TORSDOF 1
ENDMDL
MODEL 2
REMARK VINA RESULT:      -3.7     11.643     11.930
REMARK  1 active torsions:
REMARK  status: ('A' for Active; 'I' for Inactive)
REMARK    1  A    between atoms: C1_1  and  C4_4 
ROOT
HETATM    1  C1  UNL     1     -34.771  15.388  -2.887  1.00 20.00    -0.049 C 
HETATM    2  C2  UNL     1     -34.953  16.063  -1.911  1.00 20.00     0.008 C 
HETATM    3 CL8  UNL     1     -35.218  17.048  -0.485  1.00 20.00    -0.023 Cl
ENDROOT
BRANCH   1   4
HETATM    4  C4  UNL     1     -34.554  14.583  -4.053  1.00 20.00     0.147 A 
HETATM    5  C3  UNL     1     -35.729  14.042  -4.841  1.00 20.00     0.166 A 
HETATM    6  C5  UNL     1     -37.150  14.305  -4.481  1.00 20.00     0.044 C 
HETATM    7  O7  UNL     1     -35.020  13.232  -3.898  1.00 20.00    -0.356 OA
HETATM    8  C6  UNL     1     -33.217  14.679  -4.713  1.00 20.00     0.063 C 
ENDBRANCH   1   4
TORSDOF 1
ENDMDL
MODEL 3
REMARK VINA RESULT:      -3.7     16.599     17.301
REMARK  1 active torsions:
REMARK  status: ('A' for Active; 'I' for Inactive)
REMARK    1  A    between atoms: C1_1  and  C4_4 
ROOT
HETATM    1  C1  UNL     1     -24.657  17.996  11.486  1.00 20.00    -0.049 C 
HETATM    2  C2  UNL     1     -25.825  18.099  11.743  1.00 20.00     0.008 C 
HETATM    3 CL8  UNL     1     -27.531  18.248  12.117  1.00 20.00    -0.023 Cl
ENDROOT
BRANCH   1   4
HETATM    4  C4  UNL     1     -23.262  17.874  11.180  1.00 20.00     0.147 A 
HETATM    5  C3  UNL     1     -22.730  18.323   9.835  1.00 20.00     0.166 A 
HETATM    6  C5  UNL     1     -23.584  18.915   8.770  1.00 20.00     0.044 C 
HETATM    7  O7  UNL     1     -22.999  16.946  10.115  1.00 20.00    -0.356 OA
HETATM    8  C6  UNL     1     -22.317  17.741  12.331  1.00 20.00     0.063 C 
ENDBRANCH   1   4
TORSDOF 1
ENDMDL
MODEL 4
REMARK VINA RESULT:      -3.6     16.490     16.840
REMARK  1 active torsions:
REMARK  status: ('A' for Active; 'I' for Inactive)
REMARK    1  A    between atoms: C1_1  and  C4_4 
ROOT
HETATM    1  C1  UNL     1     -24.770  18.484  10.057  1.00 20.00    -0.049 C 
HETATM    2  C2  UNL     1     -24.578  18.773   8.907  1.00 20.00     0.008 C 
HETATM    3 CL8  UNL     1     -24.298  19.196   7.229  1.00 20.00    -0.023 Cl
ENDROOT
BRANCH   1   4
HETATM    4  C4  UNL     1     -24.998  18.138  11.429  1.00 20.00     0.147 A 
HETATM    5  C3  UNL     1     -23.838  17.775  12.332  1.00 20.00     0.166 A 
HETATM    6  C5  UNL     1     -22.419  17.760  11.880  1.00 20.00     0.044 C 
HETATM    7  O7  UNL     1     -24.663  16.773  11.728  1.00 20.00    -0.356 OA
HETATM    8  C6  UNL     1     -26.288  18.581  12.042  1.00 20.00     0.063 C 
ENDBRANCH   1   4
TORSDOF 1
ENDMDL
MODEL 5
REMARK VINA RESULT:      -3.5     16.052     16.602
REMARK  1 active torsions:
REMARK  status: ('A' for Active; 'I' for Inactive)
REMARK    1  A    between atoms: C1_1  and  C4_4 
ROOT
HETATM    1  C1  UNL     1     -23.492  17.193  10.022  1.00 20.00    -0.049 C 
HETATM    2  C2  UNL     1     -22.752  17.271   9.079  1.00 20.00     0.008 C 
HETATM    3 CL8  UNL     1     -21.672  17.385   7.703  1.00 20.00    -0.023 Cl
ENDROOT
BRANCH   1   4
HETATM    4  C4  UNL     1     -24.374  17.100  11.147  1.00 20.00     0.147 A 
HETATM    5  C3  UNL     1     -25.470  18.125  11.348  1.00 20.00     0.166 A 
HETATM    6  C5  UNL     1     -25.711  19.263  10.419  1.00 20.00     0.044 C 
HETATM    7  O7  UNL     1     -24.233  18.197  12.064  1.00 20.00    -0.356 OA
HETATM    8  C6  UNL     1     -24.487  15.770  11.822  1.00 20.00     0.063 C 
ENDBRANCH   1   4
TORSDOF 1
ENDMDL
MODEL 6
REMARK VINA RESULT:      -3.5     16.161     16.693
REMARK  1 active torsions:
REMARK  status: ('A' for Active; 'I' for Inactive)
REMARK    1  A    between atoms: C1_1  and  C4_4 
ROOT
HETATM    1  C1  UNL     1     -24.493  18.404   9.075  1.00 20.00    -0.049 C 
HETATM    2  C2  UNL     1     -24.783  18.747   7.961  1.00 20.00     0.008 C 
HETATM    3 CL8  UNL     1     -25.207  19.249   6.336  1.00 20.00    -0.023 Cl
ENDROOT
BRANCH   1   4
HETATM    4  C4  UNL     1     -24.147  17.995  10.404  1.00 20.00     0.147 A 
HETATM    5  C3  UNL     1     -22.702  17.722  10.770  1.00 20.00     0.166 A 
HETATM    6  C5  UNL     1     -21.572  17.865   9.812  1.00 20.00     0.044 C 
HETATM    7  O7  UNL     1     -23.612  16.662  10.459  1.00 20.00    -0.356 OA
HETATM    8  C6  UNL     1     -25.131  18.287  11.490  1.00 20.00     0.063 C 
ENDBRANCH   1   4
TORSDOF 1
ENDMDL
MODEL 7
REMARK VINA RESULT:      -3.5     16.369     16.939
REMARK  1 active torsions:
REMARK  status: ('A' for Active; 'I' for Inactive)
REMARK    1  A    between atoms: C1_1  and  C4_4 
ROOT
HETATM    1  C1  UNL     1     -24.047  17.502   9.826  1.00 20.00    -0.049 C 
HETATM    2  C2  UNL     1     -24.398  16.867  10.784  1.00 20.00     0.008 C 
HETATM    3 CL8  UNL     1     -24.912  15.941  12.181  1.00 20.00    -0.023 Cl
ENDROOT
BRANCH   1   4
HETATM    4  C4  UNL     1     -23.628  18.259   8.685  1.00 20.00     0.147 A 
HETATM    5  C3  UNL     1     -22.263  18.026   8.070  1.00 20.00     0.166 A 
HETATM    6  C5  UNL     1     -21.293  17.020   8.581  1.00 20.00     0.044 C 
HETATM    7  O7  UNL     1     -22.510  19.119   8.961  1.00 20.00    -0.356 OA
HETATM    8  C6  UNL     1     -24.694  18.914   7.867  1.00 20.00     0.063 C 
ENDBRANCH   1   4
TORSDOF 1
ENDMDL
MODEL 8
REMARK VINA RESULT:      -3.4     15.945     16.766
REMARK  1 active torsions:
REMARK  status: ('A' for Active; 'I' for Inactive)
REMARK    1  A    between atoms: C1_1  and  C4_4 
ROOT
HETATM    1  C1  UNL     1     -24.028  18.311   9.232  1.00 20.00    -0.049 C 
HETATM    2  C2  UNL     1     -24.881  18.698   8.481  1.00 20.00     0.008 C 
HETATM    3 CL8  UNL     1     -26.128  19.263   7.386  1.00 20.00    -0.023 Cl
ENDROOT
BRANCH   1   4
HETATM    4  C4  UNL     1     -23.008  17.849  10.127  1.00 20.00     0.147 A 
HETATM    5  C3  UNL     1     -23.332  16.823  11.194  1.00 20.00     0.166 A 
HETATM    6  C5  UNL     1     -24.685  16.231  11.380  1.00 20.00     0.044 C 
HETATM    7  O7  UNL     1     -23.250  18.221  11.494  1.00 20.00    -0.356 OA
HETATM    8  C6  UNL     1     -21.587  18.035   9.702  1.00 20.00     0.063 C 
ENDBRANCH   1   4
TORSDOF 1
ENDMDL
MODEL 9
REMARK VINA RESULT:      -3.4     16.112     16.938
REMARK  1 active torsions:
REMARK  status: ('A' for Active; 'I' for Inactive)
REMARK    1  A    between atoms: C1_1  and  C4_4 
ROOT
HETATM    1  C1  UNL     1     -23.586  17.339  10.068  1.00 20.00    -0.049 C 
HETATM    2  C2  UNL     1     -24.113  16.597  10.852  1.00 20.00     0.008 C 
HETATM    3 CL8  UNL     1     -24.881  15.514  11.997  1.00 20.00    -0.023 Cl
ENDROOT
BRANCH   1   4
HETATM    4  C4  UNL     1     -22.958  18.223   9.132  1.00 20.00     0.147 A 
HETATM    5  C3  UNL     1     -23.791  19.173   8.297  1.00 20.00     0.166 A 
HETATM    6  C5  UNL     1     -25.274  19.263   8.390  1.00 20.00     0.044 C 
HETATM    7  O7  UNL     1     -23.304  17.936   7.767  1.00 20.00    -0.356 OA
HETATM    8  C6  UNL     1     -21.504  18.510   9.329  1.00 20.00     0.063 C 
ENDBRANCH   1   4
TORSDOF 1
ENDMDL
