MODEL 1
REMARK VINA RESULT:      -4.6      0.000      0.000
REMARK  0 active torsions:
REMARK  status: ('A' for Active; 'I' for Inactive)
ROOT
HETATM    1  C1  UNL     1     -37.379  14.829  -4.426  1.00 20.00     0.095 C 
HETATM    2  C2  UNL     1     -34.374  14.768  -3.501  1.00 20.00     0.005 C 
HETATM    3  C3  UNL     1     -34.236  16.794  -7.410  1.00 20.00     0.032 C 
HETATM    4  C4  UNL     1     -35.410  15.881  -3.352  1.00 20.00     0.051 C 
HETATM    5  C5  UNL     1     -33.679  14.871  -4.851  1.00 20.00     0.036 C 
HETATM    6  C6  UNL     1     -34.066  15.280  -7.326  1.00 20.00     0.037 C 
HETATM    7  C7  UNL     1     -35.168  17.168  -6.263  1.00 20.00     0.275 C 
HETATM    8  C8  UNL     1     -36.397  15.929  -4.532  1.00 20.00     0.329 C 
HETATM    9  C9  UNL     1     -34.700  14.881  -5.998  1.00 20.00     0.224 C 
HETATM   10  N10 UNL     1     -38.150  13.966  -4.342  1.00 20.00    -0.195 NA
HETATM   11  N11 UNL     1     -35.754  15.893  -5.849  1.00 20.00     0.111 N 
ENDROOT
TORSDOF 0
ENDMDL
MODEL 2
REMARK VINA RESULT:      -4.4      1.945      3.644
REMARK  0 active torsions:
REMARK  status: ('A' for Active; 'I' for Inactive)
ROOT
HETATM    1  C1  UNL     1     -35.539  13.831  -4.514  1.00 20.00     0.095 C 
HETATM    2  C2  UNL     1     -36.706  16.744  -4.725  1.00 20.00     0.005 C 
HETATM    3  C3  UNL     1     -33.273  17.174  -1.996  1.00 20.00     0.032 C 
HETATM    4  C4  UNL     1     -35.560  16.102  -5.504  1.00 20.00     0.051 C 
HETATM    5  C5  UNL     1     -36.191  17.331  -3.417  1.00 20.00     0.036 C 
HETATM    6  C6  UNL     1     -34.665  16.891  -1.438  1.00 20.00     0.037 C 
HETATM    7  C7  UNL     1     -33.229  16.489  -3.357  1.00 20.00     0.275 C 
HETATM    8  C8  UNL     1     -34.770  15.085  -4.661  1.00 20.00     0.329 C 
HETATM    9  C9  UNL     1     -35.441  16.273  -2.595  1.00 20.00     0.224 C 
HETATM   10  N10 UNL     1     -36.143  12.847  -4.400  1.00 20.00    -0.195 NA
HETATM   11  N11 UNL     1     -34.378  15.583  -3.339  1.00 20.00     0.111 N 
ENDROOT
TORSDOF 0
ENDMDL
MODEL 3
REMARK VINA RESULT:      -4.4      1.567      1.856
REMARK  0 active torsions:
REMARK  status: ('A' for Active; 'I' for Inactive)
ROOT
HETATM    1  C1  UNL     1     -35.972  13.909  -4.233  1.00 20.00     0.095 C 
HETATM    2  C2  UNL     1     -33.858  15.825  -2.913  1.00 20.00     0.005 C 
HETATM    3  C3  UNL     1     -35.784  18.330  -5.983  1.00 20.00     0.032 C 
HETATM    4  C4  UNL     1     -35.346  15.669  -2.606  1.00 20.00     0.051 C 
HETATM    5  C5  UNL     1     -33.655  16.819  -4.049  1.00 20.00     0.036 C 
HETATM    6  C6  UNL     1     -34.527  17.534  -6.322  1.00 20.00     0.037 C 
HETATM    7  C7  UNL     1     -36.523  17.506  -4.936  1.00 20.00     0.275 C 
HETATM    8  C8  UNL     1     -36.173  15.324  -3.858  1.00 20.00     0.329 C 
HETATM    9  C9  UNL     1     -34.471  16.417  -5.286  1.00 20.00     0.224 C 
HETATM   10  N10 UNL     1     -35.815  12.798  -4.527  1.00 20.00    -0.195 NA
HETATM   11  N11 UNL     1     -35.896  16.186  -5.011  1.00 20.00     0.111 N 
ENDROOT
TORSDOF 0
ENDMDL
MODEL 4
REMARK VINA RESULT:      -4.4      1.404      3.135
REMARK  0 active torsions:
REMARK  status: ('A' for Active; 'I' for Inactive)
ROOT
HETATM    1  C1  UNL     1     -36.788  14.139  -4.595  1.00 20.00     0.095 C 
HETATM    2  C2  UNL     1     -35.799  16.557  -6.344  1.00 20.00     0.005 C 
HETATM    3  C3  UNL     1     -33.070  16.568  -2.886  1.00 20.00     0.032 C 
HETATM    4  C4  UNL     1     -35.285  15.120  -6.303  1.00 20.00     0.051 C 
HETATM    5  C5  UNL     1     -35.111  17.395  -5.275  1.00 20.00     0.036 C 
HETATM    6  C6  UNL     1     -34.350  17.398  -2.854  1.00 20.00     0.037 C 
HETATM    7  C7  UNL     1     -33.390  15.351  -3.744  1.00 20.00     0.275 C 
HETATM    8  C8  UNL     1     -35.387  14.498  -4.898  1.00 20.00     0.329 C 
HETATM    9  C9  UNL     1     -35.268  16.755  -3.888  1.00 20.00     0.224 C 
HETATM   10  N10 UNL     1     -37.888  13.857  -4.357  1.00 20.00    -0.195 NA
HETATM   11  N11 UNL     1     -34.851  15.347  -3.830  1.00 20.00     0.111 N 
ENDROOT
TORSDOF 0
ENDMDL
MODEL 5
REMARK VINA RESULT:      -4.4      3.919      5.262
REMARK  0 active torsions:
REMARK  status: ('A' for Active; 'I' for Inactive)
ROOT
HETATM    1  C1  UNL     1     -31.855  18.178  -0.824  1.00 20.00     0.095 C 
HETATM    2  C2  UNL     1     -33.171  19.263  -3.466  1.00 20.00     0.005 C 
HETATM    3  C3  UNL     1     -34.846  15.211  -3.037  1.00 20.00     0.032 C 
HETATM    4  C4  UNL     1     -33.720  19.263  -2.041  1.00 20.00     0.051 C 
HETATM    5  C5  UNL     1     -33.500  17.947  -4.158  1.00 20.00     0.036 C 
HETATM    6  C6  UNL     1     -33.568  15.430  -3.842  1.00 20.00     0.037 C 
HETATM    7  C7  UNL     1     -34.830  16.271  -1.943  1.00 20.00     0.275 C 
HETATM    8  C8  UNL     1     -33.268  18.032  -1.235  1.00 20.00     0.329 C 
HETATM    9  C9  UNL     1     -32.999  16.751  -3.336  1.00 20.00     0.224 C 
HETATM   10  N10 UNL     1     -30.746  18.292  -0.503  1.00 20.00    -0.195 NA
HETATM   11  N11 UNL     1     -33.450  16.759  -1.937  1.00 20.00     0.111 N 
ENDROOT
TORSDOF 0
ENDMDL
MODEL 6
REMARK VINA RESULT:      -4.3      2.073      3.066
REMARK  0 active torsions:
REMARK  status: ('A' for Active; 'I' for Inactive)
ROOT
HETATM    1  C1  UNL     1     -36.905  16.380  -5.904  1.00 20.00     0.095 C 
HETATM    2  C2  UNL     1     -36.121  13.619  -4.620  1.00 20.00     0.005 C 
HETATM    3  C3  UNL     1     -34.068  16.583  -2.090  1.00 20.00     0.032 C 
HETATM    4  C4  UNL     1     -37.242  14.582  -4.234  1.00 20.00     0.051 C 
HETATM    5  C5  UNL     1     -34.826  14.010  -3.922  1.00 20.00     0.036 C 
HETATM    6  C6  UNL     1     -33.353  15.979  -3.294  1.00 20.00     0.037 C 
HETATM    7  C7  UNL     1     -35.544  16.627  -2.466  1.00 20.00     0.275 C 
HETATM    8  C8  UNL     1     -36.859  16.055  -4.463  1.00 20.00     0.329 C 
HETATM    9  C9  UNL     1     -34.466  15.475  -4.207  1.00 20.00     0.224 C 
HETATM   10  N10 UNL     1     -36.942  16.635  -7.035  1.00 20.00    -0.195 NA
HETATM   11  N11 UNL     1     -35.550  16.423  -3.915  1.00 20.00     0.111 N 
ENDROOT
TORSDOF 0
ENDMDL
MODEL 7
REMARK VINA RESULT:      -4.2      2.029      3.340
REMARK  0 active torsions:
REMARK  status: ('A' for Active; 'I' for Inactive)
ROOT
HETATM    1  C1  UNL     1     -36.427  15.362  -5.106  1.00 20.00     0.095 C 
HETATM    2  C2  UNL     1     -33.493  14.433  -4.459  1.00 20.00     0.005 C 
HETATM    3  C3  UNL     1     -34.343  17.468  -1.381  1.00 20.00     0.032 C 
HETATM    4  C4  UNL     1     -34.813  13.957  -3.857  1.00 20.00     0.051 C 
HETATM    5  C5  UNL     1     -32.985  15.659  -3.713  1.00 20.00     0.036 C 
HETATM    6  C6  UNL     1     -33.691  17.876  -2.699  1.00 20.00     0.037 C 
HETATM    7  C7  UNL     1     -35.244  16.286  -1.717  1.00 20.00     0.275 C 
HETATM    8  C8  UNL     1     -35.861  15.081  -3.769  1.00 20.00     0.329 C 
HETATM    9  C9  UNL     1     -34.049  16.766  -3.681  1.00 20.00     0.224 C 
HETATM   10  N10 UNL     1     -36.871  15.583  -6.154  1.00 20.00    -0.195 NA
HETATM   11  N11 UNL     1     -35.355  16.322  -3.175  1.00 20.00     0.111 N 
ENDROOT
TORSDOF 0
ENDMDL
MODEL 8
REMARK VINA RESULT:      -4.1      4.175      5.906
REMARK  0 active torsions:
REMARK  status: ('A' for Active; 'I' for Inactive)
ROOT
HETATM    1  C1  UNL     1     -31.829  18.552  -1.303  1.00 20.00     0.095 C 
HETATM    2  C2  UNL     1     -33.376  16.270  -2.817  1.00 20.00     0.005 C 
HETATM    3  C3  UNL     1     -36.578  18.724  -1.045  1.00 20.00     0.032 C 
HETATM    4  C4  UNL     1     -33.033  17.682  -3.287  1.00 20.00     0.051 C 
HETATM    5  C5  UNL     1     -34.686  16.277  -2.039  1.00 20.00     0.036 C 
HETATM    6  C6  UNL     1     -36.013  17.532  -0.277  1.00 20.00     0.037 C 
HETATM    7  C7  UNL     1     -35.421  19.263  -1.877  1.00 20.00     0.275 C 
HETATM    8  C8  UNL     1     -33.041  18.705  -2.136  1.00 20.00     0.329 C 
HETATM    9  C9  UNL     1     -34.635  17.285  -0.882  1.00 20.00     0.224 C 
HETATM   10  N10 UNL     1     -30.878  18.431  -0.650  1.00 20.00    -0.195 NA
HETATM   11  N11 UNL     1     -34.235  18.640  -1.289  1.00 20.00     0.111 N 
ENDROOT
TORSDOF 0
ENDMDL
MODEL 9
REMARK VINA RESULT:      -4.0      2.911      3.766
REMARK  0 active torsions:
REMARK  status: ('A' for Active; 'I' for Inactive)
ROOT
HETATM    1  C1  UNL     1     -35.511  17.309  -0.439  1.00 20.00     0.095 C 
HETATM    2  C2  UNL     1     -32.930  17.397  -2.233  1.00 20.00     0.005 C 
HETATM    3  C3  UNL     1     -35.884  15.290  -4.732  1.00 20.00     0.032 C 
HETATM    4  C4  UNL     1     -34.131  18.340  -2.220  1.00 20.00     0.051 C 
HETATM    5  C5  UNL     1     -33.201  16.209  -3.146  1.00 20.00     0.036 C 
HETATM    6  C6  UNL     1     -34.955  14.501  -3.815  1.00 20.00     0.037 C 
HETATM    7  C7  UNL     1     -36.123  16.621  -4.029  1.00 20.00     0.275 C 
HETATM    8  C8  UNL     1     -35.446  17.614  -1.884  1.00 20.00     0.329 C 
HETATM    9  C9  UNL     1     -34.503  15.496  -2.752  1.00 20.00     0.224 C 
HETATM   10  N10 UNL     1     -35.561  17.071   0.695  1.00 20.00    -0.195 NA
HETATM   11  N11 UNL     1     -35.666  16.389  -2.658  1.00 20.00     0.111 N 
ENDROOT
TORSDOF 0
ENDMDL
