MODEL 1
REMARK VINA RESULT:      -5.4      0.000      0.000
REMARK  1 active torsions:
REMARK  status: ('A' for Active; 'I' for Inactive)
REMARK    1  A    between atoms: C3_3  and  C8_8 
ROOT
HETATM    1  C1  UNL     1     -34.073  15.551  -5.479  1.00 20.00    -0.079 C 
HETATM    2  C2  UNL     1     -34.016  15.156  -6.753  1.00 20.00    -0.028 C 
HETATM    3  C4  UNL     1     -34.456  16.925  -4.991  1.00 20.00     0.039 C 
HETATM    4  C5  UNL     1     -33.061  15.820  -3.403  1.00 20.00     0.014 C 
HETATM    5  C6  UNL     1     -35.402  15.803  -2.938  1.00 20.00     0.019 C 
HETATM    6  C7  UNL     1     -33.704  14.727  -4.262  1.00 20.00     0.027 C 
HETATM    7  C8  UNL     1     -34.971  14.416  -3.445  1.00 20.00     0.081 C 
HETATM    8  C9  UNL     1     -34.290  16.734  -3.472  1.00 20.00    -0.009 C 
HETATM    9  C10 UNL     1     -34.333  16.036  -7.917  1.00 20.00     0.036 C 
ENDROOT
BRANCH   7  10
HETATM   10  C3  UNL     1     -36.038  13.715  -4.229  1.00 20.00     0.223 C 
HETATM   11  O11 UNL     1     -35.902  12.556  -4.609  1.00 20.00    -0.279 OA
HETATM   12 CL12 UNL     1     -37.420  14.731  -4.506  1.00 20.00    -0.043 Cl
ENDBRANCH   7  10
TORSDOF 1
ENDMDL
MODEL 2
REMARK VINA RESULT:      -4.5      1.072      1.231
REMARK  1 active torsions:
REMARK  status: ('A' for Active; 'I' for Inactive)
REMARK    1  A    between atoms: C3_3  and  C8_8 
ROOT
HETATM    1  C1  UNL     1     -34.452  16.658  -5.137  1.00 20.00    -0.079 C 
HETATM    2  C2  UNL     1     -34.635  16.975  -6.422  1.00 20.00    -0.028 C 
HETATM    3  C4  UNL     1     -34.769  17.537  -3.953  1.00 20.00     0.039 C 
HETATM    4  C5  UNL     1     -33.064  15.960  -3.409  1.00 20.00     0.014 C 
HETATM    5  C6  UNL     1     -35.268  15.421  -2.669  1.00 20.00     0.019 C 
HETATM    6  C7  UNL     1     -33.832  15.384  -4.601  1.00 20.00     0.027 C 
HETATM    7  C8  UNL     1     -34.907  14.548  -3.885  1.00 20.00     0.081 C 
HETATM    8  C9  UNL     1     -34.306  16.623  -2.802  1.00 20.00    -0.009 C 
HETATM    9  C10 UNL     1     -35.195  18.277  -6.892  1.00 20.00     0.036 C 
ENDROOT
BRANCH   7  10
HETATM   10  C3  UNL     1     -36.088  14.216  -4.745  1.00 20.00     0.223 C 
HETATM   11  O11 UNL     1     -35.972  13.544  -5.766  1.00 20.00    -0.279 OA
HETATM   12 CL12 UNL     1     -37.563  14.888  -4.119  1.00 20.00    -0.043 Cl
ENDBRANCH   7  10
TORSDOF 1
ENDMDL
MODEL 3
REMARK VINA RESULT:      -4.5      2.259      3.773
REMARK  1 active torsions:
REMARK  status: ('A' for Active; 'I' for Inactive)
REMARK    1  A    between atoms: C3_3  and  C8_8 
ROOT
HETATM    1  C1  UNL     1     -35.740  15.554  -3.478  1.00 20.00    -0.079 C 
HETATM    2  C2  UNL     1     -34.702  15.611  -2.640  1.00 20.00    -0.028 C 
HETATM    3  C4  UNL     1     -36.800  16.613  -3.652  1.00 20.00     0.039 C 
HETATM    4  C5  UNL     1     -37.635  14.466  -4.273  1.00 20.00     0.014 C 
HETATM    5  C6  UNL     1     -36.958  15.889  -6.066  1.00 20.00     0.019 C 
HETATM    6  C7  UNL     1     -36.109  14.393  -4.380  1.00 20.00     0.027 C 
HETATM    7  C8  UNL     1     -35.897  14.795  -5.851  1.00 20.00     0.081 C 
HETATM    8  C9  UNL     1     -37.695  15.934  -4.708  1.00 20.00    -0.009 C 
HETATM    9  C10 UNL     1     -34.426  16.760  -1.727  1.00 20.00     0.036 C 
ENDROOT
BRANCH   7  10
HETATM   10  C3  UNL     1     -34.504  15.254  -6.157  1.00 20.00     0.223 C 
HETATM   11  O11 UNL     1     -33.542  14.497  -6.069  1.00 20.00    -0.279 OA
HETATM   12 CL12 UNL     1     -34.456  16.926  -6.628  1.00 20.00    -0.043 Cl
ENDBRANCH   7  10
TORSDOF 1
ENDMDL
MODEL 4
REMARK VINA RESULT:      -4.4      2.577      4.038
REMARK  1 active torsions:
REMARK  status: ('A' for Active; 'I' for Inactive)
REMARK    1  A    between atoms: C3_3  and  C8_8 
ROOT
HETATM    1  C1  UNL     1     -33.765  16.537  -2.800  1.00 20.00    -0.079 C 
HETATM    2  C2  UNL     1     -32.893  17.394  -2.262  1.00 20.00    -0.028 C 
HETATM    3  C4  UNL     1     -35.012  16.007  -2.138  1.00 20.00     0.039 C 
HETATM    4  C5  UNL     1     -34.227  14.493  -3.805  1.00 20.00     0.014 C 
HETATM    5  C6  UNL     1     -36.045  15.903  -4.438  1.00 20.00     0.019 C 
HETATM    6  C7  UNL     1     -33.654  15.869  -4.155  1.00 20.00     0.027 C 
HETATM    7  C8  UNL     1     -34.749  16.415  -5.091  1.00 20.00     0.081 C 
HETATM    8  C9  UNL     1     -35.531  15.068  -3.243  1.00 20.00    -0.009 C 
HETATM    9  C10 UNL     1     -33.024  17.972  -0.891  1.00 20.00     0.036 C 
ENDROOT
BRANCH   7  10
HETATM   10  C3  UNL     1     -34.717  17.903  -5.253  1.00 20.00     0.223 C 
HETATM   11  O11 UNL     1     -33.795  18.468  -5.835  1.00 20.00    -0.279 OA
HETATM   12 CL12 UNL     1     -36.102  18.670  -4.535  1.00 20.00    -0.043 Cl
ENDBRANCH   7  10
TORSDOF 1
ENDMDL
MODEL 5
REMARK VINA RESULT:      -4.4      1.938      2.824
REMARK  1 active torsions:
REMARK  status: ('A' for Active; 'I' for Inactive)
REMARK    1  A    between atoms: C3_3  and  C8_8 
ROOT
HETATM    1  C1  UNL     1     -35.424  16.979  -4.353  1.00 20.00    -0.079 C 
HETATM    2  C2  UNL     1     -36.039  17.915  -5.081  1.00 20.00    -0.028 C 
HETATM    3  C4  UNL     1     -35.972  16.316  -3.114  1.00 20.00     0.039 C 
HETATM    4  C5  UNL     1     -33.587  16.264  -3.121  1.00 20.00     0.014 C 
HETATM    5  C6  UNL     1     -34.684  14.254  -3.793  1.00 20.00     0.019 C 
HETATM    6  C7  UNL     1     -34.028  16.434  -4.577  1.00 20.00     0.027 C 
HETATM    7  C8  UNL     1     -34.115  14.966  -5.033  1.00 20.00     0.081 C 
HETATM    8  C9  UNL     1     -34.793  15.392  -2.753  1.00 20.00    -0.009 C 
HETATM    9  C10 UNL     1     -37.394  18.460  -4.771  1.00 20.00     0.036 C 
ENDROOT
BRANCH   7  10
HETATM   10  C3  UNL     1     -34.944  14.763  -6.264  1.00 20.00     0.223 C 
HETATM   11  O11 UNL     1     -35.917  14.015  -6.269  1.00 20.00    -0.279 OA
HETATM   12 CL12 UNL     1     -34.356  15.692  -7.610  1.00 20.00    -0.043 Cl
ENDBRANCH   7  10
TORSDOF 1
ENDMDL
MODEL 6
REMARK VINA RESULT:      -4.3      1.753      3.019
REMARK  1 active torsions:
REMARK  status: ('A' for Active; 'I' for Inactive)
REMARK    1  A    between atoms: C3_3  and  C8_8 
ROOT
HETATM    1  C1  UNL     1     -35.830  16.803  -3.794  1.00 20.00    -0.079 C 
HETATM    2  C2  UNL     1     -37.037  17.334  -4.011  1.00 20.00    -0.028 C 
HETATM    3  C4  UNL     1     -35.328  16.246  -2.486  1.00 20.00     0.039 C 
HETATM    4  C5  UNL     1     -33.513  16.970  -3.854  1.00 20.00     0.014 C 
HETATM    5  C6  UNL     1     -33.951  14.623  -3.843  1.00 20.00     0.019 C 
HETATM    6  C7  UNL     1     -34.694  16.708  -4.792  1.00 20.00     0.027 C 
HETATM    7  C8  UNL     1     -34.455  15.233  -5.163  1.00 20.00     0.081 C 
HETATM    8  C9  UNL     1     -33.898  15.840  -2.892  1.00 20.00    -0.009 C 
HETATM    9  C10 UNL     1     -38.097  17.458  -2.967  1.00 20.00     0.036 C 
ENDROOT
BRANCH   7  10
HETATM   10  C3  UNL     1     -35.669  14.543  -5.707  1.00 20.00     0.223 C 
HETATM   11  O11 UNL     1     -36.101  14.789  -6.830  1.00 20.00    -0.279 OA
HETATM   12 CL12 UNL     1     -36.338  13.407  -4.575  1.00 20.00    -0.043 Cl
ENDBRANCH   7  10
TORSDOF 1
ENDMDL
MODEL 7
REMARK VINA RESULT:      -4.3      1.775      3.355
REMARK  1 active torsions:
REMARK  status: ('A' for Active; 'I' for Inactive)
REMARK    1  A    between atoms: C3_3  and  C8_8 
ROOT
HETATM    1  C1  UNL     1     -35.847  16.796  -3.142  1.00 20.00    -0.079 C 
HETATM    2  C2  UNL     1     -36.757  17.692  -2.751  1.00 20.00    -0.028 C 
HETATM    3  C4  UNL     1     -35.004  15.934  -2.236  1.00 20.00     0.039 C 
HETATM    4  C5  UNL     1     -33.929  16.259  -4.341  1.00 20.00     0.014 C 
HETATM    5  C6  UNL     1     -35.063  14.179  -4.049  1.00 20.00     0.019 C 
HETATM    6  C7  UNL     1     -35.424  16.502  -4.567  1.00 20.00     0.027 C 
HETATM    7  C8  UNL     1     -35.896  15.093  -4.966  1.00 20.00     0.081 C 
HETATM    8  C9  UNL     1     -34.165  15.176  -3.282  1.00 20.00    -0.009 C 
HETATM    9  C10 UNL     1     -37.086  17.983  -1.323  1.00 20.00     0.036 C 
ENDROOT
BRANCH   7  10
HETATM   10  C3  UNL     1     -37.373  14.887  -4.821  1.00 20.00     0.223 C 
HETATM   11  O11 UNL     1     -37.833  13.909  -4.238  1.00 20.00    -0.279 OA
HETATM   12 CL12 UNL     1     -38.288  16.167  -5.559  1.00 20.00    -0.043 Cl
ENDBRANCH   7  10
TORSDOF 1
ENDMDL
MODEL 8
REMARK VINA RESULT:      -4.3      2.219      3.086
REMARK  1 active torsions:
REMARK  status: ('A' for Active; 'I' for Inactive)
REMARK    1  A    between atoms: C3_3  and  C8_8 
ROOT
HETATM    1  C1  UNL     1     -35.461  15.940  -5.591  1.00 20.00    -0.079 C 
HETATM    2  C2  UNL     1     -35.037  16.999  -6.287  1.00 20.00    -0.028 C 
HETATM    3  C4  UNL     1     -35.765  14.574  -6.152  1.00 20.00     0.039 C 
HETATM    4  C5  UNL     1     -36.991  14.958  -4.142  1.00 20.00     0.014 C 
HETATM    5  C6  UNL     1     -35.020  13.628  -3.934  1.00 20.00     0.019 C 
HETATM    6  C7  UNL     1     -35.787  15.903  -4.112  1.00 20.00     0.027 C 
HETATM    7  C8  UNL     1     -34.749  15.036  -3.376  1.00 20.00     0.081 C 
HETATM    8  C9  UNL     1     -36.227  13.849  -4.874  1.00 20.00    -0.009 C 
HETATM    9  C10 UNL     1     -34.794  16.990  -7.760  1.00 20.00     0.036 C 
ENDROOT
BRANCH   7  10
HETATM   10  C3  UNL     1     -33.335  15.488  -3.575  1.00 20.00     0.223 C 
HETATM   11  O11 UNL     1     -32.527  14.817  -4.211  1.00 20.00    -0.279 OA
HETATM   12 CL12 UNL     1     -33.023  17.019  -2.813  1.00 20.00    -0.043 Cl
ENDBRANCH   7  10
TORSDOF 1
ENDMDL
MODEL 9
REMARK VINA RESULT:      -4.2      2.219      2.920
REMARK  1 active torsions:
REMARK  status: ('A' for Active; 'I' for Inactive)
REMARK    1  A    between atoms: C3_3  and  C8_8 
ROOT
HETATM    1  C1  UNL     1     -34.088  17.356  -3.516  1.00 20.00    -0.079 C 
HETATM    2  C2  UNL     1     -33.050  18.079  -3.947  1.00 20.00    -0.028 C 
HETATM    3  C4  UNL     1     -35.537  17.590  -3.863  1.00 20.00     0.039 C 
HETATM    4  C5  UNL     1     -35.336  16.458  -1.773  1.00 20.00     0.014 C 
HETATM    5  C6  UNL     1     -35.863  15.095  -3.661  1.00 20.00     0.019 C 
HETATM    6  C7  UNL     1     -34.038  16.197  -2.542  1.00 20.00     0.027 C 
HETATM    7  C8  UNL     1     -34.387  14.890  -3.277  1.00 20.00     0.081 C 
HETATM    8  C9  UNL     1     -36.200  16.470  -3.039  1.00 20.00    -0.009 C 
HETATM    9  C10 UNL     1     -33.169  19.254  -4.860  1.00 20.00     0.036 C 
ENDROOT
BRANCH   7  10
HETATM   10  C3  UNL     1     -33.505  14.604  -4.453  1.00 20.00     0.223 C 
HETATM   11  O11 UNL     1     -32.324  14.300  -4.314  1.00 20.00    -0.279 OA
HETATM   12 CL12 UNL     1     -34.355  14.759  -5.961  1.00 20.00    -0.043 Cl
ENDBRANCH   7  10
TORSDOF 1
ENDMDL
