MODEL 1
REMARK VINA RESULT:      -4.6      0.000      0.000
REMARK  1 active torsions:
REMARK  status: ('A' for Active; 'I' for Inactive)
REMARK    1  A    between atoms: C3_3  and  C6_6 
ROOT
HETATM    1  C1  UNL     1     -32.924  16.572  -3.028  1.00 20.00    -0.024 C 
HETATM    2  C2  UNL     1     -33.611  15.499  -3.461  1.00 20.00    -0.083 C 
HETATM    3  C4  UNL     1     -33.415  17.527  -1.980  1.00 20.00     0.032 C 
HETATM    4  C5  UNL     1     -35.001  15.168  -2.930  1.00 20.00     0.021 C 
HETATM    5  C6  UNL     1     -35.656  16.345  -2.158  1.00 20.00     0.066 C 
HETATM    6  C7  UNL     1     -34.634  16.999  -1.208  1.00 20.00    -0.003 C 
HETATM    7  C8  UNL     1     -32.992  14.552  -4.452  1.00 20.00     0.043 C 
HETATM    8  C10 UNL     1     -35.954  14.616  -4.001  1.00 20.00     0.015 C 
HETATM    9  C11 UNL     1     -35.246  18.098  -0.338  1.00 20.00     0.011 C 
ENDROOT
BRANCH   5  10
HETATM   10  C3  UNL     1     -36.251  17.371  -3.088  1.00 20.00     0.128 C 
HETATM   11  C9  UNL     1     -37.729  17.623  -2.960  1.00 20.00     0.091 C 
HETATM   12  O12 UNL     1     -35.562  17.974  -3.908  1.00 20.00    -0.298 OA
ENDBRANCH   5  10
TORSDOF 1
ENDMDL
MODEL 2
REMARK VINA RESULT:      -4.5      1.461      4.058
REMARK  1 active torsions:
REMARK  status: ('A' for Active; 'I' for Inactive)
REMARK    1  A    between atoms: C3_3  and  C6_6 
ROOT
HETATM    1  C1  UNL     1     -35.167  16.650  -1.155  1.00 20.00    -0.024 C 
HETATM    2  C2  UNL     1     -34.219  17.488  -0.698  1.00 20.00    -0.083 C 
HETATM    3  C4  UNL     1     -35.073  15.883  -2.441  1.00 20.00     0.032 C 
HETATM    4  C5  UNL     1     -32.944  17.763  -1.487  1.00 20.00     0.021 C 
HETATM    5  C6  UNL     1     -33.024  17.289  -2.963  1.00 20.00     0.066 C 
HETATM    6  C7  UNL     1     -33.659  15.888  -3.043  1.00 20.00    -0.003 C 
HETATM    7  C8  UNL     1     -34.370  18.142   0.648  1.00 20.00     0.043 C 
HETATM    8  C10 UNL     1     -32.471  19.223  -1.403  1.00 20.00     0.015 C 
HETATM    9  C11 UNL     1     -33.668  15.318  -4.463  1.00 20.00     0.011 C 
ENDROOT
BRANCH   5  10
HETATM   10  C3  UNL     1     -33.774  18.266  -3.832  1.00 20.00     0.128 C 
HETATM   11  C9  UNL     1     -32.982  18.970  -4.899  1.00 20.00     0.091 C 
HETATM   12  O12 UNL     1     -34.977  18.474  -3.677  1.00 20.00    -0.298 OA
ENDBRANCH   5  10
TORSDOF 1
ENDMDL
MODEL 3
REMARK VINA RESULT:      -4.3      1.417      2.161
REMARK  1 active torsions:
REMARK  status: ('A' for Active; 'I' for Inactive)
REMARK    1  A    between atoms: C3_3  and  C6_6 
ROOT
HETATM    1  C1  UNL     1     -33.812  14.684  -4.065  1.00 20.00    -0.024 C 
HETATM    2  C2  UNL     1     -35.152  14.645  -3.946  1.00 20.00    -0.083 C 
HETATM    3  C4  UNL     1     -32.937  15.740  -3.458  1.00 20.00     0.032 C 
HETATM    4  C5  UNL     1     -35.921  15.721  -3.187  1.00 20.00     0.021 C 
HETATM    5  C6  UNL     1     -35.076  16.992  -2.904  1.00 20.00     0.066 C 
HETATM    6  C7  UNL     1     -33.667  16.602  -2.417  1.00 20.00    -0.003 C 
HETATM    7  C8  UNL     1     -35.931  13.493  -4.518  1.00 20.00     0.043 C 
HETATM    8  C10 UNL     1     -37.266  16.088  -3.833  1.00 20.00     0.015 C 
HETATM    9  C11 UNL     1     -32.819  17.811  -2.018  1.00 20.00     0.011 C 
ENDROOT
BRANCH   5  10
HETATM   10  C3  UNL     1     -34.993  17.896  -4.107  1.00 20.00     0.128 C 
HETATM   11  C9  UNL     1     -35.607  19.263  -3.970  1.00 20.00     0.091 C 
HETATM   12  O12 UNL     1     -34.447  17.535  -5.148  1.00 20.00    -0.298 OA
ENDBRANCH   5  10
TORSDOF 1
ENDMDL
MODEL 4
REMARK VINA RESULT:      -4.2      2.552      3.973
REMARK  1 active torsions:
REMARK  status: ('A' for Active; 'I' for Inactive)
REMARK    1  A    between atoms: C3_3  and  C6_6 
ROOT
HETATM    1  C1  UNL     1     -34.325  14.856  -6.284  1.00 20.00    -0.024 C 
HETATM    2  C2  UNL     1     -34.099  15.143  -4.989  1.00 20.00    -0.083 C 
HETATM    3  C4  UNL     1     -35.540  15.290  -7.050  1.00 20.00     0.032 C 
HETATM    4  C5  UNL     1     -35.102  15.931  -4.155  1.00 20.00     0.021 C 
HETATM    5  C6  UNL     1     -36.501  16.036  -4.820  1.00 20.00     0.066 C 
HETATM    6  C7  UNL     1     -36.359  16.365  -6.319  1.00 20.00    -0.003 C 
HETATM    7  C8  UNL     1     -32.806  14.736  -4.337  1.00 20.00     0.043 C 
HETATM    8  C10 UNL     1     -35.220  15.438  -2.705  1.00 20.00     0.015 C 
HETATM    9  C11 UNL     1     -37.706  16.588  -7.010  1.00 20.00     0.011 C 
ENDROOT
BRANCH   5  10
HETATM   10  C3  UNL     1     -37.317  14.784  -4.624  1.00 20.00     0.128 C 
HETATM   11  C9  UNL     1     -38.720  14.963  -4.112  1.00 20.00     0.091 C 
HETATM   12  O12 UNL     1     -36.859  13.670  -4.874  1.00 20.00    -0.298 OA
ENDBRANCH   5  10
TORSDOF 1
ENDMDL
MODEL 5
REMARK VINA RESULT:      -4.1      1.218      4.157
REMARK  1 active torsions:
REMARK  status: ('A' for Active; 'I' for Inactive)
REMARK    1  A    between atoms: C3_3  and  C6_6 
ROOT
HETATM    1  C1  UNL     1     -36.812  17.399  -3.875  1.00 20.00    -0.024 C 
HETATM    2  C2  UNL     1     -36.003  17.628  -2.824  1.00 20.00    -0.083 C 
HETATM    3  C4  UNL     1     -36.951  16.073  -4.565  1.00 20.00     0.032 C 
HETATM    4  C5  UNL     1     -35.109  16.536  -2.247  1.00 20.00     0.021 C 
HETATM    5  C6  UNL     1     -34.962  15.307  -3.184  1.00 20.00     0.066 C 
HETATM    6  C7  UNL     1     -36.331  14.913  -3.771  1.00 20.00    -0.003 C 
HETATM    7  C8  UNL     1     -36.003  18.971  -2.147  1.00 20.00     0.043 C 
HETATM    8  C10 UNL     1     -33.734  17.045  -1.789  1.00 20.00     0.015 C 
HETATM    9  C11 UNL     1     -36.271  13.642  -4.620  1.00 20.00     0.011 C 
ENDROOT
BRANCH   5  10
HETATM   10  C3  UNL     1     -33.960  15.551  -4.284  1.00 20.00     0.128 C 
HETATM   11  C9  UNL     1     -32.795  14.602  -4.360  1.00 20.00     0.091 C 
HETATM   12  O12 UNL     1     -34.091  16.477  -5.081  1.00 20.00    -0.298 OA
ENDBRANCH   5  10
TORSDOF 1
ENDMDL
MODEL 6
REMARK VINA RESULT:      -4.1      1.674      2.398
REMARK  1 active torsions:
REMARK  status: ('A' for Active; 'I' for Inactive)
REMARK    1  A    between atoms: C3_3  and  C6_6 
ROOT
HETATM    1  C1  UNL     1     -34.256  17.259  -5.521  1.00 20.00    -0.024 C 
HETATM    2  C2  UNL     1     -34.398  15.927  -5.398  1.00 20.00    -0.083 C 
HETATM    3  C4  UNL     1     -33.712  18.156  -4.448  1.00 20.00     0.032 C 
HETATM    4  C5  UNL     1     -34.036  15.196  -4.110  1.00 20.00     0.021 C 
HETATM    5  C6  UNL     1     -33.853  16.149  -2.898  1.00 20.00     0.066 C 
HETATM    6  C7  UNL     1     -33.030  17.386  -3.308  1.00 20.00    -0.003 C 
HETATM    7  C8  UNL     1     -34.870  15.104  -6.566  1.00 20.00     0.043 C 
HETATM    8  C10 UNL     1     -34.995  14.046  -3.764  1.00 20.00     0.015 C 
HETATM    9  C11 UNL     1     -32.721  18.313  -2.130  1.00 20.00     0.011 C 
ENDROOT
BRANCH   5  10
HETATM   10  C3  UNL     1     -35.172  16.562  -2.297  1.00 20.00     0.128 C 
HETATM   11  C9  UNL     1     -35.219  16.705  -0.800  1.00 20.00     0.091 C 
HETATM   12  O12 UNL     1     -36.160  16.774  -2.997  1.00 20.00    -0.298 OA
ENDBRANCH   5  10
TORSDOF 1
ENDMDL
MODEL 7
REMARK VINA RESULT:      -4.1      1.545      3.443
REMARK  1 active torsions:
REMARK  status: ('A' for Active; 'I' for Inactive)
REMARK    1  A    between atoms: C3_3  and  C6_6 
ROOT
HETATM    1  C1  UNL     1     -35.426  17.243  -2.725  1.00 20.00    -0.024 C 
HETATM    2  C2  UNL     1     -34.297  16.515  -2.804  1.00 20.00    -0.083 C 
HETATM    3  C4  UNL     1     -36.761  16.798  -3.244  1.00 20.00     0.032 C 
HETATM    4  C5  UNL     1     -34.271  15.147  -3.476  1.00 20.00     0.021 C 
HETATM    5  C6  UNL     1     -35.530  14.867  -4.341  1.00 20.00     0.066 C 
HETATM    6  C7  UNL     1     -36.804  15.302  -3.592  1.00 20.00    -0.003 C 
HETATM    7  C8  UNL     1     -33.027  17.013  -2.172  1.00 20.00     0.043 C 
HETATM    8  C10 UNL     1     -32.986  14.876  -4.274  1.00 20.00     0.015 C 
HETATM    9  C11 UNL     1     -38.088  14.954  -4.347  1.00 20.00     0.011 C 
ENDROOT
BRANCH   5  10
HETATM   10  C3  UNL     1     -35.451  15.534  -5.690  1.00 20.00     0.128 C 
HETATM   11  C9  UNL     1     -35.589  14.644  -6.895  1.00 20.00     0.091 C 
HETATM   12  O12 UNL     1     -35.284  16.748  -5.800  1.00 20.00    -0.298 OA
ENDBRANCH   5  10
TORSDOF 1
ENDMDL
MODEL 8
REMARK VINA RESULT:      -4.0      2.041      3.887
REMARK  1 active torsions:
REMARK  status: ('A' for Active; 'I' for Inactive)
REMARK    1  A    between atoms: C3_3  and  C6_6 
ROOT
HETATM    1  C1  UNL     1     -34.579  15.150  -3.067  1.00 20.00    -0.024 C 
HETATM    2  C2  UNL     1     -35.266  16.227  -2.641  1.00 20.00    -0.083 C 
HETATM    3  C4  UNL     1     -34.692  14.563  -4.443  1.00 20.00     0.032 C 
HETATM    4  C5  UNL     1     -36.269  16.944  -3.536  1.00 20.00     0.021 C 
HETATM    5  C6  UNL     1     -36.667  16.121  -4.791  1.00 20.00     0.066 C 
HETATM    6  C7  UNL     1     -35.420  15.485  -5.433  1.00 20.00    -0.003 C 
HETATM    7  C8  UNL     1     -35.015  16.792  -1.269  1.00 20.00     0.043 C 
HETATM    8  C10 UNL     1     -37.515  17.443  -2.789  1.00 20.00     0.015 C 
HETATM    9  C11 UNL     1     -35.731  14.747  -6.737  1.00 20.00     0.011 C 
ENDROOT
BRANCH   5  10
HETATM   10  C3  UNL     1     -37.699  15.068  -4.473  1.00 20.00     0.128 C 
HETATM   11  C9  UNL     1     -39.133  15.417  -4.765  1.00 20.00     0.091 C 
HETATM   12  O12 UNL     1     -37.382  13.978  -4.002  1.00 20.00    -0.298 OA
ENDBRANCH   5  10
TORSDOF 1
ENDMDL
MODEL 9
REMARK VINA RESULT:      -4.0      1.697      3.641
REMARK  1 active torsions:
REMARK  status: ('A' for Active; 'I' for Inactive)
REMARK    1  A    between atoms: C3_3  and  C6_6 
ROOT
HETATM    1  C1  UNL     1     -34.813  16.090  -2.016  1.00 20.00    -0.024 C 
HETATM    2  C2  UNL     1     -33.845  16.994  -2.255  1.00 20.00    -0.083 C 
HETATM    3  C4  UNL     1     -35.426  15.207  -3.063  1.00 20.00     0.032 C 
HETATM    4  C5  UNL     1     -33.293  17.227  -3.656  1.00 20.00     0.021 C 
HETATM    5  C6  UNL     1     -34.181  16.613  -4.773  1.00 20.00     0.066 C 
HETATM    6  C7  UNL     1     -34.633  15.194  -4.379  1.00 20.00    -0.003 C 
HETATM    7  C8  UNL     1     -33.234  17.768  -1.119  1.00 20.00     0.043 C 
HETATM    8  C10 UNL     1     -32.976  18.700  -3.956  1.00 20.00     0.015 C 
HETATM    9  C11 UNL     1     -35.422  14.492  -5.485  1.00 20.00     0.011 C 
ENDROOT
BRANCH   5  10
HETATM   10  C3  UNL     1     -35.370  17.482  -5.093  1.00 20.00     0.128 C 
HETATM   11  C9  UNL     1     -35.470  17.999  -6.502  1.00 20.00     0.091 C 
HETATM   12  O12 UNL     1     -36.218  17.752  -4.245  1.00 20.00    -0.298 OA
ENDBRANCH   5  10
TORSDOF 1
ENDMDL
