MODEL 1
REMARK VINA RESULT:      -4.1      0.000      0.000
REMARK  1 active torsions:
REMARK  status: ('A' for Active; 'I' for Inactive)
REMARK    1  A    between atoms: C1_1  and  C5_5 
ROOT
HETATM    1  C1  UNL     1     -33.718  16.039  -3.066  1.00 20.00    -0.068 C 
HETATM    2  C2  UNL     1     -33.508  16.879  -2.234  1.00 20.00    -0.108 C 
HETATM    3  C6  UNL     1     -33.252  17.903  -1.220  1.00 20.00     0.112 C 
ENDROOT
BRANCH   1   4
HETATM    4  C5  UNL     1     -33.972  15.026  -4.070  1.00 20.00     0.126 C 
HETATM    5  C3  UNL     1     -34.971  15.457  -5.182  1.00 20.00     0.057 C 
HETATM    6  C4  UNL     1     -35.742  14.187  -4.768  1.00 20.00     0.127 C 
HETATM    7  C7  UNL     1     -34.516  15.529  -6.627  1.00 20.00     0.016 C 
HETATM    8  C8  UNL     1     -37.210  14.354  -4.438  1.00 20.00     0.040 C 
HETATM    9  O10 UNL     1     -34.945  14.070  -3.558  1.00 20.00    -0.362 OA
HETATM   10  C9  UNL     1     -32.695  14.300  -4.474  1.00 20.00     0.061 C 
ENDBRANCH   1   4
TORSDOF 1
ENDMDL
MODEL 2
REMARK VINA RESULT:      -3.9      1.509      1.721
REMARK  1 active torsions:
REMARK  status: ('A' for Active; 'I' for Inactive)
REMARK    1  A    between atoms: C1_1  and  C5_5 
ROOT
HETATM    1  C1  UNL     1     -34.875  16.403  -1.891  1.00 20.00    -0.068 C 
HETATM    2  C2  UNL     1     -35.217  16.811  -0.815  1.00 20.00    -0.108 C 
HETATM    3  C6  UNL     1     -35.635  17.308   0.496  1.00 20.00     0.112 C 
ENDROOT
BRANCH   1   4
HETATM    4  C5  UNL     1     -34.461  15.911  -3.190  1.00 20.00     0.126 C 
HETATM    5  C3  UNL     1     -35.458  16.221  -4.343  1.00 20.00     0.057 C 
HETATM    6  C4  UNL     1     -35.424  14.696  -4.576  1.00 20.00     0.127 C 
HETATM    7  C7  UNL     1     -35.027  17.091  -5.508  1.00 20.00     0.016 C 
HETATM    8  C8  UNL     1     -36.757  13.982  -4.631  1.00 20.00     0.040 C 
HETATM    9  O10 UNL     1     -34.774  14.492  -3.292  1.00 20.00    -0.362 OA
HETATM   10  C9  UNL     1     -32.973  16.132  -3.428  1.00 20.00     0.061 C 
ENDBRANCH   1   4
TORSDOF 1
ENDMDL
MODEL 3
REMARK VINA RESULT:      -3.9      1.744      2.876
REMARK  1 active torsions:
REMARK  status: ('A' for Active; 'I' for Inactive)
REMARK    1  A    between atoms: C1_1  and  C5_5 
ROOT
HETATM    1  C1  UNL     1     -35.265  16.447  -2.214  1.00 20.00    -0.068 C 
HETATM    2  C2  UNL     1     -35.284  16.784  -1.062  1.00 20.00    -0.108 C 
HETATM    3  C6  UNL     1     -35.307  17.196   0.342  1.00 20.00     0.112 C 
ENDROOT
BRANCH   1   4
HETATM    4  C5  UNL     1     -35.242  16.039  -3.604  1.00 20.00     0.126 C 
HETATM    5  C3  UNL     1     -35.044  14.511  -3.824  1.00 20.00     0.057 C 
HETATM    6  C4  UNL     1     -33.852  14.948  -4.700  1.00 20.00     0.127 C 
HETATM    7  C7  UNL     1     -36.122  13.695  -4.510  1.00 20.00     0.016 C 
HETATM    8  C8  UNL     1     -32.511  14.312  -4.399  1.00 20.00     0.040 C 
HETATM    9  O10 UNL     1     -33.922  16.297  -4.163  1.00 20.00    -0.362 OA
HETATM   10  C9  UNL     1     -36.302  16.765  -4.422  1.00 20.00     0.061 C 
ENDBRANCH   1   4
TORSDOF 1
ENDMDL
MODEL 4
REMARK VINA RESULT:      -3.9      2.321      3.757
REMARK  1 active torsions:
REMARK  status: ('A' for Active; 'I' for Inactive)
REMARK    1  A    between atoms: C1_1  and  C5_5 
ROOT
HETATM    1  C1  UNL     1     -32.448  18.021  -1.416  1.00 20.00    -0.068 C 
HETATM    2  C2  UNL     1     -31.623  18.244  -0.573  1.00 20.00    -0.108 C 
HETATM    3  C6  UNL     1     -30.618  18.517   0.455  1.00 20.00     0.112 C 
ENDROOT
BRANCH   1   4
HETATM    4  C5  UNL     1     -33.444  17.752  -2.434  1.00 20.00     0.126 C 
HETATM    5  C3  UNL     1     -34.096  16.342  -2.339  1.00 20.00     0.057 C 
HETATM    6  C4  UNL     1     -33.632  16.199  -3.804  1.00 20.00     0.127 C 
HETATM    7  C7  UNL     1     -35.586  16.209  -2.088  1.00 20.00     0.016 C 
HETATM    8  C8  UNL     1     -32.820  14.968  -4.147  1.00 20.00     0.040 C 
HETATM    9  O10 UNL     1     -32.779  17.368  -3.673  1.00 20.00    -0.362 OA
HETATM   10  C9  UNL     1     -34.340  18.959  -2.680  1.00 20.00     0.061 C 
ENDBRANCH   1   4
TORSDOF 1
ENDMDL
MODEL 5
REMARK VINA RESULT:      -3.8      2.114      3.113
REMARK  1 active torsions:
REMARK  status: ('A' for Active; 'I' for Inactive)
REMARK    1  A    between atoms: C1_1  and  C5_5 
ROOT
HETATM    1  C1  UNL     1     -33.062  17.512  -1.830  1.00 20.00    -0.068 C 
HETATM    2  C2  UNL     1     -32.200  18.020  -1.167  1.00 20.00    -0.108 C 
HETATM    3  C6  UNL     1     -31.149  18.638  -0.359  1.00 20.00     0.112 C 
ENDROOT
BRANCH   1   4
HETATM    4  C5  UNL     1     -34.103  16.899  -2.631  1.00 20.00     0.126 C 
HETATM    5  C3  UNL     1     -33.598  16.237  -3.945  1.00 20.00     0.057 C 
HETATM    6  C4  UNL     1     -34.640  17.150  -4.624  1.00 20.00     0.127 C 
HETATM    7  C7  UNL     1     -33.769  14.745  -4.159  1.00 20.00     0.016 C 
HETATM    8  C8  UNL     1     -34.149  18.018  -5.765  1.00 20.00     0.040 C 
HETATM    9  O10 UNL     1     -34.788  17.927  -3.404  1.00 20.00    -0.362 OA
HETATM   10  C9  UNL     1     -35.108  16.145  -1.769  1.00 20.00     0.061 C 
ENDBRANCH   1   4
TORSDOF 1
ENDMDL
MODEL 6
REMARK VINA RESULT:      -3.6      1.429      1.710
REMARK  1 active torsions:
REMARK  status: ('A' for Active; 'I' for Inactive)
REMARK    1  A    between atoms: C1_1  and  C5_5 
ROOT
HETATM    1  C1  UNL     1     -33.869  16.355  -3.278  1.00 20.00    -0.068 C 
HETATM    2  C2  UNL     1     -33.220  17.012  -2.510  1.00 20.00    -0.108 C 
HETATM    3  C6  UNL     1     -32.430  17.813  -1.575  1.00 20.00     0.112 C 
ENDROOT
BRANCH   1   4
HETATM    4  C5  UNL     1     -34.651  15.562  -4.205  1.00 20.00     0.126 C 
HETATM    5  C3  UNL     1     -34.532  16.005  -5.691  1.00 20.00     0.057 C 
HETATM    6  C4  UNL     1     -36.071  16.100  -5.625  1.00 20.00     0.127 C 
HETATM    7  C7  UNL     1     -33.959  15.056  -6.725  1.00 20.00     0.016 C 
HETATM    8  C8  UNL     1     -36.697  17.403  -6.074  1.00 20.00     0.040 C 
HETATM    9  O10 UNL     1     -36.037  16.009  -4.175  1.00 20.00    -0.362 OA
HETATM   10  C9  UNL     1     -34.579  14.076  -3.875  1.00 20.00     0.061 C 
ENDBRANCH   1   4
TORSDOF 1
ENDMDL
MODEL 7
REMARK VINA RESULT:      -3.6      2.166      3.137
REMARK  1 active torsions:
REMARK  status: ('A' for Active; 'I' for Inactive)
REMARK    1  A    between atoms: C1_1  and  C5_5 
ROOT
HETATM    1  C1  UNL     1     -35.203  16.535  -1.784  1.00 20.00    -0.068 C 
HETATM    2  C2  UNL     1     -35.311  16.867  -0.635  1.00 20.00    -0.108 C 
HETATM    3  C6  UNL     1     -35.442  17.271   0.765  1.00 20.00     0.112 C 
ENDROOT
BRANCH   1   4
HETATM    4  C5  UNL     1     -35.072  16.135  -3.171  1.00 20.00     0.126 C 
HETATM    5  C3  UNL     1     -33.625  16.230  -3.734  1.00 20.00     0.057 C 
HETATM    6  C4  UNL     1     -34.271  17.115  -4.820  1.00 20.00     0.127 C 
HETATM    7  C7  UNL     1     -32.913  14.982  -4.218  1.00 20.00     0.016 C 
HETATM    8  C8  UNL     1     -33.644  18.473  -5.060  1.00 20.00     0.040 C 
HETATM    9  O10 UNL     1     -35.487  17.234  -4.033  1.00 20.00    -0.362 OA
HETATM   10  C9  UNL     1     -35.899  14.893  -3.479  1.00 20.00     0.061 C 
ENDBRANCH   1   4
TORSDOF 1
ENDMDL
MODEL 8
REMARK VINA RESULT:      -3.5      2.492      4.632
REMARK  1 active torsions:
REMARK  status: ('A' for Active; 'I' for Inactive)
REMARK    1  A    between atoms: C1_1  and  C5_5 
ROOT
HETATM    1  C1  UNL     1     -33.775  16.465  -2.682  1.00 20.00    -0.068 C 
HETATM    2  C2  UNL     1     -33.480  15.593  -3.452  1.00 20.00    -0.108 C 
HETATM    3  C6  UNL     1     -33.120  14.530  -4.390  1.00 20.00     0.112 C 
ENDROOT
BRANCH   1   4
HETATM    4  C5  UNL     1     -34.131  17.519  -1.752  1.00 20.00     0.126 C 
HETATM    5  C3  UNL     1     -35.445  17.261  -0.960  1.00 20.00     0.057 C 
HETATM    6  C4  UNL     1     -35.874  18.630  -1.526  1.00 20.00     0.127 C 
HETATM    7  C7  UNL     1     -35.411  17.137   0.551  1.00 20.00     0.016 C 
HETATM    8  C8  UNL     1     -37.207  18.689  -2.241  1.00 20.00     0.040 C 
HETATM    9  O10 UNL     1     -34.773  18.608  -2.476  1.00 20.00    -0.362 OA
HETATM   10  C9  UNL     1     -32.913  18.043  -1.000  1.00 20.00     0.061 C 
ENDBRANCH   1   4
TORSDOF 1
ENDMDL
MODEL 9
REMARK VINA RESULT:      -3.5      1.658      3.872
REMARK  1 active torsions:
REMARK  status: ('A' for Active; 'I' for Inactive)
REMARK    1  A    between atoms: C1_1  and  C5_5 
ROOT
HETATM    1  C1  UNL     1     -36.912  14.651  -4.508  1.00 20.00    -0.068 C 
HETATM    2  C2  UNL     1     -38.072  14.882  -4.301  1.00 20.00    -0.108 C 
HETATM    3  C6  UNL     1     -39.485  15.163  -4.050  1.00 20.00     0.112 C 
ENDROOT
BRANCH   1   4
HETATM    4  C5  UNL     1     -35.512  14.372  -4.756  1.00 20.00     0.126 C 
HETATM    5  C3  UNL     1     -34.598  15.632  -4.778  1.00 20.00     0.057 C 
HETATM    6  C4  UNL     1     -34.186  15.119  -6.173  1.00 20.00     0.127 C 
HETATM    7  C7  UNL     1     -33.486  15.782  -3.759  1.00 20.00     0.016 C 
HETATM    8  C8  UNL     1     -34.286  16.102  -7.321  1.00 20.00     0.040 C 
HETATM    9  O10 UNL     1     -35.301  14.187  -6.186  1.00 20.00    -0.362 OA
HETATM   10  C9  UNL     1     -35.039  13.137  -3.999  1.00 20.00     0.061 C 
ENDBRANCH   1   4
TORSDOF 1
ENDMDL
