MODEL 1
REMARK VINA RESULT:      -5.3      0.000      0.000
REMARK  1 active torsions:
REMARK  status: ('A' for Active; 'I' for Inactive)
REMARK    1  A    between atoms: C8_8  and  C9_9 
ROOT
HETATM    1  C1  UNL     1     -32.969   8.451   1.181  1.00 20.00     0.218 C 
HETATM    2  C8  UNL     1     -33.372   7.295   1.619  1.00 20.00     0.044 C 
HETATM    3  O10 UNL     1     -32.603   9.497   0.786  1.00 20.00    -0.284 OA
ENDROOT
BRANCH   2   4
HETATM    4  C9  UNL     1     -32.677   6.486   2.676  1.00 20.00     0.057 C 
HETATM    5  C6  UNL     1     -32.751   7.165   4.020  1.00 20.00    -0.014 C 
HETATM    6  C4  UNL     1     -33.583   6.942   5.045  1.00 20.00    -0.003 C 
HETATM    7  C2  UNL     1     -34.689   6.022   5.096  1.00 20.00    -0.000 C 
HETATM    8  C3  UNL     1     -34.867   4.916   4.365  1.00 20.00    -0.000 C 
HETATM    9  C5  UNL     1     -33.997   4.378   3.353  1.00 20.00    -0.003 C 
HETATM   10  C7  UNL     1     -33.094   5.039   2.617  1.00 20.00    -0.014 C 
ENDBRANCH   2   4
TORSDOF 1
ENDMDL
MODEL 2
REMARK VINA RESULT:      -4.6     10.700     12.016
REMARK  1 active torsions:
REMARK  status: ('A' for Active; 'I' for Inactive)
REMARK    1  A    between atoms: C8_8  and  C9_9 
ROOT
HETATM    1  C1  UNL     1     -35.697  13.865  -4.206  1.00 20.00     0.218 C 
HETATM    2  C8  UNL     1     -35.475  15.087  -3.821  1.00 20.00     0.044 C 
HETATM    3  O10 UNL     1     -35.897  12.759  -4.554  1.00 20.00    -0.284 OA
ENDROOT
BRANCH   2   4
HETATM    4  C9  UNL     1     -34.491  15.489  -2.761  1.00 20.00     0.057 C 
HETATM    5  C6  UNL     1     -33.283  16.160  -3.365  1.00 20.00    -0.014 C 
HETATM    6  C4  UNL     1     -32.997  17.463  -3.479  1.00 20.00    -0.003 C 
HETATM    7  C2  UNL     1     -33.824  18.581  -3.107  1.00 20.00    -0.000 C 
HETATM    8  C3  UNL     1     -34.810  18.604  -2.201  1.00 20.00    -0.000 C 
HETATM    9  C5  UNL     1     -35.278  17.518  -1.381  1.00 20.00    -0.003 C 
HETATM   10  C7  UNL     1     -35.175  16.205  -1.625  1.00 20.00    -0.014 C 
ENDBRANCH   2   4
TORSDOF 1
ENDMDL
MODEL 3
REMARK VINA RESULT:      -4.6     16.230     16.853
REMARK  1 active torsions:
REMARK  status: ('A' for Active; 'I' for Inactive)
REMARK    1  A    between atoms: C8_8  and  C9_9 
ROOT
HETATM    1  C1  UNL     1     -21.850  16.958   7.863  1.00 20.00     0.218 C 
HETATM    2  C8  UNL     1     -22.432  17.001   9.026  1.00 20.00     0.044 C 
HETATM    3  O10 UNL     1     -21.324  16.921   6.812  1.00 20.00    -0.284 OA
ENDROOT
BRANCH   2   4
HETATM    4  C9  UNL     1     -22.646  18.247   9.835  1.00 20.00     0.057 C 
HETATM    5  C6  UNL     1     -23.999  18.851   9.556  1.00 20.00    -0.014 C 
HETATM    6  C4  UNL     1     -25.139  18.753  10.253  1.00 20.00    -0.003 C 
HETATM    7  C2  UNL     1     -25.381  17.968  11.435  1.00 20.00    -0.000 C 
HETATM    8  C3  UNL     1     -24.485  17.540  12.332  1.00 20.00    -0.000 C 
HETATM    9  C5  UNL     1     -23.063  17.763  12.331  1.00 20.00    -0.003 C 
HETATM   10  C7  UNL     1     -22.278  18.031  11.279  1.00 20.00    -0.014 C 
ENDBRANCH   2   4
TORSDOF 1
ENDMDL
MODEL 4
REMARK VINA RESULT:      -4.6     15.503     16.092
REMARK  1 active torsions:
REMARK  status: ('A' for Active; 'I' for Inactive)
REMARK    1  A    between atoms: C8_8  and  C9_9 
ROOT
HETATM    1  C1  UNL     1     -24.529  18.859   7.613  1.00 20.00     0.218 C 
HETATM    2  C8  UNL     1     -25.209  18.810   8.721  1.00 20.00     0.044 C 
HETATM    3  O10 UNL     1     -23.915  18.903   6.612  1.00 20.00    -0.284 OA
ENDROOT
BRANCH   2   4
HETATM    4  C9  UNL     1     -24.629  18.996  10.094  1.00 20.00     0.057 C 
HETATM    5  C6  UNL     1     -25.702  18.941  11.151  1.00 20.00    -0.014 C 
HETATM    6  C4  UNL     1     -26.070  17.925  11.943  1.00 20.00    -0.003 C 
HETATM    7  C2  UNL     1     -25.566  16.577  11.934  1.00 20.00    -0.000 C 
HETATM    8  C3  UNL     1     -24.378  16.150  11.490  1.00 20.00    -0.000 C 
HETATM    9  C5  UNL     1     -23.318  16.935  10.916  1.00 20.00    -0.003 C 
HETATM   10  C7  UNL     1     -23.421  18.120  10.299  1.00 20.00    -0.014 C 
ENDBRANCH   2   4
TORSDOF 1
ENDMDL
MODEL 5
REMARK VINA RESULT:      -4.5     10.432     12.067
REMARK  1 active torsions:
REMARK  status: ('A' for Active; 'I' for Inactive)
REMARK    1  A    between atoms: C8_8  and  C9_9 
ROOT
HETATM    1  C1  UNL     1     -35.275  13.577  -4.128  1.00 20.00     0.218 C 
HETATM    2  C8  UNL     1     -34.611  14.599  -3.672  1.00 20.00     0.044 C 
HETATM    3  O10 UNL     1     -35.875  12.653  -4.540  1.00 20.00    -0.284 OA
ENDROOT
BRANCH   2   4
HETATM    4  C9  UNL     1     -35.208  15.939  -3.354  1.00 20.00     0.057 C 
HETATM    5  C6  UNL     1     -34.991  16.302  -1.907  1.00 20.00    -0.014 C 
HETATM    6  C4  UNL     1     -34.063  17.095  -1.355  1.00 20.00    -0.003 C 
HETATM    7  C2  UNL     1     -32.971  17.761  -2.014  1.00 20.00    -0.000 C 
HETATM    8  C3  UNL     1     -32.882  18.107  -3.304  1.00 20.00    -0.000 C 
HETATM    9  C5  UNL     1     -33.857  17.898  -4.342  1.00 20.00    -0.003 C 
HETATM   10  C7  UNL     1     -34.820  16.968  -4.383  1.00 20.00    -0.014 C 
ENDBRANCH   2   4
TORSDOF 1
ENDMDL
MODEL 6
REMARK VINA RESULT:      -4.5     11.128     12.320
REMARK  1 active torsions:
REMARK  status: ('A' for Active; 'I' for Inactive)
REMARK    1  A    between atoms: C8_8  and  C9_9 
ROOT
HETATM    1  C1  UNL     1     -31.494  18.356  -0.243  1.00 20.00     0.218 C 
HETATM    2  C8  UNL     1     -32.782  18.279  -0.085  1.00 20.00     0.044 C 
HETATM    3  O10 UNL     1     -30.328  18.425  -0.387  1.00 20.00    -0.284 OA
ENDROOT
BRANCH   2   4
HETATM    4  C9  UNL     1     -33.796  18.494  -1.171  1.00 20.00     0.057 C 
HETATM    5  C6  UNL     1     -33.139  18.548  -2.527  1.00 20.00    -0.014 C 
HETATM    6  C4  UNL     1     -33.021  17.592  -3.458  1.00 20.00    -0.003 C 
HETATM    7  C2  UNL     1     -33.441  16.218  -3.366  1.00 20.00    -0.000 C 
HETATM    8  C3  UNL     1     -34.394  15.705  -2.578  1.00 20.00    -0.000 C 
HETATM    9  C5  UNL     1     -35.228  16.402  -1.635  1.00 20.00    -0.003 C 
HETATM   10  C7  UNL     1     -34.969  17.562  -1.016  1.00 20.00    -0.014 C 
ENDBRANCH   2   4
TORSDOF 1
ENDMDL
MODEL 7
REMARK VINA RESULT:      -4.5     10.432     11.666
REMARK  1 active torsions:
REMARK  status: ('A' for Active; 'I' for Inactive)
REMARK    1  A    between atoms: C8_8  and  C9_9 
ROOT
HETATM    1  C1  UNL     1     -35.200  13.526  -4.180  1.00 20.00     0.218 C 
HETATM    2  C8  UNL     1     -34.312  14.376  -3.755  1.00 20.00     0.044 C 
HETATM    3  O10 UNL     1     -36.004  12.758  -4.564  1.00 20.00    -0.284 OA
ENDROOT
BRANCH   2   4
HETATM    4  C9  UNL     1     -34.365  15.859  -3.978  1.00 20.00     0.057 C 
HETATM    5  C6  UNL     1     -35.727  16.412  -3.642  1.00 20.00    -0.014 C 
HETATM    6  C4  UNL     1     -36.148  17.027  -2.529  1.00 20.00    -0.003 C 
HETATM    7  C2  UNL     1     -35.407  17.256  -1.317  1.00 20.00    -0.000 C 
HETATM    8  C3  UNL     1     -34.078  17.326  -1.171  1.00 20.00    -0.000 C 
HETATM    9  C5  UNL     1     -33.071  17.190  -2.190  1.00 20.00    -0.003 C 
HETATM   10  C7  UNL     1     -33.175  16.548  -3.361  1.00 20.00    -0.014 C 
ENDBRANCH   2   4
TORSDOF 1
ENDMDL
MODEL 8
REMARK VINA RESULT:      -4.4     10.924     11.981
REMARK  1 active torsions:
REMARK  status: ('A' for Active; 'I' for Inactive)
REMARK    1  A    between atoms: C8_8  and  C9_9 
ROOT
HETATM    1  C1  UNL     1     -36.460  13.677  -4.538  1.00 20.00     0.218 C 
HETATM    2  C8  UNL     1     -37.143  14.784  -4.537  1.00 20.00     0.044 C 
HETATM    3  O10 UNL     1     -35.841  12.677  -4.540  1.00 20.00    -0.284 OA
ENDROOT
BRANCH   2   4
HETATM    4  C9  UNL     1     -36.554  16.157  -4.399  1.00 20.00     0.057 C 
HETATM    5  C6  UNL     1     -36.384  16.535  -2.949  1.00 20.00    -0.014 C 
HETATM    6  C4  UNL     1     -35.291  16.488  -2.176  1.00 20.00    -0.003 C 
HETATM    7  C2  UNL     1     -33.989  15.986  -2.526  1.00 20.00    -0.000 C 
HETATM    8  C3  UNL     1     -33.454  15.879  -3.748  1.00 20.00    -0.000 C 
HETATM    9  C5  UNL     1     -34.051  16.240  -5.006  1.00 20.00    -0.003 C 
HETATM   10  C7  UNL     1     -35.356  16.330  -5.296  1.00 20.00    -0.014 C 
ENDBRANCH   2   4
TORSDOF 1
ENDMDL
MODEL 9
REMARK VINA RESULT:      -4.4     11.056     11.951
REMARK  1 active torsions:
REMARK  status: ('A' for Active; 'I' for Inactive)
REMARK    1  A    between atoms: C8_8  and  C9_9 
ROOT
HETATM    1  C1  UNL     1     -36.800  15.703  -5.723  1.00 20.00     0.218 C 
HETATM    2  C8  UNL     1     -36.712  16.015  -4.463  1.00 20.00     0.044 C 
HETATM    3  O10 UNL     1     -36.879  15.421  -6.862  1.00 20.00    -0.284 OA
ENDROOT
BRANCH   2   4
HETATM    4  C9  UNL     1     -36.001  15.198  -3.424  1.00 20.00     0.057 C 
HETATM    5  C6  UNL     1     -35.038  14.227  -4.058  1.00 20.00    -0.014 C 
HETATM    6  C4  UNL     1     -33.713  14.325  -4.229  1.00 20.00    -0.003 C 
HETATM    7  C2  UNL     1     -32.866  15.441  -3.903  1.00 20.00    -0.000 C 
HETATM    8  C3  UNL     1     -33.088  16.401  -2.997  1.00 20.00    -0.000 C 
HETATM    9  C5  UNL     1     -34.227  16.548  -2.130  1.00 20.00    -0.003 C 
HETATM   10  C7  UNL     1     -35.464  16.070  -2.318  1.00 20.00    -0.014 C 
ENDBRANCH   2   4
TORSDOF 1
ENDMDL
