MODEL 1
REMARK VINA RESULT:      -4.3      0.000      0.000
REMARK  2 active torsions:
REMARK  status: ('A' for Active; 'I' for Inactive)
REMARK    1  A    between atoms: C5_5  and  O10_10 
REMARK    2  A    between atoms: C9_9  and  O10_10 
ROOT
HETATM    1  C1  UNL     1     -26.302  18.832   6.344  1.00 20.00     0.012 C 
HETATM    2  C2  UNL     1     -25.416  18.974   7.141  1.00 20.00    -0.110 C 
HETATM    3  C3  UNL     1     -23.200  18.183   8.068  1.00 20.00     0.053 A 
HETATM    4  C4  UNL     1     -24.358  19.145   8.092  1.00 20.00     0.095 A 
HETATM    5  C5  UNL     1     -24.197  18.122   9.189  1.00 20.00     0.139 A 
ENDROOT
BRANCH   5   6
HETATM    6  O10 UNL     1     -23.755  18.619  10.441  1.00 20.00    -0.375 OA
BRANCH   6   7
HETATM    7  C9  UNL     1     -24.000  17.679  11.488  1.00 20.00     0.050 C 
HETATM    8  C6  UNL     1     -24.328  16.326  10.859  1.00 20.00     0.045 C 
HETATM    9  C7  UNL     1     -22.730  17.586  12.331  1.00 20.00     0.045 C 
HETATM   10  C8  UNL     1     -25.170  18.185  12.332  1.00 20.00     0.045 C 
ENDBRANCH   6   7
ENDBRANCH   5   6
TORSDOF 2
ENDMDL
MODEL 2
REMARK VINA RESULT:      -4.3     15.351     16.372
REMARK  2 active torsions:
REMARK  status: ('A' for Active; 'I' for Inactive)
REMARK    1  A    between atoms: C5_5  and  O10_10 
REMARK    2  A    between atoms: C9_9  and  O10_10 
ROOT
HETATM    1  C1  UNL     1     -33.167   8.728  -0.024  1.00 20.00     0.012 C 
HETATM    2  C2  UNL     1     -32.948   8.339   1.090  1.00 20.00    -0.110 C 
HETATM    3  C3  UNL     1     -31.846   6.639   2.605  1.00 20.00     0.053 A 
HETATM    4  C4  UNL     1     -32.686   7.875   2.420  1.00 20.00     0.095 A 
HETATM    5  C5  UNL     1     -33.321   6.586   2.877  1.00 20.00     0.139 A 
ENDROOT
BRANCH   5   6
HETATM    6  O10 UNL     1     -33.699   6.530   4.243  1.00 20.00    -0.375 OA
BRANCH   6   7
HETATM    7  C9  UNL     1     -34.601   5.449   4.487  1.00 20.00     0.050 C 
HETATM    8  C6  UNL     1     -34.015   4.179   3.873  1.00 20.00     0.045 C 
HETATM    9  C7  UNL     1     -34.742   5.300   6.000  1.00 20.00     0.045 C 
HETATM   10  C8  UNL     1     -35.949   5.789   3.853  1.00 20.00     0.045 C 
ENDBRANCH   6   7
ENDBRANCH   5   6
TORSDOF 2
ENDMDL
MODEL 3
REMARK VINA RESULT:      -4.1     13.486     16.626
REMARK  2 active torsions:
REMARK  status: ('A' for Active; 'I' for Inactive)
REMARK    1  A    between atoms: C5_5  and  O10_10 
REMARK    2  A    between atoms: C9_9  and  O10_10 
ROOT
HETATM    1  C1  UNL     1     -31.600  18.167  -0.809  1.00 20.00     0.012 C 
HETATM    2  C2  UNL     1     -32.599  17.921  -1.426  1.00 20.00    -0.110 C 
HETATM    3  C3  UNL     1     -34.788  16.662  -1.576  1.00 20.00     0.053 A 
HETATM    4  C4  UNL     1     -33.793  17.627  -2.162  1.00 20.00     0.095 A 
HETATM    5  C5  UNL     1     -33.958  16.252  -2.758  1.00 20.00     0.139 A 
ENDROOT
BRANCH   5   6
HETATM    6  O10 UNL     1     -34.637  16.191  -4.002  1.00 20.00    -0.375 OA
BRANCH   6   7
HETATM    7  C9  UNL     1     -34.377  14.957  -4.674  1.00 20.00     0.050 C 
HETATM    8  C6  UNL     1     -34.537  15.179  -6.176  1.00 20.00     0.045 C 
HETATM    9  C7  UNL     1     -32.945  14.543  -4.340  1.00 20.00     0.045 C 
HETATM   10  C8  UNL     1     -35.370  13.910  -4.170  1.00 20.00     0.045 C 
ENDBRANCH   6   7
ENDBRANCH   5   6
TORSDOF 2
ENDMDL
MODEL 4
REMARK VINA RESULT:      -3.9     15.806     17.924
REMARK  2 active torsions:
REMARK  status: ('A' for Active; 'I' for Inactive)
REMARK    1  A    between atoms: C5_5  and  O10_10 
REMARK    2  A    between atoms: C9_9  and  O10_10 
ROOT
HETATM    1  C1  UNL     1     -35.576  17.062  -0.857  1.00 20.00     0.012 C 
HETATM    2  C2  UNL     1     -34.877  16.502  -1.655  1.00 20.00    -0.110 C 
HETATM    3  C3  UNL     1     -32.885  16.585  -3.213  1.00 20.00     0.053 A 
HETATM    4  C4  UNL     1     -34.041  15.833  -2.607  1.00 20.00     0.095 A 
HETATM    5  C5  UNL     1     -34.091  16.270  -4.050  1.00 20.00     0.139 A 
ENDROOT
BRANCH   5   6
HETATM    6  O10 UNL     1     -33.926  15.244  -5.016  1.00 20.00    -0.375 OA
BRANCH   6   7
HETATM    7  C9  UNL     1     -34.754  15.469  -6.158  1.00 20.00     0.050 C 
HETATM    8  C6  UNL     1     -33.913  15.265  -7.416  1.00 20.00     0.045 C 
HETATM    9  C7  UNL     1     -35.897  14.457  -6.104  1.00 20.00     0.045 C 
HETATM   10  C8  UNL     1     -35.297  16.896  -6.091  1.00 20.00     0.045 C 
ENDBRANCH   6   7
ENDBRANCH   5   6
TORSDOF 2
ENDMDL
MODEL 5
REMARK VINA RESULT:      -3.8     16.019     18.346
REMARK  2 active torsions:
REMARK  status: ('A' for Active; 'I' for Inactive)
REMARK    1  A    between atoms: C5_5  and  O10_10 
REMARK    2  A    between atoms: C9_9  and  O10_10 
ROOT
HETATM    1  C1  UNL     1     -35.457  16.897  -1.094  1.00 20.00     0.012 C 
HETATM    2  C2  UNL     1     -34.992  16.237  -1.981  1.00 20.00    -0.110 C 
HETATM    3  C3  UNL     1     -33.054  15.775  -3.541  1.00 20.00     0.053 A 
HETATM    4  C4  UNL     1     -34.436  15.447  -3.039  1.00 20.00     0.095 A 
HETATM    5  C5  UNL     1     -34.250  16.081  -4.396  1.00 20.00     0.139 A 
ENDROOT
BRANCH   5   6
HETATM    6  O10 UNL     1     -34.449  15.228  -5.512  1.00 20.00    -0.375 OA
BRANCH   6   7
HETATM    7  C9  UNL     1     -34.829  15.973  -6.671  1.00 20.00     0.050 C 
HETATM    8  C6  UNL     1     -34.499  17.445  -6.432  1.00 20.00     0.045 C 
HETATM    9  C7  UNL     1     -34.028  15.426  -7.851  1.00 20.00     0.045 C 
HETATM   10  C8  UNL     1     -36.327  15.781  -6.902  1.00 20.00     0.045 C 
ENDBRANCH   6   7
ENDBRANCH   5   6
TORSDOF 2
ENDMDL
MODEL 6
REMARK VINA RESULT:      -3.8     14.473     16.791
REMARK  2 active torsions:
REMARK  status: ('A' for Active; 'I' for Inactive)
REMARK    1  A    between atoms: C5_5  and  O10_10 
REMARK    2  A    between atoms: C9_9  and  O10_10 
ROOT
HETATM    1  C1  UNL     1     -34.058  15.165  -7.188  1.00 20.00     0.012 C 
HETATM    2  C2  UNL     1     -33.922  14.949  -6.016  1.00 20.00    -0.110 C 
HETATM    3  C3  UNL     1     -34.890  14.046  -3.860  1.00 20.00     0.053 A 
HETATM    4  C4  UNL     1     -33.758  14.690  -4.616  1.00 20.00     0.095 A 
HETATM    5  C5  UNL     1     -34.569  15.495  -3.630  1.00 20.00     0.139 A 
ENDROOT
BRANCH   5   6
HETATM    6  O10 UNL     1     -33.928  15.801  -2.403  1.00 20.00    -0.375 OA
BRANCH   6   7
HETATM    7  C9  UNL     1     -34.293  17.102  -1.938  1.00 20.00     0.050 C 
HETATM    8  C6  UNL     1     -33.030  17.825  -1.476  1.00 20.00     0.045 C 
HETATM    9  C7  UNL     1     -34.942  17.842  -3.105  1.00 20.00     0.045 C 
HETATM   10  C8  UNL     1     -35.284  16.945  -0.784  1.00 20.00     0.045 C 
ENDBRANCH   6   7
ENDBRANCH   5   6
TORSDOF 2
ENDMDL
MODEL 7
REMARK VINA RESULT:      -3.6     15.396     18.315
REMARK  2 active torsions:
REMARK  status: ('A' for Active; 'I' for Inactive)
REMARK    1  A    between atoms: C5_5  and  O10_10 
REMARK    2  A    between atoms: C9_9  and  O10_10 
ROOT
HETATM    1  C1  UNL     1     -32.906  17.426  -2.361  1.00 20.00     0.012 C 
HETATM    2  C2  UNL     1     -33.666  16.516  -2.543  1.00 20.00    -0.110 C 
HETATM    3  C3  UNL     1     -34.347  14.518  -3.938  1.00 20.00     0.053 A 
HETATM    4  C4  UNL     1     -34.573  15.428  -2.760  1.00 20.00     0.095 A 
HETATM    5  C5  UNL     1     -35.499  15.481  -3.949  1.00 20.00     0.139 A 
ENDROOT
BRANCH   5   6
HETATM    6  O10 UNL     1     -36.785  14.913  -3.762  1.00 20.00    -0.375 OA
BRANCH   6   7
HETATM    7  C9  UNL     1     -37.805  15.746  -4.316  1.00 20.00     0.050 C 
HETATM    8  C6  UNL     1     -39.133  14.993  -4.256  1.00 20.00     0.045 C 
HETATM    9  C7  UNL     1     -37.869  17.018  -3.473  1.00 20.00     0.045 C 
HETATM   10  C8  UNL     1     -37.432  16.076  -5.760  1.00 20.00     0.045 C 
ENDBRANCH   6   7
ENDBRANCH   5   6
TORSDOF 2
ENDMDL
MODEL 8
REMARK VINA RESULT:      -3.6     12.252     15.709
REMARK  2 active torsions:
REMARK  status: ('A' for Active; 'I' for Inactive)
REMARK    1  A    between atoms: C5_5  and  O10_10 
REMARK    2  A    between atoms: C9_9  and  O10_10 
ROOT
HETATM    1  C1  UNL     1     -30.799  18.297   0.214  1.00 20.00     0.012 C 
HETATM    2  C2  UNL     1     -31.812  18.375  -0.423  1.00 20.00    -0.110 C 
HETATM    3  C3  UNL     1     -34.263  17.792  -0.661  1.00 20.00     0.053 A 
HETATM    4  C4  UNL     1     -33.023  18.469  -1.183  1.00 20.00     0.095 A 
HETATM    5  C5  UNL     1     -33.554  17.229  -1.859  1.00 20.00     0.139 A 
ENDROOT
BRANCH   5   6
HETATM    6  O10 UNL     1     -34.194  17.428  -3.109  1.00 20.00    -0.375 OA
BRANCH   6   7
HETATM    7  C9  UNL     1     -34.335  16.197  -3.820  1.00 20.00     0.050 C 
HETATM    8  C6  UNL     1     -35.450  15.384  -3.165  1.00 20.00     0.045 C 
HETATM    9  C7  UNL     1     -34.695  16.539  -5.264  1.00 20.00     0.045 C 
HETATM   10  C8  UNL     1     -33.006  15.445  -3.761  1.00 20.00     0.045 C 
ENDBRANCH   6   7
ENDBRANCH   5   6
TORSDOF 2
ENDMDL
MODEL 9
REMARK VINA RESULT:      -3.6     13.468     15.472
REMARK  2 active torsions:
REMARK  status: ('A' for Active; 'I' for Inactive)
REMARK    1  A    between atoms: C5_5  and  O10_10 
REMARK    2  A    between atoms: C9_9  and  O10_10 
ROOT
HETATM    1  C1  UNL     1     -33.207  14.539  -4.455  1.00 20.00     0.012 C 
HETATM    2  C2  UNL     1     -33.988  14.940  -3.636  1.00 20.00    -0.110 C 
HETATM    3  C3  UNL     1     -35.804  16.585  -3.009  1.00 20.00     0.053 A 
HETATM    4  C4  UNL     1     -34.921  15.417  -2.659  1.00 20.00     0.095 A 
HETATM    5  C5  UNL     1     -34.682  16.766  -2.027  1.00 20.00     0.139 A 
ENDROOT
BRANCH   5   6
HETATM    6  O10 UNL     1     -35.063  16.890  -0.666  1.00 20.00    -0.375 OA
BRANCH   6   7
HETATM    7  C9  UNL     1     -34.493  18.058  -0.073  1.00 20.00     0.050 C 
HETATM    8  C6  UNL     1     -35.361  19.261  -0.437  1.00 20.00     0.045 C 
HETATM    9  C7  UNL     1     -34.475  17.845   1.439  1.00 20.00     0.045 C 
HETATM   10  C8  UNL     1     -33.072  18.231  -0.608  1.00 20.00     0.045 C 
ENDBRANCH   6   7
ENDBRANCH   5   6
TORSDOF 2
ENDMDL
