MODEL 1
REMARK VINA RESULT:      -4.2      0.000      0.000
REMARK  0 active torsions:
REMARK  status: ('A' for Active; 'I' for Inactive)
ROOT
HETATM    1  C1  UNL     1     -38.513  14.716  -4.134  1.00 20.00     0.015 C 
HETATM    2  C2  UNL     1     -33.914  15.301  -7.843  1.00 20.00     0.015 C 
HETATM    3  C3  UNL     1     -37.411  14.601  -4.597  1.00 20.00    -0.082 C 
HETATM    4  C4  UNL     1     -34.656  15.502  -6.921  1.00 20.00    -0.082 C 
HETATM    5  C5  UNL     1     -36.061  14.460  -5.161  1.00 20.00     0.243 C 
HETATM    6  C6  UNL     1     -35.563  15.749  -5.791  1.00 20.00     0.243 C 
HETATM    7  C7  UNL     1     -34.494  15.420  -3.791  1.00 20.00     0.160 C 
HETATM    8  C8  UNL     1     -34.946  15.874  -2.408  1.00 20.00     0.078 C 
HETATM    9  C9  UNL     1     -32.983  15.217  -3.823  1.00 20.00     0.078 C 
HETATM   10  O10 UNL     1     -35.128  14.176  -4.115  1.00 20.00    -0.335 OA
HETATM   11  O11 UNL     1     -34.859  16.425  -4.745  1.00 20.00    -0.335 OA
ENDROOT
TORSDOF 0
ENDMDL
MODEL 2
REMARK VINA RESULT:      -4.2      0.105      3.390
REMARK  0 active torsions:
REMARK  status: ('A' for Active; 'I' for Inactive)
ROOT
HETATM    1  C1  UNL     1     -33.821  15.170  -7.820  1.00 20.00     0.015 C 
HETATM    2  C2  UNL     1     -38.457  14.605  -4.154  1.00 20.00     0.015 C 
HETATM    3  C3  UNL     1     -34.581  15.385  -6.916  1.00 20.00    -0.082 C 
HETATM    4  C4  UNL     1     -37.346  14.501  -4.597  1.00 20.00    -0.082 C 
HETATM    5  C5  UNL     1     -35.510  15.651  -5.808  1.00 20.00     0.243 C 
HETATM    6  C6  UNL     1     -35.985  14.373  -5.137  1.00 20.00     0.243 C 
HETATM    7  C7  UNL     1     -34.461  15.420  -3.783  1.00 20.00     0.160 C 
HETATM    8  C8  UNL     1     -32.946  15.255  -3.786  1.00 20.00     0.078 C 
HETATM    9  C9  UNL     1     -34.946  15.914  -2.424  1.00 20.00     0.078 C 
HETATM   10  O10 UNL     1     -34.838  16.380  -4.778  1.00 20.00    -0.335 OA
HETATM   11  O11 UNL     1     -35.060  14.150  -4.069  1.00 20.00    -0.335 OA
ENDROOT
TORSDOF 0
ENDMDL
MODEL 3
REMARK VINA RESULT:      -4.0      1.953      3.386
REMARK  0 active torsions:
REMARK  status: ('A' for Active; 'I' for Inactive)
ROOT
HETATM    1  C1  UNL     1     -38.259  17.036  -3.653  1.00 20.00     0.015 C 
HETATM    2  C2  UNL     1     -32.658  17.723  -1.809  1.00 20.00     0.015 C 
HETATM    3  C3  UNL     1     -37.058  17.048  -3.662  1.00 20.00    -0.082 C 
HETATM    4  C4  UNL     1     -33.710  17.202  -2.061  1.00 20.00    -0.082 C 
HETATM    5  C5  UNL     1     -35.588  17.063  -3.676  1.00 20.00     0.243 C 
HETATM    6  C6  UNL     1     -34.997  16.563  -2.369  1.00 20.00     0.243 C 
HETATM    7  C7  UNL     1     -34.749  14.952  -3.981  1.00 20.00     0.160 C 
HETATM    8  C8  UNL     1     -35.731  13.846  -4.350  1.00 20.00     0.078 C 
HETATM    9  C9  UNL     1     -33.329  14.566  -4.381  1.00 20.00     0.078 C 
HETATM   10  O10 UNL     1     -35.105  16.156  -4.671  1.00 20.00    -0.335 OA
HETATM   11  O11 UNL     1     -34.804  15.159  -2.564  1.00 20.00    -0.335 OA
ENDROOT
TORSDOF 0
ENDMDL
MODEL 4
REMARK VINA RESULT:      -4.0      2.473      4.416
REMARK  0 active torsions:
REMARK  status: ('A' for Active; 'I' for Inactive)
ROOT
HETATM    1  C1  UNL     1     -33.936  14.940  -5.262  1.00 20.00     0.015 C 
HETATM    2  C2  UNL     1     -31.740  18.286  -0.876  1.00 20.00     0.015 C 
HETATM    3  C3  UNL     1     -33.781  15.414  -4.169  1.00 20.00    -0.082 C 
HETATM    4  C4  UNL     1     -32.444  17.924  -1.780  1.00 20.00    -0.082 C 
HETATM    5  C5  UNL     1     -33.592  15.993  -2.831  1.00 20.00     0.243 C 
HETATM    6  C6  UNL     1     -33.306  17.483  -2.886  1.00 20.00     0.243 C 
HETATM    7  C7  UNL     1     -35.457  17.150  -2.168  1.00 20.00     0.160 C 
HETATM    8  C8  UNL     1     -36.712  17.019  -3.022  1.00 20.00     0.078 C 
HETATM    9  C9  UNL     1     -35.811  17.613  -0.759  1.00 20.00     0.078 C 
HETATM   10  O10 UNL     1     -34.804  15.878  -2.080  1.00 20.00    -0.335 OA
HETATM   11  O11 UNL     1     -34.587  18.111  -2.779  1.00 20.00    -0.335 OA
ENDROOT
TORSDOF 0
ENDMDL
MODEL 5
REMARK VINA RESULT:      -4.0      2.457      4.442
REMARK  0 active torsions:
REMARK  status: ('A' for Active; 'I' for Inactive)
ROOT
HETATM    1  C1  UNL     1     -31.816  18.284  -0.811  1.00 20.00     0.015 C 
HETATM    2  C2  UNL     1     -33.865  14.913  -5.249  1.00 20.00     0.015 C 
HETATM    3  C3  UNL     1     -32.491  17.916  -1.734  1.00 20.00    -0.082 C 
HETATM    4  C4  UNL     1     -33.745  15.392  -4.154  1.00 20.00    -0.082 C 
HETATM    5  C5  UNL     1     -33.317  17.468  -2.864  1.00 20.00     0.243 C 
HETATM    6  C6  UNL     1     -33.599  15.976  -2.813  1.00 20.00     0.243 C 
HETATM    7  C7  UNL     1     -35.487  17.126  -2.209  1.00 20.00     0.160 C 
HETATM    8  C8  UNL     1     -35.886  17.592  -0.813  1.00 20.00     0.078 C 
HETATM    9  C9  UNL     1     -36.716  16.986  -3.101  1.00 20.00     0.078 C 
HETATM   10  O10 UNL     1     -34.604  18.089  -2.798  1.00 20.00    -0.335 OA
HETATM   11  O11 UNL     1     -34.832  15.857  -2.098  1.00 20.00    -0.335 OA
ENDROOT
TORSDOF 0
ENDMDL
MODEL 6
REMARK VINA RESULT:      -3.9      1.945      4.015
REMARK  0 active torsions:
REMARK  status: ('A' for Active; 'I' for Inactive)
ROOT
HETATM    1  C1  UNL     1     -32.626  17.714  -1.881  1.00 20.00     0.015 C 
HETATM    2  C2  UNL     1     -38.282  17.080  -3.572  1.00 20.00     0.015 C 
HETATM    3  C3  UNL     1     -33.691  17.204  -2.102  1.00 20.00    -0.082 C 
HETATM    4  C4  UNL     1     -37.082  17.079  -3.614  1.00 20.00    -0.082 C 
HETATM    5  C5  UNL     1     -34.994  16.578  -2.372  1.00 20.00     0.243 C 
HETATM    6  C6  UNL     1     -35.614  17.076  -3.666  1.00 20.00     0.243 C 
HETATM    7  C7  UNL     1     -34.806  14.954  -3.979  1.00 20.00     0.160 C 
HETATM    8  C8  UNL     1     -33.403  14.547  -4.414  1.00 20.00     0.078 C 
HETATM    9  C9  UNL     1     -35.812  13.858  -4.313  1.00 20.00     0.078 C 
HETATM   10  O10 UNL     1     -34.823  15.171  -2.562  1.00 20.00    -0.335 OA
HETATM   11  O11 UNL     1     -35.168  16.157  -4.668  1.00 20.00    -0.335 OA
ENDROOT
TORSDOF 0
ENDMDL
MODEL 7
REMARK VINA RESULT:      -3.9      2.332      3.848
REMARK  0 active torsions:
REMARK  status: ('A' for Active; 'I' for Inactive)
ROOT
HETATM    1  C1  UNL     1     -35.536  17.159   0.342  1.00 20.00     0.015 C 
HETATM    2  C2  UNL     1     -33.118  14.586  -4.431  1.00 20.00     0.015 C 
HETATM    3  C3  UNL     1     -35.110  17.014  -0.771  1.00 20.00    -0.082 C 
HETATM    4  C4  UNL     1     -33.946  14.991  -3.662  1.00 20.00    -0.082 C 
HETATM    5  C5  UNL     1     -34.590  16.838  -2.135  1.00 20.00     0.243 C 
HETATM    6  C6  UNL     1     -34.962  15.487  -2.722  1.00 20.00     0.243 C 
HETATM    7  C7  UNL     1     -36.251  17.116  -3.690  1.00 20.00     0.160 C 
HETATM    8  C8  UNL     1     -37.593  17.652  -3.204  1.00 20.00     0.078 C 
HETATM    9  C9  UNL     1     -36.091  17.346  -5.189  1.00 20.00     0.078 C 
HETATM   10  O10 UNL     1     -35.190  17.798  -3.009  1.00 20.00    -0.335 OA
HETATM   11  O11 UNL     1     -36.193  15.711  -3.415  1.00 20.00    -0.335 OA
ENDROOT
TORSDOF 0
ENDMDL
MODEL 8
REMARK VINA RESULT:      -3.9      2.339      4.651
REMARK  0 active torsions:
REMARK  status: ('A' for Active; 'I' for Inactive)
ROOT
HETATM    1  C1  UNL     1     -33.035  14.711  -4.380  1.00 20.00     0.015 C 
HETATM    2  C2  UNL     1     -35.494  17.213   0.410  1.00 20.00     0.015 C 
HETATM    3  C3  UNL     1     -33.868  15.078  -3.598  1.00 20.00    -0.082 C 
HETATM    4  C4  UNL     1     -35.087  17.075  -0.711  1.00 20.00    -0.082 C 
HETATM    5  C5  UNL     1     -34.890  15.528  -2.641  1.00 20.00     0.243 C 
HETATM    6  C6  UNL     1     -34.588  16.908  -2.084  1.00 20.00     0.243 C 
HETATM    7  C7  UNL     1     -36.298  17.060  -3.603  1.00 20.00     0.160 C 
HETATM    8  C8  UNL     1     -36.189  17.274  -5.108  1.00 20.00     0.078 C 
HETATM    9  C9  UNL     1     -37.658  17.521  -3.091  1.00 20.00     0.078 C 
HETATM   10  O10 UNL     1     -36.148  15.666  -3.307  1.00 20.00    -0.335 OA
HETATM   11  O11 UNL     1     -35.266  17.816  -2.957  1.00 20.00    -0.335 OA
ENDROOT
TORSDOF 0
ENDMDL
MODEL 9
REMARK VINA RESULT:      -3.7      1.781      3.592
REMARK  0 active torsions:
REMARK  status: ('A' for Active; 'I' for Inactive)
ROOT
HETATM    1  C1  UNL     1     -34.444  17.513  -0.673  1.00 20.00     0.015 C 
HETATM    2  C2  UNL     1     -35.926  13.265  -4.547  1.00 20.00     0.015 C 
HETATM    3  C3  UNL     1     -34.415  16.808  -1.644  1.00 20.00    -0.082 C 
HETATM    4  C4  UNL     1     -35.854  14.343  -4.022  1.00 20.00    -0.082 C 
HETATM    5  C5  UNL     1     -34.379  15.945  -2.834  1.00 20.00     0.243 C 
HETATM    6  C6  UNL     1     -35.767  15.663  -3.382  1.00 20.00     0.243 C 
HETATM    7  C7  UNL     1     -34.706  17.169  -4.745  1.00 20.00     0.160 C 
HETATM    8  C8  UNL     1     -34.696  18.688  -4.622  1.00 20.00     0.078 C 
HETATM    9  C9  UNL     1     -34.421  16.743  -6.181  1.00 20.00     0.078 C 
HETATM   10  O10 UNL     1     -33.693  16.615  -3.895  1.00 20.00    -0.335 OA
HETATM   11  O11 UNL     1     -35.998  16.687  -4.353  1.00 20.00    -0.335 OA
ENDROOT
TORSDOF 0
ENDMDL
