MODEL 1
REMARK VINA RESULT:      -5.2      0.000      0.000
REMARK  0 active torsions:
REMARK  status: ('A' for Active; 'I' for Inactive)
ROOT
HETATM    1  C1  UNL     1     -22.518  17.828   9.589  1.00 20.00     0.057 C 
HETATM    2  C2  UNL     1     -25.320  18.522  11.896  1.00 20.00    -0.019 C 
HETATM    3  C3  UNL     1     -24.461  18.508  10.868  1.00 20.00    -0.051 C 
HETATM    4  C4  UNL     1     -23.127  17.954  10.780  1.00 20.00    -0.052 C 
HETATM    5  C5  UNL     1     -23.219  18.168   8.317  1.00 20.00     0.150 C 
HETATM    6  C6  UNL     1     -26.601  19.202  11.530  1.00 20.00     0.028 C 
HETATM    7  C7  UNL     1     -24.697  18.499   8.377  1.00 20.00     0.092 C 
HETATM    8  C8  UNL     1     -26.524  19.263  10.002  1.00 20.00     0.013 C 
HETATM    9  C9  UNL     1     -25.030  19.219   9.675  1.00 20.00     0.026 C 
HETATM   10  C10 UNL     1     -22.437  17.547  12.051  1.00 20.00     0.049 C 
HETATM   11  O11 UNL     1     -22.612  18.105   7.250  1.00 20.00    -0.293 OA
ENDROOT
TORSDOF 0
ENDMDL
MODEL 2
REMARK VINA RESULT:      -5.1     16.514     18.154
REMARK  0 active torsions:
REMARK  status: ('A' for Active; 'I' for Inactive)
ROOT
HETATM    1  C1  UNL     1     -36.922  14.637  -4.185  1.00 20.00     0.057 C 
HETATM    2  C2  UNL     1     -35.243  17.699  -2.976  1.00 20.00    -0.019 C 
HETATM    3  C3  UNL     1     -35.595  16.434  -3.246  1.00 20.00    -0.051 C 
HETATM    4  C4  UNL     1     -36.844  15.907  -3.752  1.00 20.00    -0.052 C 
HETATM    5  C5  UNL     1     -35.718  13.759  -4.242  1.00 20.00     0.150 C 
HETATM    6  C6  UNL     1     -33.836  17.779  -2.474  1.00 20.00     0.028 C 
HETATM    7  C7  UNL     1     -34.363  14.378  -3.962  1.00 20.00     0.092 C 
HETATM    8  C8  UNL     1     -33.269  16.406  -2.842  1.00 20.00     0.013 C 
HETATM    9  C9  UNL     1     -34.484  15.480  -2.920  1.00 20.00     0.026 C 
HETATM   10  C10 UNL     1     -38.048  16.804  -3.760  1.00 20.00     0.049 C 
HETATM   11  O11 UNL     1     -35.835  12.583  -4.579  1.00 20.00    -0.293 OA
ENDROOT
TORSDOF 0
ENDMDL
MODEL 3
REMARK VINA RESULT:      -4.9     16.381     17.102
REMARK  0 active torsions:
REMARK  status: ('A' for Active; 'I' for Inactive)
ROOT
HETATM    1  C1  UNL     1     -32.802   5.732   2.182  1.00 20.00     0.057 C 
HETATM    2  C2  UNL     1     -33.578   7.140   5.509  1.00 20.00    -0.019 C 
HETATM    3  C3  UNL     1     -33.588   6.457   4.356  1.00 20.00    -0.051 C 
HETATM    4  C4  UNL     1     -32.826   6.669   3.145  1.00 20.00    -0.052 C 
HETATM    5  C5  UNL     1     -33.480   4.414   2.360  1.00 20.00     0.150 C 
HETATM    6  C6  UNL     1     -34.531   6.555   6.501  1.00 20.00     0.028 C 
HETATM    7  C7  UNL     1     -34.056   4.082   3.723  1.00 20.00     0.092 C 
HETATM    8  C8  UNL     1     -34.842   5.182   5.899  1.00 20.00     0.013 C 
HETATM    9  C9  UNL     1     -34.587   5.337   4.398  1.00 20.00     0.026 C 
HETATM   10  C10 UNL     1     -32.087   7.966   2.983  1.00 20.00     0.049 C 
HETATM   11  O11 UNL     1     -33.495   3.605   1.436  1.00 20.00    -0.293 OA
ENDROOT
TORSDOF 0
ENDMDL
MODEL 4
REMARK VINA RESULT:      -4.8     14.566     16.228
REMARK  0 active torsions:
REMARK  status: ('A' for Active; 'I' for Inactive)
ROOT
HETATM    1  C1  UNL     1     -34.360  18.253  -0.677  1.00 20.00     0.057 C 
HETATM    2  C2  UNL     1     -32.945  16.093  -3.320  1.00 20.00    -0.019 C 
HETATM    3  C3  UNL     1     -33.690  16.625  -2.342  1.00 20.00    -0.051 C 
HETATM    4  C4  UNL     1     -33.390  17.707  -1.430  1.00 20.00    -0.052 C 
HETATM    5  C5  UNL     1     -35.784  17.830  -0.815  1.00 20.00     0.150 C 
HETATM    6  C6  UNL     1     -33.668  14.987  -4.020  1.00 20.00     0.028 C 
HETATM    7  C7  UNL     1     -36.147  16.888  -1.946  1.00 20.00     0.092 C 
HETATM    8  C8  UNL     1     -35.113  15.185  -3.558  1.00 20.00     0.013 C 
HETATM    9  C9  UNL     1     -35.008  15.917  -2.218  1.00 20.00     0.026 C 
HETATM   10  C10 UNL     1     -31.970  18.184  -1.330  1.00 20.00     0.049 C 
HETATM   11  O11 UNL     1     -36.636  18.301  -0.066  1.00 20.00    -0.293 OA
ENDROOT
TORSDOF 0
ENDMDL
MODEL 5
REMARK VINA RESULT:      -4.8     16.843     18.568
REMARK  0 active torsions:
REMARK  status: ('A' for Active; 'I' for Inactive)
ROOT
HETATM    1  C1  UNL     1     -36.290  14.790  -5.376  1.00 20.00     0.057 C 
HETATM    2  C2  UNL     1     -34.235  17.744  -4.534  1.00 20.00    -0.019 C 
HETATM    3  C3  UNL     1     -34.890  16.575  -4.523  1.00 20.00    -0.051 C 
HETATM    4  C4  UNL     1     -35.927  16.084  -5.404  1.00 20.00    -0.052 C 
HETATM    5  C5  UNL     1     -35.584  13.803  -4.508  1.00 20.00     0.150 C 
HETATM    6  C6  UNL     1     -33.230  17.819  -3.430  1.00 20.00     0.028 C 
HETATM    7  C7  UNL     1     -34.332  14.252  -3.781  1.00 20.00     0.092 C 
HETATM    8  C8  UNL     1     -33.115  16.360  -2.981  1.00 20.00     0.013 C 
HETATM    9  C9  UNL     1     -34.445  15.714  -3.377  1.00 20.00     0.026 C 
HETATM   10  C10 UNL     1     -36.600  17.057  -6.329  1.00 20.00     0.049 C 
HETATM   11  O11 UNL     1     -35.982  12.641  -4.455  1.00 20.00    -0.293 OA
ENDROOT
TORSDOF 0
ENDMDL
MODEL 6
REMARK VINA RESULT:      -4.7     17.145     18.759
REMARK  0 active torsions:
REMARK  status: ('A' for Active; 'I' for Inactive)
ROOT
HETATM    1  C1  UNL     1     -34.992  14.486  -3.448  1.00 20.00     0.057 C 
HETATM    2  C2  UNL     1     -34.228  17.723  -5.058  1.00 20.00    -0.019 C 
HETATM    3  C3  UNL     1     -34.462  16.431  -4.793  1.00 20.00    -0.051 C 
HETATM    4  C4  UNL     1     -34.505  15.736  -3.524  1.00 20.00    -0.052 C 
HETATM    5  C5  UNL     1     -35.583  13.807  -4.637  1.00 20.00     0.150 C 
HETATM    6  C6  UNL     1     -34.290  18.002  -6.525  1.00 20.00     0.028 C 
HETATM    7  C7  UNL     1     -35.781  14.618  -5.903  1.00 20.00     0.092 C 
HETATM    8  C8  UNL     1     -34.973  16.747  -7.076  1.00 20.00     0.013 C 
HETATM    9  C9  UNL     1     -34.672  15.648  -6.056  1.00 20.00     0.026 C 
HETATM   10  C10 UNL     1     -33.971  16.436  -2.308  1.00 20.00     0.049 C 
HETATM   11  O11 UNL     1     -35.960  12.641  -4.550  1.00 20.00    -0.293 OA
ENDROOT
TORSDOF 0
ENDMDL
MODEL 7
REMARK VINA RESULT:      -4.7     17.027     18.465
REMARK  0 active torsions:
REMARK  status: ('A' for Active; 'I' for Inactive)
ROOT
HETATM    1  C1  UNL     1     -34.614  14.370  -3.797  1.00 20.00     0.057 C 
HETATM    2  C2  UNL     1     -35.934  17.771  -3.212  1.00 20.00    -0.019 C 
HETATM    3  C3  UNL     1     -35.705  16.529  -3.660  1.00 20.00    -0.051 C 
HETATM    4  C4  UNL     1     -34.555  15.672  -3.470  1.00 20.00    -0.052 C 
HETATM    5  C5  UNL     1     -35.881  13.745  -4.279  1.00 20.00     0.150 C 
HETATM    6  C6  UNL     1     -37.274  18.272  -3.648  1.00 20.00     0.028 C 
HETATM    7  C7  UNL     1     -37.152  14.570  -4.232  1.00 20.00     0.092 C 
HETATM    8  C8  UNL     1     -37.976  16.993  -4.112  1.00 20.00     0.013 C 
HETATM    9  C9  UNL     1     -36.846  16.036  -4.500  1.00 20.00     0.026 C 
HETATM   10  C10 UNL     1     -33.294  16.277  -2.924  1.00 20.00     0.049 C 
HETATM   11  O11 UNL     1     -35.885  12.568  -4.632  1.00 20.00    -0.293 OA
ENDROOT
TORSDOF 0
ENDMDL
MODEL 8
REMARK VINA RESULT:      -4.7     16.013     17.582
REMARK  0 active torsions:
REMARK  status: ('A' for Active; 'I' for Inactive)
ROOT
HETATM    1  C1  UNL     1     -35.277  14.125  -4.317  1.00 20.00     0.057 C 
HETATM    2  C2  UNL     1     -36.438  17.177  -2.588  1.00 20.00    -0.019 C 
HETATM    3  C3  UNL     1     -35.760  16.093  -2.989  1.00 20.00    -0.051 C 
HETATM    4  C4  UNL     1     -36.178  14.997  -3.835  1.00 20.00    -0.052 C 
HETATM    5  C5  UNL     1     -33.815  14.302  -4.075  1.00 20.00     0.150 C 
HETATM    6  C6  UNL     1     -35.598  18.059  -1.720  1.00 20.00     0.028 C 
HETATM    7  C7  UNL     1     -33.347  15.585  -3.416  1.00 20.00     0.092 C 
HETATM    8  C8  UNL     1     -34.184  17.526  -1.968  1.00 20.00     0.013 C 
HETATM    9  C9  UNL     1     -34.376  16.073  -2.407  1.00 20.00     0.026 C 
HETATM   10  C10 UNL     1     -37.642  14.846  -4.138  1.00 20.00     0.049 C 
HETATM   11  O11 UNL     1     -33.023  13.452  -4.473  1.00 20.00    -0.293 OA
ENDROOT
TORSDOF 0
ENDMDL
MODEL 9
REMARK VINA RESULT:      -4.6     13.346     15.052
REMARK  0 active torsions:
REMARK  status: ('A' for Active; 'I' for Inactive)
ROOT
HETATM    1  C1  UNL     1     -33.676  18.397   0.457  1.00 20.00     0.057 C 
HETATM    2  C2  UNL     1     -35.153  16.099  -2.032  1.00 20.00    -0.019 C 
HETATM    3  C3  UNL     1     -34.429  17.032  -1.398  1.00 20.00    -0.051 C 
HETATM    4  C4  UNL     1     -34.644  17.659  -0.112  1.00 20.00    -0.052 C 
HETATM    5  C5  UNL     1     -32.326  18.524  -0.166  1.00 20.00     0.150 C 
HETATM    6  C6  UNL     1     -34.545  15.735  -3.349  1.00 20.00     0.028 C 
HETATM    7  C7  UNL     1     -32.008  17.663  -1.372  1.00 20.00     0.092 C 
HETATM    8  C8  UNL     1     -33.135  16.320  -3.241  1.00 20.00     0.013 C 
HETATM    9  C9  UNL     1     -33.251  17.459  -2.225  1.00 20.00     0.026 C 
HETATM   10  C10 UNL     1     -35.979  17.484   0.554  1.00 20.00     0.049 C 
HETATM   11  O11 UNL     1     -31.485  19.259   0.345  1.00 20.00    -0.293 OA
ENDROOT
TORSDOF 0
ENDMDL
