MODEL 1
REMARK VINA RESULT:      -4.6      0.000      0.000
REMARK  2 active torsions:
REMARK  status: ('A' for Active; 'I' for Inactive)
REMARK    1  A    between atoms: C1_1  and  C4_4 
REMARK    2  A    between atoms: C1_1  and  C5_5 
ROOT
HETATM    1  C1  UNL     1     -33.608   5.918   3.484  1.00 20.00     0.144 C 
HETATM    2  O6  UNL     1     -33.663   4.897   2.800  1.00 20.00    -0.296 OA
ENDROOT
BRANCH   1   3
HETATM    3  C4  UNL     1     -34.593   6.161   4.544  1.00 20.00     0.056 A 
HETATM    4  C2  UNL     1     -34.705   5.188   5.685  1.00 20.00     0.013 A 
HETATM    5  C3  UNL     1     -34.117   6.547   5.918  1.00 20.00     0.013 A 
ENDBRANCH   1   3
BRANCH   1   6
HETATM    6  C5  UNL     1     -32.553   6.987   3.311  1.00 20.00     0.193 C 
HETATM    7 CL7  UNL     1     -32.554   7.604   1.652  1.00 20.00    -0.123 Cl
ENDBRANCH   1   6
TORSDOF 2
ENDMDL
MODEL 2
REMARK VINA RESULT:      -4.4      1.255      1.268
REMARK  2 active torsions:
REMARK  status: ('A' for Active; 'I' for Inactive)
REMARK    1  A    between atoms: C1_1  and  C4_4 
REMARK    2  A    between atoms: C1_1  and  C5_5 
ROOT
HETATM    1  C1  UNL     1     -34.143   4.890   3.760  1.00 20.00     0.144 C 
HETATM    2  O6  UNL     1     -34.245   3.694   4.025  1.00 20.00    -0.296 OA
ENDROOT
BRANCH   1   3
HETATM    3  C4  UNL     1     -34.717   5.904   4.651  1.00 20.00     0.056 A 
HETATM    4  C2  UNL     1     -34.949   5.568   6.100  1.00 20.00     0.013 A 
HETATM    5  C3  UNL     1     -33.854   6.520   5.720  1.00 20.00     0.013 A 
ENDBRANCH   1   3
BRANCH   1   6
HETATM    6  C5  UNL     1     -33.435   5.420   2.533  1.00 20.00     0.193 C 
HETATM    7 CL7  UNL     1     -32.516   6.881   2.923  1.00 20.00    -0.123 Cl
ENDBRANCH   1   6
TORSDOF 2
ENDMDL
MODEL 3
REMARK VINA RESULT:      -4.2      2.215      3.224
REMARK  2 active torsions:
REMARK  status: ('A' for Active; 'I' for Inactive)
REMARK    1  A    between atoms: C1_1  and  C4_4 
REMARK    2  A    between atoms: C1_1  and  C5_5 
ROOT
HETATM    1  C1  UNL     1     -33.750   5.373   3.246  1.00 20.00     0.144 C 
HETATM    2  O6  UNL     1     -33.197   4.574   2.492  1.00 20.00    -0.296 OA
ENDROOT
BRANCH   1   3
HETATM    3  C4  UNL     1     -33.433   6.804   3.180  1.00 20.00     0.056 A 
HETATM    4  C2  UNL     1     -32.025   7.262   3.451  1.00 20.00     0.013 A 
HETATM    5  C3  UNL     1     -32.574   7.318   2.057  1.00 20.00     0.013 A 
ENDBRANCH   1   3
BRANCH   1   6
HETATM    6  C5  UNL     1     -34.779   4.975   4.279  1.00 20.00     0.193 C 
HETATM    7 CL7  UNL     1     -34.522   5.860   5.790  1.00 20.00    -0.123 Cl
ENDBRANCH   1   6
TORSDOF 2
ENDMDL
MODEL 4
REMARK VINA RESULT:      -4.2      1.441      1.508
REMARK  2 active torsions:
REMARK  status: ('A' for Active; 'I' for Inactive)
REMARK    1  A    between atoms: C1_1  and  C4_4 
REMARK    2  A    between atoms: C1_1  and  C5_5 
ROOT
HETATM    1  C1  UNL     1     -33.390   6.624   4.009  1.00 20.00     0.144 C 
HETATM    2  O6  UNL     1     -32.780   7.369   4.773  1.00 20.00    -0.296 OA
ENDROOT
BRANCH   1   3
HETATM    3  C4  UNL     1     -34.660   6.013   4.416  1.00 20.00     0.056 A 
HETATM    4  C2  UNL     1     -34.724   4.528   4.652  1.00 20.00     0.013 A 
HETATM    5  C3  UNL     1     -34.804   5.473   5.813  1.00 20.00     0.013 A 
ENDBRANCH   1   3
BRANCH   1   6
HETATM    6  C5  UNL     1     -32.911   6.275   2.618  1.00 20.00     0.193 C 
HETATM    7 CL7  UNL     1     -32.546   7.742   1.697  1.00 20.00    -0.123 Cl
ENDBRANCH   1   6
TORSDOF 2
ENDMDL
MODEL 5
REMARK VINA RESULT:      -4.0      2.150      3.246
REMARK  2 active torsions:
REMARK  status: ('A' for Active; 'I' for Inactive)
REMARK    1  A    between atoms: C1_1  and  C4_4 
REMARK    2  A    between atoms: C1_1  and  C5_5 
ROOT
HETATM    1  C1  UNL     1     -34.438   4.774   4.320  1.00 20.00     0.144 C 
HETATM    2  O6  UNL     1     -34.197   3.570   4.245  1.00 20.00    -0.296 OA
ENDROOT
BRANCH   1   3
HETATM    3  C4  UNL     1     -34.182   5.659   3.178  1.00 20.00     0.056 A 
HETATM    4  C2  UNL     1     -32.844   6.336   3.055  1.00 20.00     0.013 A 
HETATM    5  C3  UNL     1     -33.208   5.227   2.115  1.00 20.00     0.013 A 
ENDBRANCH   1   3
BRANCH   1   6
HETATM    6  C5  UNL     1     -35.007   5.440   5.552  1.00 20.00     0.193 C 
HETATM    7 CL7  UNL     1     -33.946   6.745   6.103  1.00 20.00    -0.123 Cl
ENDBRANCH   1   6
TORSDOF 2
ENDMDL
MODEL 6
REMARK VINA RESULT:      -3.6     11.671     12.256
REMARK  2 active torsions:
REMARK  status: ('A' for Active; 'I' for Inactive)
REMARK    1  A    between atoms: C1_1  and  C4_4 
REMARK    2  A    between atoms: C1_1  and  C5_5 
ROOT
HETATM    1  C1  UNL     1     -35.627  13.879  -4.528  1.00 20.00     0.144 C 
HETATM    2  O6  UNL     1     -35.917  12.685  -4.493  1.00 20.00    -0.296 OA
ENDROOT
BRANCH   1   3
HETATM    3  C4  UNL     1     -34.532  14.406  -3.705  1.00 20.00     0.056 A 
HETATM    4  C2  UNL     1     -33.171  14.593  -4.318  1.00 20.00     0.013 A 
HETATM    5  C3  UNL     1     -34.007  15.790  -3.976  1.00 20.00     0.013 A 
ENDBRANCH   1   3
BRANCH   1   6
HETATM    6  C5  UNL     1     -36.341  14.891  -5.395  1.00 20.00     0.193 C 
HETATM    7 CL7  UNL     1     -35.747  14.816  -7.061  1.00 20.00    -0.123 Cl
ENDBRANCH   1   6
TORSDOF 2
ENDMDL
MODEL 7
REMARK VINA RESULT:      -3.6     11.877     12.157
REMARK  2 active torsions:
REMARK  status: ('A' for Active; 'I' for Inactive)
REMARK    1  A    between atoms: C1_1  and  C4_4 
REMARK    2  A    between atoms: C1_1  and  C5_5 
ROOT
HETATM    1  C1  UNL     1     -36.118  13.865  -4.451  1.00 20.00     0.144 C 
HETATM    2  O6  UNL     1     -35.846  12.666  -4.500  1.00 20.00    -0.296 OA
ENDROOT
BRANCH   1   3
HETATM    3  C4  UNL     1     -35.055  14.875  -4.492  1.00 20.00     0.056 A 
HETATM    4  C2  UNL     1     -34.384  15.293  -3.212  1.00 20.00     0.013 A 
HETATM    5  C3  UNL     1     -33.636  14.462  -4.211  1.00 20.00     0.013 A 
ENDBRANCH   1   3
BRANCH   1   6
HETATM    6  C5  UNL     1     -37.528  14.400  -4.349  1.00 20.00     0.193 C 
HETATM    7 CL7  UNL     1     -37.608  16.067  -4.940  1.00 20.00    -0.123 Cl
ENDBRANCH   1   6
TORSDOF 2
ENDMDL
MODEL 8
REMARK VINA RESULT:      -3.5      2.421      3.429
REMARK  2 active torsions:
REMARK  status: ('A' for Active; 'I' for Inactive)
REMARK    1  A    between atoms: C1_1  and  C4_4 
REMARK    2  A    between atoms: C1_1  and  C5_5 
ROOT
HETATM    1  C1  UNL     1     -34.060   6.493   4.694  1.00 20.00     0.144 C 
HETATM    2  O6  UNL     1     -33.663   6.902   5.783  1.00 20.00    -0.296 OA
ENDROOT
BRANCH   1   3
HETATM    3  C4  UNL     1     -33.567   7.088   3.447  1.00 20.00     0.056 A 
HETATM    4  C2  UNL     1     -32.087   7.277   3.254  1.00 20.00     0.013 A 
HETATM    5  C3  UNL     1     -32.815   6.230   2.467  1.00 20.00     0.013 A 
ENDBRANCH   1   3
BRANCH   1   6
HETATM    6  C5  UNL     1     -35.059   5.370   4.534  1.00 20.00     0.193 C 
HETATM    7 CL7  UNL     1     -34.238   3.855   4.130  1.00 20.00    -0.123 Cl
ENDBRANCH   1   6
TORSDOF 2
ENDMDL
MODEL 9
REMARK VINA RESULT:      -3.5      1.975      2.591
REMARK  2 active torsions:
REMARK  status: ('A' for Active; 'I' for Inactive)
REMARK    1  A    between atoms: C1_1  and  C4_4 
REMARK    2  A    between atoms: C1_1  and  C5_5 
ROOT
HETATM    1  C1  UNL     1     -32.492   7.154   2.414  1.00 20.00     0.144 C 
HETATM    2  O6  UNL     1     -31.912   7.426   3.463  1.00 20.00    -0.296 OA
ENDROOT
BRANCH   1   3
HETATM    3  C4  UNL     1     -33.574   6.164   2.393  1.00 20.00     0.056 A 
HETATM    4  C2  UNL     1     -33.249   4.710   2.607  1.00 20.00     0.013 A 
HETATM    5  C3  UNL     1     -33.971   5.478   3.673  1.00 20.00     0.013 A 
ENDBRANCH   1   3
BRANCH   1   6
HETATM    6  C5  UNL     1     -32.163   7.794   1.084  1.00 20.00     0.193 C 
HETATM    7 CL7  UNL     1     -33.120   9.263   0.843  1.00 20.00    -0.123 Cl
ENDBRANCH   1   6
TORSDOF 2
ENDMDL
