MODEL 1
REMARK VINA RESULT:      -5.4      0.000      0.000
REMARK  1 active torsions:
REMARK  status: ('A' for Active; 'I' for Inactive)
REMARK    1  A    between atoms: C3_3  and  C7_7 
ROOT
HETATM    1  C1  UNL     1     -35.153   5.222   5.388  1.00 20.00    -0.030 C 
HETATM    2  C2  UNL     1     -35.024   4.872   4.100  1.00 20.00    -0.026 C 
HETATM    3  C4  UNL     1     -34.331   6.292   6.043  1.00 20.00     0.027 C 
HETATM    4  C5  UNL     1     -33.152   6.767   5.188  1.00 20.00     0.018 C 
HETATM    5  C6  UNL     1     -34.048   5.527   3.150  1.00 20.00     0.016 C 
HETATM    6  C7  UNL     1     -33.551   6.878   3.714  1.00 20.00     0.080 C 
HETATM    7  C8  UNL     1     -32.927   4.530   2.833  1.00 20.00     0.015 C 
ENDROOT
BRANCH   6   8
HETATM    8  C3  UNL     1     -32.424   7.446   2.905  1.00 20.00     0.223 C 
HETATM    9  O9  UNL     1     -31.302   7.597   3.377  1.00 20.00    -0.279 OA
HETATM   10 CL10 UNL     1     -32.917   7.840   1.286  1.00 20.00    -0.043 Cl
ENDBRANCH   6   8
TORSDOF 1
ENDMDL
MODEL 2
REMARK VINA RESULT:      -5.3     11.434     12.133
REMARK  1 active torsions:
REMARK  status: ('A' for Active; 'I' for Inactive)
REMARK    1  A    between atoms: C3_3  and  C7_7 
ROOT
HETATM    1  C1  UNL     1     -33.256  16.559  -2.657  1.00 20.00    -0.030 C 
HETATM    2  C2  UNL     1     -32.898  15.813  -3.712  1.00 20.00    -0.026 C 
HETATM    3  C4  UNL     1     -34.627  16.532  -2.050  1.00 20.00     0.027 C 
HETATM    4  C5  UNL     1     -35.657  15.783  -2.900  1.00 20.00     0.018 C 
HETATM    5  C6  UNL     1     -33.827  14.845  -4.405  1.00 20.00     0.016 C 
HETATM    6  C7  UNL     1     -35.048  14.520  -3.515  1.00 20.00     0.080 C 
HETATM    7  C8  UNL     1     -34.189  15.411  -5.783  1.00 20.00     0.015 C 
ENDROOT
BRANCH   6   8
HETATM    8  C3  UNL     1     -36.092  13.737  -4.253  1.00 20.00     0.223 C 
HETATM    9  O9  UNL     1     -35.882  12.596  -4.651  1.00 20.00    -0.279 OA
HETATM   10 CL10 UNL     1     -37.565  14.637  -4.452  1.00 20.00    -0.043 Cl
ENDBRANCH   6   8
TORSDOF 1
ENDMDL
MODEL 3
REMARK VINA RESULT:      -4.7     11.580     12.391
REMARK  1 active torsions:
REMARK  status: ('A' for Active; 'I' for Inactive)
REMARK    1  A    between atoms: C3_3  and  C7_7 
ROOT
HETATM    1  C1  UNL     1     -35.390  17.309  -2.242  1.00 20.00    -0.030 C 
HETATM    2  C2  UNL     1     -34.510  16.301  -2.162  1.00 20.00    -0.026 C 
HETATM    3  C4  UNL     1     -36.500  17.363  -3.248  1.00 20.00     0.027 C 
HETATM    4  C5  UNL     1     -36.383  16.301  -4.346  1.00 20.00     0.018 C 
HETATM    5  C6  UNL     1     -34.543  15.090  -3.065  1.00 20.00     0.016 C 
HETATM    6  C7  UNL     1     -35.913  14.963  -3.768  1.00 20.00     0.080 C 
HETATM    7  C8  UNL     1     -33.349  15.160  -4.025  1.00 20.00     0.015 C 
ENDROOT
BRANCH   6   8
HETATM    8  C3  UNL     1     -35.907  13.904  -4.829  1.00 20.00     0.223 C 
HETATM    9  O9  UNL     1     -35.933  12.710  -4.549  1.00 20.00    -0.279 OA
HETATM   10 CL10 UNL     1     -35.859  14.581  -6.428  1.00 20.00    -0.043 Cl
ENDBRANCH   6   8
TORSDOF 1
ENDMDL
MODEL 4
REMARK VINA RESULT:      -4.3     11.758     12.429
REMARK  1 active torsions:
REMARK  status: ('A' for Active; 'I' for Inactive)
REMARK    1  A    between atoms: C3_3  and  C7_7 
ROOT
HETATM    1  C1  UNL     1     -33.983  17.901  -0.479  1.00 20.00    -0.030 C 
HETATM    2  C2  UNL     1     -33.020  17.903  -1.412  1.00 20.00    -0.026 C 
HETATM    3  C4  UNL     1     -35.228  17.071  -0.576  1.00 20.00     0.027 C 
HETATM    4  C5  UNL     1     -35.431  16.430  -1.953  1.00 20.00     0.018 C 
HETATM    5  C6  UNL     1     -33.065  17.057  -2.663  1.00 20.00     0.016 C 
HETATM    6  C7  UNL     1     -34.104  15.921  -2.523  1.00 20.00     0.080 C 
HETATM    7  C8  UNL     1     -33.298  17.974  -3.869  1.00 20.00     0.015 C 
ENDROOT
BRANCH   6   8
HETATM    8  C3  UNL     1     -34.329  15.199  -3.817  1.00 20.00     0.223 C 
HETATM    9  O9  UNL     1     -35.426  15.184  -4.366  1.00 20.00    -0.279 OA
HETATM   10 CL10 UNL     1     -32.883  14.429  -4.395  1.00 20.00    -0.043 Cl
ENDBRANCH   6   8
TORSDOF 1
ENDMDL
MODEL 5
REMARK VINA RESULT:      -4.3     11.948     12.811
REMARK  1 active torsions:
REMARK  status: ('A' for Active; 'I' for Inactive)
REMARK    1  A    between atoms: C3_3  and  C7_7 
ROOT
HETATM    1  C1  UNL     1     -34.798  15.324  -3.029  1.00 20.00    -0.030 C 
HETATM    2  C2  UNL     1     -35.180  16.013  -1.945  1.00 20.00    -0.026 C 
HETATM    3  C4  UNL     1     -33.564  15.640  -3.820  1.00 20.00     0.027 C 
HETATM    4  C5  UNL     1     -32.922  16.978  -3.443  1.00 20.00     0.018 C 
HETATM    5  C6  UNL     1     -34.403  17.179  -1.380  1.00 20.00     0.016 C 
HETATM    6  C7  UNL     1     -32.958  17.197  -1.928  1.00 20.00     0.080 C 
HETATM    7  C8  UNL     1     -35.190  18.468  -1.644  1.00 20.00     0.015 C 
ENDROOT
BRANCH   6   8
HETATM    8  C3  UNL     1     -32.231  18.455  -1.560  1.00 20.00     0.223 C 
HETATM    9  O9  UNL     1     -31.868  19.263  -2.409  1.00 20.00    -0.279 OA
HETATM   10 CL10 UNL     1     -31.991  18.593   0.155  1.00 20.00    -0.043 Cl
ENDBRANCH   6   8
TORSDOF 1
ENDMDL
MODEL 6
REMARK VINA RESULT:      -4.2     11.856     12.403
REMARK  1 active torsions:
REMARK  status: ('A' for Active; 'I' for Inactive)
REMARK    1  A    between atoms: C3_3  and  C7_7 
ROOT
HETATM    1  C1  UNL     1     -34.940  14.328  -4.175  1.00 20.00    -0.030 C 
HETATM    2  C2  UNL     1     -35.843  15.035  -3.479  1.00 20.00    -0.026 C 
HETATM    3  C4  UNL     1     -33.473  14.642  -4.186  1.00 20.00     0.027 C 
HETATM    4  C5  UNL     1     -33.131  15.993  -3.551  1.00 20.00     0.018 C 
HETATM    5  C6  UNL     1     -35.488  16.219  -2.610  1.00 20.00     0.016 C 
HETATM    6  C7  UNL     1     -33.975  16.240  -2.298  1.00 20.00     0.080 C 
HETATM    7  C8  UNL     1     -36.008  17.495  -3.283  1.00 20.00     0.015 C 
ENDROOT
BRANCH   6   8
HETATM    8  C3  UNL     1     -33.556  17.512  -1.623  1.00 20.00     0.223 C 
HETATM    9  O9  UNL     1     -33.952  17.807  -0.500  1.00 20.00    -0.279 OA
HETATM   10 CL10 UNL     1     -32.485  18.455  -2.614  1.00 20.00    -0.043 Cl
ENDBRANCH   6   8
TORSDOF 1
ENDMDL
MODEL 7
REMARK VINA RESULT:      -4.2      9.458     10.170
REMARK  1 active torsions:
REMARK  status: ('A' for Active; 'I' for Inactive)
REMARK    1  A    between atoms: C3_3  and  C7_7 
ROOT
HETATM    1  C1  UNL     1     -42.616   8.738   0.398  1.00 20.00    -0.030 C 
HETATM    2  C2  UNL     1     -43.417   7.693   0.651  1.00 20.00    -0.026 C 
HETATM    3  C4  UNL     1     -41.388   8.652  -0.459  1.00 20.00     0.027 C 
HETATM    4  C5  UNL     1     -40.982   7.216  -0.803  1.00 20.00     0.018 C 
HETATM    5  C6  UNL     1     -43.190   6.310   0.088  1.00 20.00     0.016 C 
HETATM    6  C7  UNL     1     -42.211   6.355  -1.107  1.00 20.00     0.080 C 
HETATM    7  C8  UNL     1     -42.749   5.382   1.226  1.00 20.00     0.015 C 
ENDROOT
BRANCH   6   8
HETATM    8  C3  UNL     1     -41.797   4.983  -1.549  1.00 20.00     0.223 C 
HETATM    9  O9  UNL     1     -40.624   4.624  -1.527  1.00 20.00    -0.279 OA
HETATM   10 CL10 UNL     1     -43.152   4.028  -2.069  1.00 20.00    -0.043 Cl
ENDBRANCH   6   8
TORSDOF 1
ENDMDL
MODEL 8
REMARK VINA RESULT:      -4.1     12.007     12.666
REMARK  1 active torsions:
REMARK  status: ('A' for Active; 'I' for Inactive)
REMARK    1  A    between atoms: C3_3  and  C7_7 
ROOT
HETATM    1  C1  UNL     1     -34.666  16.239  -2.089  1.00 20.00    -0.030 C 
HETATM    2  C2  UNL     1     -35.789  15.865  -2.720  1.00 20.00    -0.026 C 
HETATM    3  C4  UNL     1     -33.321  16.285  -2.749  1.00 20.00     0.027 C 
HETATM    4  C5  UNL     1     -33.292  15.616  -4.127  1.00 20.00     0.018 C 
HETATM    5  C6  UNL     1     -35.835  15.463  -4.175  1.00 20.00     0.016 C 
HETATM    6  C7  UNL     1     -34.563  15.933  -4.918  1.00 20.00     0.080 C 
HETATM    7  C8  UNL     1     -36.088  13.953  -4.260  1.00 20.00     0.015 C 
ENDROOT
BRANCH   6   8
HETATM    8  C3  UNL     1     -34.477  15.366  -6.303  1.00 20.00     0.223 C 
HETATM    9  O9  UNL     1     -33.556  14.631  -6.643  1.00 20.00    -0.279 OA
HETATM   10 CL10 UNL     1     -35.805  15.876  -7.301  1.00 20.00    -0.043 Cl
ENDBRANCH   6   8
TORSDOF 1
ENDMDL
MODEL 9
REMARK VINA RESULT:      -4.0     12.024     12.963
REMARK  1 active torsions:
REMARK  status: ('A' for Active; 'I' for Inactive)
REMARK    1  A    between atoms: C3_3  and  C7_7 
ROOT
HETATM    1  C1  UNL     1     -34.772  17.164  -2.466  1.00 20.00    -0.030 C 
HETATM    2  C2  UNL     1     -34.401  15.875  -2.472  1.00 20.00    -0.026 C 
HETATM    3  C4  UNL     1     -35.363  17.861  -3.655  1.00 20.00     0.027 C 
HETATM    4  C5  UNL     1     -35.260  17.053  -4.952  1.00 20.00     0.018 C 
HETATM    5  C6  UNL     1     -34.550  14.968  -3.671  1.00 20.00     0.016 C 
HETATM    6  C7  UNL     1     -35.537  15.569  -4.698  1.00 20.00     0.080 C 
HETATM    7  C8  UNL     1     -33.157  14.671  -4.239  1.00 20.00     0.015 C 
ENDROOT
BRANCH   6   8
HETATM    8  C3  UNL     1     -35.542  14.806  -5.989  1.00 20.00     0.223 C 
HETATM    9  O9  UNL     1     -36.070  13.703  -6.084  1.00 20.00    -0.279 OA
HETATM   10 CL10 UNL     1     -34.732  15.669  -7.261  1.00 20.00    -0.043 Cl
ENDBRANCH   6   8
TORSDOF 1
ENDMDL
