MODEL 1
REMARK VINA RESULT:      -4.9      0.000      0.000
REMARK  1 active torsions:
REMARK  status: ('A' for Active; 'I' for Inactive)
REMARK    1  A    between atoms: C2_2  and  C7_7 
ROOT
HETATM    1  C1  UNL     1     -37.435  14.534  -4.363  1.00 20.00     0.132 C 
HETATM    2  C3  UNL     1     -37.331  15.997  -3.978  1.00 20.00     0.084 C 
HETATM    3  C4  UNL     1     -35.769  14.636  -6.116  1.00 20.00     0.013 C 
HETATM    4  C5  UNL     1     -35.589  16.133  -5.792  1.00 20.00     0.007 C 
HETATM    5  C6  UNL     1     -36.057  14.021  -4.740  1.00 20.00     0.068 C 
HETATM    6  C7  UNL     1     -35.232  14.873  -3.774  1.00 20.00     0.088 C 
HETATM    7  C8  UNL     1     -35.824  16.201  -4.264  1.00 20.00     0.006 C 
HETATM    8  O9  UNL     1     -38.468  13.884  -4.397  1.00 20.00    -0.298 OA
ENDROOT
BRANCH   6   9
HETATM    9  C2  UNL     1     -33.750  14.750  -3.941  1.00 20.00     0.224 C 
HETATM   10  O10 UNL     1     -33.238  13.754  -4.443  1.00 20.00    -0.279 OA
HETATM   11 CL11 UNL     1     -32.907  16.150  -3.348  1.00 20.00    -0.043 Cl
ENDBRANCH   6   9
TORSDOF 1
ENDMDL
MODEL 2
REMARK VINA RESULT:      -4.7      2.458      3.479
REMARK  1 active torsions:
REMARK  status: ('A' for Active; 'I' for Inactive)
REMARK    1  A    between atoms: C2_2  and  C7_7 
ROOT
HETATM    1  C1  UNL     1     -34.251  16.860  -3.558  1.00 20.00     0.132 C 
HETATM    2  C3  UNL     1     -33.135  15.838  -3.478  1.00 20.00     0.084 C 
HETATM    3  C4  UNL     1     -35.079  16.132  -5.713  1.00 20.00     0.013 C 
HETATM    4  C5  UNL     1     -33.977  15.053  -5.718  1.00 20.00     0.007 C 
HETATM    5  C6  UNL     1     -35.457  16.226  -4.229  1.00 20.00     0.068 C 
HETATM    6  C7  UNL     1     -35.274  14.799  -3.709  1.00 20.00     0.088 C 
HETATM    7  C8  UNL     1     -33.835  14.677  -4.224  1.00 20.00     0.006 C 
HETATM    8  O9  UNL     1     -34.179  18.017  -3.175  1.00 20.00    -0.298 OA
ENDROOT
BRANCH   6   9
HETATM    9  C2  UNL     1     -36.230  13.799  -4.279  1.00 20.00     0.224 C 
HETATM   10  O10 UNL     1     -35.864  12.676  -4.615  1.00 20.00    -0.279 OA
HETATM   11 CL11 UNL     1     -37.845  14.429  -4.392  1.00 20.00    -0.043 Cl
ENDBRANCH   6   9
TORSDOF 1
ENDMDL
MODEL 3
REMARK VINA RESULT:      -4.7      1.909      2.121
REMARK  1 active torsions:
REMARK  status: ('A' for Active; 'I' for Inactive)
REMARK    1  A    between atoms: C2_2  and  C7_7 
ROOT
HETATM    1  C1  UNL     1     -35.763  13.751  -4.230  1.00 20.00     0.132 C 
HETATM    2  C3  UNL     1     -36.961  14.668  -4.089  1.00 20.00     0.084 C 
HETATM    3  C4  UNL     1     -34.305  15.422  -5.200  1.00 20.00     0.013 C 
HETATM    4  C5  UNL     1     -35.467  16.430  -5.091  1.00 20.00     0.007 C 
HETATM    5  C6  UNL     1     -34.496  14.543  -3.957  1.00 20.00     0.068 C 
HETATM    6  C7  UNL     1     -35.060  15.504  -2.909  1.00 20.00     0.088 C 
HETATM    7  C8  UNL     1     -36.206  15.988  -3.805  1.00 20.00     0.006 C 
HETATM    8  O9  UNL     1     -35.808  12.572  -4.546  1.00 20.00    -0.298 OA
ENDROOT
BRANCH   6   9
HETATM    9  C2  UNL     1     -34.113  16.577  -2.471  1.00 20.00     0.224 C 
HETATM   10  O10 UNL     1     -32.897  16.451  -2.586  1.00 20.00    -0.279 OA
HETATM   11 CL11 UNL     1     -34.944  17.953  -1.809  1.00 20.00    -0.043 Cl
ENDBRANCH   6   9
TORSDOF 1
ENDMDL
MODEL 4
REMARK VINA RESULT:      -4.6      2.663      3.404
REMARK  1 active torsions:
REMARK  status: ('A' for Active; 'I' for Inactive)
REMARK    1  A    between atoms: C2_2  and  C7_7 
ROOT
HETATM    1  C1  UNL     1     -34.739  16.704  -1.591  1.00 20.00     0.132 C 
HETATM    2  C3  UNL     1     -33.355  17.094  -2.071  1.00 20.00     0.084 C 
HETATM    3  C4  UNL     1     -35.811  16.950  -3.747  1.00 20.00     0.013 C 
HETATM    4  C5  UNL     1     -34.440  17.352  -4.329  1.00 20.00     0.007 C 
HETATM    5  C6  UNL     1     -35.437  15.911  -2.682  1.00 20.00     0.068 C 
HETATM    6  C7  UNL     1     -34.209  15.208  -3.264  1.00 20.00     0.088 C 
HETATM    7  C8  UNL     1     -33.438  16.512  -3.502  1.00 20.00     0.006 C 
HETATM    8  O9  UNL     1     -35.225  17.009  -0.513  1.00 20.00    -0.298 OA
ENDROOT
BRANCH   6   9
HETATM    9  C2  UNL     1     -34.476  14.405  -4.498  1.00 20.00     0.224 C 
HETATM   10  O10 UNL     1     -33.682  14.378  -5.434  1.00 20.00    -0.279 OA
HETATM   11 CL11 UNL     1     -35.995  13.564  -4.416  1.00 20.00    -0.043 Cl
ENDBRANCH   6   9
TORSDOF 1
ENDMDL
MODEL 5
REMARK VINA RESULT:      -4.6     10.323     11.467
REMARK  1 active torsions:
REMARK  status: ('A' for Active; 'I' for Inactive)
REMARK    1  A    between atoms: C2_2  and  C7_7 
ROOT
HETATM    1  C1  UNL     1     -41.924   9.007   0.018  1.00 20.00     0.132 C 
HETATM    2  C3  UNL     1     -43.417   8.753  -0.050  1.00 20.00     0.084 C 
HETATM    3  C4  UNL     1     -41.386   6.926   1.130  1.00 20.00     0.013 C 
HETATM    4  C5  UNL     1     -42.887   6.577   1.101  1.00 20.00     0.007 C 
HETATM    5  C6  UNL     1     -41.188   7.694  -0.184  1.00 20.00     0.068 C 
HETATM    6  C7  UNL     1     -42.174   7.035  -1.150  1.00 20.00     0.088 C 
HETATM    7  C8  UNL     1     -43.380   7.216  -0.220  1.00 20.00     0.006 C 
HETATM    8  O9  UNL     1     -41.400  10.088   0.234  1.00 20.00    -0.298 OA
ENDROOT
BRANCH   6   9
HETATM    9  C2  UNL     1     -41.857   5.613  -1.493  1.00 20.00     0.224 C 
HETATM   10  O10 UNL     1     -40.714   5.171  -1.419  1.00 20.00    -0.279 OA
HETATM   11 CL11 UNL     1     -43.270   4.728  -1.985  1.00 20.00    -0.043 Cl
ENDBRANCH   6   9
TORSDOF 1
ENDMDL
MODEL 6
REMARK VINA RESULT:      -4.5      2.100      3.454
REMARK  1 active torsions:
REMARK  status: ('A' for Active; 'I' for Inactive)
REMARK    1  A    between atoms: C2_2  and  C7_7 
ROOT
HETATM    1  C1  UNL     1     -34.613  13.958  -4.033  1.00 20.00     0.132 C 
HETATM    2  C3  UNL     1     -33.240  14.502  -4.373  1.00 20.00     0.084 C 
HETATM    3  C4  UNL     1     -35.117  15.631  -2.358  1.00 20.00     0.013 C 
HETATM    4  C5  UNL     1     -33.738  16.260  -2.640  1.00 20.00     0.007 C 
HETATM    5  C6  UNL     1     -35.547  15.118  -3.739  1.00 20.00     0.068 C 
HETATM    6  C7  UNL     1     -34.950  16.135  -4.714  1.00 20.00     0.088 C 
HETATM    7  C8  UNL     1     -33.529  16.005  -4.153  1.00 20.00     0.006 C 
HETATM    8  O9  UNL     1     -34.910  12.775  -3.973  1.00 20.00    -0.298 OA
ENDROOT
BRANCH   6   9
HETATM    9  C2  UNL     1     -35.536  17.508  -4.621  1.00 20.00     0.224 C 
HETATM   10  O10 UNL     1     -36.711  17.689  -4.315  1.00 20.00    -0.279 OA
HETATM   11 CL11 UNL     1     -34.371  18.743  -4.993  1.00 20.00    -0.043 Cl
ENDBRANCH   6   9
TORSDOF 1
ENDMDL
MODEL 7
REMARK VINA RESULT:      -4.5      2.269      3.435
REMARK  1 active torsions:
REMARK  status: ('A' for Active; 'I' for Inactive)
REMARK    1  A    between atoms: C2_2  and  C7_7 
ROOT
HETATM    1  C1  UNL     1     -33.941  14.533  -4.046  1.00 20.00     0.132 C 
HETATM    2  C3  UNL     1     -35.438  14.297  -4.068  1.00 20.00     0.084 C 
HETATM    3  C4  UNL     1     -34.081  16.934  -4.319  1.00 20.00     0.013 C 
HETATM    4  C5  UNL     1     -35.616  16.793  -4.346  1.00 20.00     0.007 C 
HETATM    5  C6  UNL     1     -33.655  15.841  -3.330  1.00 20.00     0.068 C 
HETATM    6  C7  UNL     1     -34.801  15.792  -2.317  1.00 20.00     0.088 C 
HETATM    7  C8  UNL     1     -35.886  15.610  -3.386  1.00 20.00     0.006 C 
HETATM    8  O9  UNL     1     -33.103  13.804  -4.554  1.00 20.00    -0.298 OA
ENDROOT
BRANCH   6   9
HETATM    9  C2  UNL     1     -34.948  17.024  -1.480  1.00 20.00     0.224 C 
HETATM   10  O10 UNL     1     -36.049  17.438  -1.130  1.00 20.00    -0.279 OA
HETATM   11 CL11 UNL     1     -33.413  17.743  -1.099  1.00 20.00    -0.043 Cl
ENDBRANCH   6   9
TORSDOF 1
ENDMDL
MODEL 8
REMARK VINA RESULT:      -4.5      2.220      2.773
REMARK  1 active torsions:
REMARK  status: ('A' for Active; 'I' for Inactive)
REMARK    1  A    between atoms: C2_2  and  C7_7 
ROOT
HETATM    1  C1  UNL     1     -35.739  13.816  -4.445  1.00 20.00     0.132 C 
HETATM    2  C3  UNL     1     -36.217  14.701  -5.579  1.00 20.00     0.084 C 
HETATM    3  C4  UNL     1     -33.803  15.162  -3.900  1.00 20.00     0.013 C 
HETATM    4  C5  UNL     1     -34.213  16.125  -5.032  1.00 20.00     0.007 C 
HETATM    5  C6  UNL     1     -35.154  14.688  -3.348  1.00 20.00     0.068 C 
HETATM    6  C7  UNL     1     -36.069  15.902  -3.519  1.00 20.00     0.088 C 
HETATM    7  C8  UNL     1     -35.760  16.066  -5.012  1.00 20.00     0.006 C 
HETATM    8  O9  UNL     1     -35.788  12.596  -4.431  1.00 20.00    -0.298 OA
ENDROOT
BRANCH   6   9
HETATM    9  C2  UNL     1     -35.707  17.081  -2.672  1.00 20.00     0.224 C 
HETATM   10  O10 UNL     1     -35.797  18.231  -3.094  1.00 20.00    -0.279 OA
HETATM   11 CL11 UNL     1     -35.168  16.609  -1.089  1.00 20.00    -0.043 Cl
ENDBRANCH   6   9
TORSDOF 1
ENDMDL
MODEL 9
REMARK VINA RESULT:      -4.4      2.232      3.663
REMARK  1 active torsions:
REMARK  status: ('A' for Active; 'I' for Inactive)
REMARK    1  A    between atoms: C2_2  and  C7_7 
ROOT
HETATM    1  C1  UNL     1     -33.734  16.400  -2.865  1.00 20.00     0.132 C 
HETATM    2  C3  UNL     1     -35.019  15.859  -2.272  1.00 20.00     0.084 C 
HETATM    3  C4  UNL     1     -33.378  14.546  -4.379  1.00 20.00     0.013 C 
HETATM    4  C5  UNL     1     -34.680  13.919  -3.841  1.00 20.00     0.007 C 
HETATM    5  C6  UNL     1     -33.682  16.049  -4.341  1.00 20.00     0.068 C 
HETATM    6  C7  UNL     1     -35.180  16.131  -4.640  1.00 20.00     0.088 C 
HETATM    7  C8  UNL     1     -35.569  15.147  -3.530  1.00 20.00     0.006 C 
HETATM    8  O9  UNL     1     -32.864  16.993  -2.245  1.00 20.00    -0.298 OA
ENDROOT
BRANCH   6   9
HETATM    9  C2  UNL     1     -35.566  15.702  -6.021  1.00 20.00     0.224 C 
HETATM   10  O10 UNL     1     -36.598  15.074  -6.236  1.00 20.00    -0.279 OA
HETATM   11 CL11 UNL     1     -34.399  16.196  -7.210  1.00 20.00    -0.043 Cl
ENDBRANCH   6   9
TORSDOF 1
ENDMDL
