MODEL 1
REMARK VINA RESULT:      -4.5      0.000      0.000
REMARK  3 active torsions:
REMARK  status: ('A' for Active; 'I' for Inactive)
REMARK    1  A    between atoms: C1_1  and  C4_4 
REMARK    2  A    between atoms: C3_3  and  C7_7 
REMARK    3  A    between atoms: C7_7  and  O9_9 
ROOT
HETATM    1  C1  UNL     1     -34.699  15.450  -2.853  1.00 20.00    -0.066 C 
HETATM    2  C2  UNL     1     -34.926  16.130  -1.890  1.00 20.00    -0.108 C 
HETATM    3  C5  UNL     1     -35.202  16.958  -0.717  1.00 20.00     0.112 C 
ENDROOT
BRANCH   1   4
HETATM    4  C4  UNL     1     -34.429  14.638  -4.003  1.00 20.00     0.148 A 
HETATM    5  C3  UNL     1     -35.539  14.288  -4.973  1.00 20.00     0.194 A 
HETATM    6  O8  UNL     1     -35.102  13.369  -3.966  1.00 20.00    -0.354 OA
HETATM    7  C6  UNL     1     -33.007  14.544  -4.457  1.00 20.00     0.063 C 
BRANCH   5   8
HETATM    8  C7  UNL     1     -36.944  14.753  -4.815  1.00 20.00     0.200 C 
BRANCH   8   9
HETATM    9  O9  UNL     1     -37.778  13.662  -4.426  1.00 20.00    -0.398 OA
HETATM   10  H19 UNL     1     -38.237  13.369  -5.228  1.00 20.00     0.209 HD
ENDBRANCH   8   9
ENDBRANCH   5   8
ENDBRANCH   1   4
TORSDOF 3
ENDMDL
MODEL 2
REMARK VINA RESULT:      -3.9      1.377      1.546
REMARK  3 active torsions:
REMARK  status: ('A' for Active; 'I' for Inactive)
REMARK    1  A    between atoms: C1_1  and  C4_4 
REMARK    2  A    between atoms: C3_3  and  C7_7 
REMARK    3  A    between atoms: C7_7  and  O9_9 
ROOT
HETATM    1  C1  UNL     1     -34.194  15.646  -4.233  1.00 20.00    -0.066 C 
HETATM    2  C2  UNL     1     -33.762  16.250  -3.289  1.00 20.00    -0.108 C 
HETATM    3  C5  UNL     1     -33.236  16.983  -2.139  1.00 20.00     0.112 C 
ENDROOT
BRANCH   1   4
HETATM    4  C4  UNL     1     -34.711  14.927  -5.360  1.00 20.00     0.148 A 
HETATM    5  C3  UNL     1     -36.172  14.532  -5.414  1.00 20.00     0.194 A 
HETATM    6  O8  UNL     1     -35.157  13.602  -5.023  1.00 20.00    -0.354 OA
HETATM    7  C6  UNL     1     -33.923  14.985  -6.629  1.00 20.00     0.063 C 
BRANCH   5   8
HETATM    8  C7  UNL     1     -37.151  14.862  -4.343  1.00 20.00     0.200 C 
BRANCH   8   9
HETATM    9  O9  UNL     1     -38.197  13.890  -4.323  1.00 20.00    -0.398 OA
HETATM   10  H19 UNL     1     -37.890  13.146  -4.862  1.00 20.00     0.209 HD
ENDBRANCH   8   9
ENDBRANCH   5   8
ENDBRANCH   1   4
TORSDOF 3
ENDMDL
MODEL 3
REMARK VINA RESULT:      -3.9      1.824      2.130
REMARK  3 active torsions:
REMARK  status: ('A' for Active; 'I' for Inactive)
REMARK    1  A    between atoms: C1_1  and  C4_4 
REMARK    2  A    between atoms: C3_3  and  C7_7 
REMARK    3  A    between atoms: C7_7  and  O9_9 
ROOT
HETATM    1  C1  UNL     1     -34.215  16.186  -4.404  1.00 20.00    -0.066 C 
HETATM    2  C2  UNL     1     -33.833  16.591  -3.340  1.00 20.00    -0.108 C 
HETATM    3  C5  UNL     1     -33.367  17.084  -2.045  1.00 20.00     0.112 C 
ENDROOT
BRANCH   1   4
HETATM    4  C4  UNL     1     -34.671  15.702  -5.674  1.00 20.00     0.148 A 
HETATM    5  C3  UNL     1     -35.670  14.566  -5.748  1.00 20.00     0.194 A 
HETATM    6  O8  UNL     1     -34.269  14.348  -5.937  1.00 20.00    -0.354 OA
HETATM    7  C6  UNL     1     -34.510  16.610  -6.851  1.00 20.00     0.063 C 
BRANCH   5   8
HETATM    8  C7  UNL     1     -36.243  13.896  -4.548  1.00 20.00     0.200 C 
BRANCH   8   9
HETATM    9  O9  UNL     1     -35.786  12.545  -4.480  1.00 20.00    -0.398 OA
HETATM   10  H19 UNL     1     -35.292  12.465  -3.650  1.00 20.00     0.209 HD
ENDBRANCH   8   9
ENDBRANCH   5   8
ENDBRANCH   1   4
TORSDOF 3
ENDMDL
MODEL 4
REMARK VINA RESULT:      -3.8      1.769      3.316
REMARK  3 active torsions:
REMARK  status: ('A' for Active; 'I' for Inactive)
REMARK    1  A    between atoms: C1_1  and  C4_4 
REMARK    2  A    between atoms: C3_3  and  C7_7 
REMARK    3  A    between atoms: C7_7  and  O9_9 
ROOT
HETATM    1  C1  UNL     1     -36.298  14.995  -3.950  1.00 20.00    -0.066 C 
HETATM    2  C2  UNL     1     -37.481  14.885  -4.123  1.00 20.00    -0.108 C 
HETATM    3  C5  UNL     1     -38.922  14.751  -4.333  1.00 20.00     0.112 C 
ENDROOT
BRANCH   1   4
HETATM    4  C4  UNL     1     -34.886  15.128  -3.744  1.00 20.00     0.148 A 
HETATM    5  C3  UNL     1     -33.932  15.080  -4.919  1.00 20.00     0.194 A 
HETATM    6  O8  UNL     1     -34.155  13.938  -4.086  1.00 20.00    -0.354 OA
HETATM    7  C6  UNL     1     -34.436  15.756  -2.464  1.00 20.00     0.063 C 
BRANCH   5   8
HETATM    8  C7  UNL     1     -34.374  14.910  -6.330  1.00 20.00     0.200 C 
BRANCH   8   9
HETATM    9  O9  UNL     1     -33.255  14.587  -7.156  1.00 20.00    -0.398 OA
HETATM   10  H19 UNL     1     -33.470  14.908  -8.045  1.00 20.00     0.209 HD
ENDBRANCH   8   9
ENDBRANCH   5   8
ENDBRANCH   1   4
TORSDOF 3
ENDMDL
MODEL 5
REMARK VINA RESULT:      -3.7      1.537      2.782
REMARK  3 active torsions:
REMARK  status: ('A' for Active; 'I' for Inactive)
REMARK    1  A    between atoms: C1_1  and  C4_4 
REMARK    2  A    between atoms: C3_3  and  C7_7 
REMARK    3  A    between atoms: C7_7  and  O9_9 
ROOT
HETATM    1  C1  UNL     1     -35.485  15.822  -2.824  1.00 20.00    -0.066 C 
HETATM    2  C2  UNL     1     -35.254  16.425  -1.811  1.00 20.00    -0.108 C 
HETATM    3  C5  UNL     1     -34.973  17.160  -0.579  1.00 20.00     0.112 C 
ENDROOT
BRANCH   1   4
HETATM    4  C4  UNL     1     -35.761  15.102  -4.032  1.00 20.00     0.148 A 
HETATM    5  C3  UNL     1     -34.630  14.507  -4.845  1.00 20.00     0.194 A 
HETATM    6  O8  UNL     1     -35.239  15.751  -5.204  1.00 20.00    -0.354 OA
HETATM    7  C6  UNL     1     -37.147  14.572  -4.213  1.00 20.00     0.063 C 
BRANCH   5   8
HETATM    8  C7  UNL     1     -33.197  14.611  -4.457  1.00 20.00     0.200 C 
BRANCH   8   9
HETATM    9  O9  UNL     1     -32.585  13.322  -4.503  1.00 20.00    -0.398 OA
HETATM   10  H19 UNL     1     -33.155  12.768  -5.057  1.00 20.00     0.209 HD
ENDBRANCH   8   9
ENDBRANCH   5   8
ENDBRANCH   1   4
TORSDOF 3
ENDMDL
MODEL 6
REMARK VINA RESULT:      -3.5      2.255      3.396
REMARK  3 active torsions:
REMARK  status: ('A' for Active; 'I' for Inactive)
REMARK    1  A    between atoms: C1_1  and  C4_4 
REMARK    2  A    between atoms: C3_3  and  C7_7 
REMARK    3  A    between atoms: C7_7  and  O9_9 
ROOT
HETATM    1  C1  UNL     1     -33.511  17.028  -2.335  1.00 20.00    -0.066 C 
HETATM    2  C2  UNL     1     -32.671  17.607  -1.701  1.00 20.00    -0.108 C 
HETATM    3  C5  UNL     1     -31.649  18.311  -0.928  1.00 20.00     0.112 C 
ENDROOT
BRANCH   1   4
HETATM    4  C4  UNL     1     -34.513  16.338  -3.092  1.00 20.00     0.148 A 
HETATM    5  C3  UNL     1     -34.126  15.223  -4.041  1.00 20.00     0.194 A 
HETATM    6  O8  UNL     1     -34.392  16.549  -4.508  1.00 20.00    -0.354 OA
HETATM    7  C6  UNL     1     -35.922  16.419  -2.596  1.00 20.00     0.063 C 
BRANCH   5   8
HETATM    8  C7  UNL     1     -32.724  14.767  -4.243  1.00 20.00     0.200 C 
BRANCH   8   9
HETATM    9  O9  UNL     1     -32.702  13.368  -4.526  1.00 20.00    -0.398 OA
HETATM   10  H19 UNL     1     -33.295  13.233  -5.281  1.00 20.00     0.209 HD
ENDBRANCH   8   9
ENDBRANCH   5   8
ENDBRANCH   1   4
TORSDOF 3
ENDMDL
MODEL 7
REMARK VINA RESULT:      -3.5      3.395      4.997
REMARK  3 active torsions:
REMARK  status: ('A' for Active; 'I' for Inactive)
REMARK    1  A    between atoms: C1_1  and  C4_4 
REMARK    2  A    between atoms: C3_3  and  C7_7 
REMARK    3  A    between atoms: C7_7  and  O9_9 
ROOT
HETATM    1  C1  UNL     1     -33.606  16.757  -2.251  1.00 20.00    -0.066 C 
HETATM    2  C2  UNL     1     -33.827  15.852  -3.008  1.00 20.00    -0.108 C 
HETATM    3  C5  UNL     1     -34.095  14.749  -3.930  1.00 20.00     0.112 C 
ENDROOT
BRANCH   1   4
HETATM    4  C4  UNL     1     -33.344  17.838  -1.346  1.00 20.00     0.148 A 
HETATM    5  C3  UNL     1     -34.298  18.134  -0.208  1.00 20.00     0.194 A 
HETATM    6  O8  UNL     1     -34.323  18.887  -1.425  1.00 20.00    -0.354 OA
HETATM    7  C6  UNL     1     -31.938  18.340  -1.270  1.00 20.00     0.063 C 
BRANCH   5   8
HETATM    8  C7  UNL     1     -35.532  17.346   0.055  1.00 20.00     0.200 C 
BRANCH   8   9
HETATM    9  O9  UNL     1     -35.532  16.876   1.404  1.00 20.00    -0.398 OA
HETATM   10  H19 UNL     1     -34.698  16.398   1.527  1.00 20.00     0.209 HD
ENDBRANCH   8   9
ENDBRANCH   5   8
ENDBRANCH   1   4
TORSDOF 3
ENDMDL
MODEL 8
REMARK VINA RESULT:      -3.4      1.651      2.383
REMARK  3 active torsions:
REMARK  status: ('A' for Active; 'I' for Inactive)
REMARK    1  A    between atoms: C1_1  and  C4_4 
REMARK    2  A    between atoms: C3_3  and  C7_7 
REMARK    3  A    between atoms: C7_7  and  O9_9 
ROOT
HETATM    1  C1  UNL     1     -35.966  15.451  -3.520  1.00 20.00    -0.066 C 
HETATM    2  C2  UNL     1     -35.327  15.984  -2.655  1.00 20.00    -0.108 C 
HETATM    3  C5  UNL     1     -34.547  16.634  -1.602  1.00 20.00     0.112 C 
ENDROOT
BRANCH   1   4
HETATM    4  C4  UNL     1     -36.730  14.814  -4.552  1.00 20.00     0.148 A 
HETATM    5  C3  UNL     1     -38.211  15.097  -4.696  1.00 20.00     0.194 A 
HETATM    6  O8  UNL     1     -37.732  13.919  -4.038  1.00 20.00    -0.354 OA
HETATM    7  C6  UNL     1     -35.977  14.257  -5.717  1.00 20.00     0.063 C 
BRANCH   5   8
HETATM    8  C7  UNL     1     -38.957  16.035  -3.814  1.00 20.00     0.200 C 
BRANCH   8   9
HETATM    9  O9  UNL     1     -39.833  15.304  -2.955  1.00 20.00    -0.398 OA
HETATM   10  H19 UNL     1     -39.271  14.867  -2.298  1.00 20.00     0.209 HD
ENDBRANCH   8   9
ENDBRANCH   5   8
ENDBRANCH   1   4
TORSDOF 3
ENDMDL
MODEL 9
REMARK VINA RESULT:      -3.4      2.316      3.309
REMARK  3 active torsions:
REMARK  status: ('A' for Active; 'I' for Inactive)
REMARK    1  A    between atoms: C1_1  and  C4_4 
REMARK    2  A    between atoms: C3_3  and  C7_7 
REMARK    3  A    between atoms: C7_7  and  O9_9 
ROOT
HETATM    1  C1  UNL     1     -34.470  16.496  -5.204  1.00 20.00    -0.066 C 
HETATM    2  C2  UNL     1     -34.544  16.990  -6.296  1.00 20.00    -0.108 C 
HETATM    3  C5  UNL     1     -34.633  17.592  -7.626  1.00 20.00     0.112 C 
ENDROOT
BRANCH   1   4
HETATM    4  C4  UNL     1     -34.383  15.907  -3.901  1.00 20.00     0.148 A 
HETATM    5  C3  UNL     1     -35.153  14.644  -3.577  1.00 20.00     0.194 A 
HETATM    6  O8  UNL     1     -35.629  15.936  -3.187  1.00 20.00    -0.354 OA
HETATM    7  C6  UNL     1     -33.205  16.280  -3.058  1.00 20.00     0.063 C 
BRANCH   5   8
HETATM    8  C7  UNL     1     -36.021  13.937  -4.558  1.00 20.00     0.200 C 
BRANCH   8   9
HETATM    9  O9  UNL     1     -35.796  12.529  -4.482  1.00 20.00    -0.398 OA
HETATM   10  H19 UNL     1     -34.848  12.412  -4.316  1.00 20.00     0.209 HD
ENDBRANCH   8   9
ENDBRANCH   5   8
ENDBRANCH   1   4
TORSDOF 3
ENDMDL
