MODEL 1
REMARK VINA RESULT:      -4.1      0.000      0.000
REMARK  2 active torsions:
REMARK  status: ('A' for Active; 'I' for Inactive)
REMARK    1  A    between atoms: C1_1  and  C4_4 
REMARK    2  A    between atoms: C2_2  and  C5_5 
ROOT
HETATM    1  C5  UNL     1     -34.946  17.229  -0.765  1.00 20.00     0.235 A 
HETATM    2  C6  UNL     1     -33.812  18.144  -0.362  1.00 20.00     0.092 A 
HETATM    3  C8  UNL     1     -32.488  18.124  -1.063  1.00 20.00     0.049 C 
HETATM    4  C9  UNL     1     -33.824  18.724   1.018  1.00 20.00     0.049 C 
HETATM    5  O10 UNL     1     -34.894  18.598  -1.186  1.00 20.00    -0.357 OA
ENDROOT
BRANCH   1   6
HETATM    6  C2  UNL     1     -34.807  16.305  -1.861  1.00 20.00    -0.066 C 
HETATM    7  C1  UNL     1     -34.690  15.535  -2.776  1.00 20.00    -0.070 C 
BRANCH   7   8
HETATM    8  C4  UNL     1     -34.545  14.619  -3.861  1.00 20.00    -0.018 C 
HETATM    9  C3  UNL     1     -33.350  14.492  -4.457  1.00 20.00     0.028 C 
HETATM   10  C7  UNL     1     -35.737  13.822  -4.302  1.00 20.00     0.057 C 
ENDBRANCH   7   8
ENDBRANCH   1   6
TORSDOF 2
ENDMDL
MODEL 2
REMARK VINA RESULT:      -4.1      0.099      1.114
REMARK  2 active torsions:
REMARK  status: ('A' for Active; 'I' for Inactive)
REMARK    1  A    between atoms: C1_1  and  C4_4 
REMARK    2  A    between atoms: C2_2  and  C5_5 
ROOT
HETATM    1  C5  UNL     1     -34.911  17.284  -0.759  1.00 20.00     0.235 A 
HETATM    2  C6  UNL     1     -33.766  18.186  -0.357  1.00 20.00     0.092 A 
HETATM    3  C8  UNL     1     -32.436  18.138  -1.045  1.00 20.00     0.049 C 
HETATM    4  C9  UNL     1     -33.781  18.782   1.017  1.00 20.00     0.049 C 
HETATM    5  O10 UNL     1     -34.833  18.648  -1.195  1.00 20.00    -0.357 OA
ENDROOT
BRANCH   1   6
HETATM    6  C2  UNL     1     -34.776  16.346  -1.844  1.00 20.00    -0.066 C 
HETATM    7  C1  UNL     1     -34.663  15.564  -2.749  1.00 20.00    -0.070 C 
BRANCH   7   8
HETATM    8  C4  UNL     1     -34.524  14.631  -3.820  1.00 20.00    -0.018 C 
HETATM    9  C3  UNL     1     -35.591  13.919  -4.213  1.00 20.00     0.028 C 
HETATM   10  C7  UNL     1     -33.184  14.476  -4.477  1.00 20.00     0.057 C 
ENDBRANCH   7   8
ENDBRANCH   1   6
TORSDOF 2
ENDMDL
MODEL 3
REMARK VINA RESULT:      -4.0      2.406      5.229
REMARK  2 active torsions:
REMARK  status: ('A' for Active; 'I' for Inactive)
REMARK    1  A    between atoms: C1_1  and  C4_4 
REMARK    2  A    between atoms: C2_2  and  C5_5 
ROOT
HETATM    1  C5  UNL     1     -34.447  14.823  -3.383  1.00 20.00     0.235 A 
HETATM    2  C6  UNL     1     -35.223  14.773  -4.679  1.00 20.00     0.092 A 
HETATM    3  C8  UNL     1     -35.327  15.959  -5.589  1.00 20.00     0.049 C 
HETATM    4  C9  UNL     1     -36.279  13.723  -4.835  1.00 20.00     0.049 C 
HETATM    5  O10 UNL     1     -33.896  14.243  -4.571  1.00 20.00    -0.357 OA
ENDROOT
BRANCH   1   6
HETATM    6  C2  UNL     1     -33.753  16.017  -2.973  1.00 20.00    -0.066 C 
HETATM    7  C1  UNL     1     -33.174  17.012  -2.631  1.00 20.00    -0.070 C 
BRANCH   7   8
HETATM    8  C4  UNL     1     -32.481  18.191  -2.221  1.00 20.00    -0.018 C 
HETATM    9  C3  UNL     1     -32.475  19.263  -3.029  1.00 20.00     0.028 C 
HETATM   10  C7  UNL     1     -31.779  18.195  -0.896  1.00 20.00     0.057 C 
ENDBRANCH   7   8
ENDBRANCH   1   6
TORSDOF 2
ENDMDL
MODEL 4
REMARK VINA RESULT:      -4.0      1.144      1.473
REMARK  2 active torsions:
REMARK  status: ('A' for Active; 'I' for Inactive)
REMARK    1  A    between atoms: C1_1  and  C4_4 
REMARK    2  A    between atoms: C2_2  and  C5_5 
ROOT
HETATM    1  C5  UNL     1     -35.564  17.388   0.349  1.00 20.00     0.235 A 
HETATM    2  C6  UNL     1     -34.595  18.243   1.134  1.00 20.00     0.092 A 
HETATM    3  C8  UNL     1     -33.175  18.439   0.699  1.00 20.00     0.049 C 
HETATM    4  C9  UNL     1     -34.888  18.502   2.580  1.00 20.00     0.049 C 
HETATM    5  O10 UNL     1     -35.558  18.817   0.241  1.00 20.00    -0.357 OA
ENDROOT
BRANCH   1   6
HETATM    6  C2  UNL     1     -35.165  16.737  -0.872  1.00 20.00    -0.066 C 
HETATM    7  C1  UNL     1     -34.832  16.193  -1.890  1.00 20.00    -0.070 C 
BRANCH   7   8
HETATM    8  C4  UNL     1     -34.443  15.545  -3.101  1.00 20.00    -0.018 C 
HETATM    9  C3  UNL     1     -33.203  15.734  -3.578  1.00 20.00     0.028 C 
HETATM   10  C7  UNL     1     -35.436  14.668  -3.805  1.00 20.00     0.057 C 
ENDBRANCH   7   8
ENDBRANCH   1   6
TORSDOF 2
ENDMDL
MODEL 5
REMARK VINA RESULT:      -3.9      2.097      5.169
REMARK  2 active torsions:
REMARK  status: ('A' for Active; 'I' for Inactive)
REMARK    1  A    between atoms: C1_1  and  C4_4 
REMARK    2  A    between atoms: C2_2  and  C5_5 
ROOT
HETATM    1  C5  UNL     1     -34.908  14.819  -3.574  1.00 20.00     0.235 A 
HETATM    2  C6  UNL     1     -34.974  14.961  -5.078  1.00 20.00     0.092 A 
HETATM    3  C8  UNL     1     -34.476  16.185  -5.783  1.00 20.00     0.049 C 
HETATM    4  C9  UNL     1     -35.956  14.116  -5.828  1.00 20.00     0.049 C 
HETATM    5  O10 UNL     1     -33.940  14.206  -4.434  1.00 20.00    -0.357 OA
ENDROOT
BRANCH   1   6
HETATM    6  C2  UNL     1     -34.342  15.857  -2.750  1.00 20.00    -0.066 C 
HETATM    7  C1  UNL     1     -33.870  16.721  -2.063  1.00 20.00    -0.070 C 
BRANCH   7   8
HETATM    8  C4  UNL     1     -33.303  17.745  -1.246  1.00 20.00    -0.018 C 
HETATM    9  C3  UNL     1     -32.176  18.354  -1.645  1.00 20.00     0.028 C 
HETATM   10  C7  UNL     1     -33.986  18.110   0.038  1.00 20.00     0.057 C 
ENDBRANCH   7   8
ENDBRANCH   1   6
TORSDOF 2
ENDMDL
MODEL 6
REMARK VINA RESULT:      -3.8     12.815     14.666
REMARK  2 active torsions:
REMARK  status: ('A' for Active; 'I' for Inactive)
REMARK    1  A    between atoms: C1_1  and  C4_4 
REMARK    2  A    between atoms: C2_2  and  C5_5 
ROOT
HETATM    1  C5  UNL     1     -43.417   5.344  -1.132  1.00 20.00     0.235 A 
HETATM    2  C6  UNL     1     -42.344   6.236  -0.552  1.00 20.00     0.092 A 
HETATM    3  C8  UNL     1     -40.890   6.020  -0.840  1.00 20.00     0.049 C 
HETATM    4  C9  UNL     1     -42.666   7.028   0.677  1.00 20.00     0.049 C 
HETATM    5  O10 UNL     1     -43.109   6.622  -1.702  1.00 20.00    -0.357 OA
ENDROOT
BRANCH   1   6
HETATM    6  C2  UNL     1     -43.086   4.250  -2.009  1.00 20.00    -0.066 C 
HETATM    7  C1  UNL     1     -42.811   3.337  -2.739  1.00 20.00    -0.070 C 
BRANCH   7   8
HETATM    8  C4  UNL     1     -42.487   2.256  -3.613  1.00 20.00    -0.018 C 
HETATM    9  C3  UNL     1     -41.574   2.442  -4.578  1.00 20.00     0.028 C 
HETATM   10  C7  UNL     1     -43.181   0.939  -3.424  1.00 20.00     0.057 C 
ENDBRANCH   7   8
ENDBRANCH   1   6
TORSDOF 2
ENDMDL
MODEL 7
REMARK VINA RESULT:      -3.8     11.052     11.611
REMARK  2 active torsions:
REMARK  status: ('A' for Active; 'I' for Inactive)
REMARK    1  A    between atoms: C1_1  and  C4_4 
REMARK    2  A    between atoms: C2_2  and  C5_5 
ROOT
HETATM    1  C5  UNL     1     -34.040   5.370   3.684  1.00 20.00     0.235 A 
HETATM    2  C6  UNL     1     -34.343   5.742   5.118  1.00 20.00     0.092 A 
HETATM    3  C8  UNL     1     -34.090   7.119   5.652  1.00 20.00     0.049 C 
HETATM    4  C9  UNL     1     -34.439   4.644   6.131  1.00 20.00     0.049 C 
HETATM    5  O10 UNL     1     -35.368   5.691   4.117  1.00 20.00    -0.357 OA
ENDROOT
BRANCH   1   6
HETATM    6  C2  UNL     1     -33.508   6.337   2.758  1.00 20.00    -0.066 C 
HETATM    7  C1  UNL     1     -33.064   7.143   1.986  1.00 20.00    -0.070 C 
BRANCH   7   8
HETATM    8  C4  UNL     1     -32.541   8.098   1.063  1.00 20.00    -0.018 C 
HETATM    9  C3  UNL     1     -31.594   7.719   0.192  1.00 20.00     0.028 C 
HETATM   10  C7  UNL     1     -33.069   9.502   1.096  1.00 20.00     0.057 C 
ENDBRANCH   7   8
ENDBRANCH   1   6
TORSDOF 2
ENDMDL
MODEL 8
REMARK VINA RESULT:      -3.7      1.944      5.095
REMARK  2 active torsions:
REMARK  status: ('A' for Active; 'I' for Inactive)
REMARK    1  A    between atoms: C1_1  and  C4_4 
REMARK    2  A    between atoms: C2_2  and  C5_5 
ROOT
HETATM    1  C5  UNL     1     -35.484  15.564  -3.768  1.00 20.00     0.235 A 
HETATM    2  C6  UNL     1     -34.352  14.990  -4.590  1.00 20.00     0.092 A 
HETATM    3  C8  UNL     1     -32.923  15.089  -4.152  1.00 20.00     0.049 C 
HETATM    4  C9  UNL     1     -34.584  14.753  -6.050  1.00 20.00     0.049 C 
HETATM    5  O10 UNL     1     -35.161  14.168  -3.738  1.00 20.00    -0.357 OA
ENDROOT
BRANCH   1   6
HETATM    6  C2  UNL     1     -35.236  16.219  -2.509  1.00 20.00    -0.066 C 
HETATM    7  C1  UNL     1     -35.029  16.765  -1.459  1.00 20.00    -0.070 C 
BRANCH   7   8
HETATM    8  C4  UNL     1     -34.778  17.409  -0.211  1.00 20.00    -0.018 C 
HETATM    9  C3  UNL     1     -35.660  17.267   0.790  1.00 20.00     0.028 C 
HETATM   10  C7  UNL     1     -33.530  18.227  -0.055  1.00 20.00     0.057 C 
ENDBRANCH   7   8
ENDBRANCH   1   6
TORSDOF 2
ENDMDL
MODEL 9
REMARK VINA RESULT:      -3.6      1.770      4.957
REMARK  2 active torsions:
REMARK  status: ('A' for Active; 'I' for Inactive)
REMARK    1  A    between atoms: C1_1  and  C4_4 
REMARK    2  A    between atoms: C2_2  and  C5_5 
ROOT
HETATM    1  C5  UNL     1     -33.438  16.263  -2.875  1.00 20.00     0.235 A 
HETATM    2  C6  UNL     1     -33.865  15.168  -3.826  1.00 20.00     0.092 A 
HETATM    3  C8  UNL     1     -35.218  14.529  -3.746  1.00 20.00     0.049 C 
HETATM    4  C9  UNL     1     -32.802  14.384  -4.530  1.00 20.00     0.049 C 
HETATM    5  O10 UNL     1     -33.902  16.552  -4.199  1.00 20.00    -0.357 OA
ENDROOT
BRANCH   1   6
HETATM    6  C2  UNL     1     -34.327  16.755  -1.854  1.00 20.00    -0.066 C 
HETATM    7  C1  UNL     1     -35.069  17.166  -1.004  1.00 20.00    -0.070 C 
BRANCH   7   8
HETATM    8  C4  UNL     1     -35.956  17.652   0.003  1.00 20.00    -0.018 C 
HETATM    9  C3  UNL     1     -37.192  18.044  -0.345  1.00 20.00     0.028 C 
HETATM   10  C7  UNL     1     -35.479  17.709   1.424  1.00 20.00     0.057 C 
ENDBRANCH   7   8
ENDBRANCH   1   6
TORSDOF 2
ENDMDL
