MODEL 1
REMARK VINA RESULT:      -4.8      0.000      0.000
REMARK  4 active torsions:
REMARK  status: ('A' for Active; 'I' for Inactive)
REMARK    1  A    between atoms: C1_1  and  C4_4 
REMARK    2  A    between atoms: C5_5  and  C8_8 
REMARK    3  A    between atoms: C8_8  and  C10_10 
REMARK    4  A    between atoms: C9_9  and  C10_10 
ROOT
HETATM    1  C2  UNL     1     -33.552  14.616  -4.326  1.00 20.00     0.016 C 
HETATM    2  C3  UNL     1     -34.963  16.131  -4.906  1.00 20.00     0.016 C 
HETATM    3  C4  UNL     1     -34.843  14.614  -5.173  1.00 20.00     0.055 C 
HETATM    4  C5  UNL     1     -33.963  15.984  -3.737  1.00 20.00    -0.013 C 
ENDROOT
BRANCH   4   5
HETATM    5  C8  UNL     1     -34.564  15.959  -2.340  1.00 20.00     0.005 C 
BRANCH   5   6
HETATM    6  C10 UNL     1     -34.050  17.115  -1.481  1.00 20.00     0.000 C 
BRANCH   6   7
HETATM    7  C9  UNL     1     -32.806  17.760  -2.093  1.00 20.00    -0.005 C 
HETATM    8  C7  UNL     1     -31.829  18.217  -1.022  1.00 20.00     0.005 C 
ENDBRANCH   6   7
ENDBRANCH   5   6
ENDBRANCH   4   5
BRANCH   3   9
HETATM    9  C1  UNL     1     -35.958  13.781  -4.635  1.00 20.00     0.127 C 
HETATM   10  C6  UNL     1     -37.267  14.482  -4.388  1.00 20.00     0.091 C 
HETATM   11  O11 UNL     1     -35.815  12.581  -4.405  1.00 20.00    -0.298 OA
ENDBRANCH   3   9
TORSDOF 4
ENDMDL
MODEL 2
REMARK VINA RESULT:      -4.5      1.057      1.466
REMARK  4 active torsions:
REMARK  status: ('A' for Active; 'I' for Inactive)
REMARK    1  A    between atoms: C1_1  and  C4_4 
REMARK    2  A    between atoms: C5_5  and  C8_8 
REMARK    3  A    between atoms: C8_8  and  C10_10 
REMARK    4  A    between atoms: C9_9  and  C10_10 
ROOT
HETATM    1  C2  UNL     1     -33.624  14.618  -4.169  1.00 20.00     0.016 C 
HETATM    2  C3  UNL     1     -35.038  16.122  -4.773  1.00 20.00     0.016 C 
HETATM    3  C4  UNL     1     -34.871  14.617  -5.082  1.00 20.00     0.055 C 
HETATM    4  C5  UNL     1     -34.097  15.957  -3.559  1.00 20.00    -0.013 C 
ENDROOT
BRANCH   4   5
HETATM    5  C8  UNL     1     -34.768  15.874  -2.197  1.00 20.00     0.005 C 
BRANCH   5   6
HETATM    6  C10 UNL     1     -34.445  17.093  -1.331  1.00 20.00     0.000 C 
BRANCH   6   7
HETATM    7  C9  UNL     1     -35.350  17.164  -0.100  1.00 20.00    -0.005 C 
HETATM    8  C7  UNL     1     -34.660  17.861   1.061  1.00 20.00     0.005 C 
ENDBRANCH   6   7
ENDBRANCH   5   6
ENDBRANCH   4   5
BRANCH   3   9
HETATM    9  C1  UNL     1     -35.992  13.744  -4.628  1.00 20.00     0.127 C 
HETATM   10  C6  UNL     1     -37.328  14.408  -4.430  1.00 20.00     0.091 C 
HETATM   11  O11 UNL     1     -35.833  12.541  -4.428  1.00 20.00    -0.298 OA
ENDBRANCH   3   9
TORSDOF 4
ENDMDL
MODEL 3
REMARK VINA RESULT:      -4.2     16.463     17.921
REMARK  4 active torsions:
REMARK  status: ('A' for Active; 'I' for Inactive)
REMARK    1  A    between atoms: C1_1  and  C4_4 
REMARK    2  A    between atoms: C5_5  and  C8_8 
REMARK    3  A    between atoms: C8_8  and  C10_10 
REMARK    4  A    between atoms: C9_9  and  C10_10 
ROOT
HETATM    1  C2  UNL     1     -24.116  16.567  10.435  1.00 20.00     0.016 C 
HETATM    2  C3  UNL     1     -22.814  17.760  11.662  1.00 20.00     0.016 C 
HETATM    3  C4  UNL     1     -22.802  17.336  10.176  1.00 20.00     0.055 C 
HETATM    4  C5  UNL     1     -24.308  17.374  11.740  1.00 20.00    -0.013 C 
ENDROOT
BRANCH   4   5
HETATM    5  C8  UNL     1     -25.302  18.524  11.677  1.00 20.00     0.005 C 
BRANCH   5   6
HETATM    6  C10 UNL     1     -26.654  18.137  12.279  1.00 20.00     0.000 C 
BRANCH   6   7
HETATM    7  C9  UNL     1     -27.802  18.903  11.621  1.00 20.00    -0.005 C 
HETATM    8  C7  UNL     1     -29.146  18.260  11.920  1.00 20.00     0.005 C 
ENDBRANCH   6   7
ENDBRANCH   5   6
ENDBRANCH   4   5
BRANCH   3   9
HETATM    9  C1  UNL     1     -22.900  18.453   9.193  1.00 20.00     0.127 C 
HETATM   10  C6  UNL     1     -24.173  18.543   8.396  1.00 20.00     0.091 C 
HETATM   11  O11 UNL     1     -21.986  19.262   9.042  1.00 20.00    -0.298 OA
ENDBRANCH   3   9
TORSDOF 4
ENDMDL
MODEL 4
REMARK VINA RESULT:      -4.2      1.415      2.016
REMARK  4 active torsions:
REMARK  status: ('A' for Active; 'I' for Inactive)
REMARK    1  A    between atoms: C1_1  and  C4_4 
REMARK    2  A    between atoms: C5_5  and  C8_8 
REMARK    3  A    between atoms: C8_8  and  C10_10 
REMARK    4  A    between atoms: C9_9  and  C10_10 
ROOT
HETATM    1  C2  UNL     1     -35.017  15.121  -3.121  1.00 20.00     0.016 C 
HETATM    2  C3  UNL     1     -33.218  14.658  -4.203  1.00 20.00     0.016 C 
HETATM    3  C4  UNL     1     -34.704  14.273  -4.373  1.00 20.00     0.055 C 
HETATM    4  C5  UNL     1     -33.645  15.814  -3.271  1.00 20.00    -0.013 C 
ENDROOT
BRANCH   4   5
HETATM    5  C8  UNL     1     -33.660  17.203  -3.891  1.00 20.00     0.005 C 
BRANCH   5   6
HETATM    6  C10 UNL     1     -32.892  18.214  -3.035  1.00 20.00     0.000 C 
BRANCH   6   7
HETATM    7  C9  UNL     1     -32.834  17.780  -1.570  1.00 20.00    -0.005 C 
HETATM    8  C7  UNL     1     -31.603  18.334  -0.873  1.00 20.00     0.005 C 
ENDBRANCH   6   7
ENDBRANCH   5   6
ENDBRANCH   4   5
BRANCH   3   9
HETATM    9  C1  UNL     1     -35.344  14.742  -5.637  1.00 20.00     0.127 C 
HETATM   10  C6  UNL     1     -34.421  15.091  -6.773  1.00 20.00     0.091 C 
HETATM   11  O11 UNL     1     -36.566  14.836  -5.746  1.00 20.00    -0.298 OA
ENDBRANCH   3   9
TORSDOF 4
ENDMDL
MODEL 5
REMARK VINA RESULT:      -4.1     11.382     12.211
REMARK  4 active torsions:
REMARK  status: ('A' for Active; 'I' for Inactive)
REMARK    1  A    between atoms: C1_1  and  C4_4 
REMARK    2  A    between atoms: C5_5  and  C8_8 
REMARK    3  A    between atoms: C8_8  and  C10_10 
REMARK    4  A    between atoms: C9_9  and  C10_10 
ROOT
HETATM    1  C2  UNL     1     -33.909   4.325   3.484  1.00 20.00     0.016 C 
HETATM    2  C3  UNL     1     -35.204   6.042   3.439  1.00 20.00     0.016 C 
HETATM    3  C4  UNL     1     -34.930   4.928   4.474  1.00 20.00     0.055 C 
HETATM    4  C5  UNL     1     -33.889   5.668   2.719  1.00 20.00    -0.013 C 
ENDROOT
BRANCH   4   5
HETATM    5  C8  UNL     1     -32.697   6.574   2.986  1.00 20.00     0.005 C 
BRANCH   5   6
HETATM    6  C10 UNL     1     -32.195   7.242   1.704  1.00 20.00     0.000 C 
BRANCH   6   7
HETATM    7  C9  UNL     1     -32.965   8.528   1.402  1.00 20.00    -0.005 C 
HETATM    8  C7  UNL     1     -33.226   8.686  -0.087  1.00 20.00     0.005 C 
ENDBRANCH   6   7
ENDBRANCH   5   6
ENDBRANCH   4   5
BRANCH   3   9
HETATM    9  C1  UNL     1     -34.362   5.390   5.774  1.00 20.00     0.127 C 
HETATM   10  C6  UNL     1     -34.232   6.877   5.964  1.00 20.00     0.091 C 
HETATM   11  O11 UNL     1     -34.019   4.595   6.648  1.00 20.00    -0.298 OA
ENDBRANCH   3   9
TORSDOF 4
ENDMDL
MODEL 6
REMARK VINA RESULT:      -4.0      2.938      5.913
REMARK  4 active torsions:
REMARK  status: ('A' for Active; 'I' for Inactive)
REMARK    1  A    between atoms: C1_1  and  C4_4 
REMARK    2  A    between atoms: C5_5  and  C8_8 
REMARK    3  A    between atoms: C8_8  and  C10_10 
REMARK    4  A    between atoms: C9_9  and  C10_10 
ROOT
HETATM    1  C2  UNL     1     -33.959  17.931  -0.461  1.00 20.00     0.016 C 
HETATM    2  C3  UNL     1     -33.011  19.262  -1.859  1.00 20.00     0.016 C 
HETATM    3  C4  UNL     1     -32.873  19.022  -0.338  1.00 20.00     0.055 C 
HETATM    4  C5  UNL     1     -33.727  17.899  -1.988  1.00 20.00    -0.013 C 
ENDROOT
BRANCH   4   5
HETATM    5  C8  UNL     1     -32.885  16.747  -2.515  1.00 20.00     0.005 C 
BRANCH   5   6
HETATM    6  C10 UNL     1     -33.603  15.985  -3.630  1.00 20.00     0.000 C 
BRANCH   6   7
HETATM    7  C9  UNL     1     -34.853  15.274  -3.111  1.00 20.00    -0.005 C 
HETATM    8  C7  UNL     1     -35.167  14.031  -3.928  1.00 20.00     0.005 C 
ENDBRANCH   6   7
ENDBRANCH   5   6
ENDBRANCH   4   5
BRANCH   3   9
HETATM    9  C1  UNL     1     -31.535  18.542   0.113  1.00 20.00     0.127 C 
HETATM   10  C6  UNL     1     -31.403  18.172   1.566  1.00 20.00     0.091 C 
HETATM   11  O11 UNL     1     -30.586  18.450  -0.665  1.00 20.00    -0.298 OA
ENDBRANCH   3   9
TORSDOF 4
ENDMDL
MODEL 7
REMARK VINA RESULT:      -4.0      1.533      2.039
REMARK  4 active torsions:
REMARK  status: ('A' for Active; 'I' for Inactive)
REMARK    1  A    between atoms: C1_1  and  C4_4 
REMARK    2  A    between atoms: C5_5  and  C8_8 
REMARK    3  A    between atoms: C8_8  and  C10_10 
REMARK    4  A    between atoms: C9_9  and  C10_10 
ROOT
HETATM    1  C2  UNL     1     -36.185  15.380  -3.912  1.00 20.00     0.016 C 
HETATM    2  C3  UNL     1     -34.622  13.904  -3.843  1.00 20.00     0.016 C 
HETATM    3  C4  UNL     1     -35.646  14.337  -4.916  1.00 20.00     0.055 C 
HETATM    4  C5  UNL     1     -34.888  15.224  -3.085  1.00 20.00    -0.013 C 
ENDROOT
BRANCH   4   5
HETATM    5  C8  UNL     1     -33.846  16.318  -3.258  1.00 20.00     0.005 C 
BRANCH   5   6
HETATM    6  C10 UNL     1     -33.605  17.083  -1.955  1.00 20.00     0.000 C 
BRANCH   6   7
HETATM    7  C9  UNL     1     -32.516  18.143  -2.119  1.00 20.00    -0.005 C 
HETATM    8  C7  UNL     1     -31.684  18.289  -0.855  1.00 20.00     0.005 C 
ENDBRANCH   6   7
ENDBRANCH   5   6
ENDBRANCH   4   5
BRANCH   3   9
HETATM    9  C1  UNL     1     -35.061  14.900  -6.167  1.00 20.00     0.127 C 
HETATM   10  C6  UNL     1     -35.958  15.775  -7.000  1.00 20.00     0.091 C 
HETATM   11  O11 UNL     1     -33.901  14.662  -6.501  1.00 20.00    -0.298 OA
ENDBRANCH   3   9
TORSDOF 4
ENDMDL
MODEL 8
REMARK VINA RESULT:      -4.0      1.283      1.338
REMARK  4 active torsions:
REMARK  status: ('A' for Active; 'I' for Inactive)
REMARK    1  A    between atoms: C1_1  and  C4_4 
REMARK    2  A    between atoms: C5_5  and  C8_8 
REMARK    3  A    between atoms: C8_8  and  C10_10 
REMARK    4  A    between atoms: C9_9  and  C10_10 
ROOT
HETATM    1  C2  UNL     1     -33.683  14.487  -4.229  1.00 20.00     0.016 C 
HETATM    2  C3  UNL     1     -34.108  16.508  -4.829  1.00 20.00     0.016 C 
HETATM    3  C4  UNL     1     -34.249  15.130  -5.514  1.00 20.00     0.055 C 
HETATM    4  C5  UNL     1     -33.988  15.794  -3.464  1.00 20.00    -0.013 C 
ENDROOT
BRANCH   4   5
HETATM    5  C8  UNL     1     -35.239  15.789  -2.599  1.00 20.00     0.005 C 
BRANCH   5   6
HETATM    6  C10 UNL     1     -35.037  16.579  -1.304  1.00 20.00     0.000 C 
BRANCH   6   7
HETATM    7  C9  UNL     1     -34.318  17.903  -1.561  1.00 20.00    -0.005 C 
HETATM    8  C7  UNL     1     -33.197  18.133  -0.560  1.00 20.00     0.005 C 
ENDBRANCH   6   7
ENDBRANCH   5   6
ENDBRANCH   4   5
BRANCH   3   9
HETATM    9  C1  UNL     1     -35.644  14.732  -5.865  1.00 20.00     0.127 C 
HETATM   10  C6  UNL     1     -36.580  15.838  -6.272  1.00 20.00     0.091 C 
HETATM   11  O11 UNL     1     -36.010  13.558  -5.826  1.00 20.00    -0.298 OA
ENDBRANCH   3   9
TORSDOF 4
ENDMDL
MODEL 9
REMARK VINA RESULT:      -4.0     10.768     13.488
REMARK  4 active torsions:
REMARK  status: ('A' for Active; 'I' for Inactive)
REMARK    1  A    between atoms: C1_1  and  C4_4 
REMARK    2  A    between atoms: C5_5  and  C8_8 
REMARK    3  A    between atoms: C8_8  and  C10_10 
REMARK    4  A    between atoms: C9_9  and  C10_10 
ROOT
HETATM    1  C2  UNL     1     -40.836   6.351  -0.975  1.00 20.00     0.016 C 
HETATM    2  C3  UNL     1     -41.899   5.475   0.676  1.00 20.00     0.016 C 
HETATM    3  C4  UNL     1     -41.230   6.846   0.434  1.00 20.00     0.055 C 
HETATM    4  C5  UNL     1     -41.879   5.218  -0.847  1.00 20.00    -0.013 C 
ENDROOT
BRANCH   4   5
HETATM    5  C8  UNL     1     -43.195   5.433  -1.580  1.00 20.00     0.005 C 
BRANCH   5   6
HETATM    6  C10 UNL     1     -43.407   4.392  -2.681  1.00 20.00     0.000 C 
BRANCH   6   7
HETATM    7  C9  UNL     1     -42.407   3.240  -2.565  1.00 20.00    -0.005 C 
HETATM    8  C7  UNL     1     -41.924   2.782  -3.931  1.00 20.00     0.005 C 
ENDBRANCH   6   7
ENDBRANCH   5   6
ENDBRANCH   4   5
BRANCH   3   9
HETATM    9  C1  UNL     1     -42.152   8.019   0.462  1.00 20.00     0.127 C 
HETATM   10  C6  UNL     1     -41.548   9.361   0.147  1.00 20.00     0.091 C 
HETATM   11  O11 UNL     1     -43.346   7.896   0.728  1.00 20.00    -0.298 OA
ENDBRANCH   3   9
TORSDOF 4
ENDMDL
