MODEL 1
REMARK VINA RESULT:      -5.1      0.000      0.000
REMARK  0 active torsions:
REMARK  status: ('A' for Active; 'I' for Inactive)
ROOT
HETATM    1  C1  UNL     1     -34.958   5.536   5.037  1.00 20.00     0.251 C 
HETATM    2  C2  UNL     1     -33.756   6.449   5.171  1.00 20.00     0.251 C 
HETATM    3  C3  UNL     1     -34.553   4.454   4.057  1.00 20.00     0.271 C 
HETATM    4  C4  UNL     1     -33.353   6.830   3.760  1.00 20.00     0.271 C 
HETATM    5  F5  UNL     1     -35.255   4.983   6.237  1.00 20.00    -0.242 F 
HETATM    6  F6  UNL     1     -34.111   7.566   5.857  1.00 20.00    -0.242 F 
HETATM    7  F7  UNL     1     -33.690   3.599   4.669  1.00 20.00    -0.235 F 
HETATM    8  F8  UNL     1     -32.042   7.178   3.738  1.00 20.00    -0.235 F 
HETATM    9  S9  UNL     1     -33.659   5.352   2.757  1.00 20.00    -0.089 SA
ENDROOT
TORSDOF 0
ENDMDL
MODEL 2
REMARK VINA RESULT:      -4.8      1.827      2.693
REMARK  0 active torsions:
REMARK  status: ('A' for Active; 'I' for Inactive)
ROOT
HETATM    1  C1  UNL     1     -33.738   5.308   3.574  1.00 20.00     0.251 C 
HETATM    2  C2  UNL     1     -33.572   6.733   4.060  1.00 20.00     0.251 C 
HETATM    3  C3  UNL     1     -34.948   4.758   4.301  1.00 20.00     0.271 C 
HETATM    4  C4  UNL     1     -33.569   6.668   5.574  1.00 20.00     0.271 C 
HETATM    5  F5  UNL     1     -33.959   5.296   2.238  1.00 20.00    -0.242 F 
HETATM    6  F6  UNL     1     -32.381   7.223   3.626  1.00 20.00    -0.242 F 
HETATM    7  F7  UNL     1     -36.073   5.307   3.771  1.00 20.00    -0.235 F 
HETATM    8  F8  UNL     1     -33.953   7.866   6.083  1.00 20.00    -0.235 F 
HETATM    9  S9  UNL     1     -34.750   5.363   6.001  1.00 20.00    -0.089 SA
ENDROOT
TORSDOF 0
ENDMDL
MODEL 3
REMARK VINA RESULT:      -4.3      1.642      3.700
REMARK  0 active torsions:
REMARK  status: ('A' for Active; 'I' for Inactive)
ROOT
HETATM    1  C1  UNL     1     -33.364   6.437   2.853  1.00 20.00     0.251 C 
HETATM    2  C2  UNL     1     -33.050   4.970   3.066  1.00 20.00     0.251 C 
HETATM    3  C3  UNL     1     -33.800   6.970   4.202  1.00 20.00     0.271 C 
HETATM    4  C4  UNL     1     -34.262   4.372   3.751  1.00 20.00     0.271 C 
HETATM    5  F5  UNL     1     -32.255   7.092   2.435  1.00 20.00    -0.242 F 
HETATM    6  F6  UNL     1     -32.867   4.367   1.862  1.00 20.00    -0.242 F 
HETATM    7  F7  UNL     1     -32.711   7.090   5.007  1.00 20.00    -0.235 F 
HETATM    8  F8  UNL     1     -33.896   3.261   4.439  1.00 20.00    -0.235 F 
HETATM    9  S9  UNL     1     -34.872   5.664   4.864  1.00 20.00    -0.089 SA
ENDROOT
TORSDOF 0
ENDMDL
MODEL 4
REMARK VINA RESULT:      -4.3      1.467      1.742
REMARK  0 active torsions:
REMARK  status: ('A' for Active; 'I' for Inactive)
ROOT
HETATM    1  C1  UNL     1     -34.514   5.143   3.741  1.00 20.00     0.251 C 
HETATM    2  C2  UNL     1     -33.897   5.828   4.943  1.00 20.00     0.251 C 
HETATM    3  C3  UNL     1     -33.482   5.229   2.636  1.00 20.00     0.271 C 
HETATM    4  C4  UNL     1     -33.427   7.186   4.462  1.00 20.00     0.271 C 
HETATM    5  F5  UNL     1     -34.773   3.845   4.030  1.00 20.00    -0.242 F 
HETATM    6  F6  UNL     1     -34.841   5.991   5.906  1.00 20.00    -0.242 F 
HETATM    7  F7  UNL     1     -32.474   4.354   2.898  1.00 20.00    -0.235 F 
HETATM    8  F8  UNL     1     -32.432   7.637   5.267  1.00 20.00    -0.235 F 
HETATM    9  S9  UNL     1     -32.835   6.919   2.771  1.00 20.00    -0.089 SA
ENDROOT
TORSDOF 0
ENDMDL
MODEL 5
REMARK VINA RESULT:      -4.3      1.377      2.344
REMARK  0 active torsions:
REMARK  status: ('A' for Active; 'I' for Inactive)
ROOT
HETATM    1  C1  UNL     1     -33.996   6.870   4.945  1.00 20.00     0.251 C 
HETATM    2  C2  UNL     1     -32.996   6.336   3.940  1.00 20.00     0.251 C 
HETATM    3  C3  UNL     1     -34.703   5.658   5.514  1.00 20.00     0.271 C 
HETATM    4  C4  UNL     1     -33.772   5.420   3.015  1.00 20.00     0.271 C 
HETATM    5  F5  UNL     1     -33.349   7.533   5.934  1.00 20.00    -0.242 F 
HETATM    6  F6  UNL     1     -32.478   7.368   3.224  1.00 20.00    -0.242 F 
HETATM    7  F7  UNL     1     -33.861   5.008   6.361  1.00 20.00    -0.235 F 
HETATM    8  F8  UNL     1     -32.930   4.518   2.452  1.00 20.00    -0.235 F 
HETATM    9  S9  UNL     1     -35.001   4.604   4.067  1.00 20.00    -0.089 SA
ENDROOT
TORSDOF 0
ENDMDL
MODEL 6
REMARK VINA RESULT:      -4.2      1.835      2.756
REMARK  0 active torsions:
REMARK  status: ('A' for Active; 'I' for Inactive)
ROOT
HETATM    1  C1  UNL     1     -33.859   4.495   3.994  1.00 20.00     0.251 C 
HETATM    2  C2  UNL     1     -33.478   5.202   2.709  1.00 20.00     0.251 C 
HETATM    3  C3  UNL     1     -34.670   5.492   4.795  1.00 20.00     0.271 C 
HETATM    4  C4  UNL     1     -32.850   6.518   3.120  1.00 20.00     0.271 C 
HETATM    5  F5  UNL     1     -34.614   3.405   3.716  1.00 20.00    -0.242 F 
HETATM    6  F6  UNL     1     -32.564   4.456   2.036  1.00 20.00    -0.242 F 
HETATM    7  F7  UNL     1     -35.903   5.617   4.234  1.00 20.00    -0.235 F 
HETATM    8  F8  UNL     1     -32.964   7.415   2.108  1.00 20.00    -0.235 F 
HETATM    9  S9  UNL     1     -33.774   7.056   4.582  1.00 20.00    -0.089 SA
ENDROOT
TORSDOF 0
ENDMDL
MODEL 7
REMARK VINA RESULT:      -4.0      1.427      3.113
REMARK  0 active torsions:
REMARK  status: ('A' for Active; 'I' for Inactive)
ROOT
HETATM    1  C1  UNL     1     -32.499   6.826   4.087  1.00 20.00     0.251 C 
HETATM    2  C2  UNL     1     -33.934   6.810   4.571  1.00 20.00     0.251 C 
HETATM    3  C3  UNL     1     -32.541   6.378   2.641  1.00 20.00     0.271 C 
HETATM    4  C4  UNL     1     -34.482   5.439   4.228  1.00 20.00     0.271 C 
HETATM    5  F5  UNL     1     -31.997   8.081   4.166  1.00 20.00    -0.242 F 
HETATM    6  F6  UNL     1     -33.960   6.983   5.918  1.00 20.00    -0.242 F 
HETATM    7  F7  UNL     1     -33.045   7.384   1.877  1.00 20.00    -0.235 F 
HETATM    8  F8  UNL     1     -35.834   5.500   4.126  1.00 20.00    -0.235 F 
HETATM    9  S9  UNL     1     -33.723   5.000   2.643  1.00 20.00    -0.089 SA
ENDROOT
TORSDOF 0
ENDMDL
MODEL 8
REMARK VINA RESULT:      -3.9     16.211     17.146
REMARK  0 active torsions:
REMARK  status: ('A' for Active; 'I' for Inactive)
ROOT
HETATM    1  C1  UNL     1     -23.183  17.905  11.477  1.00 20.00     0.251 C 
HETATM    2  C2  UNL     1     -22.627  17.736  10.078  1.00 20.00     0.251 C 
HETATM    3  C3  UNL     1     -24.690  17.857  11.335  1.00 20.00     0.271 C 
HETATM    4  C4  UNL     1     -23.330  18.764   9.214  1.00 20.00     0.271 C 
HETATM    5  F5  UNL     1     -22.762  16.890  12.269  1.00 20.00    -0.242 F 
HETATM    6  F6  UNL     1     -21.293  17.990  10.087  1.00 20.00    -0.242 F 
HETATM    7  F7  UNL     1     -25.074  16.575  11.096  1.00 20.00    -0.235 F 
HETATM    8  F8  UNL     1     -23.313  18.361   7.919  1.00 20.00    -0.235 F 
HETATM    9  S9  UNL     1     -25.023  18.851   9.853  1.00 20.00    -0.089 SA
ENDROOT
TORSDOF 0
ENDMDL
MODEL 9
REMARK VINA RESULT:      -3.9     12.090     12.752
REMARK  0 active torsions:
REMARK  status: ('A' for Active; 'I' for Inactive)
ROOT
HETATM    1  C1  UNL     1     -33.953  15.911  -3.559  1.00 20.00     0.251 C 
HETATM    2  C2  UNL     1     -34.074  14.420  -3.800  1.00 20.00     0.251 C 
HETATM    3  C3  UNL     1     -35.237  16.328  -2.873  1.00 20.00     0.271 C 
HETATM    4  C4  UNL     1     -35.400  14.211  -4.504  1.00 20.00     0.271 C 
HETATM    5  F5  UNL     1     -32.896  16.164  -2.751  1.00 20.00    -0.242 F 
HETATM    6  F6  UNL     1     -33.063  14.008  -4.609  1.00 20.00    -0.242 F 
HETATM    7  F7  UNL     1     -35.217  15.891  -1.586  1.00 20.00    -0.235 F 
HETATM    8  F8  UNL     1     -35.835  12.944  -4.291  1.00 20.00    -0.235 F 
HETATM    9  S9  UNL     1     -36.529  15.426  -3.774  1.00 20.00    -0.089 SA
ENDROOT
TORSDOF 0
ENDMDL
