MODEL 1
REMARK VINA RESULT:      -4.8      0.000      0.000
REMARK  2 active torsions:
REMARK  status: ('A' for Active; 'I' for Inactive)
REMARK    1  A    between atoms: C1_1  and  C7_7 
REMARK    2  A    between atoms: C4_4  and  C7_7 
ROOT
HETATM    1  C6  UNL     1     -33.440   4.971   2.291  1.00 20.00     0.018 C 
HETATM    2  C7  UNL     1     -33.091   5.846   3.491  1.00 20.00     0.055 C 
ENDROOT
BRANCH   2   3
HETATM    3  C1  UNL     1     -32.376   7.120   3.050  1.00 20.00     0.127 C 
HETATM    4  C5  UNL     1     -32.625   7.587   1.638  1.00 20.00     0.091 C 
HETATM    5  O8  UNL     1     -31.607   7.735   3.788  1.00 20.00    -0.298 OA
ENDBRANCH   2   3
BRANCH   2   6
HETATM    6  C4  UNL     1     -34.342   6.202   4.286  1.00 20.00    -0.004 A 
HETATM    7  C2  UNL     1     -35.140   5.124   4.964  1.00 20.00     0.006 A 
HETATM    8  C3  UNL     1     -34.339   6.094   5.786  1.00 20.00     0.006 A 
ENDBRANCH   2   6
TORSDOF 2
ENDMDL
MODEL 2
REMARK VINA RESULT:      -4.5      1.020      1.214
REMARK  2 active torsions:
REMARK  status: ('A' for Active; 'I' for Inactive)
REMARK    1  A    between atoms: C1_1  and  C7_7 
REMARK    2  A    between atoms: C4_4  and  C7_7 
ROOT
HETATM    1  C6  UNL     1     -33.626   4.739   2.475  1.00 20.00     0.018 C 
HETATM    2  C7  UNL     1     -33.190   5.762   3.520  1.00 20.00     0.055 C 
ENDROOT
BRANCH   2   3
HETATM    3  C1  UNL     1     -32.569   6.989   2.860  1.00 20.00     0.127 C 
HETATM    4  C5  UNL     1     -31.634   7.817   3.705  1.00 20.00     0.091 C 
HETATM    5  O8  UNL     1     -32.828   7.318   1.703  1.00 20.00    -0.298 OA
ENDBRANCH   2   3
BRANCH   2   6
HETATM    6  C4  UNL     1     -34.366   6.182   4.394  1.00 20.00    -0.004 A 
HETATM    7  C2  UNL     1     -35.017   5.188   5.315  1.00 20.00     0.006 A 
HETATM    8  C3  UNL     1     -34.194   6.311   5.882  1.00 20.00     0.006 A 
ENDBRANCH   2   6
TORSDOF 2
ENDMDL
MODEL 3
REMARK VINA RESULT:      -4.3     11.393     11.978
REMARK  2 active torsions:
REMARK  status: ('A' for Active; 'I' for Inactive)
REMARK    1  A    between atoms: C1_1  and  C7_7 
REMARK    2  A    between atoms: C4_4  and  C7_7 
ROOT
HETATM    1  C6  UNL     1     -34.187  14.882  -5.725  1.00 20.00     0.018 C 
HETATM    2  C7  UNL     1     -35.144  15.080  -4.553  1.00 20.00     0.055 C 
ENDROOT
BRANCH   2   3
HETATM    3  C1  UNL     1     -36.201  13.980  -4.517  1.00 20.00     0.127 C 
HETATM    4  C5  UNL     1     -37.633  14.417  -4.335  1.00 20.00     0.091 C 
HETATM    5  O8  UNL     1     -35.915  12.786  -4.604  1.00 20.00    -0.298 OA
ENDBRANCH   2   3
BRANCH   2   6
HETATM    6  C4  UNL     1     -34.385  15.113  -3.232  1.00 20.00    -0.004 A 
HETATM    7  C2  UNL     1     -33.416  16.226  -2.944  1.00 20.00     0.006 A 
HETATM    8  C3  UNL     1     -34.718  16.151  -2.196  1.00 20.00     0.006 A 
ENDBRANCH   2   6
TORSDOF 2
ENDMDL
MODEL 4
REMARK VINA RESULT:      -4.1      1.185      2.030
REMARK  2 active torsions:
REMARK  status: ('A' for Active; 'I' for Inactive)
REMARK    1  A    between atoms: C1_1  and  C7_7 
REMARK    2  A    between atoms: C4_4  and  C7_7 
ROOT
HETATM    1  C6  UNL     1     -32.887   7.539   4.940  1.00 20.00     0.018 C 
HETATM    2  C7  UNL     1     -33.719   6.673   3.998  1.00 20.00     0.055 C 
ENDROOT
BRANCH   2   3
HETATM    3  C1  UNL     1     -32.961   6.387   2.705  1.00 20.00     0.127 C 
HETATM    4  C5  UNL     1     -33.019   4.974   2.180  1.00 20.00     0.091 C 
HETATM    5  O8  UNL     1     -32.306   7.249   2.119  1.00 20.00    -0.298 OA
ENDBRANCH   2   3
BRANCH   2   6
HETATM    6  C4  UNL     1     -34.112   5.363   4.670  1.00 20.00    -0.004 A 
HETATM    7  C2  UNL     1     -34.785   5.374   6.014  1.00 20.00     0.006 A 
HETATM    8  C3  UNL     1     -35.562   4.981   4.788  1.00 20.00     0.006 A 
ENDBRANCH   2   6
TORSDOF 2
ENDMDL
MODEL 5
REMARK VINA RESULT:      -4.1      1.885      3.528
REMARK  2 active torsions:
REMARK  status: ('A' for Active; 'I' for Inactive)
REMARK    1  A    between atoms: C1_1  and  C7_7 
REMARK    2  A    between atoms: C4_4  and  C7_7 
ROOT
HETATM    1  C6  UNL     1     -33.079   4.597   2.582  1.00 20.00     0.018 C 
HETATM    2  C7  UNL     1     -33.956   5.740   3.086  1.00 20.00     0.055 C 
ENDROOT
BRANCH   2   3
HETATM    3  C1  UNL     1     -34.553   5.411   4.451  1.00 20.00     0.127 C 
HETATM    4  C5  UNL     1     -34.245   6.365   5.577  1.00 20.00     0.091 C 
HETATM    5  O8  UNL     1     -35.233   4.404   4.649  1.00 20.00    -0.298 OA
ENDBRANCH   2   3
BRANCH   2   6
HETATM    6  C4  UNL     1     -33.163   7.039   3.166  1.00 20.00    -0.004 A 
HETATM    7  C2  UNL     1     -31.717   7.070   2.755  1.00 20.00     0.006 A 
HETATM    8  C3  UNL     1     -32.754   7.753   1.907  1.00 20.00     0.006 A 
ENDBRANCH   2   6
TORSDOF 2
ENDMDL
MODEL 6
REMARK VINA RESULT:      -3.7     11.288     12.189
REMARK  2 active torsions:
REMARK  status: ('A' for Active; 'I' for Inactive)
REMARK    1  A    between atoms: C1_1  and  C7_7 
REMARK    2  A    between atoms: C4_4  and  C7_7 
ROOT
HETATM    1  C6  UNL     1     -35.907  16.476  -4.997  1.00 20.00     0.018 C 
HETATM    2  C7  UNL     1     -36.302  15.628  -3.791  1.00 20.00     0.055 C 
ENDROOT
BRANCH   2   3
HETATM    3  C1  UNL     1     -36.800  14.253  -4.228  1.00 20.00     0.127 C 
HETATM    4  C5  UNL     1     -35.751  13.209  -4.516  1.00 20.00     0.091 C 
HETATM    5  O8  UNL     1     -37.995  13.999  -4.371  1.00 20.00    -0.298 OA
ENDBRANCH   2   3
BRANCH   2   6
HETATM    6  C4  UNL     1     -35.129  15.473  -2.829  1.00 20.00    -0.004 A 
HETATM    7  C2  UNL     1     -34.066  16.532  -2.756  1.00 20.00     0.006 A 
HETATM    8  C3  UNL     1     -35.028  16.355  -1.615  1.00 20.00     0.006 A 
ENDBRANCH   2   6
TORSDOF 2
ENDMDL
MODEL 7
REMARK VINA RESULT:      -3.7      9.268      9.902
REMARK  2 active torsions:
REMARK  status: ('A' for Active; 'I' for Inactive)
REMARK    1  A    between atoms: C1_1  and  C7_7 
REMARK    2  A    between atoms: C4_4  and  C7_7 
ROOT
HETATM    1  C6  UNL     1     -42.883   6.416   1.125  1.00 20.00     0.018 C 
HETATM    2  C7  UNL     1     -41.694   6.658   0.199  1.00 20.00     0.055 C 
ENDROOT
BRANCH   2   3
HETATM    3  C1  UNL     1     -41.576   5.549  -0.842  1.00 20.00     0.127 C 
HETATM    4  C5  UNL     1     -42.865   4.972  -1.371  1.00 20.00     0.091 C 
HETATM    5  O8  UNL     1     -40.490   5.114  -1.223  1.00 20.00    -0.298 OA
ENDBRANCH   2   3
BRANCH   2   6
HETATM    6  C4  UNL     1     -41.812   8.010  -0.494  1.00 20.00    -0.004 A 
HETATM    7  C2  UNL     1     -42.854   8.999  -0.051  1.00 20.00     0.006 A 
HETATM    8  C3  UNL     1     -41.400   9.265   0.225  1.00 20.00     0.006 A 
ENDBRANCH   2   6
TORSDOF 2
ENDMDL
MODEL 8
REMARK VINA RESULT:      -3.7      1.961      2.657
REMARK  2 active torsions:
REMARK  status: ('A' for Active; 'I' for Inactive)
REMARK    1  A    between atoms: C1_1  and  C7_7 
REMARK    2  A    between atoms: C4_4  and  C7_7 
ROOT
HETATM    1  C6  UNL     1     -32.787   7.000   3.120  1.00 20.00     0.018 C 
HETATM    2  C7  UNL     1     -33.831   6.125   3.807  1.00 20.00     0.055 C 
ENDROOT
BRANCH   2   3
HETATM    3  C1  UNL     1     -33.817   4.708   3.240  1.00 20.00     0.127 C 
HETATM    4  C5  UNL     1     -33.119   4.511   1.918  1.00 20.00     0.091 C 
HETATM    5  O8  UNL     1     -34.367   3.764   3.807  1.00 20.00    -0.298 OA
ENDBRANCH   2   3
BRANCH   2   6
HETATM    6  C4  UNL     1     -33.599   6.083   5.313  1.00 20.00    -0.004 A 
HETATM    7  C2  UNL     1     -33.976   7.260   6.169  1.00 20.00     0.006 A 
HETATM    8  C3  UNL     1     -34.768   5.985   6.254  1.00 20.00     0.006 A 
ENDBRANCH   2   6
TORSDOF 2
ENDMDL
MODEL 9
REMARK VINA RESULT:      -3.7     11.300     11.983
REMARK  2 active torsions:
REMARK  status: ('A' for Active; 'I' for Inactive)
REMARK    1  A    between atoms: C1_1  and  C7_7 
REMARK    2  A    between atoms: C4_4  and  C7_7 
ROOT
HETATM    1  C6  UNL     1     -35.818  15.885  -2.695  1.00 20.00     0.018 C 
HETATM    2  C7  UNL     1     -35.175  14.707  -3.421  1.00 20.00     0.055 C 
ENDROOT
BRANCH   2   3
HETATM    3  C1  UNL     1     -36.211  13.928  -4.226  1.00 20.00     0.127 C 
HETATM    4  C5  UNL     1     -37.548  14.591  -4.437  1.00 20.00     0.091 C 
HETATM    5  O8  UNL     1     -35.992  12.799  -4.666  1.00 20.00    -0.298 OA
ENDBRANCH   2   3
BRANCH   2   6
HETATM    6  C4  UNL     1     -34.054  15.181  -4.339  1.00 20.00    -0.004 A 
HETATM    7  C2  UNL     1     -32.868  15.909  -3.771  1.00 20.00     0.006 A 
HETATM    8  C3  UNL     1     -32.709  14.509  -4.297  1.00 20.00     0.006 A 
ENDBRANCH   2   6
TORSDOF 2
ENDMDL
