MODEL 1
REMARK VINA RESULT:      -4.1      0.000      0.000
REMARK  1 active torsions:
REMARK  status: ('A' for Active; 'I' for Inactive)
REMARK    1  A    between atoms: C1_1  and  C4_4 
ROOT
HETATM    1  C1  UNL     1     -35.108  15.499  -3.254  1.00 20.00    -0.068 C 
HETATM    2  C2  UNL     1     -35.105  16.066  -2.196  1.00 20.00    -0.108 C 
HETATM    3  C6  UNL     1     -35.102  16.757  -0.907  1.00 20.00     0.112 C 
ENDROOT
BRANCH   1   4
HETATM    4  C4  UNL     1     -35.112  14.815  -4.535  1.00 20.00     0.129 C 
HETATM    5  C5  UNL     1     -35.051  15.732  -5.813  1.00 20.00     0.016 C 
HETATM    6  C3  UNL     1     -33.845  14.841  -6.181  1.00 20.00     0.182 C 
HETATM    7  C8  UNL     1     -34.637  17.194  -5.599  1.00 20.00     0.021 C 
HETATM    8  C9  UNL     1     -36.218  15.646  -6.793  1.00 20.00     0.021 C 
HETATM    9  O10 UNL     1     -33.767  14.327  -4.826  1.00 20.00    -0.366 OA
HETATM   10  C7  UNL     1     -36.087  13.640  -4.513  1.00 20.00     0.061 C 
ENDBRANCH   1   4
TORSDOF 1
ENDMDL
MODEL 2
REMARK VINA RESULT:      -3.9      1.299      1.314
REMARK  1 active torsions:
REMARK  status: ('A' for Active; 'I' for Inactive)
REMARK    1  A    between atoms: C1_1  and  C4_4 
ROOT
HETATM    1  C1  UNL     1     -33.766  16.022  -3.532  1.00 20.00    -0.068 C 
HETATM    2  C2  UNL     1     -33.266  16.730  -2.700  1.00 20.00    -0.108 C 
HETATM    3  C6  UNL     1     -32.659  17.593  -1.688  1.00 20.00     0.112 C 
ENDROOT
BRANCH   1   4
HETATM    4  C4  UNL     1     -34.368  15.166  -4.538  1.00 20.00     0.129 C 
HETATM    5  C5  UNL     1     -34.983  15.895  -5.791  1.00 20.00     0.016 C 
HETATM    6  C3  UNL     1     -34.076  14.925  -6.580  1.00 20.00     0.182 C 
HETATM    7  C8  UNL     1     -34.580  17.359  -6.009  1.00 20.00     0.021 C 
HETATM    8  C9  UNL     1     -36.475  15.708  -6.049  1.00 20.00     0.021 C 
HETATM    9  O10 UNL     1     -33.321  14.603  -5.383  1.00 20.00    -0.366 OA
HETATM   10  C7  UNL     1     -35.156  14.035  -3.880  1.00 20.00     0.061 C 
ENDBRANCH   1   4
TORSDOF 1
ENDMDL
MODEL 3
REMARK VINA RESULT:      -3.8      1.984      2.676
REMARK  1 active torsions:
REMARK  status: ('A' for Active; 'I' for Inactive)
REMARK    1  A    between atoms: C1_1  and  C4_4 
ROOT
HETATM    1  C1  UNL     1     -33.684  16.837  -2.831  1.00 20.00    -0.068 C 
HETATM    2  C2  UNL     1     -32.910  17.423  -2.125  1.00 20.00    -0.108 C 
HETATM    3  C6  UNL     1     -31.966  18.136  -1.264  1.00 20.00     0.112 C 
ENDROOT
BRANCH   1   4
HETATM    4  C4  UNL     1     -34.622  16.131  -3.684  1.00 20.00     0.129 C 
HETATM    5  C5  UNL     1     -34.009  15.024  -4.622  1.00 20.00     0.016 C 
HETATM    6  C3  UNL     1     -35.077  14.123  -3.964  1.00 20.00     0.182 C 
HETATM    7  C8  UNL     1     -32.586  14.552  -4.300  1.00 20.00     0.021 C 
HETATM    8  C9  UNL     1     -34.183  15.207  -6.127  1.00 20.00     0.021 C 
HETATM    9  O10 UNL     1     -35.295  15.094  -2.908  1.00 20.00    -0.366 OA
HETATM   10  C7  UNL     1     -35.660  17.094  -4.257  1.00 20.00     0.061 C 
ENDBRANCH   1   4
TORSDOF 1
ENDMDL
MODEL 4
REMARK VINA RESULT:      -3.8      1.581      2.280
REMARK  1 active torsions:
REMARK  status: ('A' for Active; 'I' for Inactive)
REMARK    1  A    between atoms: C1_1  and  C4_4 
ROOT
HETATM    1  C1  UNL     1     -33.731  16.353  -3.130  1.00 20.00    -0.068 C 
HETATM    2  C2  UNL     1     -33.441  17.045  -2.193  1.00 20.00    -0.108 C 
HETATM    3  C6  UNL     1     -33.087  17.889  -1.052  1.00 20.00     0.112 C 
ENDROOT
BRANCH   1   4
HETATM    4  C4  UNL     1     -34.080  15.514  -4.263  1.00 20.00     0.129 C 
HETATM    5  C5  UNL     1     -35.610  15.185  -4.437  1.00 20.00     0.016 C 
HETATM    6  C3  UNL     1     -35.387  15.734  -5.863  1.00 20.00     0.182 C 
HETATM    7  C8  UNL     1     -36.600  16.047  -3.642  1.00 20.00     0.021 C 
HETATM    8  C9  UNL     1     -36.021  13.716  -4.387  1.00 20.00     0.021 C 
HETATM    9  O10 UNL     1     -34.122  16.330  -5.473  1.00 20.00    -0.366 OA
HETATM   10  C7  UNL     1     -33.058  14.393  -4.438  1.00 20.00     0.061 C 
ENDBRANCH   1   4
TORSDOF 1
ENDMDL
MODEL 5
REMARK VINA RESULT:      -3.7      1.496      2.214
REMARK  1 active torsions:
REMARK  status: ('A' for Active; 'I' for Inactive)
REMARK    1  A    between atoms: C1_1  and  C4_4 
ROOT
HETATM    1  C1  UNL     1     -35.661  16.161  -2.838  1.00 20.00    -0.068 C 
HETATM    2  C2  UNL     1     -35.290  16.649  -1.806  1.00 20.00    -0.108 C 
HETATM    3  C6  UNL     1     -34.838  17.245  -0.549  1.00 20.00     0.112 C 
ENDROOT
BRANCH   1   4
HETATM    4  C4  UNL     1     -36.108  15.570  -4.086  1.00 20.00     0.129 C 
HETATM    5  C5  UNL     1     -35.049  14.698  -4.860  1.00 20.00     0.016 C 
HETATM    6  C3  UNL     1     -36.159  13.626  -4.818  1.00 20.00     0.182 C 
HETATM    7  C8  UNL     1     -33.804  14.263  -4.078  1.00 20.00     0.021 C 
HETATM    8  C9  UNL     1     -34.665  15.148  -6.267  1.00 20.00     0.021 C 
HETATM    9  O10 UNL     1     -36.884  14.367  -3.801  1.00 20.00    -0.366 OA
HETATM   10  C7  UNL     1     -36.968  16.557  -4.872  1.00 20.00     0.061 C 
ENDBRANCH   1   4
TORSDOF 1
ENDMDL
MODEL 6
REMARK VINA RESULT:      -3.7      1.646      3.167
REMARK  1 active torsions:
REMARK  status: ('A' for Active; 'I' for Inactive)
REMARK    1  A    between atoms: C1_1  and  C4_4 
ROOT
HETATM    1  C1  UNL     1     -36.249  15.283  -4.722  1.00 20.00    -0.068 C 
HETATM    2  C2  UNL     1     -37.409  15.055  -4.511  1.00 20.00    -0.108 C 
HETATM    3  C6  UNL     1     -38.821  14.775  -4.253  1.00 20.00     0.112 C 
ENDROOT
BRANCH   1   4
HETATM    4  C4  UNL     1     -34.847  15.560  -4.979  1.00 20.00     0.129 C 
HETATM    5  C5  UNL     1     -33.991  16.018  -3.740  1.00 20.00     0.016 C 
HETATM    6  C3  UNL     1     -33.072  14.852  -4.166  1.00 20.00     0.182 C 
HETATM    7  C8  UNL     1     -34.601  15.786  -2.352  1.00 20.00     0.021 C 
HETATM    8  C9  UNL     1     -33.335  17.394  -3.812  1.00 20.00     0.021 C 
HETATM    9  O10 UNL     1     -34.107  14.302  -5.021  1.00 20.00    -0.366 OA
HETATM   10  C7  UNL     1     -34.679  16.295  -6.307  1.00 20.00     0.061 C 
ENDBRANCH   1   4
TORSDOF 1
ENDMDL
MODEL 7
REMARK VINA RESULT:      -3.6      2.095      3.225
REMARK  1 active torsions:
REMARK  status: ('A' for Active; 'I' for Inactive)
REMARK    1  A    between atoms: C1_1  and  C4_4 
ROOT
HETATM    1  C1  UNL     1     -37.441  14.704  -4.540  1.00 20.00    -0.068 C 
HETATM    2  C2  UNL     1     -38.550  15.028  -4.215  1.00 20.00    -0.108 C 
HETATM    3  C6  UNL     1     -39.902  15.423  -3.819  1.00 20.00     0.112 C 
ENDROOT
BRANCH   1   4
HETATM    4  C4  UNL     1     -36.100  14.313  -4.935  1.00 20.00     0.129 C 
HETATM    5  C5  UNL     1     -34.927  14.843  -4.027  1.00 20.00     0.016 C 
HETATM    6  C3  UNL     1     -34.539  13.350  -3.958  1.00 20.00     0.182 C 
HETATM    7  C8  UNL     1     -35.312  15.398  -2.650  1.00 20.00     0.021 C 
HETATM    8  C9  UNL     1     -33.878  15.734  -4.688  1.00 20.00     0.021 C 
HETATM    9  O10 UNL     1     -35.837  12.953  -4.472  1.00 20.00    -0.366 OA
HETATM   10  C7  UNL     1     -35.946  14.374  -6.453  1.00 20.00     0.061 C 
ENDBRANCH   1   4
TORSDOF 1
ENDMDL
MODEL 8
REMARK VINA RESULT:      -3.5      1.671      3.376
REMARK  1 active torsions:
REMARK  status: ('A' for Active; 'I' for Inactive)
REMARK    1  A    between atoms: C1_1  and  C4_4 
ROOT
HETATM    1  C1  UNL     1     -36.280  16.001  -5.433  1.00 20.00    -0.068 C 
HETATM    2  C2  UNL     1     -37.222  16.734  -5.570  1.00 20.00    -0.108 C 
HETATM    3  C6  UNL     1     -38.368  17.627  -5.735  1.00 20.00     0.112 C 
ENDROOT
BRANCH   1   4
HETATM    4  C4  UNL     1     -35.144  15.114  -5.268  1.00 20.00     0.129 C 
HETATM    5  C5  UNL     1     -34.473  15.101  -3.843  1.00 20.00     0.016 C 
HETATM    6  C3  UNL     1     -34.702  13.577  -3.942  1.00 20.00     0.182 C 
HETATM    7  C8  UNL     1     -35.275  15.726  -2.694  1.00 20.00     0.021 C 
HETATM    8  C9  UNL     1     -33.006  15.511  -3.756  1.00 20.00     0.021 C 
HETATM    9  O10 UNL     1     -35.621  13.752  -5.051  1.00 20.00    -0.366 OA
HETATM   10  C7  UNL     1     -34.249  15.149  -6.506  1.00 20.00     0.061 C 
ENDBRANCH   1   4
TORSDOF 1
ENDMDL
MODEL 9
REMARK VINA RESULT:      -3.5      2.585      3.808
REMARK  1 active torsions:
REMARK  status: ('A' for Active; 'I' for Inactive)
REMARK    1  A    between atoms: C1_1  and  C4_4 
ROOT
HETATM    1  C1  UNL     1     -33.281  17.797  -1.437  1.00 20.00    -0.068 C 
HETATM    2  C2  UNL     1     -32.284  18.126  -0.856  1.00 20.00    -0.108 C 
HETATM    3  C6  UNL     1     -31.068  18.527  -0.147  1.00 20.00     0.112 C 
ENDROOT
BRANCH   1   4
HETATM    4  C4  UNL     1     -34.488  17.398  -2.139  1.00 20.00     0.129 C 
HETATM    5  C5  UNL     1     -34.286  16.470  -3.395  1.00 20.00     0.016 C 
HETATM    6  C3  UNL     1     -35.301  15.561  -2.668  1.00 20.00     0.182 C 
HETATM    7  C8  UNL     1     -32.918  15.793  -3.545  1.00 20.00     0.021 C 
HETATM    8  C9  UNL     1     -34.770  16.999  -4.742  1.00 20.00     0.021 C 
HETATM    9  O10 UNL     1     -35.117  16.291  -1.427  1.00 20.00    -0.366 OA
HETATM   10  C7  UNL     1     -35.467  18.567  -2.232  1.00 20.00     0.061 C 
ENDBRANCH   1   4
TORSDOF 1
ENDMDL
