MODEL 1
REMARK VINA RESULT:      -4.2      0.000      0.000
REMARK  2 active torsions:
REMARK  status: ('A' for Active; 'I' for Inactive)
REMARK    1  A    between atoms: C7_7  and  O11_11 
REMARK    2  A    between atoms: C10_10  and  O11_11 
ROOT
HETATM    1  C1  UNL     1     -34.792  14.004  -3.793  1.00 20.00    -0.019 C 
HETATM    2  C2  UNL     1     -33.563  14.388  -4.194  1.00 20.00    -0.019 C 
HETATM    3  C3  UNL     1     -34.897  15.933  -2.266  1.00 20.00    -0.019 C 
HETATM    4  C4  UNL     1     -33.667  16.317  -2.668  1.00 20.00    -0.019 C 
HETATM    5  C5  UNL     1     -35.567  15.270  -3.460  1.00 20.00     0.060 C 
HETATM    6  C6  UNL     1     -33.528  15.907  -4.127  1.00 20.00     0.060 C 
HETATM    7  C7  UNL     1     -34.981  16.198  -4.539  1.00 20.00     0.144 C 
ENDROOT
BRANCH   7   8
HETATM    8  O11 UNL     1     -35.306  15.814  -5.862  1.00 20.00    -0.379 OA
BRANCH   8   9
HETATM    9  C10 UNL     1     -34.507  16.499  -6.820  1.00 20.00     0.114 C 
HETATM   10  C8  UNL     1     -34.042  15.512  -7.882  1.00 20.00     0.039 C 
HETATM   11  C9  UNL     1     -35.313  17.640  -7.421  1.00 20.00     0.039 C 
ENDBRANCH   8   9
ENDBRANCH   7   8
TORSDOF 2
ENDMDL
MODEL 2
REMARK VINA RESULT:      -4.2      0.894      1.388
REMARK  2 active torsions:
REMARK  status: ('A' for Active; 'I' for Inactive)
REMARK    1  A    between atoms: C7_7  and  O11_11 
REMARK    2  A    between atoms: C10_10  and  O11_11 
ROOT
HETATM    1  C1  UNL     1     -34.738  14.164  -3.874  1.00 20.00    -0.019 C 
HETATM    2  C2  UNL     1     -33.507  14.616  -4.185  1.00 20.00    -0.019 C 
HETATM    3  C3  UNL     1     -34.957  15.928  -2.170  1.00 20.00    -0.019 C 
HETATM    4  C4  UNL     1     -33.723  16.380  -2.481  1.00 20.00    -0.019 C 
HETATM    5  C5  UNL     1     -35.561  15.371  -3.450  1.00 20.00     0.060 C 
HETATM    6  C6  UNL     1     -33.517  16.120  -3.966  1.00 20.00     0.060 C 
HETATM    7  C7  UNL     1     -34.961  16.416  -4.407  1.00 20.00     0.144 C 
ENDROOT
BRANCH   7   8
HETATM    8  O11 UNL     1     -35.223  16.159  -5.774  1.00 20.00    -0.379 OA
BRANCH   8   9
HETATM    9  C10 UNL     1     -35.496  17.356  -6.493  1.00 20.00     0.114 C 
HETATM   10  C8  UNL     1     -35.956  18.431  -5.520  1.00 20.00     0.039 C 
HETATM   11  C9  UNL     1     -34.249  17.778  -7.254  1.00 20.00     0.039 C 
ENDBRANCH   8   9
ENDBRANCH   7   8
TORSDOF 2
ENDMDL
MODEL 3
REMARK VINA RESULT:      -4.1      1.160      1.468
REMARK  2 active torsions:
REMARK  status: ('A' for Active; 'I' for Inactive)
REMARK    1  A    between atoms: C7_7  and  O11_11 
REMARK    2  A    between atoms: C10_10  and  O11_11 
ROOT
HETATM    1  C1  UNL     1     -34.756  14.178  -3.879  1.00 20.00    -0.019 C 
HETATM    2  C2  UNL     1     -33.519  14.627  -4.172  1.00 20.00    -0.019 C 
HETATM    3  C3  UNL     1     -34.987  15.931  -2.165  1.00 20.00    -0.019 C 
HETATM    4  C4  UNL     1     -33.748  16.380  -2.458  1.00 20.00    -0.019 C 
HETATM    5  C5  UNL     1     -35.579  15.386  -3.456  1.00 20.00     0.060 C 
HETATM    6  C6  UNL     1     -33.525  16.130  -3.943  1.00 20.00     0.060 C 
HETATM    7  C7  UNL     1     -34.963  16.434  -4.399  1.00 20.00     0.144 C 
ENDROOT
BRANCH   7   8
HETATM    8  O11 UNL     1     -35.210  16.187  -5.771  1.00 20.00    -0.379 OA
BRANCH   8   9
HETATM    9  C10 UNL     1     -36.065  17.173  -6.338  1.00 20.00     0.114 C 
HETATM   10  C8  UNL     1     -37.487  16.635  -6.386  1.00 20.00     0.039 C 
HETATM   11  C9  UNL     1     -35.970  18.450  -5.518  1.00 20.00     0.039 C 
ENDBRANCH   8   9
ENDBRANCH   7   8
TORSDOF 2
ENDMDL
MODEL 4
REMARK VINA RESULT:      -4.1      1.873      3.989
REMARK  2 active torsions:
REMARK  status: ('A' for Active; 'I' for Inactive)
REMARK    1  A    between atoms: C7_7  and  O11_11 
REMARK    2  A    between atoms: C10_10  and  O11_11 
ROOT
HETATM    1  C1  UNL     1     -34.285  15.801  -5.260  1.00 20.00    -0.019 C 
HETATM    2  C2  UNL     1     -33.787  14.586  -4.954  1.00 20.00    -0.019 C 
HETATM    3  C3  UNL     1     -36.558  14.995  -4.763  1.00 20.00    -0.019 C 
HETATM    4  C4  UNL     1     -36.059  13.778  -4.457  1.00 20.00    -0.019 C 
HETATM    5  C5  UNL     1     -35.502  16.018  -4.373  1.00 20.00     0.060 C 
HETATM    6  C6  UNL     1     -34.675  14.002  -3.866  1.00 20.00     0.060 C 
HETATM    7  C7  UNL     1     -35.006  15.299  -3.107  1.00 20.00     0.144 C 
ENDROOT
BRANCH   7   8
HETATM    8  O11 UNL     1     -33.893  15.922  -2.493  1.00 20.00    -0.379 OA
BRANCH   8   9
HETATM    9  C10 UNL     1     -34.250  17.158  -1.884  1.00 20.00     0.114 C 
HETATM   10  C8  UNL     1     -35.242  16.894  -0.761  1.00 20.00     0.039 C 
HETATM   11  C9  UNL     1     -32.993  17.849  -1.379  1.00 20.00     0.039 C 
ENDBRANCH   8   9
ENDBRANCH   7   8
TORSDOF 2
ENDMDL
MODEL 5
REMARK VINA RESULT:      -4.0      1.219      2.526
REMARK  2 active torsions:
REMARK  status: ('A' for Active; 'I' for Inactive)
REMARK    1  A    between atoms: C7_7  and  O11_11 
REMARK    2  A    between atoms: C10_10  and  O11_11 
ROOT
HETATM    1  C1  UNL     1     -33.677  16.324  -2.536  1.00 20.00    -0.019 C 
HETATM    2  C2  UNL     1     -34.917  15.910  -2.205  1.00 20.00    -0.019 C 
HETATM    3  C3  UNL     1     -33.520  14.521  -4.205  1.00 20.00    -0.019 C 
HETATM    4  C4  UNL     1     -34.761  14.106  -3.873  1.00 20.00    -0.019 C 
HETATM    5  C5  UNL     1     -33.491  16.030  -4.017  1.00 20.00     0.060 C 
HETATM    6  C6  UNL     1     -35.548  15.343  -3.467  1.00 20.00     0.060 C 
HETATM    7  C7  UNL     1     -34.927  16.303  -4.496  1.00 20.00     0.144 C 
ENDROOT
BRANCH   7   8
HETATM    8  O11 UNL     1     -35.330  17.654  -4.359  1.00 20.00    -0.379 OA
BRANCH   8   9
HETATM    9  C10 UNL     1     -35.492  18.286  -5.624  1.00 20.00     0.114 C 
HETATM   10  C8  UNL     1     -34.236  19.078  -5.953  1.00 20.00     0.039 C 
HETATM   11  C9  UNL     1     -35.789  17.229  -6.677  1.00 20.00     0.039 C 
ENDBRANCH   8   9
ENDBRANCH   7   8
TORSDOF 2
ENDMDL
MODEL 6
REMARK VINA RESULT:      -4.0      1.678      4.053
REMARK  2 active torsions:
REMARK  status: ('A' for Active; 'I' for Inactive)
REMARK    1  A    between atoms: C7_7  and  O11_11 
REMARK    2  A    between atoms: C10_10  and  O11_11 
ROOT
HETATM    1  C1  UNL     1     -34.989  13.818  -3.947  1.00 20.00    -0.019 C 
HETATM    2  C2  UNL     1     -35.975  14.736  -3.988  1.00 20.00    -0.019 C 
HETATM    3  C3  UNL     1     -33.861  14.946  -5.823  1.00 20.00    -0.019 C 
HETATM    4  C4  UNL     1     -34.849  15.864  -5.864  1.00 20.00    -0.019 C 
HETATM    5  C5  UNL     1     -33.708  14.522  -4.370  1.00 20.00     0.060 C 
HETATM    6  C6  UNL     1     -35.346  16.045  -4.437  1.00 20.00     0.060 C 
HETATM    7  C7  UNL     1     -33.979  15.902  -3.746  1.00 20.00     0.144 C 
ENDROOT
BRANCH   7   8
HETATM    8  O11 UNL     1     -34.033  15.891  -2.331  1.00 20.00    -0.379 OA
BRANCH   8   9
HETATM    9  C10 UNL     1     -34.251  17.194  -1.802  1.00 20.00     0.114 C 
HETATM   10  C8  UNL     1     -35.147  17.093  -0.577  1.00 20.00     0.039 C 
HETATM   11  C9  UNL     1     -32.910  17.831  -1.472  1.00 20.00     0.039 C 
ENDBRANCH   8   9
ENDBRANCH   7   8
TORSDOF 2
ENDMDL
MODEL 7
REMARK VINA RESULT:      -4.0      1.471      2.634
REMARK  2 active torsions:
REMARK  status: ('A' for Active; 'I' for Inactive)
REMARK    1  A    between atoms: C7_7  and  O11_11 
REMARK    2  A    between atoms: C10_10  and  O11_11 
ROOT
HETATM    1  C1  UNL     1     -33.670  16.362  -2.533  1.00 20.00    -0.019 C 
HETATM    2  C2  UNL     1     -34.884  15.895  -2.179  1.00 20.00    -0.019 C 
HETATM    3  C3  UNL     1     -33.494  14.608  -4.251  1.00 20.00    -0.019 C 
HETATM    4  C4  UNL     1     -34.709  14.139  -3.896  1.00 20.00    -0.019 C 
HETATM    5  C5  UNL     1     -33.515  16.112  -4.025  1.00 20.00     0.060 C 
HETATM    6  C6  UNL     1     -35.529  15.336  -3.437  1.00 20.00     0.060 C 
HETATM    7  C7  UNL     1     -34.973  16.343  -4.458  1.00 20.00     0.144 C 
ENDROOT
BRANCH   7   8
HETATM    8  O11 UNL     1     -35.421  17.674  -4.276  1.00 20.00    -0.379 OA
BRANCH   8   9
HETATM    9  C10 UNL     1     -36.276  18.091  -5.334  1.00 20.00     0.114 C 
HETATM   10  C8  UNL     1     -35.994  17.248  -6.569  1.00 20.00     0.039 C 
HETATM   11  C9  UNL     1     -37.724  17.971  -4.884  1.00 20.00     0.039 C 
ENDBRANCH   8   9
ENDBRANCH   7   8
TORSDOF 2
ENDMDL
MODEL 8
REMARK VINA RESULT:      -4.0      1.451      2.246
REMARK  2 active torsions:
REMARK  status: ('A' for Active; 'I' for Inactive)
REMARK    1  A    between atoms: C7_7  and  O11_11 
REMARK    2  A    between atoms: C10_10  and  O11_11 
ROOT
HETATM    1  C1  UNL     1     -32.972  16.661  -2.983  1.00 20.00    -0.019 C 
HETATM    2  C2  UNL     1     -33.491  17.868  -3.284  1.00 20.00    -0.019 C 
HETATM    3  C3  UNL     1     -35.136  15.966  -2.036  1.00 20.00    -0.019 C 
HETATM    4  C4  UNL     1     -35.656  17.175  -2.337  1.00 20.00    -0.019 C 
HETATM    5  C5  UNL     1     -34.101  15.648  -3.104  1.00 20.00     0.060 C 
HETATM    6  C6  UNL     1     -34.962  17.653  -3.605  1.00 20.00     0.060 C 
HETATM    7  C7  UNL     1     -34.858  16.278  -4.287  1.00 20.00     0.144 C 
ENDROOT
BRANCH   7   8
HETATM    8  O11 UNL     1     -34.128  16.276  -5.500  1.00 20.00    -0.379 OA
BRANCH   8   9
HETATM    9  C10 UNL     1     -34.306  15.062  -6.221  1.00 20.00     0.114 C 
HETATM   10  C8  UNL     1     -35.751  14.605  -6.084  1.00 20.00     0.039 C 
HETATM   11  C9  UNL     1     -33.917  15.280  -7.674  1.00 20.00     0.039 C 
ENDBRANCH   8   9
ENDBRANCH   7   8
TORSDOF 2
ENDMDL
MODEL 9
REMARK VINA RESULT:      -4.0      1.632      3.756
REMARK  2 active torsions:
REMARK  status: ('A' for Active; 'I' for Inactive)
REMARK    1  A    between atoms: C7_7  and  O11_11 
REMARK    2  A    between atoms: C10_10  and  O11_11 
ROOT
HETATM    1  C1  UNL     1     -33.966  15.194  -5.755  1.00 20.00    -0.019 C 
HETATM    2  C2  UNL     1     -33.517  14.430  -4.740  1.00 20.00    -0.019 C 
HETATM    3  C3  UNL     1     -36.239  14.308  -5.419  1.00 20.00    -0.019 C 
HETATM    4  C4  UNL     1     -35.789  13.542  -4.403  1.00 20.00    -0.019 C 
HETATM    5  C5  UNL     1     -35.401  15.577  -5.424  1.00 20.00     0.060 C 
HETATM    6  C6  UNL     1     -34.655  14.308  -3.738  1.00 20.00     0.060 C 
HETATM    7  C7  UNL     1     -35.263  15.712  -3.897  1.00 20.00     0.144 C 
ENDROOT
BRANCH   7   8
HETATM    8  O11 UNL     1     -34.416  16.771  -3.490  1.00 20.00    -0.379 OA
BRANCH   8   9
HETATM    9  C10 UNL     1     -34.001  16.623  -2.136  1.00 20.00     0.114 C 
HETATM   10  C8  UNL     1     -32.857  17.586  -1.854  1.00 20.00     0.039 C 
HETATM   11  C9  UNL     1     -35.189  16.870  -1.219  1.00 20.00     0.039 C 
ENDBRANCH   8   9
ENDBRANCH   7   8
TORSDOF 2
ENDMDL
