MODEL 1
REMARK VINA RESULT:      -4.1      0.000      0.000
REMARK  4 active torsions:
REMARK  status: ('A' for Active; 'I' for Inactive)
REMARK    1  A    between atoms: C5_5  and  N8_8 
REMARK    2  A    between atoms: C6_6  and  C7_7 
REMARK    3  A    between atoms: C6_6  and  N8_8 
REMARK    4  A    between atoms: C7_7  and  O9_9 
ROOT
HETATM    1  C1  UNL     1     -32.845   8.852   0.542  1.00 20.00     0.013 C 
HETATM    2  C2  UNL     1     -32.616   8.024   1.381  1.00 20.00    -0.087 C 
HETATM    3  C5  UNL     1     -32.333   7.016   2.405  1.00 20.00     0.364 C 
ENDROOT
BRANCH   3   4
HETATM    4  N8  UNL     1     -33.483   6.135   2.595  1.00 20.00     0.097 N 
HETATM    5  C3  UNL     1     -33.072   4.733   2.515  1.00 20.00     0.311 C 
BRANCH   4   6
HETATM    6  C6  UNL     1     -34.129   6.406   3.879  1.00 20.00     0.299 C 
BRANCH   6   7
HETATM    7  C7  UNL     1     -34.854   5.162   4.358  1.00 20.00     0.197 C 
BRANCH   7   8
HETATM    8  O9  UNL     1     -34.857   5.135   5.779  1.00 20.00    -0.394 OA
HETATM    9  C4  UNL     1     -34.292   6.318   6.325  1.00 20.00     0.201 C 
ENDBRANCH   7   8
ENDBRANCH   6   7
ENDBRANCH   4   6
ENDBRANCH   3   4
TORSDOF 4
ENDMDL
MODEL 2
REMARK VINA RESULT:      -3.8     11.431     12.035
REMARK  4 active torsions:
REMARK  status: ('A' for Active; 'I' for Inactive)
REMARK    1  A    between atoms: C5_5  and  N8_8 
REMARK    2  A    between atoms: C6_6  and  C7_7 
REMARK    3  A    between atoms: C6_6  and  N8_8 
REMARK    4  A    between atoms: C7_7  and  O9_9 
ROOT
HETATM    1  C1  UNL     1     -33.202  16.563  -2.746  1.00 20.00     0.013 C 
HETATM    2  C2  UNL     1     -33.581  15.677  -3.463  1.00 20.00    -0.087 C 
HETATM    3  C5  UNL     1     -34.043  14.593  -4.333  1.00 20.00     0.364 C 
ENDROOT
BRANCH   3   4
HETATM    4  N8  UNL     1     -34.690  15.131  -5.529  1.00 20.00     0.097 N 
HETATM    5  C3  UNL     1     -33.798  15.027  -6.683  1.00 20.00     0.311 C 
BRANCH   4   6
HETATM    6  C6  UNL     1     -35.947  14.431  -5.789  1.00 20.00     0.299 C 
BRANCH   6   7
HETATM    7  C7  UNL     1     -36.370  13.664  -4.550  1.00 20.00     0.197 C 
BRANCH   7   8
HETATM    8  O9  UNL     1     -37.787  13.680  -4.445  1.00 20.00    -0.394 OA
HETATM    9  C4  UNL     1     -38.283  15.001  -4.279  1.00 20.00     0.201 C 
ENDBRANCH   7   8
ENDBRANCH   6   7
ENDBRANCH   4   6
ENDBRANCH   3   4
TORSDOF 4
ENDMDL
MODEL 3
REMARK VINA RESULT:      -3.7      2.223      4.658
REMARK  4 active torsions:
REMARK  status: ('A' for Active; 'I' for Inactive)
REMARK    1  A    between atoms: C5_5  and  N8_8 
REMARK    2  A    between atoms: C6_6  and  C7_7 
REMARK    3  A    between atoms: C6_6  and  N8_8 
REMARK    4  A    between atoms: C7_7  and  O9_9 
ROOT
HETATM    1  C1  UNL     1     -34.821   5.031   6.200  1.00 20.00     0.013 C 
HETATM    2  C2  UNL     1     -34.499   5.782   5.319  1.00 20.00    -0.087 C 
HETATM    3  C5  UNL     1     -34.110   6.701   4.248  1.00 20.00     0.364 C 
ENDROOT
BRANCH   3   4
HETATM    4  N8  UNL     1     -32.947   6.189   3.524  1.00 20.00     0.097 N 
HETATM    5  C3  UNL     1     -33.366   5.260   2.475  1.00 20.00     0.311 C 
BRANCH   4   6
HETATM    6  C6  UNL     1     -32.174   7.290   2.953  1.00 20.00     0.299 C 
BRANCH   6   7
HETATM    7  C7  UNL     1     -32.481   7.415   1.472  1.00 20.00     0.197 C 
BRANCH   7   8
HETATM    8  O9  UNL     1     -32.896   8.744   1.186  1.00 20.00    -0.394 OA
HETATM    9  C4  UNL     1     -33.255   8.896  -0.180  1.00 20.00     0.201 C 
ENDBRANCH   7   8
ENDBRANCH   6   7
ENDBRANCH   4   6
ENDBRANCH   3   4
TORSDOF 4
ENDMDL
MODEL 4
REMARK VINA RESULT:      -3.7     11.483     11.896
REMARK  4 active torsions:
REMARK  status: ('A' for Active; 'I' for Inactive)
REMARK    1  A    between atoms: C5_5  and  N8_8 
REMARK    2  A    between atoms: C6_6  and  C7_7 
REMARK    3  A    between atoms: C6_6  and  N8_8 
REMARK    4  A    between atoms: C7_7  and  O9_9 
ROOT
HETATM    1  C1  UNL     1     -33.246  17.389  -1.931  1.00 20.00     0.013 C 
HETATM    2  C2  UNL     1     -33.289  16.532  -2.772  1.00 20.00    -0.087 C 
HETATM    3  C5  UNL     1     -33.337  15.484  -3.794  1.00 20.00     0.364 C 
ENDROOT
BRANCH   3   4
HETATM    4  N8  UNL     1     -34.605  15.528  -4.520  1.00 20.00     0.097 N 
HETATM    5  C3  UNL     1     -34.440  14.989  -5.870  1.00 20.00     0.311 C 
BRANCH   4   6
HETATM    6  C6  UNL     1     -35.636  14.787  -3.795  1.00 20.00     0.299 C 
BRANCH   6   7
HETATM    7  C7  UNL     1     -36.258  13.749  -4.711  1.00 20.00     0.197 C 
BRANCH   7   8
HETATM    8  O9  UNL     1     -37.646  13.640  -4.428  1.00 20.00    -0.394 OA
HETATM    9  C4  UNL     1     -38.251  14.917  -4.280  1.00 20.00     0.201 C 
ENDBRANCH   7   8
ENDBRANCH   6   7
ENDBRANCH   4   6
ENDBRANCH   3   4
TORSDOF 4
ENDMDL
MODEL 5
REMARK VINA RESULT:      -3.5     16.282     17.191
REMARK  4 active torsions:
REMARK  status: ('A' for Active; 'I' for Inactive)
REMARK    1  A    between atoms: C5_5  and  N8_8 
REMARK    2  A    between atoms: C6_6  and  C7_7 
REMARK    3  A    between atoms: C6_6  and  N8_8 
REMARK    4  A    between atoms: C7_7  and  O9_9 
ROOT
HETATM    1  C1  UNL     1     -25.443  16.193  12.293  1.00 20.00     0.013 C 
HETATM    2  C2  UNL     1     -24.631  16.448  11.445  1.00 20.00    -0.087 C 
HETATM    3  C5  UNL     1     -23.643  16.755  10.408  1.00 20.00     0.364 C 
ENDROOT
BRANCH   3   4
HETATM    4  N8  UNL     1     -22.964  18.016  10.699  1.00 20.00     0.097 N 
HETATM    5  C3  UNL     1     -21.897  17.809  11.677  1.00 20.00     0.311 C 
BRANCH   4   6
HETATM    6  C6  UNL     1     -22.426  18.602   9.472  1.00 20.00     0.299 C 
BRANCH   6   7
HETATM    7  C7  UNL     1     -23.237  18.125   8.281  1.00 20.00     0.197 C 
BRANCH   7   8
HETATM    8  O9  UNL     1     -22.385  17.999   7.150  1.00 20.00    -0.394 OA
HETATM    9  C4  UNL     1     -21.293  17.130   7.414  1.00 20.00     0.201 C 
ENDBRANCH   7   8
ENDBRANCH   6   7
ENDBRANCH   4   6
ENDBRANCH   3   4
TORSDOF 4
ENDMDL
MODEL 6
REMARK VINA RESULT:      -3.5     11.074     12.033
REMARK  4 active torsions:
REMARK  status: ('A' for Active; 'I' for Inactive)
REMARK    1  A    between atoms: C5_5  and  N8_8 
REMARK    2  A    between atoms: C6_6  and  C7_7 
REMARK    3  A    between atoms: C6_6  and  N8_8 
REMARK    4  A    between atoms: C7_7  and  O9_9 
ROOT
HETATM    1  C1  UNL     1     -32.797  17.810  -1.589  1.00 20.00     0.013 C 
HETATM    2  C2  UNL     1     -33.061  16.992  -2.428  1.00 20.00    -0.087 C 
HETATM    3  C5  UNL     1     -33.377  15.995  -3.453  1.00 20.00     0.364 C 
ENDROOT
BRANCH   3   4
HETATM    4  N8  UNL     1     -34.548  15.210  -3.066  1.00 20.00     0.097 N 
HETATM    5  C3  UNL     1     -35.754  16.037  -3.106  1.00 20.00     0.311 C 
BRANCH   4   6
HETATM    6  C6  UNL     1     -34.696  14.047  -3.940  1.00 20.00     0.299 C 
BRANCH   6   7
HETATM    7  C7  UNL     1     -36.124  13.969  -4.449  1.00 20.00     0.197 C 
BRANCH   7   8
HETATM    8  O9  UNL     1     -36.114  13.669  -5.838  1.00 20.00    -0.394 OA
HETATM    9  C4  UNL     1     -35.539  14.723  -6.596  1.00 20.00     0.201 C 
ENDBRANCH   7   8
ENDBRANCH   6   7
ENDBRANCH   4   6
ENDBRANCH   3   4
TORSDOF 4
ENDMDL
MODEL 7
REMARK VINA RESULT:      -3.3     11.458     12.346
REMARK  4 active torsions:
REMARK  status: ('A' for Active; 'I' for Inactive)
REMARK    1  A    between atoms: C5_5  and  N8_8 
REMARK    2  A    between atoms: C6_6  and  C7_7 
REMARK    3  A    between atoms: C6_6  and  N8_8 
REMARK    4  A    between atoms: C7_7  and  O9_9 
ROOT
HETATM    1  C1  UNL     1     -31.670  18.340  -0.810  1.00 20.00     0.013 C 
HETATM    2  C2  UNL     1     -32.357  17.862  -1.672  1.00 20.00    -0.087 C 
HETATM    3  C5  UNL     1     -33.191  17.282  -2.726  1.00 20.00     0.364 C 
ENDROOT
BRANCH   3   4
HETATM    4  N8  UNL     1     -33.991  16.176  -2.203  1.00 20.00     0.097 N 
HETATM    5  C3  UNL     1     -35.156  16.685  -1.479  1.00 20.00     0.311 C 
BRANCH   4   6
HETATM    6  C6  UNL     1     -34.410  15.289  -3.287  1.00 20.00     0.299 C 
BRANCH   6   7
HETATM    7  C7  UNL     1     -33.247  15.056  -4.233  1.00 20.00     0.197 C 
BRANCH   7   8
HETATM    8  O9  UNL     1     -33.685  14.275  -5.337  1.00 20.00    -0.394 OA
HETATM    9  C4  UNL     1     -34.100  15.093  -6.422  1.00 20.00     0.201 C 
ENDBRANCH   7   8
ENDBRANCH   6   7
ENDBRANCH   4   6
ENDBRANCH   3   4
TORSDOF 4
ENDMDL
MODEL 8
REMARK VINA RESULT:      -3.3      1.976      4.026
REMARK  4 active torsions:
REMARK  status: ('A' for Active; 'I' for Inactive)
REMARK    1  A    between atoms: C5_5  and  N8_8 
REMARK    2  A    between atoms: C6_6  and  C7_7 
REMARK    3  A    between atoms: C6_6  and  N8_8 
REMARK    4  A    between atoms: C7_7  and  O9_9 
ROOT
HETATM    1  C1  UNL     1     -33.604   7.334   6.069  1.00 20.00     0.013 C 
HETATM    2  C2  UNL     1     -34.100   6.243   5.985  1.00 20.00    -0.087 C 
HETATM    3  C5  UNL     1     -34.706   4.914   5.888  1.00 20.00     0.364 C 
ENDROOT
BRANCH   3   4
HETATM    4  N8  UNL     1     -35.028   4.592   4.499  1.00 20.00     0.097 N 
HETATM    5  C3  UNL     1     -35.735   5.705   3.867  1.00 20.00     0.311 C 
BRANCH   4   6
HETATM    6  C6  UNL     1     -33.811   4.269   3.754  1.00 20.00     0.299 C 
BRANCH   6   7
HETATM    7  C7  UNL     1     -33.638   5.251   2.610  1.00 20.00     0.197 C 
BRANCH   7   8
HETATM    8  O9  UNL     1     -32.482   6.045   2.840  1.00 20.00    -0.394 OA
HETATM    9  C4  UNL     1     -32.571   7.300   2.180  1.00 20.00     0.201 C 
ENDBRANCH   7   8
ENDBRANCH   6   7
ENDBRANCH   4   6
ENDBRANCH   3   4
TORSDOF 4
ENDMDL
MODEL 9
REMARK VINA RESULT:      -3.2     15.686     16.645
REMARK  4 active torsions:
REMARK  status: ('A' for Active; 'I' for Inactive)
REMARK    1  A    between atoms: C5_5  and  N8_8 
REMARK    2  A    between atoms: C6_6  and  C7_7 
REMARK    3  A    between atoms: C6_6  and  N8_8 
REMARK    4  A    between atoms: C7_7  and  O9_9 
ROOT
HETATM    1  C1  UNL     1     -24.843  15.715  11.845  1.00 20.00     0.013 C 
HETATM    2  C2  UNL     1     -24.802  16.869  11.514  1.00 20.00    -0.087 C 
HETATM    3  C5  UNL     1     -24.755  18.278  11.115  1.00 20.00     0.364 C 
ENDROOT
BRANCH   3   4
HETATM    4  N8  UNL     1     -23.686  18.504  10.144  1.00 20.00     0.097 N 
HETATM    5  C3  UNL     1     -22.455  17.844  10.575  1.00 20.00     0.311 C 
BRANCH   4   6
HETATM    6  C6  UNL     1     -24.087  18.026   8.821  1.00 20.00     0.299 C 
BRANCH   6   7
HETATM    7  C7  UNL     1     -24.297  19.209   7.893  1.00 20.00     0.197 C 
BRANCH   7   8
HETATM    8  O9  UNL     1     -24.773  18.745   6.637  1.00 20.00    -0.394 OA
HETATM    9  C4  UNL     1     -26.155  19.026   6.468  1.00 20.00     0.201 C 
ENDBRANCH   7   8
ENDBRANCH   6   7
ENDBRANCH   4   6
ENDBRANCH   3   4
TORSDOF 4
ENDMDL
