MODEL 1
REMARK VINA RESULT:      -4.6      0.000      0.000
REMARK  1 active torsions:
REMARK  status: ('A' for Active; 'I' for Inactive)
REMARK    1  A    between atoms: C6_6  and  N10_10 
ROOT
HETATM    1  C1  UNL     1     -24.278  18.798   7.587  1.00 20.00    -0.017 A 
HETATM    2  C2  UNL     1     -25.225  19.198   8.378  1.00 20.00     0.079 A 
HETATM    3  C3  UNL     1     -25.014  18.975   9.792  1.00 20.00     0.047 A 
HETATM    4  C4  UNL     1     -22.744  17.885   9.592  1.00 20.00     0.057 A 
HETATM    5  C5  UNL     1     -22.503  17.877   8.260  1.00 20.00     0.129 A 
HETATM    6  C6  UNL     1     -23.914  18.391  10.321  1.00 20.00     0.135 A 
HETATM    7  N9  UNL     1     -23.272  18.335   7.202  1.00 20.00    -0.218 NA
ENDROOT
BRANCH   6   8
HETATM    8  N10 UNL     1     -23.909  18.268  11.739  1.00 20.00    -0.049 N 
HETATM    9  C7  UNL     1     -25.081  17.447  12.184  1.00 20.00     0.276 C 
HETATM   10  C8  UNL     1     -22.594  17.715  12.199  1.00 20.00     0.276 C 
HETATM   11  H21 UNL     1     -24.013  19.205  12.155  1.00 20.00     0.285 HD
ENDBRANCH   6   8
TORSDOF 1
ENDMDL
MODEL 2
REMARK VINA RESULT:      -4.1     15.765     17.134
REMARK  1 active torsions:
REMARK  status: ('A' for Active; 'I' for Inactive)
REMARK    1  A    between atoms: C6_6  and  N10_10 
ROOT
HETATM    1  C1  UNL     1     -33.247  14.908  -4.189  1.00 20.00    -0.017 A 
HETATM    2  C2  UNL     1     -32.883  15.868  -3.397  1.00 20.00     0.079 A 
HETATM    3  C3  UNL     1     -33.916  16.429  -2.553  1.00 20.00     0.047 A 
HETATM    4  C4  UNL     1     -35.798  14.945  -3.353  1.00 20.00     0.057 A 
HETATM    5  C5  UNL     1     -35.215  14.151  -4.281  1.00 20.00     0.129 A 
HETATM    6  C6  UNL     1     -35.205  16.016  -2.542  1.00 20.00     0.135 A 
HETATM    7  N9  UNL     1     -33.907  14.108  -4.737  1.00 20.00    -0.218 NA
ENDROOT
BRANCH   6   8
HETATM    8  N10 UNL     1     -36.059  16.703  -1.634  1.00 20.00    -0.049 N 
HETATM    9  C7  UNL     1     -35.280  17.141  -0.431  1.00 20.00     0.276 C 
HETATM   10  C8  UNL     1     -36.744  17.836  -2.336  1.00 20.00     0.276 C 
HETATM   11  H21 UNL     1     -36.791  16.054  -1.309  1.00 20.00     0.285 HD
ENDBRANCH   6   8
TORSDOF 1
ENDMDL
MODEL 3
REMARK VINA RESULT:      -4.0     16.427     18.158
REMARK  1 active torsions:
REMARK  status: ('A' for Active; 'I' for Inactive)
REMARK    1  A    between atoms: C6_6  and  N10_10 
ROOT
HETATM    1  C1  UNL     1     -35.319  14.809  -6.338  1.00 20.00    -0.017 A 
HETATM    2  C2  UNL     1     -34.479  15.786  -6.187  1.00 20.00     0.079 A 
HETATM    3  C3  UNL     1     -34.104  16.102  -4.825  1.00 20.00     0.047 A 
HETATM    4  C4  UNL     1     -35.507  14.324  -3.704  1.00 20.00     0.057 A 
HETATM    5  C5  UNL     1     -36.122  13.697  -4.735  1.00 20.00     0.129 A 
HETATM    6  C6  UNL     1     -34.566  15.451  -3.732  1.00 20.00     0.135 A 
HETATM    7  N9  UNL     1     -36.050  13.924  -6.100  1.00 20.00    -0.218 NA
ENDROOT
BRANCH   6   8
HETATM    8  N10 UNL     1     -34.070  15.923  -2.484  1.00 20.00    -0.049 N 
HETATM    9  C7  UNL     1     -32.998  16.945  -2.715  1.00 20.00     0.276 C 
HETATM   10  C8  UNL     1     -35.201  16.436  -1.645  1.00 20.00     0.276 C 
HETATM   11  H21 UNL     1     -33.641  15.135  -1.977  1.00 20.00     0.285 HD
ENDBRANCH   6   8
TORSDOF 1
ENDMDL
MODEL 4
REMARK VINA RESULT:      -4.0     16.317     18.042
REMARK  1 active torsions:
REMARK  status: ('A' for Active; 'I' for Inactive)
REMARK    1  A    between atoms: C6_6  and  N10_10 
ROOT
HETATM    1  C1  UNL     1     -36.224  13.587  -4.473  1.00 20.00    -0.017 A 
HETATM    2  C2  UNL     1     -34.979  13.627  -4.110  1.00 20.00     0.079 A 
HETATM    3  C3  UNL     1     -34.544  14.840  -3.451  1.00 20.00     0.047 A 
HETATM    4  C4  UNL     1     -36.768  16.038  -3.524  1.00 20.00     0.057 A 
HETATM    5  C5  UNL     1     -37.591  15.160  -4.143  1.00 20.00     0.129 A 
HETATM    6  C6  UNL     1     -35.342  15.903  -3.198  1.00 20.00     0.135 A 
HETATM    7  N9  UNL     1     -37.342  13.893  -4.647  1.00 20.00    -0.218 NA
ENDROOT
BRANCH   6   8
HETATM    8  N10 UNL     1     -34.713  16.997  -2.539  1.00 20.00    -0.049 N 
HETATM    9  C7  UNL     1     -35.184  17.077  -1.118  1.00 20.00     0.276 C 
HETATM   10  C8  UNL     1     -33.224  16.877  -2.659  1.00 20.00     0.276 C 
HETATM   11  H21 UNL     1     -34.991  17.872  -3.006  1.00 20.00     0.285 HD
ENDBRANCH   6   8
TORSDOF 1
ENDMDL
MODEL 5
REMARK VINA RESULT:      -3.9     16.570     18.402
REMARK  1 active torsions:
REMARK  status: ('A' for Active; 'I' for Inactive)
REMARK    1  A    between atoms: C6_6  and  N10_10 
ROOT
HETATM    1  C1  UNL     1     -35.887  13.884  -5.119  1.00 20.00    -0.017 A 
HETATM    2  C2  UNL     1     -35.496  14.026  -3.891  1.00 20.00     0.079 A 
HETATM    3  C3  UNL     1     -34.576  15.114  -3.633  1.00 20.00     0.047 A 
HETATM    4  C4  UNL     1     -34.454  15.974  -6.006  1.00 20.00     0.057 A 
HETATM    5  C5  UNL     1     -35.267  15.141  -6.697  1.00 20.00     0.129 A 
HETATM    6  C6  UNL     1     -34.119  15.970  -4.576  1.00 20.00     0.135 A 
HETATM    7  N9  UNL     1     -36.016  14.055  -6.272  1.00 20.00    -0.218 NA
ENDROOT
BRANCH   6   8
HETATM    8  N10 UNL     1     -33.220  16.970  -4.109  1.00 20.00    -0.049 N 
HETATM    9  C7  UNL     1     -33.691  18.324  -4.548  1.00 20.00     0.276 C 
HETATM   10  C8  UNL     1     -33.057  16.856  -2.623  1.00 20.00     0.276 C 
HETATM   11  H21 UNL     1     -32.295  16.812  -4.535  1.00 20.00     0.285 HD
ENDBRANCH   6   8
TORSDOF 1
ENDMDL
MODEL 6
REMARK VINA RESULT:      -3.9     14.898     16.579
REMARK  1 active torsions:
REMARK  status: ('A' for Active; 'I' for Inactive)
REMARK    1  A    between atoms: C6_6  and  N10_10 
ROOT
HETATM    1  C1  UNL     1     -34.900  14.223  -4.161  1.00 20.00    -0.017 A 
HETATM    2  C2  UNL     1     -35.836  14.786  -3.462  1.00 20.00     0.079 A 
HETATM    3  C3  UNL     1     -35.445  15.943  -2.684  1.00 20.00     0.047 A 
HETATM    4  C4  UNL     1     -33.015  15.965  -3.374  1.00 20.00     0.057 A 
HETATM    5  C5  UNL     1     -32.905  14.909  -4.214  1.00 20.00     0.129 A 
HETATM    6  C6  UNL     1     -34.194  16.456  -2.649  1.00 20.00     0.135 A 
HETATM    7  N9  UNL     1     -33.854  13.992  -4.637  1.00 20.00    -0.218 NA
ENDROOT
BRANCH   6   8
HETATM    8  N10 UNL     1     -34.025  17.599  -1.817  1.00 20.00    -0.049 N 
HETATM    9  C7  UNL     1     -34.795  17.423  -0.544  1.00 20.00     0.276 C 
HETATM   10  C8  UNL     1     -32.565  17.855  -1.592  1.00 20.00     0.276 C 
HETATM   11  H21 UNL     1     -34.411  18.423  -2.301  1.00 20.00     0.285 HD
ENDBRANCH   6   8
TORSDOF 1
ENDMDL
MODEL 7
REMARK VINA RESULT:      -3.9     14.605     16.369
REMARK  1 active torsions:
REMARK  status: ('A' for Active; 'I' for Inactive)
REMARK    1  A    between atoms: C6_6  and  N10_10 
ROOT
HETATM    1  C1  UNL     1     -33.337  18.151  -1.156  1.00 20.00    -0.017 A 
HETATM    2  C2  UNL     1     -32.586  17.722  -2.122  1.00 20.00     0.079 A 
HETATM    3  C3  UNL     1     -33.073  16.568  -2.847  1.00 20.00     0.047 A 
HETATM    4  C4  UNL     1     -35.216  16.272  -1.541  1.00 20.00     0.057 A 
HETATM    5  C5  UNL     1     -35.179  17.269  -0.626  1.00 20.00     0.129 A 
HETATM    6  C6  UNL     1     -34.237  15.931  -2.582  1.00 20.00     0.135 A 
HETATM    7  N9  UNL     1     -34.226  18.249  -0.398  1.00 20.00    -0.218 NA
ENDROOT
BRANCH   6   8
HETATM    8  N10 UNL     1     -34.528  14.815  -3.416  1.00 20.00    -0.049 N 
HETATM    9  C7  UNL     1     -35.906  14.953  -3.991  1.00 20.00     0.276 C 
HETATM   10  C8  UNL     1     -33.465  14.670  -4.463  1.00 20.00     0.276 C 
HETATM   11  H21 UNL     1     -34.517  13.959  -2.843  1.00 20.00     0.285 HD
ENDBRANCH   6   8
TORSDOF 1
ENDMDL
MODEL 8
REMARK VINA RESULT:      -3.9     15.633     17.515
REMARK  1 active torsions:
REMARK  status: ('A' for Active; 'I' for Inactive)
REMARK    1  A    between atoms: C6_6  and  N10_10 
ROOT
HETATM    1  C1  UNL     1     -32.962  16.631  -2.754  1.00 20.00    -0.017 A 
HETATM    2  C2  UNL     1     -33.086  15.770  -3.715  1.00 20.00     0.079 A 
HETATM    3  C3  UNL     1     -34.412  15.224  -3.919  1.00 20.00     0.047 A 
HETATM    4  C4  UNL     1     -35.555  16.509  -2.068  1.00 20.00     0.057 A 
HETATM    5  C5  UNL     1     -34.562  17.252  -1.525  1.00 20.00     0.129 A 
HETATM    6  C6  UNL     1     -35.498  15.555  -3.183  1.00 20.00     0.135 A 
HETATM    7  N9  UNL     1     -33.218  17.335  -1.852  1.00 20.00    -0.218 NA
ENDROOT
BRANCH   6   8
HETATM    8  N10 UNL     1     -36.707  14.900  -3.550  1.00 20.00    -0.049 N 
HETATM    9  C7  UNL     1     -37.690  15.900  -4.080  1.00 20.00     0.276 C 
HETATM   10  C8  UNL     1     -36.415  13.793  -4.517  1.00 20.00     0.276 C 
HETATM   11  H21 UNL     1     -37.124  14.474  -2.710  1.00 20.00     0.285 HD
ENDBRANCH   6   8
TORSDOF 1
ENDMDL
MODEL 9
REMARK VINA RESULT:      -3.9     17.458     19.030
REMARK  1 active torsions:
REMARK  status: ('A' for Active; 'I' for Inactive)
REMARK    1  A    between atoms: C6_6  and  N10_10 
ROOT
HETATM    1  C1  UNL     1     -33.747  14.852  -4.703  1.00 20.00    -0.017 A 
HETATM    2  C2  UNL     1     -33.989  15.172  -3.470  1.00 20.00     0.079 A 
HETATM    3  C3  UNL     1     -35.374  15.431  -3.137  1.00 20.00     0.047 A 
HETATM    4  C4  UNL     1     -36.324  15.003  -5.439  1.00 20.00     0.057 A 
HETATM    5  C5  UNL     1     -35.240  14.688  -6.186  1.00 20.00     0.129 A 
HETATM    6  C6  UNL     1     -36.401  15.356  -4.015  1.00 20.00     0.135 A 
HETATM    7  N9  UNL     1     -33.901  14.605  -5.839  1.00 20.00    -0.218 NA
ENDROOT
BRANCH   6   8
HETATM    8  N10 UNL     1     -37.686  15.650  -3.479  1.00 20.00    -0.049 N 
HETATM    9  C7  UNL     1     -37.922  17.130  -3.501  1.00 20.00     0.276 C 
HETATM   10  C8  UNL     1     -38.736  14.875  -4.217  1.00 20.00     0.276 C 
HETATM   11  H21 UNL     1     -37.714  15.347  -2.494  1.00 20.00     0.285 HD
ENDBRANCH   6   8
TORSDOF 1
ENDMDL
