MODEL 1
REMARK VINA RESULT:      -4.5      0.000      0.000
REMARK  1 active torsions:
REMARK  status: ('A' for Active; 'I' for Inactive)
REMARK    1  A    between atoms: C3_3  and  C9_9 
ROOT
HETATM    1  C1  UNL     1     -33.055  15.703  -3.409  1.00 20.00    -0.030 C 
HETATM    2  C2  UNL     1     -33.875  16.315  -2.529  1.00 20.00    -0.029 C 
HETATM    3  C4  UNL     1     -33.519  14.694  -4.440  1.00 20.00     0.032 C 
HETATM    4  C5  UNL     1     -35.380  16.111  -2.484  1.00 20.00     0.044 C 
HETATM    5  C6  UNL     1     -36.068  13.716  -4.926  1.00 20.00     0.007 C 
HETATM    6  C7  UNL     1     -37.019  14.531  -3.990  1.00 20.00     0.018 C 
HETATM    7  C8  UNL     1     -34.924  14.278  -4.050  1.00 20.00     0.005 C 
HETATM    8  C9  UNL     1     -35.828  15.541  -3.836  1.00 20.00     0.027 C 
ENDROOT
BRANCH   8   9
HETATM    9  C3  UNL     1     -35.854  16.668  -4.934  1.00 20.00     0.132 C 
HETATM   10  C10 UNL     1     -36.409  18.004  -4.522  1.00 20.00     0.091 C 
HETATM   11  O11 UNL     1     -35.438  16.467  -6.075  1.00 20.00    -0.298 OA
ENDBRANCH   8   9
TORSDOF 1
ENDMDL
MODEL 2
REMARK VINA RESULT:      -4.4      1.260      2.048
REMARK  1 active torsions:
REMARK  status: ('A' for Active; 'I' for Inactive)
REMARK    1  A    between atoms: C3_3  and  C9_9 
ROOT
HETATM    1  C1  UNL     1     -33.449  18.005  -2.050  1.00 20.00    -0.030 C 
HETATM    2  C2  UNL     1     -34.475  17.480  -1.348  1.00 20.00    -0.029 C 
HETATM    3  C4  UNL     1     -32.810  17.333  -3.248  1.00 20.00     0.032 C 
HETATM    4  C5  UNL     1     -35.159  16.169  -1.693  1.00 20.00     0.044 C 
HETATM    5  C6  UNL     1     -33.410  14.897  -4.430  1.00 20.00     0.007 C 
HETATM    6  C7  UNL     1     -34.681  14.368  -3.688  1.00 20.00     0.018 C 
HETATM    7  C8  UNL     1     -33.287  15.893  -3.254  1.00 20.00     0.005 C 
HETATM    8  C9  UNL     1     -34.851  15.836  -3.157  1.00 20.00     0.027 C 
ENDROOT
BRANCH   8   9
HETATM    9  C3  UNL     1     -35.718  16.725  -4.125  1.00 20.00     0.132 C 
HETATM   10  C10 UNL     1     -37.155  16.946  -3.737  1.00 20.00     0.091 C 
HETATM   11  O11 UNL     1     -35.242  17.218  -5.147  1.00 20.00    -0.298 OA
ENDBRANCH   8   9
TORSDOF 1
ENDMDL
MODEL 3
REMARK VINA RESULT:      -4.3      1.781      3.185
REMARK  1 active torsions:
REMARK  status: ('A' for Active; 'I' for Inactive)
REMARK    1  A    between atoms: C3_3  and  C9_9 
ROOT
HETATM    1  C1  UNL     1     -35.497  15.731  -7.246  1.00 20.00    -0.030 C 
HETATM    2  C2  UNL     1     -36.276  16.517  -6.473  1.00 20.00    -0.029 C 
HETATM    3  C4  UNL     1     -34.381  14.856  -6.711  1.00 20.00     0.032 C 
HETATM    4  C5  UNL     1     -36.171  16.594  -4.960  1.00 20.00     0.044 C 
HETATM    5  C6  UNL     1     -33.499  14.522  -4.104  1.00 20.00     0.007 C 
HETATM    6  C7  UNL     1     -34.494  15.335  -3.212  1.00 20.00     0.018 C 
HETATM    7  C8  UNL     1     -34.110  15.306  -5.289  1.00 20.00     0.005 C 
HETATM    8  C9  UNL     1     -35.443  15.340  -4.463  1.00 20.00     0.027 C 
ENDROOT
BRANCH   8   9
HETATM    9  C3  UNL     1     -36.401  14.091  -4.491  1.00 20.00     0.132 C 
HETATM   10  C10 UNL     1     -37.870  14.360  -4.307  1.00 20.00     0.091 C 
HETATM   11  O11 UNL     1     -35.970  12.951  -4.658  1.00 20.00    -0.298 OA
ENDBRANCH   8   9
TORSDOF 1
ENDMDL
MODEL 4
REMARK VINA RESULT:      -4.3      1.127      3.309
REMARK  1 active torsions:
REMARK  status: ('A' for Active; 'I' for Inactive)
REMARK    1  A    between atoms: C3_3  and  C9_9 
ROOT
HETATM    1  C1  UNL     1     -37.122  14.596  -4.250  1.00 20.00    -0.030 C 
HETATM    2  C2  UNL     1     -36.176  13.649  -4.418  1.00 20.00    -0.029 C 
HETATM    3  C4  UNL     1     -36.854  15.968  -3.665  1.00 20.00     0.032 C 
HETATM    4  C5  UNL     1     -34.707  13.846  -4.088  1.00 20.00     0.044 C 
HETATM    5  C6  UNL     1     -34.478  17.051  -2.731  1.00 20.00     0.007 C 
HETATM    6  C7  UNL     1     -33.374  15.992  -3.055  1.00 20.00     0.018 C 
HETATM    7  C8  UNL     1     -35.483  15.912  -3.018  1.00 20.00     0.005 C 
HETATM    8  C9  UNL     1     -34.424  15.352  -4.030  1.00 20.00     0.027 C 
ENDROOT
BRANCH   8   9
HETATM    9  C3  UNL     1     -34.344  15.961  -5.479  1.00 20.00     0.132 C 
HETATM   10  C10 UNL     1     -33.893  15.037  -6.578  1.00 20.00     0.091 C 
HETATM   11  O11 UNL     1     -34.638  17.134  -5.703  1.00 20.00    -0.298 OA
ENDBRANCH   8   9
TORSDOF 1
ENDMDL
MODEL 5
REMARK VINA RESULT:      -4.3      1.552      3.105
REMARK  1 active torsions:
REMARK  status: ('A' for Active; 'I' for Inactive)
REMARK    1  A    between atoms: C3_3  and  C9_9 
ROOT
HETATM    1  C1  UNL     1     -34.775  14.625  -4.289  1.00 20.00    -0.030 C 
HETATM    2  C2  UNL     1     -33.477  14.993  -4.322  1.00 20.00    -0.029 C 
HETATM    3  C4  UNL     1     -35.780  15.153  -3.285  1.00 20.00     0.032 C 
HETATM    4  C5  UNL     1     -32.859  16.021  -3.390  1.00 20.00     0.044 C 
HETATM    5  C6  UNL     1     -35.418  16.963  -1.215  1.00 20.00     0.007 C 
HETATM    6  C7  UNL     1     -33.947  17.475  -1.353  1.00 20.00     0.018 C 
HETATM    7  C8  UNL     1     -34.990  15.840  -2.188  1.00 20.00     0.005 C 
HETATM    8  C9  UNL     1     -33.988  16.877  -2.804  1.00 20.00     0.027 C 
ENDROOT
BRANCH   8   9
HETATM    9  C3  UNL     1     -34.508  17.917  -3.865  1.00 20.00     0.132 C 
HETATM   10  C10 UNL     1     -33.465  18.719  -4.595  1.00 20.00     0.091 C 
HETATM   11  O11 UNL     1     -35.709  18.065  -4.087  1.00 20.00    -0.298 OA
ENDBRANCH   8   9
TORSDOF 1
ENDMDL
MODEL 6
REMARK VINA RESULT:      -4.1     17.405     19.001
REMARK  1 active torsions:
REMARK  status: ('A' for Active; 'I' for Inactive)
REMARK    1  A    between atoms: C3_3  and  C9_9 
ROOT
HETATM    1  C1  UNL     1     -25.749  19.099   9.803  1.00 20.00    -0.030 C 
HETATM    2  C2  UNL     1     -26.023  19.168  11.123  1.00 20.00    -0.029 C 
HETATM    3  C4  UNL     1     -24.427  18.623   9.235  1.00 20.00     0.032 C 
HETATM    4  C5  UNL     1     -25.061  18.733  12.215  1.00 20.00     0.044 C 
HETATM    5  C6  UNL     1     -22.147  17.766  10.560  1.00 20.00     0.007 C 
HETATM    6  C7  UNL     1     -22.527  17.728  12.076  1.00 20.00     0.018 C 
HETATM    7  C8  UNL     1     -23.435  18.602  10.383  1.00 20.00     0.005 C 
HETATM    8  C9  UNL     1     -24.019  17.795  11.594  1.00 20.00     0.027 C 
ENDROOT
BRANCH   8   9
HETATM    9  C3  UNL     1     -24.633  16.367  11.346  1.00 20.00     0.132 C 
HETATM   10  C10 UNL     1     -25.667  15.893  12.332  1.00 20.00     0.091 C 
HETATM   11  O11 UNL     1     -24.286  15.672  10.392  1.00 20.00    -0.298 OA
ENDBRANCH   8   9
TORSDOF 1
ENDMDL
MODEL 7
REMARK VINA RESULT:      -4.1      1.416      3.131
REMARK  1 active torsions:
REMARK  status: ('A' for Active; 'I' for Inactive)
REMARK    1  A    between atoms: C3_3  and  C9_9 
ROOT
HETATM    1  C1  UNL     1     -36.416  14.447  -5.229  1.00 20.00    -0.030 C 
HETATM    2  C2  UNL     1     -35.345  14.488  -6.049  1.00 20.00    -0.029 C 
HETATM    3  C4  UNL     1     -36.404  14.936  -3.794  1.00 20.00     0.032 C 
HETATM    4  C5  UNL     1     -33.998  15.074  -5.661  1.00 20.00     0.044 C 
HETATM    5  C6  UNL     1     -34.325  16.033  -2.323  1.00 20.00     0.007 C 
HETATM    6  C7  UNL     1     -33.136  16.194  -3.326  1.00 20.00     0.018 C 
HETATM    7  C8  UNL     1     -34.951  15.118  -3.401  1.00 20.00     0.005 C 
HETATM    8  C9  UNL     1     -34.205  16.003  -4.459  1.00 20.00     0.027 C 
ENDROOT
BRANCH   8   9
HETATM    9  C3  UNL     1     -34.846  17.367  -4.914  1.00 20.00     0.132 C 
HETATM   10  C10 UNL     1     -34.302  17.984  -6.174  1.00 20.00     0.091 C 
HETATM   11  O11 UNL     1     -35.748  17.902  -4.270  1.00 20.00    -0.298 OA
ENDBRANCH   8   9
TORSDOF 1
ENDMDL
MODEL 8
REMARK VINA RESULT:      -4.1      1.553      2.041
REMARK  1 active torsions:
REMARK  status: ('A' for Active; 'I' for Inactive)
REMARK    1  A    between atoms: C3_3  and  C9_9 
ROOT
HETATM    1  C1  UNL     1     -33.584  17.211  -3.675  1.00 20.00    -0.030 C 
HETATM    2  C2  UNL     1     -34.741  17.696  -4.171  1.00 20.00    -0.029 C 
HETATM    3  C4  UNL     1     -33.311  15.738  -3.444  1.00 20.00     0.032 C 
HETATM    4  C5  UNL     1     -35.909  16.829  -4.610  1.00 20.00     0.044 C 
HETATM    5  C6  UNL     1     -34.958  13.551  -3.889  1.00 20.00     0.007 C 
HETATM    6  C7  UNL     1     -36.238  14.119  -4.584  1.00 20.00     0.018 C 
HETATM    7  C8  UNL     1     -34.646  15.023  -3.532  1.00 20.00     0.005 C 
HETATM    8  C9  UNL     1     -35.386  15.409  -4.859  1.00 20.00     0.027 C 
ENDROOT
BRANCH   8   9
HETATM    9  C3  UNL     1     -34.610  15.333  -6.227  1.00 20.00     0.132 C 
HETATM   10  C10 UNL     1     -35.140  16.176  -7.354  1.00 20.00     0.091 C 
HETATM   11  O11 UNL     1     -33.617  14.620  -6.366  1.00 20.00    -0.298 OA
ENDBRANCH   8   9
TORSDOF 1
ENDMDL
MODEL 9
REMARK VINA RESULT:      -4.0      1.676      2.914
REMARK  1 active torsions:
REMARK  status: ('A' for Active; 'I' for Inactive)
REMARK    1  A    between atoms: C3_3  and  C9_9 
ROOT
HETATM    1  C1  UNL     1     -35.148  16.370  -2.718  1.00 20.00    -0.030 C 
HETATM    2  C2  UNL     1     -34.132  15.501  -2.907  1.00 20.00    -0.029 C 
HETATM    3  C4  UNL     1     -36.097  16.815  -3.811  1.00 20.00     0.032 C 
HETATM    4  C5  UNL     1     -33.834  14.816  -4.230  1.00 20.00     0.044 C 
HETATM    5  C6  UNL     1     -36.153  16.109  -6.492  1.00 20.00     0.007 C 
HETATM    6  C7  UNL     1     -35.057  15.006  -6.663  1.00 20.00     0.018 C 
HETATM    7  C8  UNL     1     -35.478  16.398  -5.131  1.00 20.00     0.005 C 
HETATM    8  C9  UNL     1     -35.096  14.877  -5.099  1.00 20.00     0.027 C 
ENDROOT
BRANCH   8   9
HETATM    9  C3  UNL     1     -36.160  13.824  -4.611  1.00 20.00     0.132 C 
HETATM   10  C10 UNL     1     -37.555  14.332  -4.370  1.00 20.00     0.091 C 
HETATM   11  O11 UNL     1     -35.865  12.642  -4.439  1.00 20.00    -0.298 OA
ENDBRANCH   8   9
TORSDOF 1
ENDMDL
