MODEL 1
REMARK VINA RESULT:      -4.3      0.000      0.000
REMARK  0 active torsions:
REMARK  status: ('A' for Active; 'I' for Inactive)
ROOT
HETATM    1  C1  UNL     1     -26.909  19.204  11.649  1.00 20.00     0.017 C 
HETATM    2  C2  UNL     1     -25.938  18.508  11.540  1.00 20.00    -0.050 C 
HETATM    3  C3  UNL     1     -22.060  17.729  10.542  1.00 20.00     0.053 C 
HETATM    4  C4  UNL     1     -23.145  17.046   9.727  1.00 20.00     0.174 C 
HETATM    5  C5  UNL     1     -22.425  17.696  12.016  1.00 20.00     0.174 C 
HETATM    6  C6  UNL     1     -24.742  17.652  11.407  1.00 20.00     0.227 C 
HETATM    7  C7  UNL     1     -25.106  16.251  11.919  1.00 20.00     0.095 C 
HETATM    8  O8  UNL     1     -24.415  17.625  10.012  1.00 20.00    -0.345 OA
HETATM    9  O9  UNL     1     -23.722  18.250  12.217  1.00 20.00    -0.345 OA
ENDROOT
TORSDOF 0
ENDMDL
MODEL 2
REMARK VINA RESULT:      -4.1      1.126      3.447
REMARK  0 active torsions:
REMARK  status: ('A' for Active; 'I' for Inactive)
ROOT
HETATM    1  C1  UNL     1     -22.428  17.374   8.591  1.00 20.00     0.017 C 
HETATM    2  C2  UNL     1     -22.964  17.383   9.665  1.00 20.00    -0.050 C 
HETATM    3  C3  UNL     1     -26.157  17.108  12.189  1.00 20.00     0.053 C 
HETATM    4  C4  UNL     1     -25.481  18.462  12.059  1.00 20.00     0.174 C 
HETATM    5  C5  UNL     1     -25.108  16.013  12.264  1.00 20.00     0.174 C 
HETATM    6  C6  UNL     1     -23.623  17.394  10.986  1.00 20.00     0.227 C 
HETATM    7  C7  UNL     1     -22.545  17.648  12.049  1.00 20.00     0.095 C 
HETATM    8  O8  UNL     1     -24.581  18.460  10.954  1.00 20.00    -0.345 OA
HETATM    9  O9  UNL     1     -24.220  16.101  11.153  1.00 20.00    -0.345 OA
ENDROOT
TORSDOF 0
ENDMDL
MODEL 3
REMARK VINA RESULT:      -4.1      1.954      2.909
REMARK  0 active torsions:
REMARK  status: ('A' for Active; 'I' for Inactive)
ROOT
HETATM    1  C1  UNL     1     -24.774  15.615  11.865  1.00 20.00     0.017 C 
HETATM    2  C2  UNL     1     -24.127  16.364  11.187  1.00 20.00    -0.050 C 
HETATM    3  C3  UNL     1     -23.190  18.335   7.740  1.00 20.00     0.053 C 
HETATM    4  C4  UNL     1     -22.212  17.282   8.234  1.00 20.00     0.174 C 
HETATM    5  C5  UNL     1     -23.687  19.166   8.911  1.00 20.00     0.174 C 
HETATM    6  C6  UNL     1     -23.330  17.287  10.354  1.00 20.00     0.227 C 
HETATM    7  C7  UNL     1     -22.202  17.856  11.226  1.00 20.00     0.095 C 
HETATM    8  O8  UNL     1     -22.805  16.506   9.272  1.00 20.00    -0.345 OA
HETATM    9  O9  UNL     1     -24.224  18.321   9.924  1.00 20.00    -0.345 OA
ENDROOT
TORSDOF 0
ENDMDL
MODEL 4
REMARK VINA RESULT:      -3.8     17.974     18.918
REMARK  0 active torsions:
REMARK  status: ('A' for Active; 'I' for Inactive)
ROOT
HETATM    1  C1  UNL     1     -32.994  17.110  -2.275  1.00 20.00     0.017 C 
HETATM    2  C2  UNL     1     -33.404  16.319  -3.079  1.00 20.00    -0.050 C 
HETATM    3  C3  UNL     1     -36.222  14.696  -5.542  1.00 20.00     0.053 C 
HETATM    4  C4  UNL     1     -35.777  13.872  -4.346  1.00 20.00     0.174 C 
HETATM    5  C5  UNL     1     -35.016  15.353  -6.193  1.00 20.00     0.174 C 
HETATM    6  C6  UNL     1     -33.908  15.345  -4.068  1.00 20.00     0.227 C 
HETATM    7  C7  UNL     1     -32.771  14.364  -4.385  1.00 20.00     0.095 C 
HETATM    8  O8  UNL     1     -35.014  14.675  -3.449  1.00 20.00    -0.345 OA
HETATM    9  O9  UNL     1     -34.280  16.099  -5.228  1.00 20.00    -0.345 OA
ENDROOT
TORSDOF 0
ENDMDL
MODEL 5
REMARK VINA RESULT:      -3.7     17.041     17.952
REMARK  0 active torsions:
REMARK  status: ('A' for Active; 'I' for Inactive)
ROOT
HETATM    1  C1  UNL     1     -32.292  18.148  -1.918  1.00 20.00     0.017 C 
HETATM    2  C2  UNL     1     -32.968  17.355  -2.513  1.00 20.00    -0.050 C 
HETATM    3  C3  UNL     1     -34.039  15.135  -5.764  1.00 20.00     0.053 C 
HETATM    4  C4  UNL     1     -34.992  16.231  -5.318  1.00 20.00     0.174 C 
HETATM    5  C5  UNL     1     -33.506  14.391  -4.552  1.00 20.00     0.174 C 
HETATM    6  C6  UNL     1     -33.799  16.378  -3.245  1.00 20.00     0.227 C 
HETATM    7  C7  UNL     1     -34.899  15.888  -2.292  1.00 20.00     0.095 C 
HETATM    8  O8  UNL     1     -34.358  17.079  -4.364  1.00 20.00    -0.345 OA
HETATM    9  O9  UNL     1     -32.928  15.306  -3.625  1.00 20.00    -0.345 OA
ENDROOT
TORSDOF 0
ENDMDL
MODEL 6
REMARK VINA RESULT:      -3.7     16.701     17.659
REMARK  0 active torsions:
REMARK  status: ('A' for Active; 'I' for Inactive)
ROOT
HETATM    1  C1  UNL     1     -32.326  18.001  -1.388  1.00 20.00     0.017 C 
HETATM    2  C2  UNL     1     -32.924  17.392  -2.230  1.00 20.00    -0.050 C 
HETATM    3  C3  UNL     1     -34.637  14.062  -3.848  1.00 20.00     0.053 C 
HETATM    4  C4  UNL     1     -33.413  14.630  -4.546  1.00 20.00     0.174 C 
HETATM    5  C5  UNL     1     -35.561  15.191  -3.426  1.00 20.00     0.174 C 
HETATM    6  C6  UNL     1     -33.661  16.642  -3.268  1.00 20.00     0.227 C 
HETATM    7  C7  UNL     1     -33.998  17.617  -4.404  1.00 20.00     0.095 C 
HETATM    8  O8  UNL     1     -32.781  15.604  -3.719  1.00 20.00    -0.345 OA
HETATM    9  O9  UNL     1     -34.850  16.144  -2.642  1.00 20.00    -0.345 OA
ENDROOT
TORSDOF 0
ENDMDL
MODEL 7
REMARK VINA RESULT:      -3.6     24.245     25.259
REMARK  0 active torsions:
REMARK  status: ('A' for Active; 'I' for Inactive)
ROOT
HETATM    1  C1  UNL     1     -42.684   3.166  -2.917  1.00 20.00     0.017 C 
HETATM    2  C2  UNL     1     -42.648   4.106  -2.172  1.00 20.00    -0.050 C 
HETATM    3  C3  UNL     1     -41.546   7.867  -1.039  1.00 20.00     0.053 C 
HETATM    4  C4  UNL     1     -40.969   6.700  -0.254  1.00 20.00     0.174 C 
HETATM    5  C5  UNL     1     -43.019   7.622  -1.318  1.00 20.00     0.174 C 
HETATM    6  C6  UNL     1     -42.605   5.263  -1.255  1.00 20.00     0.227 C 
HETATM    7  C7  UNL     1     -43.416   4.902  -0.002  1.00 20.00     0.095 C 
HETATM    8  O8  UNL     1     -41.223   5.474  -0.934  1.00 20.00    -0.345 OA
HETATM    9  O9  UNL     1     -43.198   6.362  -1.958  1.00 20.00    -0.345 OA
ENDROOT
TORSDOF 0
ENDMDL
MODEL 8
REMARK VINA RESULT:      -3.6     15.708     16.843
REMARK  0 active torsions:
REMARK  status: ('A' for Active; 'I' for Inactive)
ROOT
HETATM    1  C1  UNL     1     -32.896   8.807   0.582  1.00 20.00     0.017 C 
HETATM    2  C2  UNL     1     -32.877   8.020   1.487  1.00 20.00    -0.050 C 
HETATM    3  C3  UNL     1     -34.413   5.033   3.802  1.00 20.00     0.053 C 
HETATM    4  C4  UNL     1     -34.238   6.399   4.444  1.00 20.00     0.174 C 
HETATM    5  C5  UNL     1     -33.200   4.705   2.949  1.00 20.00     0.174 C 
HETATM    6  C6  UNL     1     -32.853   7.051   2.601  1.00 20.00     0.227 C 
HETATM    7  C7  UNL     1     -31.518   7.216   3.341  1.00 20.00     0.095 C 
HETATM    8  O8  UNL     1     -33.960   7.381   3.449  1.00 20.00    -0.345 OA
HETATM    9  O9  UNL     1     -32.960   5.749   2.010  1.00 20.00    -0.345 OA
ENDROOT
TORSDOF 0
ENDMDL
MODEL 9
REMARK VINA RESULT:      -3.6     24.049     24.997
REMARK  0 active torsions:
REMARK  status: ('A' for Active; 'I' for Inactive)
ROOT
HETATM    1  C1  UNL     1     -43.075   3.693  -2.467  1.00 20.00     0.017 C 
HETATM    2  C2  UNL     1     -42.747   4.638  -1.805  1.00 20.00    -0.050 C 
HETATM    3  C3  UNL     1     -43.415   8.065   0.306  1.00 20.00     0.053 C 
HETATM    4  C4  UNL     1     -42.627   8.181  -0.989  1.00 20.00     0.174 C 
HETATM    5  C5  UNL     1     -42.956   6.842   1.081  1.00 20.00     0.174 C 
HETATM    6  C6  UNL     1     -42.344   5.801  -0.988  1.00 20.00     0.227 C 
HETATM    7  C7  UNL     1     -40.823   5.734  -0.791  1.00 20.00     0.095 C 
HETATM    8  O8  UNL     1     -42.719   6.968  -1.732  1.00 20.00    -0.345 OA
HETATM    9  O9  UNL     1     -43.034   5.680   0.262  1.00 20.00    -0.345 OA
ENDROOT
TORSDOF 0
ENDMDL
