MODEL 1
REMARK VINA RESULT:      -5.1      0.000      0.000
REMARK  1 active torsions:
REMARK  status: ('A' for Active; 'I' for Inactive)
REMARK    1  A    between atoms: C1_1  and  C9_9 
ROOT
HETATM    1  C2  UNL     1     -25.725  18.237  11.924  1.00 20.00     0.002 C 
HETATM    2  C3  UNL     1     -25.606  16.710  11.996  1.00 20.00     0.005 C 
HETATM    3  C4  UNL     1     -23.065  16.851  12.164  1.00 20.00     0.006 C 
HETATM    4  C5  UNL     1     -25.134  18.821  10.636  1.00 20.00     0.018 C 
HETATM    5  C6  UNL     1     -22.788  18.136  11.366  1.00 20.00     0.019 C 
HETATM    6  C7  UNL     1     -24.079  16.638  10.019  1.00 20.00     0.023 C 
HETATM    7  C8  UNL     1     -24.258  16.185  11.465  1.00 20.00    -0.013 C 
HETATM    8  C9  UNL     1     -23.821  18.132  10.223  1.00 20.00     0.036 C 
ENDROOT
BRANCH   8   9
HETATM    9  C1  UNL     1     -23.274  18.768   8.981  1.00 20.00     0.227 C 
HETATM   10  O10 UNL     1     -22.123  19.190   8.926  1.00 20.00    -0.279 OA
HETATM   11 CL11 UNL     1     -24.447  18.817   7.700  1.00 20.00    -0.043 Cl
ENDBRANCH   8   9
TORSDOF 1
ENDMDL
MODEL 2
REMARK VINA RESULT:      -5.0     17.925     18.693
REMARK  1 active torsions:
REMARK  status: ('A' for Active; 'I' for Inactive)
REMARK    1  A    between atoms: C1_1  and  C9_9 
ROOT
HETATM    1  C2  UNL     1     -34.840  17.469  -4.868  1.00 20.00     0.002 C 
HETATM    2  C3  UNL     1     -34.249  17.633  -3.462  1.00 20.00     0.005 C 
HETATM    3  C4  UNL     1     -32.946  15.452  -3.683  1.00 20.00     0.006 C 
HETATM    4  C5  UNL     1     -35.800  16.279  -4.975  1.00 20.00     0.018 C 
HETATM    5  C6  UNL     1     -33.870  14.650  -4.614  1.00 20.00     0.019 C 
HETATM    6  C7  UNL     1     -35.127  15.412  -2.727  1.00 20.00     0.023 C 
HETATM    7  C8  UNL     1     -33.882  16.291  -2.801  1.00 20.00    -0.013 C 
HETATM    8  C9  UNL     1     -35.300  15.045  -4.201  1.00 20.00     0.036 C 
ENDROOT
BRANCH   8   9
HETATM    9  C1  UNL     1     -36.260  13.907  -4.373  1.00 20.00     0.227 C 
HETATM   10  O10 UNL     1     -35.871  12.756  -4.543  1.00 20.00    -0.279 OA
HETATM   11 CL11 UNL     1     -37.915  14.430  -4.301  1.00 20.00    -0.043 Cl
ENDBRANCH   8   9
TORSDOF 1
ENDMDL
MODEL 3
REMARK VINA RESULT:      -4.8     17.204     17.963
REMARK  1 active torsions:
REMARK  status: ('A' for Active; 'I' for Inactive)
REMARK    1  A    between atoms: C1_1  and  C9_9 
ROOT
HETATM    1  C2  UNL     1     -34.998  17.903  -4.427  1.00 20.00     0.002 C 
HETATM    2  C3  UNL     1     -34.945  18.245  -2.933  1.00 20.00     0.005 C 
HETATM    3  C4  UNL     1     -32.925  16.727  -2.589  1.00 20.00     0.006 C 
HETATM    4  C5  UNL     1     -35.375  16.441  -4.690  1.00 20.00     0.018 C 
HETATM    5  C6  UNL     1     -33.175  15.657  -3.664  1.00 20.00     0.019 C 
HETATM    6  C7  UNL     1     -35.114  15.840  -2.276  1.00 20.00     0.023 C 
HETATM    7  C8  UNL     1     -34.317  17.127  -2.080  1.00 20.00    -0.013 C 
HETATM    8  C9  UNL     1     -34.703  15.470  -3.702  1.00 20.00     0.036 C 
ENDROOT
BRANCH   8   9
HETATM    9  C1  UNL     1     -35.080  14.058  -4.031  1.00 20.00     0.227 C 
HETATM   10  O10 UNL     1     -34.259  13.146  -3.995  1.00 20.00    -0.279 OA
HETATM   11 CL11 UNL     1     -36.759  13.910  -4.450  1.00 20.00    -0.043 Cl
ENDBRANCH   8   9
TORSDOF 1
ENDMDL
MODEL 4
REMARK VINA RESULT:      -4.7     16.881     17.682
REMARK  1 active torsions:
REMARK  status: ('A' for Active; 'I' for Inactive)
REMARK    1  A    between atoms: C1_1  and  C9_9 
ROOT
HETATM    1  C2  UNL     1     -34.684  17.241  -1.433  1.00 20.00     0.002 C 
HETATM    2  C3  UNL     1     -33.245  17.585  -1.835  1.00 20.00     0.005 C 
HETATM    3  C4  UNL     1     -33.914  17.813  -4.286  1.00 20.00     0.006 C 
HETATM    4  C5  UNL     1     -35.151  15.891  -1.990  1.00 20.00     0.018 C 
HETATM    5  C6  UNL     1     -35.077  16.811  -4.368  1.00 20.00     0.019 C 
HETATM    6  C7  UNL     1     -33.150  15.706  -3.480  1.00 20.00     0.023 C 
HETATM    7  C8  UNL     1     -32.917  17.202  -3.291  1.00 20.00    -0.013 C 
HETATM    8  C9  UNL     1     -34.678  15.652  -3.435  1.00 20.00     0.036 C 
ENDROOT
BRANCH   8   9
HETATM    9  C1  UNL     1     -35.194  14.337  -3.935  1.00 20.00     0.227 C 
HETATM   10  O10 UNL     1     -34.452  13.374  -4.101  1.00 20.00    -0.279 OA
HETATM   11 CL11 UNL     1     -36.906  14.375  -4.230  1.00 20.00    -0.043 Cl
ENDBRANCH   8   9
TORSDOF 1
ENDMDL
MODEL 5
REMARK VINA RESULT:      -4.7      1.149      2.296
REMARK  1 active torsions:
REMARK  status: ('A' for Active; 'I' for Inactive)
REMARK    1  A    between atoms: C1_1  and  C9_9 
ROOT
HETATM    1  C2  UNL     1     -21.976  17.621  11.689  1.00 20.00     0.002 C 
HETATM    2  C3  UNL     1     -23.298  18.057  12.330  1.00 20.00     0.005 C 
HETATM    3  C4  UNL     1     -24.609  16.381  10.924  1.00 20.00     0.006 C 
HETATM    4  C5  UNL     1     -21.887  17.983  10.202  1.00 20.00     0.018 C 
HETATM    5  C6  UNL     1     -23.743  16.321   9.655  1.00 20.00     0.019 C 
HETATM    6  C7  UNL     1     -24.309  18.600  10.110  1.00 20.00     0.023 C 
HETATM    7  C8  UNL     1     -24.516  17.833  11.413  1.00 20.00    -0.013 C 
HETATM    8  C9  UNL     1     -23.215  17.754   9.458  1.00 20.00     0.036 C 
ENDROOT
BRANCH   8   9
HETATM    9  C1  UNL     1     -23.055  18.091   8.006  1.00 20.00     0.227 C 
HETATM   10  O10 UNL     1     -22.020  17.842   7.396  1.00 20.00    -0.279 OA
HETATM   11 CL11 UNL     1     -24.476  18.845   7.349  1.00 20.00    -0.043 Cl
ENDBRANCH   8   9
TORSDOF 1
ENDMDL
MODEL 6
REMARK VINA RESULT:      -4.6     18.411     19.165
REMARK  1 active torsions:
REMARK  status: ('A' for Active; 'I' for Inactive)
REMARK    1  A    between atoms: C1_1  and  C9_9 
ROOT
HETATM    1  C2  UNL     1     -34.276  16.743  -3.157  1.00 20.00     0.002 C 
HETATM    2  C3  UNL     1     -33.263  15.621  -3.414  1.00 20.00     0.005 C 
HETATM    3  C4  UNL     1     -34.096  15.326  -5.806  1.00 20.00     0.006 C 
HETATM    4  C5  UNL     1     -35.726  16.249  -3.162  1.00 20.00     0.018 C 
HETATM    5  C6  UNL     1     -35.572  15.729  -5.655  1.00 20.00     0.019 C 
HETATM    6  C7  UNL     1     -35.061  14.014  -4.068  1.00 20.00     0.023 C 
HETATM    7  C8  UNL     1     -33.728  14.623  -4.492  1.00 20.00    -0.013 C 
HETATM    8  C9  UNL     1     -35.993  15.210  -4.267  1.00 20.00     0.036 C 
ENDROOT
BRANCH   8   9
HETATM    9  C1  UNL     1     -37.432  14.792  -4.245  1.00 20.00     0.227 C 
HETATM   10  O10 UNL     1     -37.765  13.620  -4.385  1.00 20.00    -0.279 OA
HETATM   11 CL11 UNL     1     -38.501  16.141  -4.007  1.00 20.00    -0.043 Cl
ENDBRANCH   8   9
TORSDOF 1
ENDMDL
MODEL 7
REMARK VINA RESULT:      -4.6     17.192     17.891
REMARK  1 active torsions:
REMARK  status: ('A' for Active; 'I' for Inactive)
REMARK    1  A    between atoms: C1_1  and  C9_9 
ROOT
HETATM    1  C2  UNL     1     -35.682  17.883  -4.014  1.00 20.00     0.002 C 
HETATM    2  C3  UNL     1     -36.117  17.432  -2.614  1.00 20.00     0.005 C 
HETATM    3  C4  UNL     1     -33.705  16.939  -1.950  1.00 20.00     0.006 C 
HETATM    4  C5  UNL     1     -35.116  16.737  -4.860  1.00 20.00     0.018 C 
HETATM    5  C6  UNL     1     -33.101  16.546  -3.308  1.00 20.00     0.019 C 
HETATM    6  C7  UNL     1     -35.032  15.198  -2.889  1.00 20.00     0.023 C 
HETATM    7  C8  UNL     1     -35.148  16.417  -1.979  1.00 20.00    -0.013 C 
HETATM    8  C9  UNL     1     -34.221  15.787  -4.044  1.00 20.00     0.036 C 
ENDROOT
BRANCH   8   9
HETATM    9  C1  UNL     1     -33.670  14.711  -4.931  1.00 20.00     0.227 C 
HETATM   10  O10 UNL     1     -33.102  13.725  -4.472  1.00 20.00    -0.279 OA
HETATM   11 CL11 UNL     1     -33.939  15.049  -6.614  1.00 20.00    -0.043 Cl
ENDBRANCH   8   9
TORSDOF 1
ENDMDL
MODEL 8
REMARK VINA RESULT:      -4.4     16.420     17.245
REMARK  1 active torsions:
REMARK  status: ('A' for Active; 'I' for Inactive)
REMARK    1  A    between atoms: C1_1  and  C9_9 
ROOT
HETATM    1  C2  UNL     1     -33.470  14.743  -4.400  1.00 20.00     0.002 C 
HETATM    2  C3  UNL     1     -34.826  14.210  -3.921  1.00 20.00     0.005 C 
HETATM    3  C4  UNL     1     -35.919  16.487  -4.271  1.00 20.00     0.006 C 
HETATM    4  C5  UNL     1     -32.867  15.779  -3.446  1.00 20.00     0.018 C 
HETATM    5  C6  UNL     1     -34.731  17.427  -4.008  1.00 20.00     0.019 C 
HETATM    6  C7  UNL     1     -34.994  15.955  -2.141  1.00 20.00     0.023 C 
HETATM    7  C8  UNL     1     -35.723  15.304  -3.313  1.00 20.00    -0.013 C 
HETATM    8  C9  UNL     1     -33.921  16.751  -2.886  1.00 20.00     0.036 C 
ENDROOT
BRANCH   8   9
HETATM    9  C1  UNL     1     -33.268  17.760  -1.990  1.00 20.00     0.227 C 
HETATM   10  O10 UNL     1     -32.293  18.410  -2.355  1.00 20.00    -0.279 OA
HETATM   11 CL11 UNL     1     -34.050  17.866  -0.443  1.00 20.00    -0.043 Cl
ENDBRANCH   8   9
TORSDOF 1
ENDMDL
MODEL 9
REMARK VINA RESULT:      -4.4     23.178     23.956
REMARK  1 active torsions:
REMARK  status: ('A' for Active; 'I' for Inactive)
REMARK    1  A    between atoms: C1_1  and  C9_9 
ROOT
HETATM    1  C2  UNL     1     -43.402   5.542  -1.689  1.00 20.00     0.002 C 
HETATM    2  C3  UNL     1     -42.024   4.880  -1.570  1.00 20.00     0.005 C 
HETATM    3  C4  UNL     1     -41.908   5.416   0.921  1.00 20.00     0.006 C 
HETATM    4  C5  UNL     1     -43.356   7.058  -1.468  1.00 20.00     0.018 C 
HETATM    5  C6  UNL     1     -42.732   6.713   0.981  1.00 20.00     0.019 C 
HETATM    6  C7  UNL     1     -40.996   6.961  -0.645  1.00 20.00     0.023 C 
HETATM    7  C8  UNL     1     -41.172   5.461  -0.426  1.00 20.00    -0.013 C 
HETATM    8  C9  UNL     1     -42.406   7.460  -0.326  1.00 20.00     0.036 C 
ENDROOT
BRANCH   8   9
HETATM    9  C1  UNL     1     -42.431   8.946  -0.134  1.00 20.00     0.227 C 
HETATM   10  O10 UNL     1     -43.415   9.618  -0.428  1.00 20.00    -0.279 OA
HETATM   11 CL11 UNL     1     -40.940   9.546   0.528  1.00 20.00    -0.043 Cl
ENDBRANCH   8   9
TORSDOF 1
ENDMDL
