MODEL 1
REMARK VINA RESULT:      -5.0      0.000      0.000
REMARK  1 active torsions:
REMARK  status: ('A' for Active; 'I' for Inactive)
REMARK    1  A    between atoms: C2_2  and  C3_3 
ROOT
HETATM    1  C1  UNL     1     -33.137   5.151   2.674  1.00 20.00    -0.015 C 
HETATM    2  C2  UNL     1     -33.172   6.433   3.047  1.00 20.00    -0.012 C 
HETATM    3  C4  UNL     1     -33.992   4.312   3.567  1.00 20.00     0.032 C 
HETATM    4  C5  UNL     1     -34.041   6.675   4.245  1.00 20.00     0.022 C 
HETATM    5  C6  UNL     1     -34.872   5.368   4.260  1.00 20.00    -0.007 C 
HETATM    6  C8  UNL     1     -33.205   6.932   5.495  1.00 20.00     0.015 C 
HETATM    7  C9  UNL     1     -35.385   4.907   5.618  1.00 20.00     0.011 C 
ENDROOT
BRANCH   2   8
HETATM    8  C3  UNL     1     -32.443   7.477   2.347  1.00 20.00     0.151 C 
HETATM    9  C7  UNL     1     -32.978   7.961   1.016  1.00 20.00     0.096 C 
HETATM   10  O10 UNL     1     -31.404   7.958   2.819  1.00 20.00    -0.293 OA
ENDBRANCH   2   8
TORSDOF 1
ENDMDL
MODEL 2
REMARK VINA RESULT:      -5.0     11.489     12.037
REMARK  1 active torsions:
REMARK  status: ('A' for Active; 'I' for Inactive)
REMARK    1  A    between atoms: C2_2  and  C3_3 
ROOT
HETATM    1  C1  UNL     1     -33.602  15.162  -4.099  1.00 20.00    -0.015 C 
HETATM    2  C2  UNL     1     -34.911  14.908  -4.021  1.00 20.00    -0.012 C 
HETATM    3  C4  UNL     1     -33.192  16.163  -3.068  1.00 20.00     0.032 C 
HETATM    4  C5  UNL     1     -35.600  15.688  -2.941  1.00 20.00     0.022 C 
HETATM    5  C6  UNL     1     -34.383  16.135  -2.095  1.00 20.00    -0.007 C 
HETATM    6  C8  UNL     1     -36.442  16.820  -3.525  1.00 20.00     0.015 C 
HETATM    7  C9  UNL     1     -34.539  17.436  -1.318  1.00 20.00     0.011 C 
ENDROOT
BRANCH   2   8
HETATM    8  C3  UNL     1     -35.582  13.961  -4.895  1.00 20.00     0.151 C 
HETATM    9  C7  UNL     1     -35.888  14.384  -6.316  1.00 20.00     0.096 C 
HETATM   10  O10 UNL     1     -35.907  12.836  -4.491  1.00 20.00    -0.293 OA
ENDBRANCH   2   8
TORSDOF 1
ENDMDL
MODEL 3
REMARK VINA RESULT:      -4.8     11.373     11.950
REMARK  1 active torsions:
REMARK  status: ('A' for Active; 'I' for Inactive)
REMARK    1  A    between atoms: C2_2  and  C3_3 
ROOT
HETATM    1  C1  UNL     1     -33.119  16.287  -3.045  1.00 20.00    -0.015 C 
HETATM    2  C2  UNL     1     -34.138  15.493  -3.385  1.00 20.00    -0.012 C 
HETATM    3  C4  UNL     1     -33.520  17.234  -1.961  1.00 20.00     0.032 C 
HETATM    4  C5  UNL     1     -35.386  15.769  -2.602  1.00 20.00     0.022 C 
HETATM    5  C6  UNL     1     -34.805  16.584  -1.420  1.00 20.00    -0.007 C 
HETATM    6  C8  UNL     1     -36.425  16.498  -3.450  1.00 20.00     0.015 C 
HETATM    7  C9  UNL     1     -35.743  17.589  -0.765  1.00 20.00     0.011 C 
ENDROOT
BRANCH   2   8
HETATM    8  C3  UNL     1     -34.028  14.465  -4.406  1.00 20.00     0.151 C 
HETATM    9  C7  UNL     1     -33.928  14.896  -5.854  1.00 20.00     0.096 C 
HETATM   10  O10 UNL     1     -34.025  13.263  -4.107  1.00 20.00    -0.293 OA
ENDBRANCH   2   8
TORSDOF 1
ENDMDL
MODEL 4
REMARK VINA RESULT:      -4.7     15.513     16.594
REMARK  1 active torsions:
REMARK  status: ('A' for Active; 'I' for Inactive)
REMARK    1  A    between atoms: C2_2  and  C3_3 
ROOT
HETATM    1  C1  UNL     1     -24.809  19.170   9.022  1.00 20.00    -0.015 C 
HETATM    2  C2  UNL     1     -23.817  18.389   9.457  1.00 20.00    -0.012 C 
HETATM    3  C4  UNL     1     -25.901  19.260  10.037  1.00 20.00     0.032 C 
HETATM    4  C5  UNL     1     -24.071  17.820  10.821  1.00 20.00     0.022 C 
HETATM    5  C6  UNL     1     -25.204  18.754  11.312  1.00 20.00    -0.007 C 
HETATM    6  C8  UNL     1     -24.432  16.338  10.747  1.00 20.00     0.015 C 
HETATM    7  C9  UNL     1     -26.178  18.165  12.322  1.00 20.00     0.011 C 
ENDROOT
BRANCH   2   8
HETATM    8  C3  UNL     1     -22.617  18.132   8.678  1.00 20.00     0.151 C 
HETATM    9  C7  UNL     1     -21.293  18.043   9.406  1.00 20.00     0.096 C 
HETATM   10  O10 UNL     1     -22.669  17.998   7.448  1.00 20.00    -0.293 OA
ENDBRANCH   2   8
TORSDOF 1
ENDMDL
MODEL 5
REMARK VINA RESULT:      -4.7     11.119     12.303
REMARK  1 active torsions:
REMARK  status: ('A' for Active; 'I' for Inactive)
REMARK    1  A    between atoms: C2_2  and  C3_3 
ROOT
HETATM    1  C1  UNL     1     -34.452  16.250  -4.924  1.00 20.00    -0.015 C 
HETATM    2  C2  UNL     1     -34.594  15.363  -3.935  1.00 20.00    -0.012 C 
HETATM    3  C4  UNL     1     -33.750  17.477  -4.442  1.00 20.00     0.032 C 
HETATM    4  C5  UNL     1     -34.023  15.838  -2.632  1.00 20.00     0.022 C 
HETATM    5  C6  UNL     1     -33.120  16.996  -3.123  1.00 20.00    -0.007 C 
HETATM    6  C8  UNL     1     -35.125  16.237  -1.654  1.00 20.00     0.015 C 
HETATM    7  C9  UNL     1     -32.879  18.131  -2.138  1.00 20.00     0.011 C 
ENDROOT
BRANCH   2   8
HETATM    8  C3  UNL     1     -35.231  14.071  -4.121  1.00 20.00     0.151 C 
HETATM    9  C7  UNL     1     -36.704  14.037  -4.470  1.00 20.00     0.096 C 
HETATM   10  O10 UNL     1     -34.592  13.017  -3.991  1.00 20.00    -0.293 OA
ENDBRANCH   2   8
TORSDOF 1
ENDMDL
MODEL 6
REMARK VINA RESULT:      -4.6     16.159     16.822
REMARK  1 active torsions:
REMARK  status: ('A' for Active; 'I' for Inactive)
REMARK    1  A    between atoms: C2_2  and  C3_3 
ROOT
HETATM    1  C1  UNL     1     -24.675  18.634   9.459  1.00 20.00    -0.015 C 
HETATM    2  C2  UNL     1     -24.521  17.870  10.543  1.00 20.00    -0.012 C 
HETATM    3  C4  UNL     1     -23.489  18.525   8.557  1.00 20.00     0.032 C 
HETATM    4  C5  UNL     1     -23.218  17.128  10.561  1.00 20.00     0.022 C 
HETATM    5  C6  UNL     1     -22.803  17.249   9.074  1.00 20.00    -0.007 C 
HETATM    6  C8  UNL     1     -22.243  17.742  11.563  1.00 20.00     0.015 C 
HETATM    7  C9  UNL     1     -21.308  17.224   8.784  1.00 20.00     0.011 C 
ENDROOT
BRANCH   2   8
HETATM    8  C3  UNL     1     -25.528  17.771  11.586  1.00 20.00     0.151 C 
HETATM    9  C7  UNL     1     -26.319  19.011  11.944  1.00 20.00     0.096 C 
HETATM   10  O10 UNL     1     -25.733  16.703  12.179  1.00 20.00    -0.293 OA
ENDBRANCH   2   8
TORSDOF 1
ENDMDL
MODEL 7
REMARK VINA RESULT:      -4.6     15.732     16.650
REMARK  1 active torsions:
REMARK  status: ('A' for Active; 'I' for Inactive)
REMARK    1  A    between atoms: C2_2  and  C3_3 
ROOT
HETATM    1  C1  UNL     1     -24.473  18.970   9.358  1.00 20.00    -0.015 C 
HETATM    2  C2  UNL     1     -23.625  18.182  10.023  1.00 20.00    -0.012 C 
HETATM    3  C4  UNL     1     -25.762  19.113  10.100  1.00 20.00     0.032 C 
HETATM    4  C5  UNL     1     -24.191  17.660  11.310  1.00 20.00     0.022 C 
HETATM    5  C6  UNL     1     -25.379  18.633  11.511  1.00 20.00    -0.007 C 
HETATM    6  C8  UNL     1     -24.566  16.185  11.195  1.00 20.00     0.015 C 
HETATM    7  C9  UNL     1     -26.570  18.095  12.293  1.00 20.00     0.011 C 
ENDROOT
BRANCH   2   8
HETATM    8  C3  UNL     1     -22.289  17.877   9.539  1.00 20.00     0.151 C 
HETATM    9  C7  UNL     1     -22.121  17.483   8.088  1.00 20.00     0.096 C 
HETATM   10  O10 UNL     1     -21.308  17.930  10.294  1.00 20.00    -0.293 OA
ENDBRANCH   2   8
TORSDOF 1
ENDMDL
MODEL 8
REMARK VINA RESULT:      -4.5     11.753     12.284
REMARK  1 active torsions:
REMARK  status: ('A' for Active; 'I' for Inactive)
REMARK    1  A    between atoms: C2_2  and  C3_3 
ROOT
HETATM    1  C1  UNL     1     -33.947  14.824  -4.398  1.00 20.00    -0.015 C 
HETATM    2  C2  UNL     1     -35.243  15.037  -4.158  1.00 20.00    -0.012 C 
HETATM    3  C4  UNL     1     -33.094  15.667  -3.507  1.00 20.00     0.032 C 
HETATM    4  C5  UNL     1     -35.484  16.052  -3.081  1.00 20.00     0.022 C 
HETATM    5  C6  UNL     1     -34.089  16.092  -2.411  1.00 20.00    -0.007 C 
HETATM    6  C8  UNL     1     -35.967  17.378  -3.664  1.00 20.00     0.015 C 
HETATM    7  C9  UNL     1     -33.698  17.399  -1.736  1.00 20.00     0.011 C 
ENDROOT
BRANCH   2   8
HETATM    8  C3  UNL     1     -36.301  14.341  -4.871  1.00 20.00     0.151 C 
HETATM    9  C7  UNL     1     -37.708  14.405  -4.316  1.00 20.00     0.096 C 
HETATM   10  O10 UNL     1     -36.062  13.703  -5.906  1.00 20.00    -0.293 OA
ENDBRANCH   2   8
TORSDOF 1
ENDMDL
MODEL 9
REMARK VINA RESULT:      -4.5     11.527     12.310
REMARK  1 active torsions:
REMARK  status: ('A' for Active; 'I' for Inactive)
REMARK    1  A    between atoms: C2_2  and  C3_3 
ROOT
HETATM    1  C1  UNL     1     -35.882  15.167  -3.186  1.00 20.00    -0.015 C 
HETATM    2  C2  UNL     1     -35.231  15.033  -4.344  1.00 20.00    -0.012 C 
HETATM    3  C4  UNL     1     -35.096  16.000  -2.226  1.00 20.00     0.032 C 
HETATM    4  C5  UNL     1     -33.908  15.739  -4.362  1.00 20.00     0.022 C 
HETATM    5  C6  UNL     1     -34.078  16.689  -3.151  1.00 20.00    -0.007 C 
HETATM    6  C8  UNL     1     -32.749  14.750  -4.259  1.00 20.00     0.015 C 
HETATM    7  C9  UNL     1     -32.803  17.095  -2.425  1.00 20.00     0.011 C 
ENDROOT
BRANCH   2   8
HETATM    8  C3  UNL     1     -35.768  14.283  -5.467  1.00 20.00     0.151 C 
HETATM    9  C7  UNL     1     -35.645  14.876  -6.854  1.00 20.00     0.096 C 
HETATM   10  O10 UNL     1     -36.321  13.188  -5.299  1.00 20.00    -0.293 OA
ENDBRANCH   2   8
TORSDOF 1
ENDMDL
