MODEL 1
REMARK VINA RESULT:      -4.4      0.000      0.000
REMARK  1 active torsions:
REMARK  status: ('A' for Active; 'I' for Inactive)
REMARK    1  A    between atoms: C3_3  and  C7_7 
ROOT
HETATM    1  C1  UNL     1     -33.106  15.951  -3.525  1.00 20.00    -0.023 C 
HETATM    2  C2  UNL     1     -33.592  17.203  -3.465  1.00 20.00    -0.015 C 
HETATM    3  C4  UNL     1     -35.112  15.846  -2.374  1.00 20.00     0.029 C 
HETATM    4  C5  UNL     1     -34.262  14.991  -3.327  1.00 20.00     0.029 C 
HETATM    5  C6  UNL     1     -35.073  17.129  -3.200  1.00 20.00     0.071 C 
HETATM    6  C7  UNL     1     -35.070  14.901  -4.638  1.00 20.00     0.116 C 
HETATM    7  S9  UNL     1     -35.873  16.554  -4.747  1.00 20.00    -0.148 SA
ENDROOT
BRANCH   6   8
HETATM    8  C3  UNL     1     -36.138  13.859  -4.595  1.00 20.00     0.246 C 
HETATM    9  O8  UNL     1     -35.907  12.656  -4.522  1.00 20.00    -0.306 OA
ENDBRANCH   6   8
TORSDOF 1
ENDMDL
MODEL 2
REMARK VINA RESULT:      -4.3      1.403      1.786
REMARK  1 active torsions:
REMARK  status: ('A' for Active; 'I' for Inactive)
REMARK    1  A    between atoms: C3_3  and  C7_7 
ROOT
HETATM    1  C1  UNL     1     -34.763  16.095  -2.027  1.00 20.00    -0.023 C 
HETATM    2  C2  UNL     1     -33.613  16.528  -2.571  1.00 20.00    -0.015 C 
HETATM    3  C4  UNL     1     -35.242  16.744  -4.197  1.00 20.00     0.029 C 
HETATM    4  C5  UNL     1     -35.700  15.710  -3.155  1.00 20.00     0.029 C 
HETATM    5  C6  UNL     1     -33.744  16.475  -4.071  1.00 20.00     0.071 C 
HETATM    6  C7  UNL     1     -35.274  14.338  -3.714  1.00 20.00     0.116 C 
HETATM    7  S9  UNL     1     -33.681  14.708  -4.560  1.00 20.00    -0.148 SA
ENDROOT
BRANCH   6   8
HETATM    8  C3  UNL     1     -36.230  13.798  -4.725  1.00 20.00     0.246 C 
HETATM    9  O8  UNL     1     -37.425  13.626  -4.503  1.00 20.00    -0.306 OA
ENDBRANCH   6   8
TORSDOF 1
ENDMDL
MODEL 3
REMARK VINA RESULT:      -4.3     17.656     18.430
REMARK  1 active torsions:
REMARK  status: ('A' for Active; 'I' for Inactive)
REMARK    1  A    between atoms: C3_3  and  C7_7 
ROOT
HETATM    1  C1  UNL     1     -23.110  17.975  12.266  1.00 20.00    -0.023 C 
HETATM    2  C2  UNL     1     -24.439  18.162  12.332  1.00 20.00    -0.015 C 
HETATM    3  C4  UNL     1     -24.084  16.416  10.859  1.00 20.00     0.029 C 
HETATM    4  C5  UNL     1     -22.802  17.257  10.967  1.00 20.00     0.029 C 
HETATM    5  C6  UNL     1     -25.069  17.557  11.104  1.00 20.00     0.071 C 
HETATM    6  C7  UNL     1     -22.868  18.269   9.805  1.00 20.00     0.116 C 
HETATM    7  S9  UNL     1     -24.665  18.654   9.690  1.00 20.00    -0.148 SA
ENDROOT
BRANCH   6   8
HETATM    8  C3  UNL     1     -22.425  17.691   8.502  1.00 20.00     0.246 C 
HETATM    9  O8  UNL     1     -22.771  18.137   7.413  1.00 20.00    -0.306 OA
ENDBRANCH   6   8
TORSDOF 1
ENDMDL
MODEL 4
REMARK VINA RESULT:      -4.2     10.490     12.167
REMARK  1 active torsions:
REMARK  status: ('A' for Active; 'I' for Inactive)
REMARK    1  A    between atoms: C3_3  and  C7_7 
ROOT
HETATM    1  C1  UNL     1     -42.570   5.631   1.058  1.00 20.00    -0.023 C 
HETATM    2  C2  UNL     1     -43.255   5.194  -0.012  1.00 20.00    -0.015 C 
HETATM    3  C4  UNL     1     -41.253   6.039  -0.802  1.00 20.00     0.029 C 
HETATM    4  C5  UNL     1     -41.550   6.645   0.579  1.00 20.00     0.029 C 
HETATM    5  C6  UNL     1     -42.706   5.872  -1.241  1.00 20.00     0.071 C 
HETATM    6  C7  UNL     1     -42.265   7.983   0.302  1.00 20.00     0.116 C 
HETATM    7  S9  UNL     1     -43.270   7.617  -1.196  1.00 20.00    -0.148 SA
ENDROOT
BRANCH   6   8
HETATM    8  C3  UNL     1     -41.321   9.092  -0.023  1.00 20.00     0.246 C 
HETATM    9  O8  UNL     1     -41.461  10.241   0.384  1.00 20.00    -0.306 OA
ENDBRANCH   6   8
TORSDOF 1
ENDMDL
MODEL 5
REMARK VINA RESULT:      -4.0      1.551      1.908
REMARK  1 active torsions:
REMARK  status: ('A' for Active; 'I' for Inactive)
REMARK    1  A    between atoms: C3_3  and  C7_7 
ROOT
HETATM    1  C1  UNL     1     -33.153  15.808  -3.529  1.00 20.00    -0.023 C 
HETATM    2  C2  UNL     1     -34.161  16.019  -2.666  1.00 20.00    -0.015 C 
HETATM    3  C4  UNL     1     -34.668  14.082  -3.821  1.00 20.00     0.029 C 
HETATM    4  C5  UNL     1     -33.667  14.913  -4.640  1.00 20.00     0.029 C 
HETATM    5  C6  UNL     1     -35.369  15.258  -3.146  1.00 20.00     0.071 C 
HETATM    6  C7  UNL     1     -34.520  15.756  -5.609  1.00 20.00     0.116 C 
HETATM    7  S9  UNL     1     -36.020  16.144  -4.615  1.00 20.00    -0.148 SA
ENDROOT
BRANCH   6   8
HETATM    8  C3  UNL     1     -34.942  14.999  -6.824  1.00 20.00     0.246 C 
HETATM    9  O8  UNL     1     -36.059  14.510  -6.962  1.00 20.00    -0.306 OA
ENDBRANCH   6   8
TORSDOF 1
ENDMDL
MODEL 6
REMARK VINA RESULT:      -4.0     18.143     18.809
REMARK  1 active torsions:
REMARK  status: ('A' for Active; 'I' for Inactive)
REMARK    1  A    between atoms: C3_3  and  C7_7 
ROOT
HETATM    1  C1  UNL     1     -24.596  15.948  11.040  1.00 20.00    -0.023 C 
HETATM    2  C2  UNL     1     -24.474  16.503  12.257  1.00 20.00    -0.015 C 
HETATM    3  C4  UNL     1     -24.701  18.243  10.752  1.00 20.00     0.029 C 
HETATM    4  C5  UNL     1     -24.209  16.990  10.009  1.00 20.00     0.029 C 
HETATM    5  C6  UNL     1     -24.032  17.933  12.089  1.00 20.00     0.071 C 
HETATM    6  C7  UNL     1     -22.672  17.108   9.966  1.00 20.00     0.116 C 
HETATM    7  S9  UNL     1     -22.270  17.900  11.579  1.00 20.00    -0.148 SA
ENDROOT
BRANCH   6   8
HETATM    8  C3  UNL     1     -22.185  17.996   8.870  1.00 20.00     0.246 C 
HETATM    9  O8  UNL     1     -21.822  19.154   9.049  1.00 20.00    -0.306 OA
ENDBRANCH   6   8
TORSDOF 1
ENDMDL
MODEL 7
REMARK VINA RESULT:      -3.9      1.697      2.088
REMARK  1 active torsions:
REMARK  status: ('A' for Active; 'I' for Inactive)
REMARK    1  A    between atoms: C3_3  and  C7_7 
ROOT
HETATM    1  C1  UNL     1     -33.341  16.206  -2.899  1.00 20.00    -0.023 C 
HETATM    2  C2  UNL     1     -34.508  16.317  -2.243  1.00 20.00    -0.015 C 
HETATM    3  C4  UNL     1     -34.688  14.464  -3.614  1.00 20.00     0.029 C 
HETATM    4  C5  UNL     1     -33.584  15.388  -4.152  1.00 20.00     0.029 C 
HETATM    5  C6  UNL     1     -35.562  15.561  -3.010  1.00 20.00     0.071 C 
HETATM    6  C7  UNL     1     -34.266  16.280  -5.210  1.00 20.00     0.116 C 
HETATM    7  S9  UNL     1     -35.949  16.541  -4.511  1.00 20.00    -0.148 SA
ENDROOT
BRANCH   6   8
HETATM    8  C3  UNL     1     -34.405  15.610  -6.536  1.00 20.00     0.246 C 
HETATM    9  O8  UNL     1     -33.651  14.725  -6.929  1.00 20.00    -0.306 OA
ENDBRANCH   6   8
TORSDOF 1
ENDMDL
MODEL 8
REMARK VINA RESULT:      -3.9     10.657     11.920
REMARK  1 active torsions:
REMARK  status: ('A' for Active; 'I' for Inactive)
REMARK    1  A    between atoms: C3_3  and  C7_7 
ROOT
HETATM    1  C1  UNL     1     -40.989   5.902  -1.015  1.00 20.00    -0.023 C 
HETATM    2  C2  UNL     1     -42.013   5.113  -0.652  1.00 20.00    -0.015 C 
HETATM    3  C4  UNL     1     -42.937   7.013  -1.590  1.00 20.00     0.029 C 
HETATM    4  C5  UNL     1     -41.507   7.323  -1.120  1.00 20.00     0.029 C 
HETATM    5  C6  UNL     1     -43.251   5.962  -0.528  1.00 20.00     0.071 C 
HETATM    6  C7  UNL     1     -41.652   7.911   0.299  1.00 20.00     0.116 C 
HETATM    7  S9  UNL     1     -43.070   6.966   0.997  1.00 20.00    -0.148 SA
ENDROOT
BRANCH   6   8
HETATM    8  C3  UNL     1     -42.007   9.360   0.296  1.00 20.00     0.246 C 
HETATM    9  O8  UNL     1     -41.178  10.259   0.398  1.00 20.00    -0.306 OA
ENDBRANCH   6   8
TORSDOF 1
ENDMDL
MODEL 9
REMARK VINA RESULT:      -3.8     10.701     11.668
REMARK  1 active torsions:
REMARK  status: ('A' for Active; 'I' for Inactive)
REMARK    1  A    between atoms: C3_3  and  C7_7 
ROOT
HETATM    1  C1  UNL     1     -41.405   8.815   0.040  1.00 20.00    -0.023 C 
HETATM    2  C2  UNL     1     -42.734   9.003  -0.024  1.00 20.00    -0.015 C 
HETATM    3  C4  UNL     1     -42.396   6.997   1.075  1.00 20.00     0.029 C 
HETATM    4  C5  UNL     1     -41.150   7.334   0.241  1.00 20.00     0.029 C 
HETATM    5  C6  UNL     1     -43.414   7.671   0.159  1.00 20.00     0.071 C 
HETATM    6  C7  UNL     1     -41.340   6.605  -1.104  1.00 20.00     0.116 C 
HETATM    7  S9  UNL     1     -43.156   6.714  -1.385  1.00 20.00    -0.148 SA
ENDROOT
BRANCH   6   8
HETATM    8  C3  UNL     1     -40.957   5.163  -1.046  1.00 20.00     0.246 C 
HETATM    9  O8  UNL     1     -41.259   4.348  -1.911  1.00 20.00    -0.306 OA
ENDBRANCH   6   8
TORSDOF 1
ENDMDL
