MODEL 1
REMARK VINA RESULT:      -4.6      0.000      0.000
REMARK  1 active torsions:
REMARK  status: ('A' for Active; 'I' for Inactive)
REMARK    1  A    between atoms: C5_5  and  C7_7 
ROOT
HETATM    1  C1  UNL     1     -33.300  16.333  -2.717  1.00 20.00    -0.026 A 
HETATM    2  C2  UNL     1     -32.939  15.588  -3.771  1.00 20.00    -0.013 A 
HETATM    3  C3  UNL     1     -35.628  15.388  -2.850  1.00 20.00    -0.019 A 
HETATM    4  C4  UNL     1     -35.283  14.633  -3.909  1.00 20.00    -0.071 A 
HETATM    5  C6  UNL     1     -34.694  16.343  -2.165  1.00 20.00     0.054 A 
HETATM    6  C7  UNL     1     -33.898  14.700  -4.510  1.00 20.00     0.123 A 
HETATM    7  C8  UNL     1     -36.245  13.651  -4.517  1.00 20.00     0.044 C 
ENDROOT
BRANCH   6   8
HETATM    8  C5  UNL     1     -34.013  15.280  -5.888  1.00 20.00     0.230 C 
HETATM    9  O9  UNL     1     -33.626  14.670  -6.880  1.00 20.00    -0.279 OA
HETATM   10 CL10 UNL     1     -34.737  16.860  -5.873  1.00 20.00    -0.043 Cl
ENDBRANCH   6   8
TORSDOF 1
ENDMDL
MODEL 2
REMARK VINA RESULT:      -4.6     17.450     18.437
REMARK  1 active torsions:
REMARK  status: ('A' for Active; 'I' for Inactive)
REMARK    1  A    between atoms: C5_5  and  C7_7 
ROOT
HETATM    1  C1  UNL     1     -25.309  16.733  12.311  1.00 20.00    -0.026 A 
HETATM    2  C2  UNL     1     -24.508  16.292  11.331  1.00 20.00    -0.013 A 
HETATM    3  C3  UNL     1     -25.669  18.880  11.049  1.00 20.00    -0.019 A 
HETATM    4  C4  UNL     1     -24.868  18.453  10.055  1.00 20.00    -0.071 A 
HETATM    5  C6  UNL     1     -25.946  18.090  12.295  1.00 20.00     0.054 A 
HETATM    6  C7  UNL     1     -24.161  17.119  10.126  1.00 20.00     0.123 A 
HETATM    7  C8  UNL     1     -24.673  19.263   8.804  1.00 20.00     0.044 C 
ENDROOT
BRANCH   6   8
HETATM    8  C5  UNL     1     -22.687  17.374  10.218  1.00 20.00     0.230 C 
HETATM    9  O9  UNL     1     -22.165  17.780  11.252  1.00 20.00    -0.279 OA
HETATM   10 CL10 UNL     1     -21.869  17.029   8.724  1.00 20.00    -0.043 Cl
ENDBRANCH   6   8
TORSDOF 1
ENDMDL
MODEL 3
REMARK VINA RESULT:      -4.5      2.203      3.068
REMARK  1 active torsions:
REMARK  status: ('A' for Active; 'I' for Inactive)
REMARK    1  A    between atoms: C5_5  and  C7_7 
ROOT
HETATM    1  C1  UNL     1     -34.053  15.460  -3.044  1.00 20.00    -0.026 A 
HETATM    2  C2  UNL     1     -35.371  15.536  -3.273  1.00 20.00    -0.013 A 
HETATM    3  C3  UNL     1     -33.663  14.929  -5.472  1.00 20.00    -0.019 A 
HETATM    4  C4  UNL     1     -34.984  15.002  -5.721  1.00 20.00    -0.071 A 
HETATM    5  C6  UNL     1     -33.058  15.111  -4.110  1.00 20.00     0.054 A 
HETATM    6  C7  UNL     1     -35.982  15.267  -4.618  1.00 20.00     0.123 A 
HETATM    7  C8  UNL     1     -35.526  14.868  -7.116  1.00 20.00     0.044 C 
ENDROOT
BRANCH   6   8
HETATM    8  C5  UNL     1     -36.826  14.040  -4.445  1.00 20.00     0.230 C 
HETATM    9  O9  UNL     1     -36.335  12.914  -4.447  1.00 20.00    -0.279 OA
HETATM   10 CL10 UNL     1     -38.509  14.425  -4.251  1.00 20.00    -0.043 Cl
ENDBRANCH   6   8
TORSDOF 1
ENDMDL
MODEL 4
REMARK VINA RESULT:      -4.5     12.580     13.017
REMARK  1 active torsions:
REMARK  status: ('A' for Active; 'I' for Inactive)
REMARK    1  A    between atoms: C5_5  and  C7_7 
ROOT
HETATM    1  C1  UNL     1     -34.867   5.842   5.874  1.00 20.00    -0.026 A 
HETATM    2  C2  UNL     1     -35.112   5.353   4.651  1.00 20.00    -0.013 A 
HETATM    3  C3  UNL     1     -33.045   7.295   4.927  1.00 20.00    -0.019 A 
HETATM    4  C4  UNL     1     -33.277   6.815   3.691  1.00 20.00    -0.071 A 
HETATM    5  C6  UNL     1     -33.782   6.838   6.153  1.00 20.00     0.054 A 
HETATM    6  C7  UNL     1     -34.315   5.745   3.440  1.00 20.00     0.123 A 
HETATM    7  C8  UNL     1     -32.546   7.352   2.492  1.00 20.00     0.044 C 
ENDROOT
BRANCH   6   8
HETATM    8  C5  UNL     1     -33.606   4.500   2.997  1.00 20.00     0.230 C 
HETATM    9  O9  UNL     1     -33.023   4.438   1.919  1.00 20.00    -0.279 OA
HETATM   10 CL10 UNL     1     -33.727   3.226   4.172  1.00 20.00    -0.043 Cl
ENDBRANCH   6   8
TORSDOF 1
ENDMDL
MODEL 5
REMARK VINA RESULT:      -4.4     11.258     12.510
REMARK  1 active torsions:
REMARK  status: ('A' for Active; 'I' for Inactive)
REMARK    1  A    between atoms: C5_5  and  C7_7 
ROOT
HETATM    1  C1  UNL     1     -41.720   8.737  -0.353  1.00 20.00    -0.026 A 
HETATM    2  C2  UNL     1     -40.959   7.640  -0.478  1.00 20.00    -0.013 A 
HETATM    3  C3  UNL     1     -43.404   7.417   0.970  1.00 20.00    -0.019 A 
HETATM    4  C4  UNL     1     -42.653   6.306   0.855  1.00 20.00    -0.071 A 
HETATM    5  C6  UNL     1     -43.043   8.737   0.352  1.00 20.00     0.054 A 
HETATM    6  C7  UNL     1     -41.365   6.301   0.066  1.00 20.00     0.123 A 
HETATM    7  C8  UNL     1     -43.037   5.027   1.546  1.00 20.00     0.044 C 
ENDROOT
BRANCH   6   8
HETATM    8  C5  UNL     1     -41.552   5.415  -1.130  1.00 20.00     0.230 C 
HETATM    9  O9  UNL     1     -40.652   4.690  -1.542  1.00 20.00    -0.279 OA
HETATM   10 CL10 UNL     1     -43.145   5.560  -1.808  1.00 20.00    -0.043 Cl
ENDBRANCH   6   8
TORSDOF 1
ENDMDL
MODEL 6
REMARK VINA RESULT:      -4.3      2.266      3.065
REMARK  1 active torsions:
REMARK  status: ('A' for Active; 'I' for Inactive)
REMARK    1  A    between atoms: C5_5  and  C7_7 
ROOT
HETATM    1  C1  UNL     1     -34.499  15.949  -2.467  1.00 20.00    -0.026 A 
HETATM    2  C2  UNL     1     -35.757  15.780  -2.897  1.00 20.00    -0.013 A 
HETATM    3  C3  UNL     1     -33.657  15.667  -4.821  1.00 20.00    -0.019 A 
HETATM    4  C4  UNL     1     -34.914  15.496  -5.271  1.00 20.00    -0.071 A 
HETATM    5  C6  UNL     1     -33.309  15.873  -3.375  1.00 20.00     0.054 A 
HETATM    6  C7  UNL     1     -36.097  15.486  -4.330  1.00 20.00     0.123 A 
HETATM    7  C8  UNL     1     -35.207  15.351  -6.738  1.00 20.00     0.044 C 
ENDROOT
BRANCH   6   8
HETATM    8  C5  UNL     1     -36.688  14.108  -4.335  1.00 20.00     0.230 C 
HETATM    9  O9  UNL     1     -37.896  13.925  -4.446  1.00 20.00    -0.279 OA
HETATM   10 CL10 UNL     1     -35.475  12.875  -4.167  1.00 20.00    -0.043 Cl
ENDBRANCH   6   8
TORSDOF 1
ENDMDL
MODEL 7
REMARK VINA RESULT:      -4.3      2.350      3.808
REMARK  1 active torsions:
REMARK  status: ('A' for Active; 'I' for Inactive)
REMARK    1  A    between atoms: C5_5  and  C7_7 
ROOT
HETATM    1  C1  UNL     1     -34.670  14.279  -4.057  1.00 20.00    -0.026 A 
HETATM    2  C2  UNL     1     -35.520  14.830  -3.179  1.00 20.00    -0.013 A 
HETATM    3  C3  UNL     1     -32.903  15.940  -3.384  1.00 20.00    -0.019 A 
HETATM    4  C4  UNL     1     -33.744  16.505  -2.498  1.00 20.00    -0.071 A 
HETATM    5  C6  UNL     1     -33.281  14.798  -4.283  1.00 20.00     0.054 A 
HETATM    6  C7  UNL     1     -35.170  16.028  -2.345  1.00 20.00     0.123 A 
HETATM    7  C8  UNL     1     -33.291  17.609  -1.584  1.00 20.00     0.044 C 
ENDROOT
BRANCH   6   8
HETATM    8  C5  UNL     1     -36.083  17.125  -2.803  1.00 20.00     0.230 C 
HETATM    9  O9  UNL     1     -36.909  17.633  -2.051  1.00 20.00    -0.279 OA
HETATM   10 CL10 UNL     1     -35.813  17.548  -4.467  1.00 20.00    -0.043 Cl
ENDBRANCH   6   8
TORSDOF 1
ENDMDL
MODEL 8
REMARK VINA RESULT:      -4.2      2.384      3.851
REMARK  1 active torsions:
REMARK  status: ('A' for Active; 'I' for Inactive)
REMARK    1  A    between atoms: C5_5  and  C7_7 
ROOT
HETATM    1  C1  UNL     1     -34.685  14.340  -4.028  1.00 20.00    -0.026 A 
HETATM    2  C2  UNL     1     -35.507  14.917  -3.140  1.00 20.00    -0.013 A 
HETATM    3  C3  UNL     1     -32.864  15.955  -3.389  1.00 20.00    -0.019 A 
HETATM    4  C4  UNL     1     -33.675  16.547  -2.493  1.00 20.00    -0.071 A 
HETATM    5  C6  UNL     1     -33.286  14.819  -4.277  1.00 20.00     0.054 A 
HETATM    6  C7  UNL     1     -35.111  16.109  -2.317  1.00 20.00     0.123 A 
HETATM    7  C8  UNL     1     -33.179  17.642  -1.592  1.00 20.00     0.044 C 
ENDROOT
BRANCH   6   8
HETATM    8  C5  UNL     1     -36.001  17.229  -2.767  1.00 20.00     0.230 C 
HETATM    9  O9  UNL     1     -36.045  17.586  -3.941  1.00 20.00    -0.279 OA
HETATM   10 CL10 UNL     1     -36.910  17.911  -1.453  1.00 20.00    -0.043 Cl
ENDBRANCH   6   8
TORSDOF 1
ENDMDL
MODEL 9
REMARK VINA RESULT:      -4.2     12.201     12.710
REMARK  1 active torsions:
REMARK  status: ('A' for Active; 'I' for Inactive)
REMARK    1  A    between atoms: C5_5  and  C7_7 
ROOT
HETATM    1  C1  UNL     1     -35.406   4.973   4.861  1.00 20.00    -0.026 A 
HETATM    2  C2  UNL     1     -35.136   5.617   3.717  1.00 20.00    -0.013 A 
HETATM    3  C3  UNL     1     -33.620   6.304   6.031  1.00 20.00    -0.019 A 
HETATM    4  C4  UNL     1     -33.335   6.961   4.892  1.00 20.00    -0.071 A 
HETATM    5  C6  UNL     1     -34.653   5.218   6.134  1.00 20.00     0.054 A 
HETATM    6  C7  UNL     1     -34.043   6.639   3.595  1.00 20.00     0.123 A 
HETATM    7  C8  UNL     1     -32.331   8.079   4.863  1.00 20.00     0.044 C 
ENDROOT
BRANCH   6   8
HETATM    8  C5  UNL     1     -33.040   6.053   2.647  1.00 20.00     0.230 C 
HETATM    9  O9  UNL     1     -32.808   4.848   2.616  1.00 20.00    -0.279 OA
HETATM   10 CL10 UNL     1     -32.293   7.267   1.653  1.00 20.00    -0.043 Cl
ENDBRANCH   6   8
TORSDOF 1
ENDMDL
