MODEL 1
REMARK VINA RESULT:      -4.7      0.000      0.000
REMARK  2 active torsions:
REMARK  status: ('A' for Active; 'I' for Inactive)
REMARK    1  A    between atoms: C5_5  and  O9_9 
REMARK    2  A    between atoms: C8_8  and  O9_9 
ROOT
HETATM    1  C1  UNL     1     -34.209   6.617   6.050  1.00 20.00    -0.028 C 
HETATM    2  C2  UNL     1     -33.461   7.177   5.089  1.00 20.00     0.002 C 
HETATM    3  C3  UNL     1     -34.857   5.273   5.909  1.00 20.00     0.028 C 
HETATM    4  C4  UNL     1     -34.306   4.464   4.732  1.00 20.00     0.022 C 
HETATM    5  C5  UNL     1     -33.217   6.534   3.751  1.00 20.00     0.158 C 
HETATM    6  C6  UNL     1     -34.148   5.343   3.495  1.00 20.00     0.090 C 
HETATM    7 BR10 UNL     1     -33.421   4.252   2.035  1.00 20.00    -0.088 Br
ENDROOT
BRANCH   5   8
HETATM    8  O9  UNL     1     -33.441   7.504   2.727  1.00 20.00    -0.381 OA
BRANCH   8   9
HETATM    9  C8  UNL     1     -32.300   7.650   1.896  1.00 20.00     0.164 C 
HETATM   10  C7  UNL     1     -32.666   8.506   0.703  1.00 20.00     0.033 C 
ENDBRANCH   8   9
ENDBRANCH   5   8
TORSDOF 2
ENDMDL
MODEL 2
REMARK VINA RESULT:      -4.2     11.831     12.466
REMARK  2 active torsions:
REMARK  status: ('A' for Active; 'I' for Inactive)
REMARK    1  A    between atoms: C5_5  and  O9_9 
REMARK    2  A    between atoms: C8_8  and  O9_9 
ROOT
HETATM    1  C1  UNL     1     -32.938  16.254  -3.033  1.00 20.00    -0.028 C 
HETATM    2  C2  UNL     1     -32.976  15.215  -3.879  1.00 20.00     0.002 C 
HETATM    3  C3  UNL     1     -34.168  16.900  -2.470  1.00 20.00     0.028 C 
HETATM    4  C4  UNL     1     -35.431  16.057  -2.668  1.00 20.00     0.022 C 
HETATM    5  C5  UNL     1     -34.256  14.605  -4.382  1.00 20.00     0.158 C 
HETATM    6  C6  UNL     1     -35.480  15.475  -4.077  1.00 20.00     0.090 C 
HETATM    7 BR10 UNL     1     -37.108  14.394  -4.254  1.00 20.00    -0.088 Br
ENDROOT
BRANCH   5   8
HETATM    8  O9  UNL     1     -34.164  14.446  -5.799  1.00 20.00    -0.381 OA
BRANCH   8   9
HETATM    9  C8  UNL     1     -34.353  15.682  -6.470  1.00 20.00     0.164 C 
HETATM   10  C7  UNL     1     -33.939  15.525  -7.917  1.00 20.00     0.033 C 
ENDBRANCH   8   9
ENDBRANCH   5   8
TORSDOF 2
ENDMDL
MODEL 3
REMARK VINA RESULT:      -4.1     11.850     12.511
REMARK  2 active torsions:
REMARK  status: ('A' for Active; 'I' for Inactive)
REMARK    1  A    between atoms: C5_5  and  O9_9 
REMARK    2  A    between atoms: C8_8  and  O9_9 
ROOT
HETATM    1  C1  UNL     1     -33.141  16.201  -3.184  1.00 20.00    -0.028 C 
HETATM    2  C2  UNL     1     -32.851  17.306  -2.481  1.00 20.00     0.002 C 
HETATM    3  C3  UNL     1     -34.422  15.440  -3.027  1.00 20.00     0.028 C 
HETATM    4  C4  UNL     1     -35.494  16.223  -2.265  1.00 20.00     0.022 C 
HETATM    5  C5  UNL     1     -33.766  17.883  -1.435  1.00 20.00     0.158 C 
HETATM    6  C6  UNL     1     -34.894  16.921  -1.048  1.00 20.00     0.090 C 
HETATM    7 BR10 UNL     1     -36.314  17.919  -0.132  1.00 20.00    -0.088 Br
ENDROOT
BRANCH   5   8
HETATM    8  O9  UNL     1     -33.001  18.168  -0.263  1.00 20.00    -0.381 OA
BRANCH   8   9
HETATM    9  C8  UNL     1     -31.639  18.411  -0.582  1.00 20.00     0.164 C 
HETATM   10  C7  UNL     1     -30.804  18.249   0.669  1.00 20.00     0.033 C 
ENDBRANCH   8   9
ENDBRANCH   5   8
TORSDOF 2
ENDMDL
MODEL 4
REMARK VINA RESULT:      -3.7     11.801     12.540
REMARK  2 active torsions:
REMARK  status: ('A' for Active; 'I' for Inactive)
REMARK    1  A    between atoms: C5_5  and  O9_9 
REMARK    2  A    between atoms: C8_8  and  O9_9 
ROOT
HETATM    1  C1  UNL     1     -34.990  15.054  -3.515  1.00 20.00    -0.028 C 
HETATM    2  C2  UNL     1     -35.452  15.696  -2.433  1.00 20.00     0.002 C 
HETATM    3  C3  UNL     1     -33.660  15.349  -4.140  1.00 20.00     0.028 C 
HETATM    4  C4  UNL     1     -32.747  16.184  -3.237  1.00 20.00     0.022 C 
HETATM    5  C5  UNL     1     -34.702  16.805  -1.746  1.00 20.00     0.158 C 
HETATM    6  C6  UNL     1     -33.524  17.321  -2.581  1.00 20.00     0.090 C 
HETATM    7 BR10 UNL     1     -32.303  18.334  -1.427  1.00 20.00    -0.088 Br
ENDROOT
BRANCH   5   8
HETATM    8  O9  UNL     1     -35.597  17.893  -1.518  1.00 20.00    -0.381 OA
BRANCH   8   9
HETATM    9  C8  UNL     1     -36.267  17.759  -0.273  1.00 20.00     0.164 C 
HETATM   10  C7  UNL     1     -35.260  17.374   0.789  1.00 20.00     0.033 C 
ENDBRANCH   8   9
ENDBRANCH   5   8
TORSDOF 2
ENDMDL
MODEL 5
REMARK VINA RESULT:      -3.7     11.785     12.812
REMARK  2 active torsions:
REMARK  status: ('A' for Active; 'I' for Inactive)
REMARK    1  A    between atoms: C5_5  and  O9_9 
REMARK    2  A    between atoms: C8_8  and  O9_9 
ROOT
HETATM    1  C1  UNL     1     -34.486  15.164  -3.115  1.00 20.00    -0.028 C 
HETATM    2  C2  UNL     1     -35.799  15.216  -3.377  1.00 20.00     0.002 C 
HETATM    3  C3  UNL     1     -33.440  15.027  -4.179  1.00 20.00     0.028 C 
HETATM    4  C4  UNL     1     -33.978  15.304  -5.586  1.00 20.00     0.022 C 
HETATM    5  C5  UNL     1     -36.370  15.110  -4.765  1.00 20.00     0.158 C 
HETATM    6  C6  UNL     1     -35.334  14.634  -5.790  1.00 20.00     0.090 C 
HETATM    7 BR10 UNL     1     -35.973  15.046  -7.599  1.00 20.00    -0.088 Br
ENDROOT
BRANCH   5   8
HETATM    8  O9  UNL     1     -37.446  14.171  -4.749  1.00 20.00    -0.381 OA
BRANCH   8   9
HETATM    9  C8  UNL     1     -38.637  14.759  -4.251  1.00 20.00     0.164 C 
HETATM   10  C7  UNL     1     -38.972  15.977  -5.085  1.00 20.00     0.033 C 
ENDBRANCH   8   9
ENDBRANCH   5   8
TORSDOF 2
ENDMDL
MODEL 6
REMARK VINA RESULT:      -3.6     11.747     12.841
REMARK  2 active torsions:
REMARK  status: ('A' for Active; 'I' for Inactive)
REMARK    1  A    between atoms: C5_5  and  O9_9 
REMARK    2  A    between atoms: C8_8  and  O9_9 
ROOT
HETATM    1  C1  UNL     1     -34.379  14.325  -3.744  1.00 20.00    -0.028 C 
HETATM    2  C2  UNL     1     -35.520  14.006  -4.370  1.00 20.00     0.002 C 
HETATM    3  C3  UNL     1     -34.196  15.590  -2.961  1.00 20.00     0.028 C 
HETATM    4  C4  UNL     1     -35.518  16.300  -2.654  1.00 20.00     0.022 C 
HETATM    5  C5  UNL     1     -36.732  14.899  -4.384  1.00 20.00     0.158 C 
HETATM    6  C6  UNL     1     -36.424  16.313  -3.881  1.00 20.00     0.090 C 
HETATM    7 BR10 UNL     1     -38.102  17.217  -3.414  1.00 20.00    -0.088 Br
ENDROOT
BRANCH   5   8
HETATM    8  O9  UNL     1     -37.215  14.997  -5.724  1.00 20.00    -0.381 OA
BRANCH   8   9
HETATM    9  C8  UNL     1     -36.448  15.918  -6.484  1.00 20.00     0.164 C 
HETATM   10  C7  UNL     1     -35.887  15.210  -7.698  1.00 20.00     0.033 C 
ENDBRANCH   8   9
ENDBRANCH   5   8
TORSDOF 2
ENDMDL
MODEL 7
REMARK VINA RESULT:      -3.6     11.898     12.561
REMARK  2 active torsions:
REMARK  status: ('A' for Active; 'I' for Inactive)
REMARK    1  A    between atoms: C5_5  and  O9_9 
REMARK    2  A    between atoms: C8_8  and  O9_9 
ROOT
HETATM    1  C1  UNL     1     -33.726  14.840  -4.009  1.00 20.00    -0.028 C 
HETATM    2  C2  UNL     1     -35.047  14.666  -3.857  1.00 20.00     0.002 C 
HETATM    3  C3  UNL     1     -32.969  15.973  -3.386  1.00 20.00     0.028 C 
HETATM    4  C4  UNL     1     -33.763  16.694  -2.294  1.00 20.00     0.022 C 
HETATM    5  C5  UNL     1     -35.919  15.607  -3.070  1.00 20.00     0.158 C 
HETATM    6  C6  UNL     1     -35.207  16.922  -2.732  1.00 20.00     0.090 C 
HETATM    7 BR10 UNL     1     -36.169  17.829  -1.283  1.00 20.00    -0.088 Br
ENDROOT
BRANCH   5   8
HETATM    8  O9  UNL     1     -37.079  15.915  -3.844  1.00 20.00    -0.381 OA
BRANCH   8   9
HETATM    9  C8  UNL     1     -37.710  14.735  -4.318  1.00 20.00     0.164 C 
HETATM   10  C7  UNL     1     -39.211  14.907  -4.223  1.00 20.00     0.033 C 
ENDBRANCH   8   9
ENDBRANCH   5   8
TORSDOF 2
ENDMDL
MODEL 8
REMARK VINA RESULT:      -3.6     11.549     12.479
REMARK  2 active torsions:
REMARK  status: ('A' for Active; 'I' for Inactive)
REMARK    1  A    between atoms: C5_5  and  O9_9 
REMARK    2  A    between atoms: C8_8  and  O9_9 
ROOT
HETATM    1  C1  UNL     1     -33.423  14.664  -4.164  1.00 20.00    -0.028 C 
HETATM    2  C2  UNL     1     -32.932  15.837  -3.742  1.00 20.00     0.002 C 
HETATM    3  C3  UNL     1     -34.808  14.190  -3.843  1.00 20.00     0.028 C 
HETATM    4  C4  UNL     1     -35.711  15.302  -3.301  1.00 20.00     0.022 C 
HETATM    5  C5  UNL     1     -33.704  16.793  -2.874  1.00 20.00     0.158 C 
HETATM    6  C6  UNL     1     -34.966  16.156  -2.279  1.00 20.00     0.090 C 
HETATM    7 BR10 UNL     1     -36.169  17.569  -1.643  1.00 20.00    -0.088 Br
ENDROOT
BRANCH   5   8
HETATM    8  O9  UNL     1     -32.867  17.214  -1.796  1.00 20.00    -0.381 OA
BRANCH   8   9
HETATM    9  C8  UNL     1     -32.280  18.478  -2.062  1.00 20.00     0.164 C 
HETATM   10  C7  UNL     1     -33.132  19.216  -3.071  1.00 20.00     0.033 C 
ENDBRANCH   8   9
ENDBRANCH   5   8
TORSDOF 2
ENDMDL
MODEL 9
REMARK VINA RESULT:      -3.5      9.528     10.249
REMARK  2 active torsions:
REMARK  status: ('A' for Active; 'I' for Inactive)
REMARK    1  A    between atoms: C5_5  and  O9_9 
REMARK    2  A    between atoms: C8_8  and  O9_9 
ROOT
HETATM    1  C1  UNL     1     -41.306   8.143  -1.007  1.00 20.00    -0.028 C 
HETATM    2  C2  UNL     1     -40.891   6.869  -1.056  1.00 20.00     0.002 C 
HETATM    3  C3  UNL     1     -42.449   8.603  -0.155  1.00 20.00     0.028 C 
HETATM    4  C4  UNL     1     -42.862   7.573   0.900  1.00 20.00     0.022 C 
HETATM    5  C5  UNL     1     -41.549   5.756  -0.286  1.00 20.00     0.158 C 
HETATM    6  C6  UNL     1     -42.903   6.170   0.301  1.00 20.00     0.090 C 
HETATM    7 BR10 UNL     1     -43.417   4.901   1.707  1.00 20.00    -0.088 Br
ENDROOT
BRANCH   5   8
HETATM    8  O9  UNL     1     -41.764   4.652  -1.166  1.00 20.00    -0.381 OA
BRANCH   8   9
HETATM    9  C8  UNL     1     -42.955   4.817  -1.920  1.00 20.00     0.164 C 
HETATM   10  C7  UNL     1     -43.290   3.510  -2.605  1.00 20.00     0.033 C 
ENDBRANCH   8   9
ENDBRANCH   5   8
TORSDOF 2
ENDMDL
