MODEL 1
REMARK VINA RESULT:      -4.6      0.000      0.000
REMARK  1 active torsions:
REMARK  status: ('A' for Active; 'I' for Inactive)
REMARK    1  A    between atoms: C4_4  and  C6_6 
ROOT
HETATM    1  C1  UNL     1     -34.721  14.898  -5.972  1.00 20.00     0.009 A 
HETATM    2  C2  UNL     1     -35.914  14.307  -5.859  1.00 20.00     0.082 A 
HETATM    3  C3  UNL     1     -34.085  15.492  -4.832  1.00 20.00     0.037 A 
HETATM    4  C4  UNL     1     -34.712  15.441  -3.653  1.00 20.00     0.079 A 
HETATM    5  C5  UNL     1     -36.604  14.254  -4.553  1.00 20.00     0.288 A 
HETATM    6  O10 UNL     1     -37.699  13.711  -4.447  1.00 20.00    -0.260 OA
HETATM    7  O11 UNL     1     -35.971  14.831  -3.483  1.00 20.00    -0.276 OA
ENDROOT
BRANCH   4   8
HETATM    8  C6  UNL     1     -34.161  16.012  -2.422  1.00 20.00     0.039 C 
HETATM    9  C7  UNL     1     -34.433  17.243  -1.958  1.00 20.00    -0.085 C 
HETATM   10  C8  UNL     1     -33.887  17.862  -0.701  1.00 20.00     0.043 C 
HETATM   11  C9  UNL     1     -35.370  18.141  -2.724  1.00 20.00     0.043 C 
ENDBRANCH   4   8
TORSDOF 1
ENDMDL
MODEL 2
REMARK VINA RESULT:      -4.6      1.380      1.482
REMARK  1 active torsions:
REMARK  status: ('A' for Active; 'I' for Inactive)
REMARK    1  A    between atoms: C4_4  and  C6_6 
ROOT
HETATM    1  C1  UNL     1     -36.080  15.635  -5.810  1.00 20.00     0.009 A 
HETATM    2  C2  UNL     1     -36.252  14.342  -5.521  1.00 20.00     0.082 A 
HETATM    3  C3  UNL     1     -35.091  16.415  -5.125  1.00 20.00     0.037 A 
HETATM    4  C4  UNL     1     -34.343  15.821  -4.190  1.00 20.00     0.079 A 
HETATM    5  C5  UNL     1     -35.422  13.688  -4.487  1.00 20.00     0.288 A 
HETATM    6  O10 UNL     1     -35.578  12.501  -4.220  1.00 20.00    -0.260 OA
HETATM    7  O11 UNL     1     -34.486  14.461  -3.850  1.00 20.00    -0.276 OA
ENDROOT
BRANCH   4   8
HETATM    8  C6  UNL     1     -33.304  16.515  -3.428  1.00 20.00     0.039 C 
HETATM    9  C7  UNL     1     -33.474  17.045  -2.206  1.00 20.00    -0.085 C 
HETATM   10  C8  UNL     1     -32.433  17.765  -1.393  1.00 20.00     0.043 C 
HETATM   11  C9  UNL     1     -34.816  16.943  -1.526  1.00 20.00     0.043 C 
ENDBRANCH   4   8
TORSDOF 1
ENDMDL
MODEL 3
REMARK VINA RESULT:      -4.5      1.535      1.850
REMARK  1 active torsions:
REMARK  status: ('A' for Active; 'I' for Inactive)
REMARK    1  A    between atoms: C4_4  and  C6_6 
ROOT
HETATM    1  C1  UNL     1     -37.401  15.681  -4.230  1.00 20.00     0.009 A 
HETATM    2  C2  UNL     1     -37.251  14.373  -4.458  1.00 20.00     0.082 A 
HETATM    3  C3  UNL     1     -36.295  16.481  -3.789  1.00 20.00     0.037 A 
HETATM    4  C4  UNL     1     -35.110  15.889  -3.611  1.00 20.00     0.079 A 
HETATM    5  C5  UNL     1     -35.939  13.723  -4.260  1.00 20.00     0.288 A 
HETATM    6  O10 UNL     1     -35.799  12.522  -4.468  1.00 20.00    -0.260 OA
HETATM    7  O11 UNL     1     -34.902  14.514  -3.837  1.00 20.00    -0.276 OA
ENDROOT
BRANCH   4   8
HETATM    8  C6  UNL     1     -33.912  16.602  -3.165  1.00 20.00     0.039 C 
HETATM    9  C7  UNL     1     -33.751  17.145  -1.947  1.00 20.00    -0.085 C 
HETATM   10  C8  UNL     1     -32.538  17.885  -1.453  1.00 20.00     0.043 C 
HETATM   11  C9  UNL     1     -34.857  17.036  -0.928  1.00 20.00     0.043 C 
ENDBRANCH   4   8
TORSDOF 1
ENDMDL
MODEL 4
REMARK VINA RESULT:      -4.5      1.585      2.092
REMARK  1 active torsions:
REMARK  status: ('A' for Active; 'I' for Inactive)
REMARK    1  A    between atoms: C4_4  and  C6_6 
ROOT
HETATM    1  C1  UNL     1     -32.887  15.458  -3.922  1.00 20.00     0.009 A 
HETATM    2  C2  UNL     1     -33.588  14.444  -4.440  1.00 20.00     0.082 A 
HETATM    3  C3  UNL     1     -33.419  16.245  -2.848  1.00 20.00     0.037 A 
HETATM    4  C4  UNL     1     -34.632  15.943  -2.374  1.00 20.00     0.079 A 
HETATM    5  C5  UNL     1     -34.929  14.114  -3.913  1.00 20.00     0.288 A 
HETATM    6  O10 UNL     1     -35.574  13.184  -4.386  1.00 20.00    -0.260 OA
HETATM    7  O11 UNL     1     -35.409  14.886  -2.887  1.00 20.00    -0.276 OA
ENDROOT
BRANCH   4   8
HETATM    8  C6  UNL     1     -35.275  16.674  -1.282  1.00 20.00     0.039 C 
HETATM    9  C7  UNL     1     -36.180  17.654  -1.442  1.00 20.00    -0.085 C 
HETATM   10  C8  UNL     1     -36.861  18.427  -0.347  1.00 20.00     0.043 C 
HETATM   11  C9  UNL     1     -36.598  18.066  -2.831  1.00 20.00     0.043 C 
ENDBRANCH   4   8
TORSDOF 1
ENDMDL
MODEL 5
REMARK VINA RESULT:      -4.4      2.648      5.118
REMARK  1 active torsions:
REMARK  status: ('A' for Active; 'I' for Inactive)
REMARK    1  A    between atoms: C4_4  and  C6_6 
ROOT
HETATM    1  C1  UNL     1     -34.718  17.350  -0.683  1.00 20.00     0.009 A 
HETATM    2  C2  UNL     1     -33.616  18.084  -0.508  1.00 20.00     0.082 A 
HETATM    3  C3  UNL     1     -34.826  16.438  -1.784  1.00 20.00     0.037 A 
HETATM    4  C4  UNL     1     -33.798  16.337  -2.633  1.00 20.00     0.079 A 
HETATM    5  C5  UNL     1     -32.482  17.970  -1.449  1.00 20.00     0.288 A 
HETATM    6  O10 UNL     1     -31.468  18.642  -1.290  1.00 20.00    -0.260 OA
HETATM    7  O11 UNL     1     -32.616  17.090  -2.491  1.00 20.00    -0.276 OA
ENDROOT
BRANCH   4   8
HETATM    8  C6  UNL     1     -33.795  15.441  -3.790  1.00 20.00     0.039 C 
HETATM    9  C7  UNL     1     -34.172  15.789  -5.031  1.00 20.00    -0.085 C 
HETATM   10  C8  UNL     1     -34.183  14.898  -6.243  1.00 20.00     0.043 C 
HETATM   11  C9  UNL     1     -34.641  17.196  -5.304  1.00 20.00     0.043 C 
ENDBRANCH   4   8
TORSDOF 1
ENDMDL
MODEL 6
REMARK VINA RESULT:      -4.4     11.117     11.971
REMARK  1 active torsions:
REMARK  status: ('A' for Active; 'I' for Inactive)
REMARK    1  A    between atoms: C4_4  and  C6_6 
ROOT
HETATM    1  C1  UNL     1     -33.610   7.089   5.744  1.00 20.00     0.009 A 
HETATM    2  C2  UNL     1     -34.506   6.098   5.730  1.00 20.00     0.082 A 
HETATM    3  C3  UNL     1     -32.843   7.403   4.573  1.00 20.00     0.037 A 
HETATM    4  C4  UNL     1     -33.045   6.682   3.466  1.00 20.00     0.079 A 
HETATM    5  C5  UNL     1     -34.725   5.303   4.503  1.00 20.00     0.288 A 
HETATM    6  O10 UNL     1     -35.548   4.393   4.488  1.00 20.00    -0.260 OA
HETATM    7  O11 UNL     1     -33.977   5.628   3.402  1.00 20.00    -0.276 OA
ENDROOT
BRANCH   4   8
HETATM    8  C6  UNL     1     -32.323   6.911   2.213  1.00 20.00     0.039 C 
HETATM    9  C7  UNL     1     -32.556   7.929   1.369  1.00 20.00    -0.085 C 
HETATM   10  C8  UNL     1     -31.836   8.197   0.075  1.00 20.00     0.043 C 
HETATM   11  C9  UNL     1     -33.628   8.938   1.691  1.00 20.00     0.043 C 
ENDBRANCH   4   8
TORSDOF 1
ENDMDL
MODEL 7
REMARK VINA RESULT:      -4.3      1.606      1.821
REMARK  1 active torsions:
REMARK  status: ('A' for Active; 'I' for Inactive)
REMARK    1  A    between atoms: C4_4  and  C6_6 
ROOT
HETATM    1  C1  UNL     1     -35.582  13.633  -4.349  1.00 20.00     0.009 A 
HETATM    2  C2  UNL     1     -36.391  14.266  -5.203  1.00 20.00     0.082 A 
HETATM    3  C3  UNL     1     -34.520  14.333  -3.687  1.00 20.00     0.037 A 
HETATM    4  C4  UNL     1     -34.357  15.634  -3.943  1.00 20.00     0.079 A 
HETATM    5  C5  UNL     1     -36.206  15.706  -5.483  1.00 20.00     0.288 A 
HETATM    6  O10 UNL     1     -36.948  16.290  -6.266  1.00 20.00    -0.260 OA
HETATM    7  O11 UNL     1     -35.182  16.346  -4.835  1.00 20.00    -0.276 OA
ENDROOT
BRANCH   4   8
HETATM    8  C6  UNL     1     -33.309  16.450  -3.327  1.00 20.00     0.039 C 
HETATM    9  C7  UNL     1     -33.425  17.088  -2.150  1.00 20.00    -0.085 C 
HETATM   10  C8  UNL     1     -32.373  17.934  -1.487  1.00 20.00     0.043 C 
HETATM   11  C9  UNL     1     -34.709  16.985  -1.367  1.00 20.00     0.043 C 
ENDBRANCH   4   8
TORSDOF 1
ENDMDL
MODEL 8
REMARK VINA RESULT:      -4.2      2.049      4.532
REMARK  1 active torsions:
REMARK  status: ('A' for Active; 'I' for Inactive)
REMARK    1  A    between atoms: C4_4  and  C6_6 
ROOT
HETATM    1  C1  UNL     1     -32.957  17.800  -1.701  1.00 20.00     0.009 A 
HETATM    2  C2  UNL     1     -33.755  18.063  -0.662  1.00 20.00     0.082 A 
HETATM    3  C3  UNL     1     -33.267  16.739  -2.616  1.00 20.00     0.037 A 
HETATM    4  C4  UNL     1     -34.373  16.019  -2.407  1.00 20.00     0.079 A 
HETATM    5  C5  UNL     1     -34.978  17.263  -0.435  1.00 20.00     0.288 A 
HETATM    6  O10 UNL     1     -35.713  17.503   0.517  1.00 20.00    -0.260 OA
HETATM    7  O11 UNL     1     -35.246  16.257  -1.327  1.00 20.00    -0.276 OA
ENDROOT
BRANCH   4   8
HETATM    8  C6  UNL     1     -34.791  14.915  -3.273  1.00 20.00     0.039 C 
HETATM    9  C7  UNL     1     -35.785  14.980  -4.174  1.00 20.00    -0.085 C 
HETATM   10  C8  UNL     1     -36.242  13.869  -5.079  1.00 20.00     0.043 C 
HETATM   11  C9  UNL     1     -36.557  16.263  -4.344  1.00 20.00     0.043 C 
ENDBRANCH   4   8
TORSDOF 1
ENDMDL
MODEL 9
REMARK VINA RESULT:      -4.1     11.314     12.138
REMARK  1 active torsions:
REMARK  status: ('A' for Active; 'I' for Inactive)
REMARK    1  A    between atoms: C4_4  and  C6_6 
ROOT
HETATM    1  C1  UNL     1     -34.809   4.718   4.276  1.00 20.00     0.009 A 
HETATM    2  C2  UNL     1     -34.800   5.465   5.384  1.00 20.00     0.082 A 
HETATM    3  C3  UNL     1     -34.000   5.070   3.146  1.00 20.00     0.037 A 
HETATM    4  C4  UNL     1     -33.234   6.163   3.225  1.00 20.00     0.079 A 
HETATM    5  C5  UNL     1     -33.952   6.673   5.466  1.00 20.00     0.288 A 
HETATM    6  O10 UNL     1     -33.942   7.361   6.482  1.00 20.00    -0.260 OA
HETATM    7  O11 UNL     1     -33.190   6.983   4.370  1.00 20.00    -0.276 OA
ENDROOT
BRANCH   4   8
HETATM    8  C6  UNL     1     -32.368   6.619   2.137  1.00 20.00     0.039 C 
HETATM    9  C7  UNL     1     -32.546   7.752   1.437  1.00 20.00    -0.085 C 
HETATM   10  C8  UNL     1     -31.679   8.253   0.315  1.00 20.00     0.043 C 
HETATM   11  C9  UNL     1     -33.709   8.655   1.759  1.00 20.00     0.043 C 
ENDBRANCH   4   8
TORSDOF 1
ENDMDL
