MODEL 1
REMARK VINA RESULT:      -5.1      0.000      0.000
REMARK  1 active torsions:
REMARK  status: ('A' for Active; 'I' for Inactive)
REMARK    1  A    between atoms: C1_1  and  C8_8 
ROOT
HETATM    1  C2  UNL     1     -41.173   6.757  -0.613  1.00 20.00     0.019 A 
HETATM    2  C3  UNL     1     -42.622   7.055   0.972  1.00 20.00     0.019 A 
HETATM    3  C4  UNL     1     -43.112   7.615  -1.064  1.00 20.00     0.019 A 
HETATM    4  C5  UNL     1     -41.166   7.483   0.740  1.00 20.00     0.038 A 
HETATM    5  C6  UNL     1     -41.656   8.044  -1.297  1.00 20.00     0.038 A 
HETATM    6  C7  UNL     1     -43.106   8.342   0.288  1.00 20.00     0.038 A 
HETATM    7  C8  UNL     1     -42.628   6.330  -0.380  1.00 20.00     0.050 A 
HETATM    8  C9  UNL     1     -41.657   8.753   0.053  1.00 20.00     0.117 A 
HETATM    9  F11 UNL     1     -41.169   9.971   0.270  1.00 20.00    -0.242 F 
ENDROOT
BRANCH   7  10
HETATM   10  C1  UNL     1     -43.178   4.959  -0.622  1.00 20.00     0.228 C 
HETATM   11  O10 UNL     1     -43.417   4.187   0.303  1.00 20.00    -0.279 OA
HETATM   12 CL12 UNL     1     -43.417   4.638  -2.312  1.00 20.00    -0.043 Cl
ENDBRANCH   7  10
TORSDOF 1
ENDMDL
MODEL 2
REMARK VINA RESULT:      -5.1     11.114     12.033
REMARK  1 active torsions:
REMARK  status: ('A' for Active; 'I' for Inactive)
REMARK    1  A    between atoms: C1_1  and  C8_8 
ROOT
HETATM    1  C2  UNL     1     -33.980  15.151  -4.880  1.00 20.00     0.019 A 
HETATM    2  C3  UNL     1     -34.691  15.407  -2.849  1.00 20.00     0.019 A 
HETATM    3  C4  UNL     1     -35.632  16.494  -4.471  1.00 20.00     0.019 A 
HETATM    4  C5  UNL     1     -33.330  15.543  -3.545  1.00 20.00     0.038 A 
HETATM    5  C6  UNL     1     -34.270  16.631  -5.169  1.00 20.00     0.038 A 
HETATM    6  C7  UNL     1     -34.983  16.887  -3.137  1.00 20.00     0.038 A 
HETATM    7  C8  UNL     1     -35.340  15.016  -4.183  1.00 20.00     0.050 A 
HETATM    8  C9  UNL     1     -33.634  17.009  -3.836  1.00 20.00     0.117 A 
HETATM    9  F11 UNL     1     -32.777  18.011  -3.663  1.00 20.00    -0.242 F 
ENDROOT
BRANCH   7  10
HETATM   10  C1  UNL     1     -36.305  13.887  -4.376  1.00 20.00     0.228 C 
HETATM   11  O10 UNL     1     -35.922  12.737  -4.568  1.00 20.00    -0.279 OA
HETATM   12 CL12 UNL     1     -37.957  14.418  -4.291  1.00 20.00    -0.043 Cl
ENDBRANCH   7  10
TORSDOF 1
ENDMDL
MODEL 3
REMARK VINA RESULT:      -5.1     11.125     12.149
REMARK  1 active torsions:
REMARK  status: ('A' for Active; 'I' for Inactive)
REMARK    1  A    between atoms: C1_1  and  C8_8 
ROOT
HETATM    1  C2  UNL     1     -35.617  16.480  -4.563  1.00 20.00     0.019 A 
HETATM    2  C3  UNL     1     -33.965  15.112  -4.870  1.00 20.00     0.019 A 
HETATM    3  C4  UNL     1     -34.726  15.461  -2.871  1.00 20.00     0.019 A 
HETATM    4  C5  UNL     1     -34.237  16.579  -5.231  1.00 20.00     0.038 A 
HETATM    5  C6  UNL     1     -35.000  16.929  -3.231  1.00 20.00     0.038 A 
HETATM    6  C7  UNL     1     -33.346  15.558  -3.537  1.00 20.00     0.038 A 
HETATM    7  C8  UNL     1     -35.343  15.015  -4.203  1.00 20.00     0.050 A 
HETATM    8  C9  UNL     1     -33.632  17.011  -3.900  1.00 20.00     0.117 A 
HETATM    9  F11 UNL     1     -32.773  18.015  -3.747  1.00 20.00    -0.242 F 
ENDROOT
BRANCH   7  10
HETATM   10  C1  UNL     1     -36.308  13.884  -4.376  1.00 20.00     0.228 C 
HETATM   11  O10 UNL     1     -35.926  12.734  -4.572  1.00 20.00    -0.279 OA
HETATM   12 CL12 UNL     1     -37.960  14.411  -4.266  1.00 20.00    -0.043 Cl
ENDBRANCH   7  10
TORSDOF 1
ENDMDL
MODEL 4
REMARK VINA RESULT:      -5.0     11.107     12.100
REMARK  1 active torsions:
REMARK  status: ('A' for Active; 'I' for Inactive)
REMARK    1  A    between atoms: C1_1  and  C8_8 
ROOT
HETATM    1  C2  UNL     1     -34.782  15.482  -2.835  1.00 20.00     0.019 A 
HETATM    2  C3  UNL     1     -35.629  16.477  -4.564  1.00 20.00     0.019 A 
HETATM    3  C4  UNL     1     -33.956  15.119  -4.805  1.00 20.00     0.019 A 
HETATM    4  C5  UNL     1     -35.056  16.944  -3.218  1.00 20.00     0.038 A 
HETATM    5  C6  UNL     1     -33.383  15.585  -3.459  1.00 20.00     0.038 A 
HETATM    6  C7  UNL     1     -34.230  16.580  -5.190  1.00 20.00     0.038 A 
HETATM    7  C8  UNL     1     -35.353  15.017  -4.180  1.00 20.00     0.050 A 
HETATM    8  C9  UNL     1     -33.670  17.032  -3.846  1.00 20.00     0.117 A 
HETATM    9  F11 UNL     1     -32.823  18.043  -3.679  1.00 20.00    -0.242 F 
ENDROOT
BRANCH   7  10
HETATM   10  C1  UNL     1     -36.308  13.880  -4.370  1.00 20.00     0.228 C 
HETATM   11  O10 UNL     1     -35.915  12.732  -4.557  1.00 20.00    -0.279 OA
HETATM   12 CL12 UNL     1     -37.965  14.397  -4.290  1.00 20.00    -0.043 Cl
ENDBRANCH   7  10
TORSDOF 1
ENDMDL
MODEL 5
REMARK VINA RESULT:      -4.8     11.516     12.542
REMARK  1 active torsions:
REMARK  status: ('A' for Active; 'I' for Inactive)
REMARK    1  A    between atoms: C1_1  and  C8_8 
ROOT
HETATM    1  C2  UNL     1     -34.966  16.671  -4.357  1.00 20.00     0.019 A 
HETATM    2  C3  UNL     1     -33.189  16.195  -3.212  1.00 20.00     0.019 A 
HETATM    3  C4  UNL     1     -35.149  15.967  -2.315  1.00 20.00     0.019 A 
HETATM    4  C5  UNL     1     -33.684  17.428  -3.983  1.00 20.00     0.038 A 
HETATM    5  C6  UNL     1     -35.645  17.200  -3.086  1.00 20.00     0.038 A 
HETATM    6  C7  UNL     1     -33.867  16.723  -1.939  1.00 20.00     0.038 A 
HETATM    7  C8  UNL     1     -34.471  15.441  -3.587  1.00 20.00     0.050 A 
HETATM    8  C9  UNL     1     -34.363  17.938  -2.716  1.00 20.00     0.117 A 
HETATM    9  F11 UNL     1     -34.309  19.192  -2.279  1.00 20.00    -0.242 F 
ENDROOT
BRANCH   7  10
HETATM   10  C1  UNL     1     -34.529  14.028  -4.079  1.00 20.00     0.228 C 
HETATM   11  O10 UNL     1     -33.516  13.344  -4.195  1.00 20.00    -0.279 OA
HETATM   12 CL12 UNL     1     -36.152  13.528  -4.440  1.00 20.00    -0.043 Cl
ENDBRANCH   7  10
TORSDOF 1
ENDMDL
MODEL 6
REMARK VINA RESULT:      -4.8     11.648     12.466
REMARK  1 active torsions:
REMARK  status: ('A' for Active; 'I' for Inactive)
REMARK    1  A    between atoms: C1_1  and  C8_8 
ROOT
HETATM    1  C2  UNL     1     -34.017  16.703  -4.640  1.00 20.00     0.019 A 
HETATM    2  C3  UNL     1     -34.067  14.690  -3.838  1.00 20.00     0.019 A 
HETATM    3  C4  UNL     1     -35.886  15.866  -3.929  1.00 20.00     0.019 A 
HETATM    4  C5  UNL     1     -33.261  15.960  -3.529  1.00 20.00     0.038 A 
HETATM    5  C6  UNL     1     -35.080  17.137  -3.621  1.00 20.00     0.038 A 
HETATM    6  C7  UNL     1     -35.131  15.122  -2.818  1.00 20.00     0.038 A 
HETATM    7  C8  UNL     1     -34.822  15.434  -4.947  1.00 20.00     0.050 A 
HETATM    8  C9  UNL     1     -34.329  16.385  -2.527  1.00 20.00     0.117 A 
HETATM    9  F11 UNL     1     -34.081  16.864  -1.312  1.00 20.00    -0.242 F 
ENDROOT
BRANCH   7  10
HETATM   10  C1  UNL     1     -35.100  14.893  -6.315  1.00 20.00     0.228 C 
HETATM   11  O10 UNL     1     -36.174  14.369  -6.596  1.00 20.00    -0.279 OA
HETATM   12 CL12 UNL     1     -33.751  15.105  -7.388  1.00 20.00    -0.043 Cl
ENDBRANCH   7  10
TORSDOF 1
ENDMDL
MODEL 7
REMARK VINA RESULT:      -4.7     10.882     11.860
REMARK  1 active torsions:
REMARK  status: ('A' for Active; 'I' for Inactive)
REMARK    1  A    between atoms: C1_1  and  C8_8 
ROOT
HETATM    1  C2  UNL     1     -35.069  16.119  -4.969  1.00 20.00     0.019 A 
HETATM    2  C3  UNL     1     -34.917  14.699  -3.339  1.00 20.00     0.019 A 
HETATM    3  C4  UNL     1     -35.897  16.606  -3.026  1.00 20.00     0.019 A 
HETATM    4  C5  UNL     1     -33.915  15.369  -4.289  1.00 20.00     0.038 A 
HETATM    5  C6  UNL     1     -34.895  17.278  -3.977  1.00 20.00     0.038 A 
HETATM    6  C7  UNL     1     -34.744  15.856  -2.345  1.00 20.00     0.038 A 
HETATM    7  C8  UNL     1     -36.070  15.450  -4.019  1.00 20.00     0.050 A 
HETATM    8  C9  UNL     1     -33.758  16.519  -3.301  1.00 20.00     0.117 A 
HETATM    9  F11 UNL     1     -32.597  17.057  -2.941  1.00 20.00    -0.242 F 
ENDROOT
BRANCH   7  10
HETATM   10  C1  UNL     1     -37.377  14.842  -4.423  1.00 20.00     0.228 C 
HETATM   11  O10 UNL     1     -37.529  13.625  -4.489  1.00 20.00    -0.279 OA
HETATM   12 CL12 UNL     1     -38.580  16.046  -4.767  1.00 20.00    -0.043 Cl
ENDBRANCH   7  10
TORSDOF 1
ENDMDL
MODEL 8
REMARK VINA RESULT:      -4.7     11.335     12.346
REMARK  1 active torsions:
REMARK  status: ('A' for Active; 'I' for Inactive)
REMARK    1  A    between atoms: C1_1  and  C8_8 
ROOT
HETATM    1  C2  UNL     1     -36.252  15.271  -3.739  1.00 20.00     0.019 A 
HETATM    2  C3  UNL     1     -34.263  14.428  -3.906  1.00 20.00     0.019 A 
HETATM    3  C4  UNL     1     -34.697  16.364  -4.780  1.00 20.00     0.019 A 
HETATM    4  C5  UNL     1     -35.677  13.948  -4.265  1.00 20.00     0.038 A 
HETATM    5  C6  UNL     1     -36.111  15.885  -5.139  1.00 20.00     0.038 A 
HETATM    6  C7  UNL     1     -34.120  15.042  -5.306  1.00 20.00     0.038 A 
HETATM    7  C8  UNL     1     -34.840  15.749  -3.382  1.00 20.00     0.050 A 
HETATM    8  C9  UNL     1     -35.529  14.571  -5.648  1.00 20.00     0.117 A 
HETATM    9  F11 UNL     1     -35.876  13.980  -6.788  1.00 20.00    -0.242 F 
ENDROOT
BRANCH   7  10
HETATM   10  C1  UNL     1     -34.447  16.413  -2.098  1.00 20.00     0.228 C 
HETATM   11  O10 UNL     1     -35.189  16.416  -1.120  1.00 20.00    -0.279 OA
HETATM   12 CL12 UNL     1     -32.872  17.139  -2.193  1.00 20.00    -0.043 Cl
ENDBRANCH   7  10
TORSDOF 1
ENDMDL
MODEL 9
REMARK VINA RESULT:      -4.6     11.330     12.359
REMARK  1 active torsions:
REMARK  status: ('A' for Active; 'I' for Inactive)
REMARK    1  A    between atoms: C1_1  and  C8_8 
ROOT
HETATM    1  C2  UNL     1     -34.526  16.326  -4.748  1.00 20.00     0.019 A 
HETATM    2  C3  UNL     1     -36.249  15.423  -3.795  1.00 20.00     0.019 A 
HETATM    3  C4  UNL     1     -34.350  14.379  -3.813  1.00 20.00     0.019 A 
HETATM    4  C5  UNL     1     -35.955  15.985  -5.193  1.00 20.00     0.038 A 
HETATM    5  C6  UNL     1     -34.054  14.941  -5.212  1.00 20.00     0.038 A 
HETATM    6  C7  UNL     1     -35.779  14.036  -4.257  1.00 20.00     0.038 A 
HETATM    7  C8  UNL     1     -34.820  15.764  -3.352  1.00 20.00     0.050 A 
HETATM    8  C9  UNL     1     -35.480  14.607  -5.639  1.00 20.00     0.117 A 
HETATM    9  F11 UNL     1     -35.810  14.025  -6.788  1.00 20.00    -0.242 F 
ENDROOT
BRANCH   7  10
HETATM   10  C1  UNL     1     -34.451  16.419  -2.058  1.00 20.00     0.228 C 
HETATM   11  O10 UNL     1     -35.210  16.415  -1.093  1.00 20.00    -0.279 OA
HETATM   12 CL12 UNL     1     -32.874  17.145  -2.119  1.00 20.00    -0.043 Cl
ENDBRANCH   7  10
TORSDOF 1
ENDMDL
