MODEL 1
REMARK VINA RESULT:      -4.6      0.000      0.000
REMARK  2 active torsions:
REMARK  status: ('A' for Active; 'I' for Inactive)
REMARK    1  A    between atoms: C2_2  and  C5_5 
REMARK    2  A    between atoms: C2_2  and  C9_9 
ROOT
HETATM    1  C1  UNL     1     -22.928  17.123   9.209  1.00 20.00     0.225 C 
HETATM    2  C2  UNL     1     -23.742  17.856   9.919  1.00 20.00    -0.014 C 
HETATM    3  O10 UNL     1     -22.195  16.461   8.571  1.00 20.00    -0.284 OA
ENDROOT
BRANCH   2   4
HETATM    4  C5  UNL     1     -24.306  19.033   9.218  1.00 20.00     0.019 A 
HETATM    5  C3  UNL     1     -24.048  19.169   7.755  1.00 20.00     0.010 A 
HETATM    6  C4  UNL     1     -25.417  18.808   8.248  1.00 20.00     0.010 A 
ENDBRANCH   2   4
BRANCH   2   7
HETATM    7  C9  UNL     1     -24.168  17.548  11.358  1.00 20.00    -0.024 C 
HETATM    8  C6  UNL     1     -22.975  17.779  12.304  1.00 20.00     0.019 C 
HETATM    9  C7  UNL     1     -24.646  16.088  11.494  1.00 20.00     0.019 C 
HETATM   10  C8  UNL     1     -25.331  18.457  11.816  1.00 20.00     0.019 C 
ENDBRANCH   2   7
TORSDOF 2
ENDMDL
MODEL 2
REMARK VINA RESULT:      -4.5      1.470      2.268
REMARK  2 active torsions:
REMARK  status: ('A' for Active; 'I' for Inactive)
REMARK    1  A    between atoms: C2_2  and  C5_5 
REMARK    2  A    between atoms: C2_2  and  C9_9 
ROOT
HETATM    1  C1  UNL     1     -24.496  18.520   9.132  1.00 20.00     0.225 C 
HETATM    2  C2  UNL     1     -23.878  17.697   9.936  1.00 20.00    -0.014 C 
HETATM    3  O10 UNL     1     -25.053  19.261   8.409  1.00 20.00    -0.284 OA
ENDROOT
BRANCH   2   4
HETATM    4  C5  UNL     1     -22.670  17.051   9.371  1.00 20.00     0.019 A 
HETATM    5  C3  UNL     1     -22.211  17.479   8.019  1.00 20.00     0.010 A 
HETATM    6  C4  UNL     1     -21.431  17.870   9.238  1.00 20.00     0.010 A 
ENDBRANCH   2   4
BRANCH   2   7
HETATM    7  C9  UNL     1     -24.287  17.418  11.386  1.00 20.00    -0.024 C 
HETATM    8  C6  UNL     1     -23.161  17.875  12.331  1.00 20.00     0.019 C 
HETATM    9  C7  UNL     1     -24.555  15.915  11.607  1.00 20.00     0.019 C 
HETATM   10  C8  UNL     1     -25.578  18.176  11.770  1.00 20.00     0.019 C 
ENDBRANCH   2   7
TORSDOF 2
ENDMDL
MODEL 3
REMARK VINA RESULT:      -4.3     16.809     18.693
REMARK  2 active torsions:
REMARK  status: ('A' for Active; 'I' for Inactive)
REMARK    1  A    between atoms: C2_2  and  C5_5 
REMARK    2  A    between atoms: C2_2  and  C9_9 
ROOT
HETATM    1  C1  UNL     1     -35.805  13.718  -4.325  1.00 20.00     0.225 C 
HETATM    2  C2  UNL     1     -35.741  14.993  -4.054  1.00 20.00    -0.014 C 
HETATM    3  O10 UNL     1     -35.862  12.568  -4.569  1.00 20.00    -0.284 OA
ENDROOT
BRANCH   2   4
HETATM    4  C5  UNL     1     -37.046  15.691  -3.986  1.00 20.00     0.019 A 
HETATM    5  C3  UNL     1     -37.794  15.909  -5.257  1.00 20.00     0.010 A 
HETATM    6  C4  UNL     1     -38.281  14.901  -4.260  1.00 20.00     0.010 A 
ENDBRANCH   2   4
BRANCH   2   7
HETATM    7  C9  UNL     1     -34.447  15.761  -3.764  1.00 20.00    -0.024 C 
HETATM    8  C6  UNL     1     -33.238  14.890  -4.153  1.00 20.00     0.019 C 
HETATM    9  C7  UNL     1     -34.345  16.130  -2.270  1.00 20.00     0.019 C 
HETATM   10  C8  UNL     1     -34.373  17.079  -4.569  1.00 20.00     0.019 C 
ENDBRANCH   2   7
TORSDOF 2
ENDMDL
MODEL 4
REMARK VINA RESULT:      -4.1     15.728     17.648
REMARK  2 active torsions:
REMARK  status: ('A' for Active; 'I' for Inactive)
REMARK    1  A    between atoms: C2_2  and  C5_5 
REMARK    2  A    between atoms: C2_2  and  C9_9 
ROOT
HETATM    1  C1  UNL     1     -33.761  14.647  -4.086  1.00 20.00     0.225 C 
HETATM    2  C2  UNL     1     -34.697  15.378  -3.545  1.00 20.00    -0.014 C 
HETATM    3  O10 UNL     1     -32.915  13.989  -4.574  1.00 20.00    -0.284 OA
ENDROOT
BRANCH   2   4
HETATM    4  C5  UNL     1     -36.078  14.873  -3.730  1.00 20.00     0.019 A 
HETATM    5  C3  UNL     1     -36.685  14.968  -5.088  1.00 20.00     0.010 A 
HETATM    6  C4  UNL     1     -36.271  13.636  -4.540  1.00 20.00     0.010 A 
ENDBRANCH   2   4
BRANCH   2   7
HETATM    7  C9  UNL     1     -34.451  16.646  -2.720  1.00 20.00    -0.024 C 
HETATM    8  C6  UNL     1     -35.131  16.501  -1.346  1.00 20.00     0.019 C 
HETATM    9  C7  UNL     1     -35.015  17.890  -3.436  1.00 20.00     0.019 C 
HETATM   10  C8  UNL     1     -32.943  16.892  -2.490  1.00 20.00     0.019 C 
ENDBRANCH   2   7
TORSDOF 2
ENDMDL
MODEL 5
REMARK VINA RESULT:      -4.1     17.188     19.177
REMARK  2 active torsions:
REMARK  status: ('A' for Active; 'I' for Inactive)
REMARK    1  A    between atoms: C2_2  and  C5_5 
REMARK    2  A    between atoms: C2_2  and  C9_9 
ROOT
HETATM    1  C1  UNL     1     -35.980  13.760  -4.374  1.00 20.00     0.225 C 
HETATM    2  C2  UNL     1     -36.171  15.049  -4.288  1.00 20.00    -0.014 C 
HETATM    3  O10 UNL     1     -35.810  12.599  -4.452  1.00 20.00    -0.284 OA
ENDROOT
BRANCH   2   4
HETATM    4  C5  UNL     1     -34.956  15.850  -4.008  1.00 20.00     0.019 A 
HETATM    5  C3  UNL     1     -34.362  15.771  -2.642  1.00 20.00     0.010 A 
HETATM    6  C4  UNL     1     -33.668  15.125  -3.804  1.00 20.00     0.010 A 
ENDBRANCH   2   4
BRANCH   2   7
HETATM    7  C9  UNL     1     -37.516  15.751  -4.504  1.00 20.00    -0.024 C 
HETATM    8  C6  UNL     1     -38.659  14.748  -4.264  1.00 20.00     0.019 C 
HETATM    9  C7  UNL     1     -37.625  16.309  -5.938  1.00 20.00     0.019 C 
HETATM   10  C8  UNL     1     -37.702  16.939  -3.533  1.00 20.00     0.019 C 
ENDBRANCH   2   7
TORSDOF 2
ENDMDL
MODEL 6
REMARK VINA RESULT:      -4.1     15.397     16.855
REMARK  2 active torsions:
REMARK  status: ('A' for Active; 'I' for Inactive)
REMARK    1  A    between atoms: C2_2  and  C5_5 
REMARK    2  A    between atoms: C2_2  and  C9_9 
ROOT
HETATM    1  C1  UNL     1     -33.134  17.011  -2.347  1.00 20.00     0.225 C 
HETATM    2  C2  UNL     1     -34.087  16.203  -2.725  1.00 20.00    -0.014 C 
HETATM    3  O10 UNL     1     -32.274  17.739  -2.007  1.00 20.00    -0.284 OA
ENDROOT
BRANCH   2   4
HETATM    4  C5  UNL     1     -35.291  16.200  -1.864  1.00 20.00     0.019 A 
HETATM    5  C3  UNL     1     -35.253  16.992  -0.600  1.00 20.00     0.010 A 
HETATM    6  C4  UNL     1     -36.083  17.460  -1.757  1.00 20.00     0.010 A 
ENDBRANCH   2   4
BRANCH   2   7
HETATM    7  C9  UNL     1     -34.048  15.336  -3.988  1.00 20.00    -0.024 C 
HETATM    8  C6  UNL     1     -34.437  16.192  -5.208  1.00 20.00     0.019 C 
HETATM    9  C7  UNL     1     -35.023  14.146  -3.873  1.00 20.00     0.019 C 
HETATM   10  C8  UNL     1     -32.638  14.753  -4.237  1.00 20.00     0.019 C 
ENDBRANCH   2   7
TORSDOF 2
ENDMDL
MODEL 7
REMARK VINA RESULT:      -4.1     17.219     19.188
REMARK  2 active torsions:
REMARK  status: ('A' for Active; 'I' for Inactive)
REMARK    1  A    between atoms: C2_2  and  C5_5 
REMARK    2  A    between atoms: C2_2  and  C9_9 
ROOT
HETATM    1  C1  UNL     1     -36.015  13.786  -4.414  1.00 20.00     0.225 C 
HETATM    2  C2  UNL     1     -36.212  15.071  -4.294  1.00 20.00    -0.014 C 
HETATM    3  O10 UNL     1     -35.839  12.628  -4.522  1.00 20.00    -0.284 OA
ENDROOT
BRANCH   2   4
HETATM    4  C5  UNL     1     -35.002  15.870  -3.990  1.00 20.00     0.019 A 
HETATM    5  C3  UNL     1     -34.357  15.689  -2.657  1.00 20.00     0.010 A 
HETATM    6  C4  UNL     1     -33.695  15.157  -3.892  1.00 20.00     0.010 A 
ENDBRANCH   2   4
BRANCH   2   7
HETATM    7  C9  UNL     1     -37.559  15.772  -4.495  1.00 20.00    -0.024 C 
HETATM    8  C6  UNL     1     -37.664  16.965  -3.527  1.00 20.00     0.019 C 
HETATM    9  C7  UNL     1     -38.732  14.804  -4.235  1.00 20.00     0.019 C 
HETATM   10  C8  UNL     1     -37.715  16.306  -5.938  1.00 20.00     0.019 C 
ENDBRANCH   2   7
TORSDOF 2
ENDMDL
MODEL 8
REMARK VINA RESULT:      -4.1     16.794     18.646
REMARK  2 active torsions:
REMARK  status: ('A' for Active; 'I' for Inactive)
REMARK    1  A    between atoms: C2_2  and  C5_5 
REMARK    2  A    between atoms: C2_2  and  C9_9 
ROOT
HETATM    1  C1  UNL     1     -35.485  14.002  -4.652  1.00 20.00     0.225 C 
HETATM    2  C2  UNL     1     -35.005  15.209  -4.789  1.00 20.00    -0.014 C 
HETATM    3  O10 UNL     1     -35.917  12.915  -4.528  1.00 20.00    -0.284 OA
ENDROOT
BRANCH   2   4
HETATM    4  C5  UNL     1     -35.021  15.742  -6.171  1.00 20.00     0.019 A 
HETATM    5  C3  UNL     1     -34.082  15.145  -7.165  1.00 20.00     0.010 A 
HETATM    6  C4  UNL     1     -35.552  14.867  -7.256  1.00 20.00     0.010 A 
ENDBRANCH   2   4
BRANCH   2   7
HETATM    7  C9  UNL     1     -34.499  16.084  -3.637  1.00 20.00    -0.024 C 
HETATM    8  C6  UNL     1     -34.792  17.562  -3.953  1.00 20.00     0.019 C 
HETATM    9  C7  UNL     1     -32.981  15.903  -3.429  1.00 20.00     0.019 C 
HETATM   10  C8  UNL     1     -35.192  15.728  -2.302  1.00 20.00     0.019 C 
ENDBRANCH   2   7
TORSDOF 2
ENDMDL
MODEL 9
REMARK VINA RESULT:      -4.0     16.780     18.610
REMARK  2 active torsions:
REMARK  status: ('A' for Active; 'I' for Inactive)
REMARK    1  A    between atoms: C2_2  and  C5_5 
REMARK    2  A    between atoms: C2_2  and  C9_9 
ROOT
HETATM    1  C1  UNL     1     -35.499  13.963  -4.574  1.00 20.00     0.225 C 
HETATM    2  C2  UNL     1     -35.053  15.180  -4.731  1.00 20.00    -0.014 C 
HETATM    3  O10 UNL     1     -35.900  12.866  -4.431  1.00 20.00    -0.284 OA
ENDROOT
BRANCH   2   4
HETATM    4  C5  UNL     1     -35.146  15.713  -6.109  1.00 20.00     0.019 A 
HETATM    5  C3  UNL     1     -34.203  15.181  -7.134  1.00 20.00     0.010 A 
HETATM    6  C4  UNL     1     -35.654  14.808  -7.181  1.00 20.00     0.010 A 
ENDBRANCH   2   4
BRANCH   2   7
HETATM    7  C9  UNL     1     -34.512  16.065  -3.603  1.00 20.00    -0.024 C 
HETATM    8  C6  UNL     1     -33.000  15.818  -3.440  1.00 20.00     0.019 C 
HETATM    9  C7  UNL     1     -35.221  15.759  -2.268  1.00 20.00     0.019 C 
HETATM   10  C8  UNL     1     -34.726  17.566  -3.904  1.00 20.00     0.019 C 
ENDBRANCH   2   7
TORSDOF 2
ENDMDL
