MODEL 1
REMARK VINA RESULT:      -4.7      0.000      0.000
REMARK  1 active torsions:
REMARK  status: ('A' for Active; 'I' for Inactive)
REMARK    1  A    between atoms: C2_2  and  C3_3 
ROOT
HETATM    1  C1  UNL     1     -33.361   5.697   2.862  1.00 20.00     0.050 C 
HETATM    2  C2  UNL     1     -32.776   6.259   1.801  1.00 20.00     0.082 C 
HETATM    3  C4  UNL     1     -33.691   6.400   4.137  1.00 20.00     0.071 C 
HETATM    4  C5  UNL     1     -34.340   4.139   4.149  1.00 20.00     0.179 C 
HETATM    5  C6  UNL     1     -34.788   5.497   4.664  1.00 20.00     0.012 C 
HETATM    6  C8  UNL     1     -34.962   5.551   6.169  1.00 20.00     0.012 C 
HETATM    7  O10 UNL     1     -33.785   4.372   2.845  1.00 20.00    -0.355 OA
ENDROOT
BRANCH   2   8
HETATM    8  C3  UNL     1     -32.394   7.696   1.815  1.00 20.00     0.147 C 
HETATM    9  C7  UNL     1     -32.881   8.537   0.665  1.00 20.00     0.096 C 
HETATM   10  O9  UNL     1     -31.733   8.187   2.728  1.00 20.00    -0.294 OA
ENDBRANCH   2   8
TORSDOF 1
ENDMDL
MODEL 2
REMARK VINA RESULT:      -4.7     11.093     12.018
REMARK  1 active torsions:
REMARK  status: ('A' for Active; 'I' for Inactive)
REMARK    1  A    between atoms: C2_2  and  C3_3 
ROOT
HETATM    1  C1  UNL     1     -34.415  15.858  -2.609  1.00 20.00     0.050 C 
HETATM    2  C2  UNL     1     -34.861  14.890  -3.415  1.00 20.00     0.082 C 
HETATM    3  C4  UNL     1     -33.084  16.526  -2.719  1.00 20.00     0.071 C 
HETATM    4  C5  UNL     1     -34.387  17.373  -0.953  1.00 20.00     0.179 C 
HETATM    5  C6  UNL     1     -33.379  17.824  -1.996  1.00 20.00     0.012 C 
HETATM    6  C8  UNL     1     -32.152  18.495  -1.408  1.00 20.00     0.012 C 
HETATM    7  O10 UNL     1     -35.208  16.386  -1.597  1.00 20.00    -0.355 OA
ENDROOT
BRANCH   2   8
HETATM    8  C3  UNL     1     -34.022  14.387  -4.535  1.00 20.00     0.147 C 
HETATM    9  C7  UNL     1     -34.167  15.091  -5.859  1.00 20.00     0.096 C 
HETATM   10  O9  UNL     1     -33.229  13.459  -4.392  1.00 20.00    -0.294 OA
ENDBRANCH   2   8
TORSDOF 1
ENDMDL
MODEL 3
REMARK VINA RESULT:      -4.6     11.420     12.395
REMARK  1 active torsions:
REMARK  status: ('A' for Active; 'I' for Inactive)
REMARK    1  A    between atoms: C2_2  and  C3_3 
ROOT
HETATM    1  C1  UNL     1     -33.841  17.005  -1.943  1.00 20.00     0.050 C 
HETATM    2  C2  UNL     1     -33.377  17.895  -1.061  1.00 20.00     0.082 C 
HETATM    3  C4  UNL     1     -33.118  16.546  -3.166  1.00 20.00     0.071 C 
HETATM    4  C5  UNL     1     -35.212  15.508  -2.902  1.00 20.00     0.179 C 
HETATM    5  C6  UNL     1     -33.806  15.217  -3.400  1.00 20.00     0.012 C 
HETATM    6  C8  UNL     1     -33.755  14.740  -4.838  1.00 20.00     0.012 C 
HETATM    7  O10 UNL     1     -35.059  16.360  -1.756  1.00 20.00    -0.355 OA
ENDROOT
BRANCH   2   8
HETATM    8  C3  UNL     1     -32.040  18.521  -1.245  1.00 20.00     0.147 C 
HETATM    9  C7  UNL     1     -30.987  18.179  -0.223  1.00 20.00     0.096 C 
HETATM   10  O9  UNL     1     -31.790  19.262  -2.192  1.00 20.00    -0.294 OA
ENDBRANCH   2   8
TORSDOF 1
ENDMDL
MODEL 4
REMARK VINA RESULT:      -4.6     11.100     11.736
REMARK  1 active torsions:
REMARK  status: ('A' for Active; 'I' for Inactive)
REMARK    1  A    between atoms: C2_2  and  C3_3 
ROOT
HETATM    1  C1  UNL     1     -34.294  15.470  -3.389  1.00 20.00     0.050 C 
HETATM    2  C2  UNL     1     -34.340  14.494  -4.301  1.00 20.00     0.082 C 
HETATM    3  C4  UNL     1     -35.457  15.962  -2.593  1.00 20.00     0.071 C 
HETATM    4  C5  UNL     1     -33.454  17.076  -2.064  1.00 20.00     0.179 C 
HETATM    5  C6  UNL     1     -34.732  16.575  -1.413  1.00 20.00     0.012 C 
HETATM    6  C8  UNL     1     -35.518  17.658  -0.700  1.00 20.00     0.012 C 
HETATM    7  O10 UNL     1     -33.098  16.092  -3.047  1.00 20.00    -0.355 OA
ENDROOT
BRANCH   2   8
HETATM    8  C3  UNL     1     -35.618  13.795  -4.601  1.00 20.00     0.147 C 
HETATM    9  C7  UNL     1     -36.699  14.614  -5.256  1.00 20.00     0.096 C 
HETATM   10  O9  UNL     1     -35.785  12.603  -4.352  1.00 20.00    -0.294 OA
ENDBRANCH   2   8
TORSDOF 1
ENDMDL
MODEL 5
REMARK VINA RESULT:      -4.4     11.444     12.204
REMARK  1 active torsions:
REMARK  status: ('A' for Active; 'I' for Inactive)
REMARK    1  A    between atoms: C2_2  and  C3_3 
ROOT
HETATM    1  C1  UNL     1     -35.913  15.732  -3.261  1.00 20.00     0.050 C 
HETATM    2  C2  UNL     1     -36.694  14.928  -3.988  1.00 20.00     0.082 C 
HETATM    3  C4  UNL     1     -34.421  15.709  -3.255  1.00 20.00     0.071 C 
HETATM    4  C5  UNL     1     -35.313  17.363  -1.841  1.00 20.00     0.179 C 
HETATM    5  C6  UNL     1     -34.135  17.114  -2.767  1.00 20.00     0.012 C 
HETATM    6  C8  UNL     1     -32.785  17.271  -2.093  1.00 20.00     0.012 C 
HETATM    7  O10 UNL     1     -36.446  16.739  -2.464  1.00 20.00    -0.355 OA
ENDROOT
BRANCH   2   8
HETATM    8  C3  UNL     1     -36.101  13.903  -4.888  1.00 20.00     0.147 C 
HETATM    9  C7  UNL     1     -35.725  14.355  -6.274  1.00 20.00     0.096 C 
HETATM   10  O9  UNL     1     -35.903  12.747  -4.520  1.00 20.00    -0.294 OA
ENDBRANCH   2   8
TORSDOF 1
ENDMDL
MODEL 6
REMARK VINA RESULT:      -4.3     11.598     13.022
REMARK  1 active torsions:
REMARK  status: ('A' for Active; 'I' for Inactive)
REMARK    1  A    between atoms: C2_2  and  C3_3 
ROOT
HETATM    1  C1  UNL     1     -32.968  17.998  -2.876  1.00 20.00     0.050 C 
HETATM    2  C2  UNL     1     -32.328  18.916  -2.145  1.00 20.00     0.082 C 
HETATM    3  C4  UNL     1     -33.180  16.575  -2.479  1.00 20.00     0.071 C 
HETATM    4  C5  UNL     1     -34.129  17.088  -4.568  1.00 20.00     0.179 C 
HETATM    5  C6  UNL     1     -34.380  16.234  -3.337  1.00 20.00     0.012 C 
HETATM    6  C8  UNL     1     -34.522  14.755  -3.640  1.00 20.00     0.012 C 
HETATM    7  O10 UNL     1     -33.568  18.320  -4.089  1.00 20.00    -0.355 OA
ENDROOT
BRANCH   2   8
HETATM    8  C3  UNL     1     -31.754  18.567  -0.819  1.00 20.00     0.147 C 
HETATM    9  C7  UNL     1     -32.704  18.566   0.350  1.00 20.00     0.096 C 
HETATM   10  O9  UNL     1     -30.571  18.269  -0.677  1.00 20.00    -0.294 OA
ENDBRANCH   2   8
TORSDOF 1
ENDMDL
MODEL 7
REMARK VINA RESULT:      -4.3     11.563     12.271
REMARK  1 active torsions:
REMARK  status: ('A' for Active; 'I' for Inactive)
REMARK    1  A    between atoms: C2_2  and  C3_3 
ROOT
HETATM    1  C1  UNL     1     -35.129  15.132  -4.364  1.00 20.00     0.050 C 
HETATM    2  C2  UNL     1     -36.061  14.506  -5.088  1.00 20.00     0.082 C 
HETATM    3  C4  UNL     1     -35.400  16.085  -3.247  1.00 20.00     0.071 C 
HETATM    4  C5  UNL     1     -33.103  15.749  -3.620  1.00 20.00     0.179 C 
HETATM    5  C6  UNL     1     -34.091  15.989  -2.492  1.00 20.00     0.012 C 
HETATM    6  C8  UNL     1     -33.772  17.212  -1.652  1.00 20.00     0.012 C 
HETATM    7  O10 UNL     1     -33.773  14.893  -4.559  1.00 20.00    -0.355 OA
ENDROOT
BRANCH   2   8
HETATM    8  C3  UNL     1     -37.507  14.724  -4.817  1.00 20.00     0.147 C 
HETATM    9  C7  UNL     1     -38.088  16.040  -5.263  1.00 20.00     0.096 C 
HETATM   10  O9  UNL     1     -38.207  13.870  -4.278  1.00 20.00    -0.294 OA
ENDBRANCH   2   8
TORSDOF 1
ENDMDL
MODEL 8
REMARK VINA RESULT:      -4.3     11.369     12.567
REMARK  1 active torsions:
REMARK  status: ('A' for Active; 'I' for Inactive)
REMARK    1  A    between atoms: C2_2  and  C3_3 
ROOT
HETATM    1  C1  UNL     1     -36.972  14.532  -4.415  1.00 20.00     0.050 C 
HETATM    2  C2  UNL     1     -35.819  13.857  -4.382  1.00 20.00     0.082 C 
HETATM    3  C4  UNL     1     -37.106  15.997  -4.667  1.00 20.00     0.071 C 
HETATM    4  C5  UNL     1     -39.179  14.934  -4.346  1.00 20.00     0.179 C 
HETATM    5  C6  UNL     1     -38.541  16.054  -5.150  1.00 20.00     0.012 C 
HETATM    6  C8  UNL     1     -39.205  17.403  -4.952  1.00 20.00     0.012 C 
HETATM    7  O10 UNL     1     -38.197  13.889  -4.271  1.00 20.00    -0.355 OA
ENDROOT
BRANCH   2   8
HETATM    8  C3  UNL     1     -34.524  14.553  -4.607  1.00 20.00     0.147 C 
HETATM    9  C7  UNL     1     -33.934  15.280  -3.428  1.00 20.00     0.096 C 
HETATM   10  O9  UNL     1     -33.945  14.522  -5.690  1.00 20.00    -0.294 OA
ENDBRANCH   2   8
TORSDOF 1
ENDMDL
MODEL 9
REMARK VINA RESULT:      -4.2     11.230     12.030
REMARK  1 active torsions:
REMARK  status: ('A' for Active; 'I' for Inactive)
REMARK    1  A    between atoms: C2_2  and  C3_3 
ROOT
HETATM    1  C1  UNL     1     -34.019  16.175  -2.667  1.00 20.00     0.050 C 
HETATM    2  C2  UNL     1     -33.791  17.218  -1.862  1.00 20.00     0.082 C 
HETATM    3  C4  UNL     1     -35.346  15.526  -2.882  1.00 20.00     0.071 C 
HETATM    4  C5  UNL     1     -33.630  14.535  -4.148  1.00 20.00     0.179 C 
HETATM    5  C6  UNL     1     -35.108  14.875  -4.229  1.00 20.00     0.012 C 
HETATM    6  C8  UNL     1     -35.997  13.676  -4.499  1.00 20.00     0.012 C 
HETATM    7  O10 UNL     1     -33.009  15.624  -3.448  1.00 20.00    -0.355 OA
ENDROOT
BRANCH   2   8
HETATM    8  C3  UNL     1     -34.899  17.836  -1.088  1.00 20.00     0.147 C 
HETATM    9  C7  UNL     1     -35.128  17.310   0.305  1.00 20.00     0.096 C 
HETATM   10  O9  UNL     1     -35.586  18.748  -1.543  1.00 20.00    -0.294 OA
ENDBRANCH   2   8
TORSDOF 1
ENDMDL
