MODEL 1
REMARK VINA RESULT:      -4.4      0.000      0.000
REMARK  3 active torsions:
REMARK  status: ('A' for Active; 'I' for Inactive)
REMARK    1  A    between atoms: C7_7  and  C8_8 
REMARK    2  A    between atoms: C8_8  and  C9_9 
REMARK    3  A    between atoms: C9_9  and  N10_10 
ROOT
HETATM    1  C1  UNL     1     -33.042   9.149   0.385  1.00 20.00     0.012 C 
HETATM    2  C3  UNL     1     -32.649   8.325   1.165  1.00 20.00    -0.117 C 
HETATM    3  C7  UNL     1     -32.165   7.314   2.116  1.00 20.00     0.096 C 
ENDROOT
BRANCH   3   4
HETATM    4  C8  UNL     1     -32.942   7.337   3.439  1.00 20.00     0.061 C 
BRANCH   4   5
HETATM    5  C9  UNL     1     -33.914   6.156   3.630  1.00 20.00     0.300 C 
HETATM    6  C4  UNL     1     -33.524   4.995   2.812  1.00 20.00    -0.081 C 
HETATM    7  C2  UNL     1     -33.210   4.049   2.142  1.00 20.00     0.014 C 
BRANCH   5   8
HETATM    8  N10 UNL     1     -33.921   5.772   5.044  1.00 20.00     0.095 N 
HETATM    9  C5  UNL     1     -35.082   4.934   5.338  1.00 20.00     0.310 C 
HETATM   10  C6  UNL     1     -33.919   6.962   5.894  1.00 20.00     0.310 C 
ENDBRANCH   5   8
ENDBRANCH   4   5
ENDBRANCH   3   4
TORSDOF 3
ENDMDL
MODEL 2
REMARK VINA RESULT:      -4.1     11.282     12.400
REMARK  3 active torsions:
REMARK  status: ('A' for Active; 'I' for Inactive)
REMARK    1  A    between atoms: C7_7  and  C8_8 
REMARK    2  A    between atoms: C8_8  and  C9_9 
REMARK    3  A    between atoms: C9_9  and  N10_10 
ROOT
HETATM    1  C1  UNL     1     -35.152  16.585  -1.499  1.00 20.00     0.012 C 
HETATM    2  C3  UNL     1     -34.345  16.220  -2.310  1.00 20.00    -0.117 C 
HETATM    3  C7  UNL     1     -33.352  15.777  -3.299  1.00 20.00     0.096 C 
ENDROOT
BRANCH   3   4
HETATM    4  C8  UNL     1     -33.952  14.825  -4.342  1.00 20.00     0.061 C 
BRANCH   4   5
HETATM    5  C9  UNL     1     -34.854  15.508  -5.389  1.00 20.00     0.300 C 
HETATM    6  C4  UNL     1     -34.299  15.382  -6.747  1.00 20.00    -0.081 C 
HETATM    7  C2  UNL     1     -33.847  15.284  -7.856  1.00 20.00     0.014 C 
BRANCH   5   8
HETATM    8  N10 UNL     1     -36.181  14.889  -5.347  1.00 20.00     0.095 N 
HETATM    9  C5  UNL     1     -37.163  15.824  -4.801  1.00 20.00     0.310 C 
HETATM   10  C6  UNL     1     -36.145  13.662  -4.553  1.00 20.00     0.310 C 
ENDBRANCH   5   8
ENDBRANCH   4   5
ENDBRANCH   3   4
TORSDOF 3
ENDMDL
MODEL 3
REMARK VINA RESULT:      -3.8     11.087     12.389
REMARK  3 active torsions:
REMARK  status: ('A' for Active; 'I' for Inactive)
REMARK    1  A    between atoms: C7_7  and  C8_8 
REMARK    2  A    between atoms: C8_8  and  C9_9 
REMARK    3  A    between atoms: C9_9  and  N10_10 
ROOT
HETATM    1  C1  UNL     1     -33.017  17.087  -2.684  1.00 20.00     0.012 C 
HETATM    2  C3  UNL     1     -33.917  16.294  -2.727  1.00 20.00    -0.117 C 
HETATM    3  C7  UNL     1     -35.021  15.325  -2.773  1.00 20.00     0.096 C 
ENDROOT
BRANCH   3   4
HETATM    4  C8  UNL     1     -34.792  14.229  -3.823  1.00 20.00     0.061 C 
BRANCH   4   5
HETATM    5  C9  UNL     1     -35.754  14.284  -5.026  1.00 20.00     0.300 C 
HETATM    6  C4  UNL     1     -37.133  14.583  -4.604  1.00 20.00    -0.081 C 
HETATM    7  C2  UNL     1     -38.260  14.822  -4.263  1.00 20.00     0.014 C 
BRANCH   5   8
HETATM    8  N10 UNL     1     -35.295  15.322  -5.952  1.00 20.00     0.095 N 
HETATM    9  C5  UNL     1     -36.165  15.379  -7.125  1.00 20.00     0.310 C 
HETATM   10  C6  UNL     1     -33.911  15.071  -6.352  1.00 20.00     0.310 C 
ENDBRANCH   5   8
ENDBRANCH   4   5
ENDBRANCH   3   4
TORSDOF 3
ENDMDL
MODEL 4
REMARK VINA RESULT:      -3.8     10.996     12.127
REMARK  3 active torsions:
REMARK  status: ('A' for Active; 'I' for Inactive)
REMARK    1  A    between atoms: C7_7  and  C8_8 
REMARK    2  A    between atoms: C8_8  and  C9_9 
REMARK    3  A    between atoms: C9_9  and  N10_10 
ROOT
HETATM    1  C1  UNL     1     -34.054  15.203  -7.127  1.00 20.00     0.012 C 
HETATM    2  C3  UNL     1     -33.765  14.933  -5.994  1.00 20.00    -0.117 C 
HETATM    3  C7  UNL     1     -33.406  14.603  -4.607  1.00 20.00     0.096 C 
ENDROOT
BRANCH   3   4
HETATM    4  C8  UNL     1     -34.638  14.345  -3.730  1.00 20.00     0.061 C 
BRANCH   4   5
HETATM    5  C9  UNL     1     -35.077  15.549  -2.872  1.00 20.00     0.300 C 
HETATM    6  C4  UNL     1     -33.937  16.419  -2.536  1.00 20.00    -0.081 C 
HETATM    7  C2  UNL     1     -33.008  17.128  -2.258  1.00 20.00     0.014 C 
BRANCH   5   8
HETATM    8  N10 UNL     1     -36.074  16.322  -3.616  1.00 20.00     0.095 N 
HETATM    9  C5  UNL     1     -36.703  17.312  -2.744  1.00 20.00     0.310 C 
HETATM   10  C6  UNL     1     -37.081  15.432  -4.191  1.00 20.00     0.310 C 
ENDBRANCH   5   8
ENDBRANCH   4   5
ENDBRANCH   3   4
TORSDOF 3
ENDMDL
MODEL 5
REMARK VINA RESULT:      -3.8     11.413     12.219
REMARK  3 active torsions:
REMARK  status: ('A' for Active; 'I' for Inactive)
REMARK    1  A    between atoms: C7_7  and  C8_8 
REMARK    2  A    between atoms: C8_8  and  C9_9 
REMARK    3  A    between atoms: C9_9  and  N10_10 
ROOT
HETATM    1  C1  UNL     1     -31.266  18.383  -0.416  1.00 20.00     0.012 C 
HETATM    2  C3  UNL     1     -31.978  18.198  -1.364  1.00 20.00    -0.117 C 
HETATM    3  C7  UNL     1     -32.851  17.976  -2.526  1.00 20.00     0.096 C 
ENDROOT
BRANCH   3   4
HETATM    4  C8  UNL     1     -32.973  16.491  -2.891  1.00 20.00     0.061 C 
BRANCH   4   5
HETATM    5  C9  UNL     1     -34.360  15.877  -2.620  1.00 20.00     0.300 C 
HETATM    6  C4  UNL     1     -35.039  16.546  -1.497  1.00 20.00    -0.081 C 
HETATM    7  C2  UNL     1     -35.593  17.087  -0.578  1.00 20.00     0.014 C 
BRANCH   5   8
HETATM    8  N10 UNL     1     -35.180  16.006  -3.827  1.00 20.00     0.095 N 
HETATM    9  C5  UNL     1     -36.322  15.096  -3.767  1.00 20.00     0.310 C 
HETATM   10  C6  UNL     1     -34.375  15.739  -5.019  1.00 20.00     0.310 C 
ENDBRANCH   5   8
ENDBRANCH   4   5
ENDBRANCH   3   4
TORSDOF 3
ENDMDL
MODEL 6
REMARK VINA RESULT:      -3.8     11.159     11.934
REMARK  3 active torsions:
REMARK  status: ('A' for Active; 'I' for Inactive)
REMARK    1  A    between atoms: C7_7  and  C8_8 
REMARK    2  A    between atoms: C8_8  and  C9_9 
REMARK    3  A    between atoms: C9_9  and  N10_10 
ROOT
HETATM    1  C1  UNL     1     -35.802  17.391   0.296  1.00 20.00     0.012 C 
HETATM    2  C3  UNL     1     -35.231  17.015  -0.690  1.00 20.00    -0.117 C 
HETATM    3  C7  UNL     1     -34.527  16.556  -1.897  1.00 20.00     0.096 C 
ENDROOT
BRANCH   3   4
HETATM    4  C8  UNL     1     -35.438  15.757  -2.837  1.00 20.00     0.061 C 
BRANCH   4   5
HETATM    5  C9  UNL     1     -34.934  15.663  -4.291  1.00 20.00     0.300 C 
HETATM    6  C4  UNL     1     -33.674  14.906  -4.379  1.00 20.00    -0.081 C 
HETATM    7  C2  UNL     1     -32.644  14.293  -4.453  1.00 20.00     0.014 C 
BRANCH   5   8
HETATM    8  N10 UNL     1     -35.956  15.000  -5.105  1.00 20.00     0.095 N 
HETATM    9  C5  UNL     1     -36.270  13.684  -4.553  1.00 20.00     0.310 C 
HETATM   10  C6  UNL     1     -35.504  14.880  -6.490  1.00 20.00     0.310 C 
ENDBRANCH   5   8
ENDBRANCH   4   5
ENDBRANCH   3   4
TORSDOF 3
ENDMDL
MODEL 7
REMARK VINA RESULT:      -3.7     11.521     12.848
REMARK  3 active torsions:
REMARK  status: ('A' for Active; 'I' for Inactive)
REMARK    1  A    between atoms: C7_7  and  C8_8 
REMARK    2  A    between atoms: C8_8  and  C9_9 
REMARK    3  A    between atoms: C9_9  and  N10_10 
ROOT
HETATM    1  C1  UNL     1     -35.204  16.799  -1.143  1.00 20.00     0.012 C 
HETATM    2  C3  UNL     1     -34.478  16.410  -2.016  1.00 20.00    -0.117 C 
HETATM    3  C7  UNL     1     -33.584  15.931  -3.081  1.00 20.00     0.096 C 
ENDROOT
BRANCH   3   4
HETATM    4  C8  UNL     1     -34.024  16.409  -4.471  1.00 20.00     0.061 C 
BRANCH   4   5
HETATM    5  C9  UNL     1     -34.346  15.276  -5.465  1.00 20.00     0.300 C 
HETATM    6  C4  UNL     1     -35.424  14.406  -4.964  1.00 20.00    -0.081 C 
HETATM    7  C2  UNL     1     -36.299  13.692  -4.556  1.00 20.00     0.014 C 
BRANCH   5   8
HETATM    8  N10 UNL     1     -34.754  15.867  -6.741  1.00 20.00     0.095 N 
HETATM    9  C5  UNL     1     -33.919  15.361  -7.828  1.00 20.00     0.310 C 
HETATM   10  C6  UNL     1     -34.677  17.326  -6.673  1.00 20.00     0.310 C 
ENDBRANCH   5   8
ENDBRANCH   4   5
ENDBRANCH   3   4
TORSDOF 3
ENDMDL
MODEL 8
REMARK VINA RESULT:      -3.7     11.258     12.118
REMARK  3 active torsions:
REMARK  status: ('A' for Active; 'I' for Inactive)
REMARK    1  A    between atoms: C7_7  and  C8_8 
REMARK    2  A    between atoms: C8_8  and  C9_9 
REMARK    3  A    between atoms: C9_9  and  N10_10 
ROOT
HETATM    1  C1  UNL     1     -32.448  18.113  -1.548  1.00 20.00     0.012 C 
HETATM    2  C3  UNL     1     -33.551  17.655  -1.425  1.00 20.00    -0.117 C 
HETATM    3  C7  UNL     1     -34.902  17.098  -1.270  1.00 20.00     0.096 C 
ENDROOT
BRANCH   3   4
HETATM    4  C8  UNL     1     -35.142  15.886  -2.180  1.00 20.00     0.061 C 
BRANCH   4   5
HETATM    5  C9  UNL     1     -34.753  16.106  -3.655  1.00 20.00     0.300 C 
HETATM    6  C4  UNL     1     -33.667  15.201  -4.069  1.00 20.00    -0.081 C 
HETATM    7  C2  UNL     1     -32.778  14.467  -4.409  1.00 20.00     0.014 C 
BRANCH   5   8
HETATM    8  N10 UNL     1     -35.929  15.868  -4.495  1.00 20.00     0.095 N 
HETATM    9  C5  UNL     1     -36.791  17.048  -4.510  1.00 20.00     0.310 C 
HETATM   10  C6  UNL     1     -36.668  14.700  -4.017  1.00 20.00     0.310 C 
ENDBRANCH   5   8
ENDBRANCH   4   5
ENDBRANCH   3   4
TORSDOF 3
ENDMDL
MODEL 9
REMARK VINA RESULT:      -3.7     11.206     12.383
REMARK  3 active torsions:
REMARK  status: ('A' for Active; 'I' for Inactive)
REMARK    1  A    between atoms: C7_7  and  C8_8 
REMARK    2  A    between atoms: C8_8  and  C9_9 
REMARK    3  A    between atoms: C9_9  and  N10_10 
ROOT
HETATM    1  C1  UNL     1     -32.722  17.736  -1.965  1.00 20.00     0.012 C 
HETATM    2  C3  UNL     1     -33.702  17.044  -1.941  1.00 20.00    -0.117 C 
HETATM    3  C7  UNL     1     -34.904  16.198  -1.905  1.00 20.00     0.096 C 
ENDROOT
BRANCH   3   4
HETATM    4  C8  UNL     1     -35.046  15.331  -3.163  1.00 20.00     0.061 C 
BRANCH   4   5
HETATM    5  C9  UNL     1     -35.959  15.928  -4.252  1.00 20.00     0.300 C 
HETATM    6  C4  UNL     1     -35.178  16.572  -5.322  1.00 20.00    -0.081 C 
HETATM    7  C2  UNL     1     -34.543  17.101  -6.193  1.00 20.00     0.014 C 
BRANCH   5   8
HETATM    8  N10 UNL     1     -36.775  14.855  -4.827  1.00 20.00     0.095 N 
HETATM    9  C5  UNL     1     -38.112  14.859  -4.235  1.00 20.00     0.310 C 
HETATM   10  C6  UNL     1     -36.129  13.560  -4.621  1.00 20.00     0.310 C 
ENDBRANCH   5   8
ENDBRANCH   4   5
ENDBRANCH   3   4
TORSDOF 3
ENDMDL
