MODEL 1
REMARK VINA RESULT:      -4.6      0.000      0.000
REMARK  1 active torsions:
REMARK  status: ('A' for Active; 'I' for Inactive)
REMARK    1  A    between atoms: C1_1  and  C5_5 
ROOT
HETATM    1  C2  UNL     1     -33.612  14.418  -4.313  1.00 20.00     0.015 C 
HETATM    2  C3  UNL     1     -33.133  15.753  -3.744  1.00 20.00     0.026 C 
HETATM    3  C4  UNL     1     -35.293  16.174  -4.662  1.00 20.00     0.038 C 
HETATM    4  C5  UNL     1     -34.949  14.716  -5.004  1.00 20.00     0.074 C 
HETATM    5  C6  UNL     1     -34.417  16.532  -3.455  1.00 20.00     0.034 C 
HETATM    6  C7  UNL     1     -34.181  18.030  -3.317  1.00 20.00     0.032 C 
HETATM    7 CL10 UNL     1     -35.176  15.927  -1.941  1.00 20.00    -0.120 Cl
ENDROOT
BRANCH   4   8
HETATM    8  C1  UNL     1     -36.022  13.774  -4.550  1.00 20.00     0.223 C 
HETATM    9  O8  UNL     1     -35.810  12.572  -4.413  1.00 20.00    -0.279 OA
HETATM   10 CL9  UNL     1     -37.530  14.589  -4.263  1.00 20.00    -0.043 Cl
ENDBRANCH   4   8
TORSDOF 1
ENDMDL
MODEL 2
REMARK VINA RESULT:      -4.6     17.842     18.657
REMARK  1 active torsions:
REMARK  status: ('A' for Active; 'I' for Inactive)
REMARK    1  A    between atoms: C1_1  and  C5_5 
ROOT
HETATM    1  C2  UNL     1     -24.389  18.844   9.690  1.00 20.00     0.015 C 
HETATM    2  C3  UNL     1     -24.990  18.105  10.884  1.00 20.00     0.026 C 
HETATM    3  C4  UNL     1     -23.651  16.503   9.733  1.00 20.00     0.038 C 
HETATM    4  C5  UNL     1     -23.623  17.785   8.888  1.00 20.00     0.074 C 
HETATM    5  C6  UNL     1     -24.020  16.953  11.152  1.00 20.00     0.034 C 
HETATM    6  C7  UNL     1     -24.640  15.840  11.986  1.00 20.00     0.032 C 
HETATM    7 CL10 UNL     1     -22.559  17.564  12.005  1.00 20.00    -0.120 Cl
ENDROOT
BRANCH   4   8
HETATM    8  C1  UNL     1     -22.220  18.226   8.599  1.00 20.00     0.223 C 
HETATM    9  O8  UNL     1     -21.740  19.232   9.115  1.00 20.00    -0.279 OA
HETATM   10 CL9  UNL     1     -21.416  17.162   7.484  1.00 20.00    -0.043 Cl
ENDBRANCH   4   8
TORSDOF 1
ENDMDL
MODEL 3
REMARK VINA RESULT:      -4.4      1.928      2.317
REMARK  1 active torsions:
REMARK  status: ('A' for Active; 'I' for Inactive)
REMARK    1  A    between atoms: C1_1  and  C5_5 
ROOT
HETATM    1  C2  UNL     1     -35.425  15.074  -3.114  1.00 20.00     0.015 C 
HETATM    2  C3  UNL     1     -34.907  16.094  -2.101  1.00 20.00     0.026 C 
HETATM    3  C4  UNL     1     -33.094  15.681  -3.593  1.00 20.00     0.038 C 
HETATM    4  C5  UNL     1     -34.224  14.724  -4.002  1.00 20.00     0.074 C 
HETATM    5  C6  UNL     1     -33.777  16.822  -2.830  1.00 20.00     0.034 C 
HETATM    6  C7  UNL     1     -32.833  17.550  -1.882  1.00 20.00     0.032 C 
HETATM    7 CL10 UNL     1     -34.461  18.016  -3.988  1.00 20.00    -0.120 Cl
ENDROOT
BRANCH   4   8
HETATM    8  C1  UNL     1     -34.561  14.856  -5.457  1.00 20.00     0.223 C 
HETATM    9  O8  UNL     1     -33.735  14.620  -6.334  1.00 20.00    -0.279 OA
HETATM   10 CL9  UNL     1     -36.205  15.364  -5.704  1.00 20.00    -0.043 Cl
ENDBRANCH   4   8
TORSDOF 1
ENDMDL
MODEL 4
REMARK VINA RESULT:      -4.3     17.951     18.916
REMARK  1 active torsions:
REMARK  status: ('A' for Active; 'I' for Inactive)
REMARK    1  A    between atoms: C1_1  and  C5_5 
ROOT
HETATM    1  C2  UNL     1     -22.946  17.722  12.173  1.00 20.00     0.015 C 
HETATM    2  C3  UNL     1     -22.086  17.771  10.911  1.00 20.00     0.026 C 
HETATM    3  C4  UNL     1     -23.923  16.343  10.391  1.00 20.00     0.038 C 
HETATM    4  C5  UNL     1     -24.063  16.714  11.875  1.00 20.00     0.074 C 
HETATM    5  C6  UNL     1     -23.053  17.444   9.772  1.00 20.00     0.034 C 
HETATM    6  C7  UNL     1     -22.342  16.995   8.503  1.00 20.00     0.032 C 
HETATM    7 CL10 UNL     1     -24.060  18.884   9.388  1.00 20.00    -0.120 Cl
ENDROOT
BRANCH   4   8
HETATM    8  C1  UNL     1     -25.414  17.288  12.177  1.00 20.00     0.223 C 
HETATM    9  O8  UNL     1     -26.408  16.576  12.291  1.00 20.00    -0.279 OA
HETATM   10 CL9  UNL     1     -25.369  19.019  12.332  1.00 20.00    -0.043 Cl
ENDBRANCH   4   8
TORSDOF 1
ENDMDL
MODEL 5
REMARK VINA RESULT:      -4.2      1.398      1.624
REMARK  1 active torsions:
REMARK  status: ('A' for Active; 'I' for Inactive)
REMARK    1  A    between atoms: C1_1  and  C5_5 
ROOT
HETATM    1  C2  UNL     1     -35.336  13.747  -4.323  1.00 20.00     0.015 C 
HETATM    2  C3  UNL     1     -34.030  14.381  -3.848  1.00 20.00     0.026 C 
HETATM    3  C4  UNL     1     -35.360  16.177  -4.680  1.00 20.00     0.038 C 
HETATM    4  C5  UNL     1     -36.142  14.885  -4.962  1.00 20.00     0.074 C 
HETATM    5  C6  UNL     1     -34.396  15.833  -3.537  1.00 20.00     0.034 C 
HETATM    6  C7  UNL     1     -33.183  16.752  -3.488  1.00 20.00     0.032 C 
HETATM    7 CL10 UNL     1     -35.253  15.928  -1.959  1.00 20.00    -0.120 Cl
ENDROOT
BRANCH   4   8
HETATM    8  C1  UNL     1     -37.534  14.949  -4.408  1.00 20.00     0.223 C 
HETATM    9  O8  UNL     1     -38.227  13.944  -4.287  1.00 20.00    -0.279 OA
HETATM   10 CL9  UNL     1     -37.996  16.571  -3.985  1.00 20.00    -0.043 Cl
ENDBRANCH   4   8
TORSDOF 1
ENDMDL
MODEL 6
REMARK VINA RESULT:      -4.1      1.905      2.681
REMARK  1 active torsions:
REMARK  status: ('A' for Active; 'I' for Inactive)
REMARK    1  A    between atoms: C1_1  and  C5_5 
ROOT
HETATM    1  C2  UNL     1     -35.381  16.378  -3.587  1.00 20.00     0.015 C 
HETATM    2  C3  UNL     1     -33.876  16.207  -3.790  1.00 20.00     0.026 C 
HETATM    3  C4  UNL     1     -34.791  14.006  -3.828  1.00 20.00     0.038 C 
HETATM    4  C5  UNL     1     -35.951  14.956  -3.497  1.00 20.00     0.074 C 
HETATM    5  C6  UNL     1     -33.734  14.873  -4.524  1.00 20.00     0.034 C 
HETATM    6  C7  UNL     1     -32.331  14.290  -4.426  1.00 20.00     0.032 C 
HETATM    7 CL10 UNL     1     -34.151  15.078  -6.261  1.00 20.00    -0.120 Cl
ENDROOT
BRANCH   4   8
HETATM    8  C1  UNL     1     -37.105  14.769  -4.435  1.00 20.00     0.223 C 
HETATM    9  O8  UNL     1     -37.758  13.729  -4.455  1.00 20.00    -0.279 OA
HETATM   10 CL9  UNL     1     -37.369  16.165  -5.436  1.00 20.00    -0.043 Cl
ENDBRANCH   4   8
TORSDOF 1
ENDMDL
MODEL 7
REMARK VINA RESULT:      -4.1     18.081     18.645
REMARK  1 active torsions:
REMARK  status: ('A' for Active; 'I' for Inactive)
REMARK    1  A    between atoms: C1_1  and  C5_5 
ROOT
HETATM    1  C2  UNL     1     -23.544  16.265   9.899  1.00 20.00     0.015 C 
HETATM    2  C3  UNL     1     -24.724  16.537  10.832  1.00 20.00     0.026 C 
HETATM    3  C4  UNL     1     -23.162  18.294  11.229  1.00 20.00     0.038 C 
HETATM    4  C5  UNL     1     -22.492  17.329  10.239  1.00 20.00     0.074 C 
HETATM    5  C6  UNL     1     -24.669  18.043  11.094  1.00 20.00     0.034 C 
HETATM    6  C7  UNL     1     -25.452  18.457  12.332  1.00 20.00     0.032 C 
HETATM    7 CL10 UNL     1     -25.319  18.939   9.676  1.00 20.00    -0.120 Cl
ENDROOT
BRANCH   4   8
HETATM    8  C1  UNL     1     -22.016  18.041   9.009  1.00 20.00     0.223 C 
HETATM    9  O8  UNL     1     -21.897  19.263   8.975  1.00 20.00    -0.279 OA
HETATM   10 CL9  UNL     1     -21.677  16.941   7.706  1.00 20.00    -0.043 Cl
ENDBRANCH   4   8
TORSDOF 1
ENDMDL
MODEL 8
REMARK VINA RESULT:      -4.1      1.759      2.147
REMARK  1 active torsions:
REMARK  status: ('A' for Active; 'I' for Inactive)
REMARK    1  A    between atoms: C1_1  and  C5_5 
ROOT
HETATM    1  C2  UNL     1     -35.935  16.506  -4.981  1.00 20.00     0.015 C 
HETATM    2  C3  UNL     1     -35.069  17.319  -4.020  1.00 20.00     0.026 C 
HETATM    3  C4  UNL     1     -35.513  15.257  -2.909  1.00 20.00     0.038 C 
HETATM    4  C5  UNL     1     -36.314  15.230  -4.219  1.00 20.00     0.074 C 
HETATM    5  C6  UNL     1     -34.387  16.274  -3.136  1.00 20.00     0.034 C 
HETATM    6  C7  UNL     1     -33.846  16.859  -1.838  1.00 20.00     0.032 C 
HETATM    7 CL10 UNL     1     -33.030  15.503  -4.029  1.00 20.00    -0.120 Cl
ENDROOT
BRANCH   4   8
HETATM    8  C1  UNL     1     -36.015  14.002  -5.024  1.00 20.00     0.223 C 
HETATM    9  O8  UNL     1     -36.048  12.879  -4.527  1.00 20.00    -0.279 OA
HETATM   10 CL9  UNL     1     -35.635  14.380  -6.678  1.00 20.00    -0.043 Cl
ENDBRANCH   4   8
TORSDOF 1
ENDMDL
MODEL 9
REMARK VINA RESULT:      -4.1     16.818     17.993
REMARK  1 active torsions:
REMARK  status: ('A' for Active; 'I' for Inactive)
REMARK    1  A    between atoms: C1_1  and  C5_5 
ROOT
HETATM    1  C2  UNL     1     -22.040  18.472   9.230  1.00 20.00     0.015 C 
HETATM    2  C3  UNL     1     -22.160  17.917  10.649  1.00 20.00     0.026 C 
HETATM    3  C4  UNL     1     -24.250  18.966  10.181  1.00 20.00     0.038 C 
HETATM    4  C5  UNL     1     -23.341  19.244   8.975  1.00 20.00     0.074 C 
HETATM    5  C6  UNL     1     -23.662  17.723  10.862  1.00 20.00     0.034 C 
HETATM    6  C7  UNL     1     -24.043  17.616  12.332  1.00 20.00     0.032 C 
HETATM    7 CL10 UNL     1     -24.217  16.236  10.015  1.00 20.00    -0.120 Cl
ENDROOT
BRANCH   4   8
HETATM    8  C1  UNL     1     -23.984  18.823   7.688  1.00 20.00     0.223 C 
HETATM    9  O8  UNL     1     -23.318  18.495   6.710  1.00 20.00    -0.279 OA
HETATM   10 CL9  UNL     1     -25.720  18.866   7.780  1.00 20.00    -0.043 Cl
ENDBRANCH   4   8
TORSDOF 1
ENDMDL
