MODEL 1
REMARK VINA RESULT:      -4.7      0.000      0.000
REMARK  1 active torsions:
REMARK  status: ('A' for Active; 'I' for Inactive)
REMARK    1  A    between atoms: C2_2  and  C6_6 
ROOT
HETATM    1  C1  UNL     1     -34.273  15.823  -2.891  1.00 20.00    -0.067 C 
HETATM    2  C3  UNL     1     -34.203  14.836  -3.791  1.00 20.00    -0.085 C 
HETATM    3  C4  UNL     1     -33.097  16.665  -2.472  1.00 20.00     0.036 C 
HETATM    4  C5  UNL     1     -33.723  17.750  -1.601  1.00 20.00     0.009 C 
HETATM    5  C6  UNL     1     -35.511  16.217  -2.129  1.00 20.00     0.080 C 
HETATM    6  C7  UNL     1     -34.943  17.064  -0.983  1.00 20.00    -0.004 C 
HETATM    7  C8  UNL     1     -35.406  14.024  -4.177  1.00 20.00     0.043 C 
HETATM    8  C9  UNL     1     -32.916  14.472  -4.476  1.00 20.00     0.043 C 
HETATM    9  C10 UNL     1     -35.918  18.036  -0.338  1.00 20.00     0.011 C 
ENDROOT
BRANCH   5  10
HETATM   10  C2  UNL     1     -36.399  16.973  -3.075  1.00 20.00     0.240 C 
HETATM   11  O11 UNL     1     -37.548  16.634  -3.340  1.00 20.00    -0.306 OA
ENDBRANCH   5  10
TORSDOF 1
ENDMDL
MODEL 2
REMARK VINA RESULT:      -4.6      1.678      4.188
REMARK  1 active torsions:
REMARK  status: ('A' for Active; 'I' for Inactive)
REMARK    1  A    between atoms: C2_2  and  C6_6 
ROOT
HETATM    1  C1  UNL     1     -33.806  17.021  -1.839  1.00 20.00    -0.067 C 
HETATM    2  C3  UNL     1     -33.314  17.907  -0.964  1.00 20.00    -0.085 C 
HETATM    3  C4  UNL     1     -35.092  16.264  -1.636  1.00 20.00     0.036 C 
HETATM    4  C5  UNL     1     -35.306  15.555  -2.970  1.00 20.00     0.009 C 
HETATM    5  C6  UNL     1     -33.141  16.611  -3.127  1.00 20.00     0.080 C 
HETATM    6  C7  UNL     1     -33.887  15.320  -3.491  1.00 20.00    -0.004 C 
HETATM    7  C8  UNL     1     -32.026  18.638  -1.212  1.00 20.00     0.043 C 
HETATM    8  C9  UNL     1     -34.016  18.228   0.324  1.00 20.00     0.043 C 
HETATM    9  C10 UNL     1     -33.842  14.928  -4.960  1.00 20.00     0.011 C 
ENDROOT
BRANCH   5  10
HETATM   10  C2  UNL     1     -33.330  17.732  -4.106  1.00 20.00     0.240 C 
HETATM   11  O11 UNL     1     -34.308  18.473  -4.106  1.00 20.00    -0.306 OA
ENDBRANCH   5  10
TORSDOF 1
ENDMDL
MODEL 3
REMARK VINA RESULT:      -4.4      2.280      4.673
REMARK  1 active torsions:
REMARK  status: ('A' for Active; 'I' for Inactive)
REMARK    1  A    between atoms: C2_2  and  C6_6 
ROOT
HETATM    1  C1  UNL     1     -33.878  17.577  -0.905  1.00 20.00    -0.067 C 
HETATM    2  C3  UNL     1     -33.472  18.374   0.090  1.00 20.00    -0.085 C 
HETATM    3  C4  UNL     1     -35.198  16.854  -0.918  1.00 20.00     0.036 C 
HETATM    4  C5  UNL     1     -35.268  16.257  -2.321  1.00 20.00     0.009 C 
HETATM    5  C6  UNL     1     -33.073  17.244  -2.134  1.00 20.00     0.080 C 
HETATM    6  C7  UNL     1     -33.803  16.013  -2.688  1.00 20.00    -0.004 C 
HETATM    7  C8  UNL     1     -32.144  19.075   0.056  1.00 20.00     0.043 C 
HETATM    8  C9  UNL     1     -34.315  18.621   1.308  1.00 20.00     0.043 C 
HETATM    9  C10 UNL     1     -33.591  15.734  -4.168  1.00 20.00     0.011 C 
ENDROOT
BRANCH   5  10
HETATM   10  C2  UNL     1     -33.112  18.443  -3.036  1.00 20.00     0.240 C 
HETATM   11  O11 UNL     1     -32.117  19.092  -3.341  1.00 20.00    -0.306 OA
ENDBRANCH   5  10
TORSDOF 1
ENDMDL
MODEL 4
REMARK VINA RESULT:      -4.2      1.834      3.875
REMARK  1 active torsions:
REMARK  status: ('A' for Active; 'I' for Inactive)
REMARK    1  A    between atoms: C2_2  and  C6_6 
ROOT
HETATM    1  C1  UNL     1     -36.142  16.129  -3.644  1.00 20.00    -0.067 C 
HETATM    2  C3  UNL     1     -37.433  16.426  -3.831  1.00 20.00    -0.085 C 
HETATM    3  C4  UNL     1     -35.278  16.763  -2.586  1.00 20.00     0.036 C 
HETATM    4  C5  UNL     1     -33.982  15.960  -2.652  1.00 20.00     0.009 C 
HETATM    5  C6  UNL     1     -35.344  15.160  -4.477  1.00 20.00     0.080 C 
HETATM    6  C7  UNL     1     -33.897  15.522  -4.115  1.00 20.00    -0.004 C 
HETATM    7  C8  UNL     1     -38.254  15.766  -4.901  1.00 20.00     0.043 C 
HETATM    8  C9  UNL     1     -38.148  17.441  -2.986  1.00 20.00     0.043 C 
HETATM    9  C10 UNL     1     -32.867  14.429  -4.358  1.00 20.00     0.011 C 
ENDROOT
BRANCH   5  10
HETATM   10  C2  UNL     1     -35.755  13.775  -4.071  1.00 20.00     0.240 C 
HETATM   11  O11 UNL     1     -36.012  12.883  -4.874  1.00 20.00    -0.306 OA
ENDBRANCH   5  10
TORSDOF 1
ENDMDL
MODEL 5
REMARK VINA RESULT:      -4.2      1.043      1.103
REMARK  1 active torsions:
REMARK  status: ('A' for Active; 'I' for Inactive)
REMARK    1  A    between atoms: C2_2  and  C6_6 
ROOT
HETATM    1  C1  UNL     1     -34.571  15.702  -3.863  1.00 20.00    -0.067 C 
HETATM    2  C3  UNL     1     -34.808  15.066  -5.017  1.00 20.00    -0.085 C 
HETATM    3  C4  UNL     1     -33.222  16.233  -3.457  1.00 20.00     0.036 C 
HETATM    4  C5  UNL     1     -33.516  17.027  -2.187  1.00 20.00     0.009 C 
HETATM    5  C6  UNL     1     -35.591  15.946  -2.782  1.00 20.00     0.080 C 
HETATM    6  C7  UNL     1     -34.716  16.303  -1.573  1.00 20.00    -0.004 C 
HETATM    7  C8  UNL     1     -36.173  14.555  -5.379  1.00 20.00     0.043 C 
HETATM    8  C9  UNL     1     -33.724  14.819  -6.027  1.00 20.00     0.043 C 
HETATM    9  C10 UNL     1     -35.404  17.102  -0.477  1.00 20.00     0.011 C 
ENDROOT
BRANCH   5  10
HETATM   10  C2  UNL     1     -36.484  17.058  -3.249  1.00 20.00     0.240 C 
HETATM   11  O11 UNL     1     -37.706  16.967  -3.301  1.00 20.00    -0.306 OA
ENDBRANCH   5  10
TORSDOF 1
ENDMDL
MODEL 6
REMARK VINA RESULT:      -4.1      1.280      2.011
REMARK  1 active torsions:
REMARK  status: ('A' for Active; 'I' for Inactive)
REMARK    1  A    between atoms: C2_2  and  C6_6 
ROOT
HETATM    1  C1  UNL     1     -35.376  15.388  -3.544  1.00 20.00    -0.067 C 
HETATM    2  C3  UNL     1     -36.352  14.711  -4.162  1.00 20.00    -0.085 C 
HETATM    3  C4  UNL     1     -33.909  15.100  -3.723  1.00 20.00     0.036 C 
HETATM    4  C5  UNL     1     -33.225  16.246  -2.983  1.00 20.00     0.009 C 
HETATM    5  C6  UNL     1     -35.586  16.501  -2.551  1.00 20.00     0.080 C 
HETATM    6  C7  UNL     1     -34.213  16.606  -1.873  1.00 20.00    -0.004 C 
HETATM    7  C8  UNL     1     -37.802  15.036  -3.951  1.00 20.00     0.043 C 
HETATM    8  C9  UNL     1     -36.062  13.579  -5.106  1.00 20.00     0.043 C 
HETATM    9  C10 UNL     1     -33.911  17.939  -1.206  1.00 20.00     0.011 C 
ENDROOT
BRANCH   5  10
HETATM   10  C2  UNL     1     -35.989  17.723  -3.324  1.00 20.00     0.240 C 
HETATM   11  O11 UNL     1     -36.979  18.395  -3.058  1.00 20.00    -0.306 OA
ENDBRANCH   5  10
TORSDOF 1
ENDMDL
MODEL 7
REMARK VINA RESULT:      -4.0      1.841      2.698
REMARK  1 active torsions:
REMARK  status: ('A' for Active; 'I' for Inactive)
REMARK    1  A    between atoms: C2_2  and  C6_6 
ROOT
HETATM    1  C1  UNL     1     -34.080  17.381  -0.946  1.00 20.00    -0.067 C 
HETATM    2  C3  UNL     1     -34.129  16.695  -2.094  1.00 20.00    -0.085 C 
HETATM    3  C4  UNL     1     -32.918  18.243  -0.529  1.00 20.00     0.036 C 
HETATM    4  C5  UNL     1     -33.425  18.947   0.726  1.00 20.00     0.009 C 
HETATM    5  C6  UNL     1     -35.145  17.366   0.120  1.00 20.00     0.080 C 
HETATM    6  C7  UNL     1     -34.409  17.947   1.335  1.00 20.00    -0.004 C 
HETATM    7  C8  UNL     1     -35.312  15.848  -2.466  1.00 20.00     0.043 C 
HETATM    8  C9  UNL     1     -33.003  16.725  -3.088  1.00 20.00     0.043 C 
HETATM    9  C10 UNL     1     -35.295  18.553   2.412  1.00 20.00     0.011 C 
ENDROOT
BRANCH   5  10
HETATM   10  C2  UNL     1     -36.285  18.209  -0.373  1.00 20.00     0.240 C 
HETATM   11  O11 UNL     1     -37.462  17.880  -0.269  1.00 20.00    -0.306 OA
ENDBRANCH   5  10
TORSDOF 1
ENDMDL
MODEL 8
REMARK VINA RESULT:      -4.0      1.933      4.386
REMARK  1 active torsions:
REMARK  status: ('A' for Active; 'I' for Inactive)
REMARK    1  A    between atoms: C2_2  and  C6_6 
ROOT
HETATM    1  C1  UNL     1     -35.442  16.834  -1.977  1.00 20.00    -0.067 C 
HETATM    2  C3  UNL     1     -35.795  17.492  -0.866  1.00 20.00    -0.085 C 
HETATM    3  C4  UNL     1     -36.365  16.591  -3.141  1.00 20.00     0.036 C 
HETATM    4  C5  UNL     1     -35.452  15.993  -4.206  1.00 20.00     0.009 C 
HETATM    5  C6  UNL     1     -34.097  16.199  -2.219  1.00 20.00     0.080 C 
HETATM    6  C7  UNL     1     -34.379  15.259  -3.398  1.00 20.00    -0.004 C 
HETATM    7  C8  UNL     1     -34.836  17.709   0.269  1.00 20.00     0.043 C 
HETATM    8  C9  UNL     1     -37.174  18.057  -0.680  1.00 20.00     0.043 C 
HETATM    9  C10 UNL     1     -33.167  14.862  -4.227  1.00 20.00     0.011 C 
ENDROOT
BRANCH   5  10
HETATM   10  C2  UNL     1     -33.128  17.304  -2.527  1.00 20.00     0.240 C 
HETATM   11  O11 UNL     1     -32.216  17.632  -1.775  1.00 20.00    -0.306 OA
ENDBRANCH   5  10
TORSDOF 1
ENDMDL
MODEL 9
REMARK VINA RESULT:      -4.0      2.505      4.067
REMARK  1 active torsions:
REMARK  status: ('A' for Active; 'I' for Inactive)
REMARK    1  A    between atoms: C2_2  and  C6_6 
ROOT
HETATM    1  C1  UNL     1     -35.246  15.453  -5.017  1.00 20.00    -0.067 C 
HETATM    2  C3  UNL     1     -34.395  15.239  -4.007  1.00 20.00    -0.085 C 
HETATM    3  C4  UNL     1     -34.931  15.161  -6.460  1.00 20.00     0.036 C 
HETATM    4  C5  UNL     1     -36.262  15.382  -7.171  1.00 20.00     0.009 C 
HETATM    5  C6  UNL     1     -36.621  16.053  -4.881  1.00 20.00     0.080 C 
HETATM    6  C7  UNL     1     -36.957  16.450  -6.324  1.00 20.00    -0.004 C 
HETATM    7  C8  UNL     1     -34.757  15.546  -2.582  1.00 20.00     0.043 C 
HETATM    8  C9  UNL     1     -33.019  14.679  -4.230  1.00 20.00     0.043 C 
HETATM    9  C10 UNL     1     -38.438  16.599  -6.638  1.00 20.00     0.011 C 
ENDROOT
BRANCH   5  10
HETATM   10  C2  UNL     1     -37.518  14.996  -4.306  1.00 20.00     0.240 C 
HETATM   11  O11 UNL     1     -37.376  13.797  -4.524  1.00 20.00    -0.306 OA
ENDBRANCH   5  10
TORSDOF 1
ENDMDL
