MODEL 1
REMARK VINA RESULT:      -4.3      0.000      0.000
REMARK  2 active torsions:
REMARK  status: ('A' for Active; 'I' for Inactive)
REMARK    1  A    between atoms: C1_1  and  C4_4 
REMARK    2  A    between atoms: C1_1  and  C6_6 
ROOT
HETATM    1  C1  UNL     1     -34.256   4.936   3.895  1.00 20.00     0.145 C 
HETATM    2  O7  UNL     1     -34.266   3.767   4.266  1.00 20.00    -0.296 OA
ENDROOT
BRANCH   1   3
HETATM    3  C4  UNL     1     -34.751   6.007   4.809  1.00 20.00     0.057 A 
HETATM    4  C2  UNL     1     -35.033   5.655   6.232  1.00 20.00     0.013 A 
HETATM    5  C3  UNL     1     -33.843   6.498   5.885  1.00 20.00     0.013 A 
ENDBRANCH   1   3
BRANCH   1   6
HETATM    6  C6  UNL     1     -33.749   5.390   2.547  1.00 20.00     0.123 C 
HETATM    7  C5  UNL     1     -32.955   4.313   1.832  1.00 20.00     0.030 C 
HETATM    8 BR8  UNL     1     -32.597   6.918   2.910  1.00 20.00    -0.084 Br
ENDBRANCH   1   6
TORSDOF 2
ENDMDL
MODEL 2
REMARK VINA RESULT:      -4.3      1.658      1.727
REMARK  2 active torsions:
REMARK  status: ('A' for Active; 'I' for Inactive)
REMARK    1  A    between atoms: C1_1  and  C4_4 
REMARK    2  A    between atoms: C1_1  and  C6_6 
ROOT
HETATM    1  C1  UNL     1     -33.602   6.576   4.006  1.00 20.00     0.145 C 
HETATM    2  O7  UNL     1     -32.750   7.246   4.581  1.00 20.00    -0.296 OA
ENDROOT
BRANCH   1   3
HETATM    3  C4  UNL     1     -34.789   6.081   4.764  1.00 20.00     0.057 A 
HETATM    4  C2  UNL     1     -34.777   4.676   5.269  1.00 20.00     0.013 A 
HETATM    5  C3  UNL     1     -34.641   5.822   6.226  1.00 20.00     0.013 A 
ENDBRANCH   1   3
BRANCH   1   6
HETATM    6  C6  UNL     1     -33.549   6.220   2.540  1.00 20.00     0.123 C 
HETATM    7  C5  UNL     1     -32.992   4.829   2.300  1.00 20.00     0.030 C 
HETATM    8 BR8  UNL     1     -32.377   7.543   1.723  1.00 20.00    -0.084 Br
ENDBRANCH   1   6
TORSDOF 2
ENDMDL
MODEL 3
REMARK VINA RESULT:      -4.2      2.474      3.904
REMARK  2 active torsions:
REMARK  status: ('A' for Active; 'I' for Inactive)
REMARK    1  A    between atoms: C1_1  and  C4_4 
REMARK    2  A    between atoms: C1_1  and  C6_6 
ROOT
HETATM    1  C1  UNL     1     -33.117   6.250   2.966  1.00 20.00     0.145 C 
HETATM    2  O7  UNL     1     -32.988   5.137   2.466  1.00 20.00    -0.296 OA
ENDROOT
BRANCH   1   3
HETATM    3  C4  UNL     1     -32.328   7.398   2.430  1.00 20.00     0.057 A 
HETATM    4  C2  UNL     1     -32.183   7.534   0.951  1.00 20.00     0.013 A 
HETATM    5  C3  UNL     1     -33.055   8.486   1.714  1.00 20.00     0.013 A 
ENDBRANCH   1   3
BRANCH   1   6
HETATM    6  C6  UNL     1     -34.057   6.559   4.107  1.00 20.00     0.123 C 
HETATM    7  C5  UNL     1     -33.336   7.113   5.321  1.00 20.00     0.030 C 
HETATM    8 BR8  UNL     1     -34.899   4.864   4.564  1.00 20.00    -0.084 Br
ENDBRANCH   1   6
TORSDOF 2
ENDMDL
MODEL 4
REMARK VINA RESULT:      -4.0     12.281     12.888
REMARK  2 active torsions:
REMARK  status: ('A' for Active; 'I' for Inactive)
REMARK    1  A    between atoms: C1_1  and  C4_4 
REMARK    2  A    between atoms: C1_1  and  C6_6 
ROOT
HETATM    1  C1  UNL     1     -35.757  13.997  -4.317  1.00 20.00     0.145 C 
HETATM    2  O7  UNL     1     -35.971  12.838  -4.655  1.00 20.00    -0.296 OA
ENDROOT
BRANCH   1   3
HETATM    3  C4  UNL     1     -34.474  14.343  -3.635  1.00 20.00     0.057 A 
HETATM    4  C2  UNL     1     -33.703  15.523  -4.126  1.00 20.00     0.013 A 
HETATM    5  C3  UNL     1     -34.421  15.586  -2.812  1.00 20.00     0.013 A 
ENDBRANCH   1   3
BRANCH   1   6
HETATM    6  C6  UNL     1     -36.713  15.139  -4.562  1.00 20.00     0.123 C 
HETATM    7  C5  UNL     1     -38.158  14.751  -4.312  1.00 20.00     0.030 C 
HETATM    8 BR8  UNL     1     -36.481  15.622  -6.434  1.00 20.00    -0.084 Br
ENDBRANCH   1   6
TORSDOF 2
ENDMDL
MODEL 5
REMARK VINA RESULT:      -4.0     16.843     17.542
REMARK  2 active torsions:
REMARK  status: ('A' for Active; 'I' for Inactive)
REMARK    1  A    between atoms: C1_1  and  C4_4 
REMARK    2  A    between atoms: C1_1  and  C6_6 
ROOT
HETATM    1  C1  UNL     1     -24.382  18.094  10.789  1.00 20.00     0.145 C 
HETATM    2  O7  UNL     1     -24.832  18.395   9.689  1.00 20.00    -0.296 OA
ENDROOT
BRANCH   1   3
HETATM    3  C4  UNL     1     -25.166  18.407  12.021  1.00 20.00     0.057 A 
HETATM    4  C2  UNL     1     -26.530  18.994  11.867  1.00 20.00     0.013 A 
HETATM    5  C3  UNL     1     -26.367  17.578  12.328  1.00 20.00     0.013 A 
ENDBRANCH   1   3
BRANCH   1   6
HETATM    6  C6  UNL     1     -23.062  17.390  10.998  1.00 20.00     0.123 C 
HETATM    7  C5  UNL     1     -22.419  17.744  12.325  1.00 20.00     0.030 C 
HETATM    8 BR8  UNL     1     -21.918  17.984   9.538  1.00 20.00    -0.084 Br
ENDBRANCH   1   6
TORSDOF 2
ENDMDL
MODEL 6
REMARK VINA RESULT:      -4.0     12.513     12.951
REMARK  2 active torsions:
REMARK  status: ('A' for Active; 'I' for Inactive)
REMARK    1  A    between atoms: C1_1  and  C4_4 
REMARK    2  A    between atoms: C1_1  and  C6_6 
ROOT
HETATM    1  C1  UNL     1     -33.908  14.702  -4.235  1.00 20.00     0.145 C 
HETATM    2  O7  UNL     1     -33.190  13.740  -4.488  1.00 20.00    -0.296 OA
ENDROOT
BRANCH   1   3
HETATM    3  C4  UNL     1     -33.412  15.777  -3.326  1.00 20.00     0.057 A 
HETATM    4  C2  UNL     1     -34.031  17.132  -3.421  1.00 20.00     0.013 A 
HETATM    5  C3  UNL     1     -34.312  16.257  -2.237  1.00 20.00     0.013 A 
ENDBRANCH   1   3
BRANCH   1   6
HETATM    6  C6  UNL     1     -35.293  14.894  -4.806  1.00 20.00     0.123 C 
HETATM    7  C5  UNL     1     -36.200  13.707  -4.544  1.00 20.00     0.030 C 
HETATM    8 BR8  UNL     1     -35.040  15.114  -6.724  1.00 20.00    -0.084 Br
ENDBRANCH   1   6
TORSDOF 2
ENDMDL
MODEL 7
REMARK VINA RESULT:      -4.0     16.961     17.449
REMARK  2 active torsions:
REMARK  status: ('A' for Active; 'I' for Inactive)
REMARK    1  A    between atoms: C1_1  and  C4_4 
REMARK    2  A    between atoms: C1_1  and  C6_6 
ROOT
HETATM    1  C1  UNL     1     -23.415  17.583   9.968  1.00 20.00     0.145 C 
HETATM    2  O7  UNL     1     -23.004  16.583   9.389  1.00 20.00    -0.296 OA
ENDROOT
BRANCH   1   3
HETATM    3  C4  UNL     1     -23.604  18.853   9.207  1.00 20.00     0.057 A 
HETATM    4  C2  UNL     1     -24.049  18.772   7.784  1.00 20.00     0.013 A 
HETATM    5  C3  UNL     1     -24.991  19.263   8.842  1.00 20.00     0.013 A 
ENDBRANCH   1   3
BRANCH   1   6
HETATM    6  C6  UNL     1     -23.775  17.622  11.434  1.00 20.00     0.123 C 
HETATM    7  C5  UNL     1     -22.556  17.756  12.327  1.00 20.00     0.030 C 
HETATM    8 BR8  UNL     1     -24.668  15.930  11.798  1.00 20.00    -0.084 Br
ENDBRANCH   1   6
TORSDOF 2
ENDMDL
MODEL 8
REMARK VINA RESULT:      -3.9     16.336     17.295
REMARK  2 active torsions:
REMARK  status: ('A' for Active; 'I' for Inactive)
REMARK    1  A    between atoms: C1_1  and  C4_4 
REMARK    2  A    between atoms: C1_1  and  C6_6 
ROOT
HETATM    1  C1  UNL     1     -23.981  17.619  10.008  1.00 20.00     0.145 C 
HETATM    2  O7  UNL     1     -24.685  18.359   9.329  1.00 20.00    -0.296 OA
ENDROOT
BRANCH   1   3
HETATM    3  C4  UNL     1     -22.770  16.990   9.403  1.00 20.00     0.057 A 
HETATM    4  C2  UNL     1     -22.248  17.540   8.117  1.00 20.00     0.013 A 
HETATM    5  C3  UNL     1     -21.496  17.766   9.393  1.00 20.00     0.013 A 
ENDBRANCH   1   3
BRANCH   1   6
HETATM    6  C6  UNL     1     -24.245  17.301  11.460  1.00 20.00     0.123 C 
HETATM    7  C5  UNL     1     -24.627  15.849  11.677  1.00 20.00     0.030 C 
HETATM    8 BR8  UNL     1     -25.725  18.451  11.986  1.00 20.00    -0.084 Br
ENDBRANCH   1   6
TORSDOF 2
ENDMDL
MODEL 9
REMARK VINA RESULT:      -3.9      9.442      9.843
REMARK  2 active torsions:
REMARK  status: ('A' for Active; 'I' for Inactive)
REMARK    1  A    between atoms: C1_1  and  C4_4 
REMARK    2  A    between atoms: C1_1  and  C6_6 
ROOT
HETATM    1  C1  UNL     1     -41.635   6.471  -0.800  1.00 20.00     0.145 C 
HETATM    2  O7  UNL     1     -40.660   5.819  -1.159  1.00 20.00    -0.296 OA
ENDROOT
BRANCH   1   3
HETATM    3  C4  UNL     1     -41.604   7.960  -0.891  1.00 20.00     0.057 A 
HETATM    4  C2  UNL     1     -42.770   8.731  -0.366  1.00 20.00     0.013 A 
HETATM    5  C3  UNL     1     -41.463   8.746   0.369  1.00 20.00     0.013 A 
ENDBRANCH   1   3
BRANCH   1   6
HETATM    6  C6  UNL     1     -42.912   5.860  -0.274  1.00 20.00     0.123 C 
HETATM    7  C5  UNL     1     -42.731   5.219   1.089  1.00 20.00     0.030 C 
HETATM    8 BR8  UNL     1     -43.415   4.500  -1.574  1.00 20.00    -0.084 Br
ENDBRANCH   1   6
TORSDOF 2
ENDMDL
