MODEL 1
REMARK VINA RESULT:      -5.2      0.000      0.000
REMARK  1 active torsions:
REMARK  status: ('A' for Active; 'I' for Inactive)
REMARK    1  A    between atoms: C3_3  and  C8_8 
ROOT
HETATM    1  C1  UNL     1     -34.105  15.503  -5.576  1.00 20.00    -0.084 C 
HETATM    2  C2  UNL     1     -33.946  15.028  -6.814  1.00 20.00     0.015 C 
HETATM    3  C4  UNL     1     -34.526  16.903  -5.210  1.00 20.00     0.038 C 
HETATM    4  C5  UNL     1     -33.265  15.905  -3.447  1.00 20.00     0.014 C 
HETATM    5  C6  UNL     1     -35.636  15.909  -3.172  1.00 20.00     0.021 C 
HETATM    6  C7  UNL     1     -33.837  14.758  -4.285  1.00 20.00     0.028 C 
HETATM    7  C8  UNL     1     -35.166  14.493  -3.554  1.00 20.00     0.095 C 
HETATM    8  C9  UNL     1     -34.483  16.808  -3.671  1.00 20.00    -0.009 C 
ENDROOT
BRANCH   7   9
HETATM    9  C3  UNL     1     -36.169  13.734  -4.400  1.00 20.00     0.177 C 
HETATM   10  O10 UNL     1     -37.160  14.409  -4.796  1.00 20.00    -0.648 OA
HETATM   11  O11 UNL     1     -35.883  12.521  -4.600  1.00 20.00    -0.648 OA
ENDBRANCH   7   9
TORSDOF 1
ENDMDL
MODEL 2
REMARK VINA RESULT:      -5.2      1.249      1.758
REMARK  1 active torsions:
REMARK  status: ('A' for Active; 'I' for Inactive)
REMARK    1  A    between atoms: C3_3  and  C8_8 
ROOT
HETATM    1  C1  UNL     1     -33.855  15.404  -3.996  1.00 20.00    -0.084 C 
HETATM    2  C2  UNL     1     -32.802  14.655  -4.337  1.00 20.00     0.015 C 
HETATM    3  C4  UNL     1     -34.134  16.808  -4.467  1.00 20.00     0.038 C 
HETATM    4  C5  UNL     1     -35.184  16.391  -2.365  1.00 20.00     0.014 C 
HETATM    5  C6  UNL     1     -36.590  16.252  -4.289  1.00 20.00     0.021 C 
HETATM    6  C7  UNL     1     -34.950  15.026  -3.021  1.00 20.00     0.028 C 
HETATM    7  C8  UNL     1     -36.275  14.833  -3.780  1.00 20.00     0.095 C 
HETATM    8  C9  UNL     1     -35.440  17.099  -3.699  1.00 20.00    -0.009 C 
ENDROOT
BRANCH   7   9
HETATM    9  C3  UNL     1     -36.181  13.804  -4.888  1.00 20.00     0.177 C 
HETATM   10  O10 UNL     1     -35.891  12.633  -4.513  1.00 20.00    -0.648 OA
HETATM   11  O11 UNL     1     -36.406  14.251  -6.047  1.00 20.00    -0.648 OA
ENDBRANCH   7   9
TORSDOF 1
ENDMDL
MODEL 3
REMARK VINA RESULT:      -4.9      1.007      2.677
REMARK  1 active torsions:
REMARK  status: ('A' for Active; 'I' for Inactive)
REMARK    1  A    between atoms: C3_3  and  C8_8 
ROOT
HETATM    1  C1  UNL     1     -34.934  15.847  -3.551  1.00 20.00    -0.084 C 
HETATM    2  C2  UNL     1     -35.156  15.782  -2.235  1.00 20.00     0.015 C 
HETATM    3  C4  UNL     1     -33.609  15.643  -4.239  1.00 20.00     0.038 C 
HETATM    4  C5  UNL     1     -35.052  17.007  -5.562  1.00 20.00     0.014 C 
HETATM    5  C6  UNL     1     -34.902  14.711  -6.196  1.00 20.00     0.021 C 
HETATM    6  C7  UNL     1     -35.949  16.199  -4.618  1.00 20.00     0.028 C 
HETATM    7  C8  UNL     1     -36.244  14.959  -5.482  1.00 20.00     0.095 C 
HETATM    8  C9  UNL     1     -34.022  15.883  -5.705  1.00 20.00    -0.009 C 
ENDROOT
BRANCH   7   9
HETATM    9  C3  UNL     1     -36.724  13.771  -4.673  1.00 20.00     0.177 C 
HETATM   10  O10 UNL     1     -35.892  12.828  -4.557  1.00 20.00    -0.648 OA
HETATM   11  O11 UNL     1     -37.896  13.878  -4.219  1.00 20.00    -0.648 OA
ENDBRANCH   7   9
TORSDOF 1
ENDMDL
MODEL 4
REMARK VINA RESULT:      -4.7      1.067      2.541
REMARK  1 active torsions:
REMARK  status: ('A' for Active; 'I' for Inactive)
REMARK    1  A    between atoms: C3_3  and  C8_8 
ROOT
HETATM    1  C1  UNL     1     -35.953  16.380  -3.492  1.00 20.00    -0.084 C 
HETATM    2  C2  UNL     1     -37.239  16.740  -3.475  1.00 20.00     0.015 C 
HETATM    3  C4  UNL     1     -35.130  15.971  -2.297  1.00 20.00     0.038 C 
HETATM    4  C5  UNL     1     -33.739  16.833  -4.034  1.00 20.00     0.014 C 
HETATM    5  C6  UNL     1     -33.843  14.455  -3.852  1.00 20.00     0.021 C 
HETATM    6  C7  UNL     1     -35.038  16.367  -4.699  1.00 20.00     0.028 C 
HETATM    7  C8  UNL     1     -34.679  14.914  -5.061  1.00 20.00     0.095 C 
HETATM    8  C9  UNL     1     -33.767  15.725  -2.975  1.00 20.00    -0.009 C 
ENDROOT
BRANCH   7   9
HETATM    9  C3  UNL     1     -35.895  14.047  -5.316  1.00 20.00     0.177 C 
HETATM   10  O10 UNL     1     -35.959  12.992  -4.625  1.00 20.00    -0.648 OA
HETATM   11  O11 UNL     1     -36.690  14.492  -6.189  1.00 20.00    -0.648 OA
ENDBRANCH   7   9
TORSDOF 1
ENDMDL
MODEL 5
REMARK VINA RESULT:      -4.6      1.044      1.401
REMARK  1 active torsions:
REMARK  status: ('A' for Active; 'I' for Inactive)
REMARK    1  A    between atoms: C3_3  and  C8_8 
ROOT
HETATM    1  C1  UNL     1     -34.616  16.706  -4.983  1.00 20.00    -0.084 C 
HETATM    2  C2  UNL     1     -34.909  16.946  -6.265  1.00 20.00     0.015 C 
HETATM    3  C4  UNL     1     -34.933  17.607  -3.817  1.00 20.00     0.038 C 
HETATM    4  C5  UNL     1     -33.061  16.210  -3.328  1.00 20.00     0.014 C 
HETATM    5  C6  UNL     1     -35.156  15.519  -2.417  1.00 20.00     0.021 C 
HETATM    6  C7  UNL     1     -33.852  15.516  -4.442  1.00 20.00     0.028 C 
HETATM    7  C8  UNL     1     -34.799  14.624  -3.618  1.00 20.00     0.095 C 
HETATM    8  C9  UNL     1     -34.314  16.791  -2.665  1.00 20.00    -0.009 C 
ENDROOT
BRANCH   7   9
HETATM    9  C3  UNL     1     -36.009  14.158  -4.403  1.00 20.00     0.177 C 
HETATM   10  O10 UNL     1     -35.752  13.555  -5.482  1.00 20.00    -0.648 OA
HETATM   11  O11 UNL     1     -37.122  14.435  -3.874  1.00 20.00    -0.648 OA
ENDBRANCH   7   9
TORSDOF 1
ENDMDL
MODEL 6
REMARK VINA RESULT:      -4.4      1.092      1.538
REMARK  1 active torsions:
REMARK  status: ('A' for Active; 'I' for Inactive)
REMARK    1  A    between atoms: C3_3  and  C8_8 
ROOT
HETATM    1  C1  UNL     1     -35.365  15.719  -6.224  1.00 20.00    -0.084 C 
HETATM    2  C2  UNL     1     -35.285  15.074  -7.391  1.00 20.00     0.015 C 
HETATM    3  C4  UNL     1     -36.156  16.974  -5.955  1.00 20.00     0.038 C 
HETATM    4  C5  UNL     1     -34.335  16.773  -4.427  1.00 20.00     0.014 C 
HETATM    5  C6  UNL     1     -36.478  16.126  -3.600  1.00 20.00     0.021 C 
HETATM    6  C7  UNL     1     -34.633  15.363  -4.947  1.00 20.00     0.028 C 
HETATM    7  C8  UNL     1     -35.640  14.868  -3.893  1.00 20.00     0.095 C 
HETATM    8  C9  UNL     1     -35.803  17.208  -4.473  1.00 20.00    -0.009 C 
ENDROOT
BRANCH   7   9
HETATM    9  C3  UNL     1     -36.467  13.690  -4.368  1.00 20.00     0.177 C 
HETATM   10  O10 UNL     1     -35.817  12.634  -4.603  1.00 20.00    -0.648 OA
HETATM   11  O11 UNL     1     -37.705  13.919  -4.469  1.00 20.00    -0.648 OA
ENDBRANCH   7   9
TORSDOF 1
ENDMDL
MODEL 7
REMARK VINA RESULT:      -4.4      1.606      2.234
REMARK  1 active torsions:
REMARK  status: ('A' for Active; 'I' for Inactive)
REMARK    1  A    between atoms: C3_3  and  C8_8 
ROOT
HETATM    1  C1  UNL     1     -33.660  15.330  -3.774  1.00 20.00    -0.084 C 
HETATM    2  C2  UNL     1     -32.913  14.398  -4.373  1.00 20.00     0.015 C 
HETATM    3  C4  UNL     1     -33.244  16.748  -3.481  1.00 20.00     0.038 C 
HETATM    4  C5  UNL     1     -34.944  16.032  -1.968  1.00 20.00     0.014 C 
HETATM    5  C6  UNL     1     -35.664  17.397  -3.789  1.00 20.00     0.021 C 
HETATM    6  C7  UNL     1     -35.053  15.141  -3.209  1.00 20.00     0.028 C 
HETATM    7  C8  UNL     1     -36.066  15.935  -4.054  1.00 20.00     0.095 C 
HETATM    8  C9  UNL     1     -34.510  17.264  -2.769  1.00 20.00    -0.009 C 
ENDROOT
BRANCH   7   9
HETATM    9  C3  UNL     1     -36.040  15.560  -5.522  1.00 20.00     0.177 C 
HETATM   10  O10 UNL     1     -36.394  14.376  -5.782  1.00 20.00    -0.648 OA
HETATM   11  O11 UNL     1     -35.666  16.482  -6.298  1.00 20.00    -0.648 OA
ENDBRANCH   7   9
TORSDOF 1
ENDMDL
MODEL 8
REMARK VINA RESULT:      -4.4      1.571      2.457
REMARK  1 active torsions:
REMARK  status: ('A' for Active; 'I' for Inactive)
REMARK    1  A    between atoms: C3_3  and  C8_8 
ROOT
HETATM    1  C1  UNL     1     -35.424  16.945  -4.387  1.00 20.00    -0.084 C 
HETATM    2  C2  UNL     1     -36.064  17.880  -5.094  1.00 20.00     0.015 C 
HETATM    3  C4  UNL     1     -35.937  16.267  -3.142  1.00 20.00     0.038 C 
HETATM    4  C5  UNL     1     -33.552  16.239  -3.204  1.00 20.00     0.014 C 
HETATM    5  C6  UNL     1     -34.645  14.223  -3.865  1.00 20.00     0.021 C 
HETATM    6  C7  UNL     1     -34.030  16.416  -4.649  1.00 20.00     0.028 C 
HETATM    7  C8  UNL     1     -34.111  14.950  -5.113  1.00 20.00     0.095 C 
HETATM    8  C9  UNL     1     -34.739  15.353  -2.815  1.00 20.00    -0.009 C 
ENDROOT
BRANCH   7   9
HETATM    9  C3  UNL     1     -34.983  14.761  -6.339  1.00 20.00     0.177 C 
HETATM   10  O10 UNL     1     -34.635  15.427  -7.354  1.00 20.00    -0.648 OA
HETATM   11  O11 UNL     1     -35.947  13.961  -6.185  1.00 20.00    -0.648 OA
ENDBRANCH   7   9
TORSDOF 1
ENDMDL
MODEL 9
REMARK VINA RESULT:      -4.3      1.859      2.837
REMARK  1 active torsions:
REMARK  status: ('A' for Active; 'I' for Inactive)
REMARK    1  A    between atoms: C3_3  and  C8_8 
ROOT
HETATM    1  C1  UNL     1     -34.017  17.274  -3.464  1.00 20.00    -0.084 C 
HETATM    2  C2  UNL     1     -32.973  18.019  -3.839  1.00 20.00     0.015 C 
HETATM    3  C4  UNL     1     -35.462  17.538  -3.801  1.00 20.00     0.038 C 
HETATM    4  C5  UNL     1     -35.276  16.264  -1.792  1.00 20.00     0.014 C 
HETATM    5  C6  UNL     1     -35.802  15.037  -3.771  1.00 20.00     0.021 C 
HETATM    6  C7  UNL     1     -33.975  16.051  -2.573  1.00 20.00     0.028 C 
HETATM    7  C8  UNL     1     -34.327  14.798  -3.396  1.00 20.00     0.095 C 
HETATM    8  C9  UNL     1     -36.134  16.367  -3.057  1.00 20.00    -0.009 C 
ENDROOT
BRANCH   7   9
HETATM    9  C3  UNL     1     -33.425  14.603  -4.597  1.00 20.00     0.177 C 
HETATM   10  O10 UNL     1     -32.194  14.496  -4.335  1.00 20.00    -0.648 OA
HETATM   11  O11 UNL     1     -34.022  14.573  -5.709  1.00 20.00    -0.648 OA
ENDBRANCH   7   9
TORSDOF 1
ENDMDL
