MODEL 1
REMARK VINA RESULT:      -4.7      0.000      0.000
REMARK  1 active torsions:
REMARK  status: ('A' for Active; 'I' for Inactive)
REMARK    1  A    between atoms: C5_5  and  C8_8 
ROOT
HETATM    1  C1  UNL     1     -22.778  17.630   9.827  1.00 20.00     0.006 A 
HETATM    2  C2  UNL     1     -22.638  17.749   8.508  1.00 20.00     0.076 A 
HETATM    3  C3  UNL     1     -23.768  18.551   8.028  1.00 20.00     0.171 A 
HETATM    4  C4  UNL     1     -24.653  18.974   9.170  1.00 20.00     0.093 A 
HETATM    5  C5  UNL     1     -23.994  18.311  10.388  1.00 20.00     0.020 A 
HETATM    6  O9  UNL     1     -23.955  18.846   6.858  1.00 20.00    -0.291 OA
HETATM    7 CL10 UNL     1     -21.425  17.134   7.515  1.00 20.00    -0.081 Cl
ENDROOT
BRANCH   5   8
HETATM    8  C8  UNL     1     -24.924  17.318  11.076  1.00 20.00    -0.015 C 
HETATM    9  C6  UNL     1     -24.133  16.130  11.624  1.00 20.00     0.010 C 
HETATM   10  C7  UNL     1     -25.708  18.000  12.195  1.00 20.00     0.010 C 
ENDBRANCH   5   8
TORSDOF 1
ENDMDL
MODEL 2
REMARK VINA RESULT:      -4.5     17.001     18.117
REMARK  1 active torsions:
REMARK  status: ('A' for Active; 'I' for Inactive)
REMARK    1  A    between atoms: C5_5  and  C8_8 
ROOT
HETATM    1  C1  UNL     1     -35.900  15.750  -3.195  1.00 20.00     0.006 A 
HETATM    2  C2  UNL     1     -36.608  14.864  -3.891  1.00 20.00     0.076 A 
HETATM    3  C3  UNL     1     -35.683  13.799  -4.293  1.00 20.00     0.171 A 
HETATM    4  C4  UNL     1     -34.298  14.060  -3.767  1.00 20.00     0.093 A 
HETATM    5  C5  UNL     1     -34.443  15.411  -3.052  1.00 20.00     0.020 A 
HETATM    6  O9  UNL     1     -36.002  12.825  -4.957  1.00 20.00    -0.291 OA
HETATM    7 CL10 UNL     1     -38.248  14.885  -4.271  1.00 20.00    -0.081 Cl
ENDROOT
BRANCH   5   8
HETATM    8  C8  UNL     1     -33.555  16.487  -3.666  1.00 20.00    -0.015 C 
HETATM    9  C6  UNL     1     -34.359  17.370  -4.620  1.00 20.00     0.010 C 
HETATM   10  C7  UNL     1     -32.903  17.334  -2.575  1.00 20.00     0.010 C 
ENDBRANCH   5   8
TORSDOF 1
ENDMDL
MODEL 3
REMARK VINA RESULT:      -4.5     15.952     17.052
REMARK  1 active torsions:
REMARK  status: ('A' for Active; 'I' for Inactive)
REMARK    1  A    between atoms: C5_5  and  C8_8 
ROOT
HETATM    1  C1  UNL     1     -35.220  15.459  -2.744  1.00 20.00     0.006 A 
HETATM    2  C2  UNL     1     -35.349  14.791  -3.888  1.00 20.00     0.076 A 
HETATM    3  C3  UNL     1     -34.053  14.858  -4.571  1.00 20.00     0.171 A 
HETATM    4  C4  UNL     1     -33.047  15.615  -3.747  1.00 20.00     0.093 A 
HETATM    5  C5  UNL     1     -33.859  16.056  -2.521  1.00 20.00     0.020 A 
HETATM    6  O9  UNL     1     -33.821  14.353  -5.659  1.00 20.00    -0.291 OA
HETATM    7 CL10 UNL     1     -36.699  13.992  -4.499  1.00 20.00    -0.081 Cl
ENDROOT
BRANCH   5   8
HETATM    8  C8  UNL     1     -33.927  17.573  -2.390  1.00 20.00    -0.015 C 
HETATM    9  C6  UNL     1     -33.630  18.003  -0.954  1.00 20.00     0.010 C 
HETATM   10  C7  UNL     1     -32.956  18.242  -3.360  1.00 20.00     0.010 C 
ENDBRANCH   5   8
TORSDOF 1
ENDMDL
MODEL 4
REMARK VINA RESULT:      -4.4     16.241     16.706
REMARK  1 active torsions:
REMARK  status: ('A' for Active; 'I' for Inactive)
REMARK    1  A    between atoms: C5_5  and  C8_8 
ROOT
HETATM    1  C1  UNL     1     -34.067   6.935   3.647  1.00 20.00     0.006 A 
HETATM    2  C2  UNL     1     -33.221   6.438   2.749  1.00 20.00     0.076 A 
HETATM    3  C3  UNL     1     -33.399   4.982   2.753  1.00 20.00     0.171 A 
HETATM    4  C4  UNL     1     -34.471   4.572   3.726  1.00 20.00     0.093 A 
HETATM    5  C5  UNL     1     -34.896   5.904   4.360  1.00 20.00     0.020 A 
HETATM    6  O9  UNL     1     -32.768   4.209   2.048  1.00 20.00    -0.291 OA
HETATM    7 CL10 UNL     1     -32.132   7.254   1.758  1.00 20.00    -0.081 Cl
ENDROOT
BRANCH   5   8
HETATM    8  C8  UNL     1     -34.649   5.931   5.864  1.00 20.00    -0.015 C 
HETATM    9  C6  UNL     1     -34.079   4.594   6.341  1.00 20.00     0.010 C 
HETATM   10  C7  UNL     1     -33.708   7.075   6.236  1.00 20.00     0.010 C 
ENDBRANCH   5   8
TORSDOF 1
ENDMDL
MODEL 5
REMARK VINA RESULT:      -4.4     16.999     17.986
REMARK  1 active torsions:
REMARK  status: ('A' for Active; 'I' for Inactive)
REMARK    1  A    between atoms: C5_5  and  C8_8 
ROOT
HETATM    1  C1  UNL     1     -34.472  16.327  -4.889  1.00 20.00     0.006 A 
HETATM    2  C2  UNL     1     -34.646  15.359  -5.786  1.00 20.00     0.076 A 
HETATM    3  C3  UNL     1     -35.657  14.447  -5.241  1.00 20.00     0.171 A 
HETATM    4  C4  UNL     1     -36.153  14.928  -3.904  1.00 20.00     0.093 A 
HETATM    5  C5  UNL     1     -35.314  16.189  -3.652  1.00 20.00     0.020 A 
HETATM    6  O9  UNL     1     -36.051  13.438  -5.806  1.00 20.00    -0.291 OA
HETATM    7 CL10 UNL     1     -33.897  15.155  -7.280  1.00 20.00    -0.081 Cl
ENDROOT
BRANCH   5   8
HETATM    8  C8  UNL     1     -34.453  16.067  -2.400  1.00 20.00    -0.015 C 
HETATM    9  C6  UNL     1     -33.089  16.720  -2.618  1.00 20.00     0.010 C 
HETATM   10  C7  UNL     1     -35.159  16.692  -1.198  1.00 20.00     0.010 C 
ENDBRANCH   5   8
TORSDOF 1
ENDMDL
MODEL 6
REMARK VINA RESULT:      -4.4     13.438     14.648
REMARK  1 active torsions:
REMARK  status: ('A' for Active; 'I' for Inactive)
REMARK    1  A    between atoms: C5_5  and  C8_8 
ROOT
HETATM    1  C1  UNL     1     -33.969  17.909  -0.393  1.00 20.00     0.006 A 
HETATM    2  C2  UNL     1     -32.850  18.257   0.238  1.00 20.00     0.076 A 
HETATM    3  C3  UNL     1     -31.791  18.326  -0.775  1.00 20.00     0.171 A 
HETATM    4  C4  UNL     1     -32.333  18.016  -2.144  1.00 20.00     0.093 A 
HETATM    5  C5  UNL     1     -33.810  17.696  -1.872  1.00 20.00     0.020 A 
HETATM    6  O9  UNL     1     -30.628  18.610  -0.536  1.00 20.00    -0.291 OA
HETATM    7 CL10 UNL     1     -32.615  18.578   1.874  1.00 20.00    -0.081 Cl
ENDROOT
BRANCH   5   8
HETATM    8  C8  UNL     1     -34.173  16.271  -2.274  1.00 20.00    -0.015 C 
HETATM    9  C6  UNL     1     -35.650  16.180  -2.658  1.00 20.00     0.010 C 
HETATM   10  C7  UNL     1     -33.291  15.794  -3.426  1.00 20.00     0.010 C 
ENDBRANCH   5   8
TORSDOF 1
ENDMDL
MODEL 7
REMARK VINA RESULT:      -4.4     23.530     23.950
REMARK  1 active torsions:
REMARK  status: ('A' for Active; 'I' for Inactive)
REMARK    1  A    between atoms: C5_5  and  C8_8 
ROOT
HETATM    1  C1  UNL     1     -43.376   6.203  -0.082  1.00 20.00     0.006 A 
HETATM    2  C2  UNL     1     -42.748   5.330  -0.866  1.00 20.00     0.076 A 
HETATM    3  C3  UNL     1     -41.309   5.549  -0.685  1.00 20.00     0.171 A 
HETATM    4  C4  UNL     1     -41.052   6.638   0.322  1.00 20.00     0.093 A 
HETATM    5  C5  UNL     1     -42.465   7.106   0.700  1.00 20.00     0.020 A 
HETATM    6  O9  UNL     1     -40.438   4.921  -1.266  1.00 20.00    -0.291 OA
HETATM    7 CL10 UNL     1     -43.405   4.165  -1.889  1.00 20.00    -0.081 Cl
ENDROOT
BRANCH   5   8
HETATM    8  C8  UNL     1     -42.698   8.572   0.354  1.00 20.00    -0.015 C 
HETATM    9  C6  UNL     1     -41.375   9.337   0.327  1.00 20.00     0.010 C 
HETATM   10  C7  UNL     1     -43.417   8.701  -0.987  1.00 20.00     0.010 C 
ENDBRANCH   5   8
TORSDOF 1
ENDMDL
MODEL 8
REMARK VINA RESULT:      -4.3     16.904     17.938
REMARK  1 active torsions:
REMARK  status: ('A' for Active; 'I' for Inactive)
REMARK    1  A    between atoms: C5_5  and  C8_8 
ROOT
HETATM    1  C1  UNL     1     -35.735  15.524  -4.147  1.00 20.00     0.006 A 
HETATM    2  C2  UNL     1     -35.531  15.480  -5.462  1.00 20.00     0.076 A 
HETATM    3  C3  UNL     1     -34.194  14.914  -5.669  1.00 20.00     0.171 A 
HETATM    4  C4  UNL     1     -33.548  14.562  -4.356  1.00 20.00     0.093 A 
HETATM    5  C5  UNL     1     -34.587  15.016  -3.321  1.00 20.00     0.020 A 
HETATM    6  O9  UNL     1     -33.681  14.741  -6.764  1.00 20.00    -0.291 OA
HETATM    7 CL10 UNL     1     -36.559  15.954  -6.707  1.00 20.00    -0.081 Cl
ENDROOT
BRANCH   5   8
HETATM    8  C8  UNL     1     -34.044  16.097  -2.394  1.00 20.00    -0.015 C 
HETATM    9  C6  UNL     1     -33.228  17.122  -3.181  1.00 20.00     0.010 C 
HETATM   10  C7  UNL     1     -35.182  16.784  -1.642  1.00 20.00     0.010 C 
ENDBRANCH   5   8
TORSDOF 1
ENDMDL
MODEL 9
REMARK VINA RESULT:      -4.2     16.143     17.345
REMARK  1 active torsions:
REMARK  status: ('A' for Active; 'I' for Inactive)
REMARK    1  A    between atoms: C5_5  and  C8_8 
ROOT
HETATM    1  C1  UNL     1     -33.141  15.885  -3.670  1.00 20.00     0.006 A 
HETATM    2  C2  UNL     1     -33.414  16.575  -2.565  1.00 20.00     0.076 A 
HETATM    3  C3  UNL     1     -34.731  16.130  -2.097  1.00 20.00     0.171 A 
HETATM    4  C4  UNL     1     -35.287  15.055  -2.992  1.00 20.00     0.093 A 
HETATM    5  C5  UNL     1     -34.216  14.920  -4.084  1.00 20.00     0.020 A 
HETATM    6  O9  UNL     1     -35.293  16.568  -1.106  1.00 20.00    -0.291 OA
HETATM    7 CL10 UNL     1     -32.479  17.741  -1.789  1.00 20.00    -0.081 Cl
ENDROOT
BRANCH   5   8
HETATM    8  C8  UNL     1     -34.761  15.249  -5.469  1.00 20.00    -0.015 C 
HETATM    9  C6  UNL     1     -33.705  14.979  -6.541  1.00 20.00     0.010 C 
HETATM   10  C7  UNL     1     -36.028  14.446  -5.754  1.00 20.00     0.010 C 
ENDBRANCH   5   8
TORSDOF 1
ENDMDL
