MODEL 1
REMARK VINA RESULT:      -4.5      0.000      0.000
REMARK  1 active torsions:
REMARK  status: ('A' for Active; 'I' for Inactive)
REMARK    1  A    between atoms: C6_6  and  C10_10 
ROOT
HETATM    1  C1  UNL     1     -33.558  14.692  -4.190  1.00 20.00     0.014 C 
HETATM    2  C2  UNL     1     -32.994  15.913  -3.446  1.00 20.00     0.039 C 
HETATM    3  C3  UNL     1     -35.228  15.482  -2.685  1.00 20.00     0.049 C 
HETATM    4  C4  UNL     1     -35.446  16.146  -4.916  1.00 20.00     0.177 C 
HETATM    5  C5  UNL     1     -35.083  14.908  -4.089  1.00 20.00    -0.020 C 
HETATM    6  C6  UNL     1     -34.275  16.630  -2.994  1.00 20.00     0.064 C 
HETATM    7  C7  UNL     1     -35.906  13.680  -4.399  1.00 20.00     0.017 C 
HETATM    8  O11 UNL     1     -34.852  17.239  -4.175  1.00 20.00    -0.379 OA
ENDROOT
BRANCH   6   9
HETATM    9  C10 UNL     1     -34.081  17.650  -1.899  1.00 20.00     0.012 C 
HETATM   10  C8  UNL     1     -34.862  17.265  -0.637  1.00 20.00     0.012 C 
HETATM   11  C9  UNL     1     -32.596  17.828  -1.561  1.00 20.00     0.012 C 
ENDBRANCH   6   9
TORSDOF 1
ENDMDL
MODEL 2
REMARK VINA RESULT:      -4.4      1.001      3.797
REMARK  1 active torsions:
REMARK  status: ('A' for Active; 'I' for Inactive)
REMARK    1  A    between atoms: C6_6  and  C10_10 
ROOT
HETATM    1  C1  UNL     1     -34.513  16.845  -1.576  1.00 20.00     0.014 C 
HETATM    2  C2  UNL     1     -35.186  15.759  -2.429  1.00 20.00     0.039 C 
HETATM    3  C3  UNL     1     -32.958  16.132  -3.234  1.00 20.00     0.049 C 
HETATM    4  C4  UNL     1     -34.124  18.106  -3.690  1.00 20.00     0.177 C 
HETATM    5  C5  UNL     1     -33.427  17.395  -2.524  1.00 20.00    -0.020 C 
HETATM    6  C6  UNL     1     -34.365  15.817  -3.726  1.00 20.00     0.064 C 
HETATM    7  C7  UNL     1     -32.359  18.213  -1.836  1.00 20.00     0.017 C 
HETATM    8  O11 UNL     1     -34.759  17.028  -4.417  1.00 20.00    -0.379 OA
ENDROOT
BRANCH   6   9
HETATM    9  C10 UNL     1     -34.504  14.611  -4.623  1.00 20.00     0.012 C 
HETATM   10  C8  UNL     1     -35.848  13.906  -4.400  1.00 20.00     0.012 C 
HETATM   11  C9  UNL     1     -34.355  14.996  -6.100  1.00 20.00     0.012 C 
ENDBRANCH   6   9
TORSDOF 1
ENDMDL
MODEL 3
REMARK VINA RESULT:      -4.4      1.554      2.684
REMARK  1 active torsions:
REMARK  status: ('A' for Active; 'I' for Inactive)
REMARK    1  A    between atoms: C6_6  and  C10_10 
ROOT
HETATM    1  C1  UNL     1     -36.149  14.031  -5.360  1.00 20.00     0.014 C 
HETATM    2  C2  UNL     1     -35.426  14.019  -4.005  1.00 20.00     0.039 C 
HETATM    3  C3  UNL     1     -35.416  16.248  -4.889  1.00 20.00     0.049 C 
HETATM    4  C4  UNL     1     -34.070  14.998  -6.335  1.00 20.00     0.177 C 
HETATM    5  C5  UNL     1     -35.551  15.274  -6.053  1.00 20.00    -0.020 C 
HETATM    6  C6  UNL     1     -34.548  15.276  -4.100  1.00 20.00     0.064 C 
HETATM    7  C7  UNL     1     -36.339  15.759  -7.246  1.00 20.00     0.017 C 
HETATM    8  O11 UNL     1     -33.471  14.965  -5.018  1.00 20.00    -0.379 OA
ENDROOT
BRANCH   6   9
HETATM    9  C10 UNL     1     -34.010  15.779  -2.783  1.00 20.00     0.012 C 
HETATM   10  C8  UNL     1     -33.024  16.935  -2.991  1.00 20.00     0.012 C 
HETATM   11  C9  UNL     1     -35.144  16.220  -1.851  1.00 20.00     0.012 C 
ENDBRANCH   6   9
TORSDOF 1
ENDMDL
MODEL 4
REMARK VINA RESULT:      -4.2      1.421      2.216
REMARK  1 active torsions:
REMARK  status: ('A' for Active; 'I' for Inactive)
REMARK    1  A    between atoms: C6_6  and  C10_10 
ROOT
HETATM    1  C1  UNL     1     -35.538  14.915  -3.666  1.00 20.00     0.014 C 
HETATM    2  C2  UNL     1     -34.775  15.637  -2.544  1.00 20.00     0.039 C 
HETATM    3  C3  UNL     1     -34.305  16.707  -4.639  1.00 20.00     0.049 C 
HETATM    4  C4  UNL     1     -33.342  14.582  -4.794  1.00 20.00     0.177 C 
HETATM    5  C5  UNL     1     -34.709  15.265  -4.919  1.00 20.00    -0.020 C 
HETATM    6  C6  UNL     1     -33.642  16.326  -3.321  1.00 20.00     0.064 C 
HETATM    7  C7  UNL     1     -35.422  15.010  -6.226  1.00 20.00     0.017 C 
HETATM    8  O11 UNL     1     -32.706  15.288  -3.703  1.00 20.00    -0.379 OA
ENDROOT
BRANCH   6   9
HETATM    9  C10 UNL     1     -32.945  17.439  -2.578  1.00 20.00     0.012 C 
HETATM   10  C8  UNL     1     -32.824  18.696  -3.448  1.00 20.00     0.012 C 
HETATM   11  C9  UNL     1     -33.672  17.775  -1.271  1.00 20.00     0.012 C 
ENDBRANCH   6   9
TORSDOF 1
ENDMDL
MODEL 5
REMARK VINA RESULT:      -4.2     10.958     12.940
REMARK  1 active torsions:
REMARK  status: ('A' for Active; 'I' for Inactive)
REMARK    1  A    between atoms: C6_6  and  C10_10 
ROOT
HETATM    1  C1  UNL     1     -43.186   4.815   0.440  1.00 20.00     0.014 C 
HETATM    2  C2  UNL     1     -43.024   6.163   1.158  1.00 20.00     0.039 C 
HETATM    3  C3  UNL     1     -43.165   6.536  -1.207  1.00 20.00     0.049 C 
HETATM    4  C4  UNL     1     -41.151   5.398  -0.875  1.00 20.00     0.177 C 
HETATM    5  C5  UNL     1     -42.655   5.119  -0.977  1.00 20.00    -0.020 C 
HETATM    6  C6  UNL     1     -42.461   7.055   0.041  1.00 20.00     0.064 C 
HETATM    7  C7  UNL     1     -43.036   4.093  -2.017  1.00 20.00     0.017 C 
HETATM    8  O11 UNL     1     -41.083   6.654  -0.160  1.00 20.00    -0.379 OA
ENDROOT
BRANCH   6   9
HETATM    9  C10 UNL     1     -42.562   8.538   0.297  1.00 20.00     0.012 C 
HETATM   10  C8  UNL     1     -41.174   9.187   0.357  1.00 20.00     0.012 C 
HETATM   11  C9  UNL     1     -43.417   9.230  -0.770  1.00 20.00     0.012 C 
ENDBRANCH   6   9
TORSDOF 1
ENDMDL
MODEL 6
REMARK VINA RESULT:      -4.1      1.236      3.766
REMARK  1 active torsions:
REMARK  status: ('A' for Active; 'I' for Inactive)
REMARK    1  A    between atoms: C6_6  and  C10_10 
ROOT
HETATM    1  C1  UNL     1     -35.119  18.061  -3.053  1.00 20.00     0.014 C 
HETATM    2  C2  UNL     1     -34.927  17.136  -4.264  1.00 20.00     0.039 C 
HETATM    3  C3  UNL     1     -34.849  15.834  -2.251  1.00 20.00     0.049 C 
HETATM    4  C4  UNL     1     -32.949  17.195  -2.187  1.00 20.00     0.177 C 
HETATM    5  C5  UNL     1     -34.455  17.266  -1.909  1.00 20.00    -0.020 C 
HETATM    6  C6  UNL     1     -34.216  15.928  -3.633  1.00 20.00     0.064 C 
HETATM    7  C7  UNL     1     -34.818  17.748  -0.525  1.00 20.00     0.017 C 
HETATM    8  O11 UNL     1     -32.857  16.343  -3.354  1.00 20.00    -0.379 OA
ENDROOT
BRANCH   6   9
HETATM    9  C10 UNL     1     -34.239  14.670  -4.466  1.00 20.00     0.012 C 
HETATM   10  C8  UNL     1     -35.516  13.860  -4.213  1.00 20.00     0.012 C 
HETATM   11  C9  UNL     1     -34.109  14.989  -5.959  1.00 20.00     0.012 C 
ENDBRANCH   6   9
TORSDOF 1
ENDMDL
MODEL 7
REMARK VINA RESULT:      -4.1      1.118      3.842
REMARK  1 active torsions:
REMARK  status: ('A' for Active; 'I' for Inactive)
REMARK    1  A    between atoms: C6_6  and  C10_10 
ROOT
HETATM    1  C1  UNL     1     -35.296  18.217  -2.660  1.00 20.00     0.014 C 
HETATM    2  C2  UNL     1     -35.085  17.443  -3.970  1.00 20.00     0.039 C 
HETATM    3  C3  UNL     1     -34.839  15.944  -2.114  1.00 20.00     0.049 C 
HETATM    4  C4  UNL     1     -33.039  17.428  -1.959  1.00 20.00     0.177 C 
HETATM    5  C5  UNL     1     -34.534  17.356  -1.630  1.00 20.00    -0.020 C 
HETATM    6  C6  UNL     1     -34.267  16.232  -3.496  1.00 20.00     0.064 C 
HETATM    7  C7  UNL     1     -34.877  17.660  -0.191  1.00 20.00     0.017 C 
HETATM    8  O11 UNL     1     -32.930  16.715  -3.214  1.00 20.00    -0.379 OA
ENDROOT
BRANCH   6   9
HETATM    9  C10 UNL     1     -34.232  15.071  -4.460  1.00 20.00     0.012 C 
HETATM   10  C8  UNL     1     -32.856  14.393  -4.461  1.00 20.00     0.012 C 
HETATM   11  C9  UNL     1     -35.322  14.044  -4.134  1.00 20.00     0.012 C 
ENDBRANCH   6   9
TORSDOF 1
ENDMDL
MODEL 8
REMARK VINA RESULT:      -4.0      1.615      2.785
REMARK  1 active torsions:
REMARK  status: ('A' for Active; 'I' for Inactive)
REMARK    1  A    between atoms: C6_6  and  C10_10 
ROOT
HETATM    1  C1  UNL     1     -36.466  16.490  -5.677  1.00 20.00     0.014 C 
HETATM    2  C2  UNL     1     -36.123  16.763  -4.205  1.00 20.00     0.039 C 
HETATM    3  C3  UNL     1     -34.409  15.398  -5.179  1.00 20.00     0.049 C 
HETATM    4  C4  UNL     1     -36.326  14.061  -5.143  1.00 20.00     0.177 C 
HETATM    5  C5  UNL     1     -35.694  15.187  -5.969  1.00 20.00    -0.020 C 
HETATM    6  C6  UNL     1     -35.174  15.600  -3.877  1.00 20.00     0.064 C 
HETATM    7  C7  UNL     1     -35.534  14.876  -7.438  1.00 20.00     0.017 C 
HETATM    8  O11 UNL     1     -35.992  14.409  -3.779  1.00 20.00    -0.379 OA
ENDROOT
BRANCH   6   9
HETATM    9  C10 UNL     1     -34.340  15.790  -2.634  1.00 20.00     0.012 C 
HETATM   10  C8  UNL     1     -33.051  16.562  -2.943  1.00 20.00     0.012 C 
HETATM   11  C9  UNL     1     -35.132  16.511  -1.537  1.00 20.00     0.012 C 
ENDBRANCH   6   9
TORSDOF 1
ENDMDL
MODEL 9
REMARK VINA RESULT:      -4.0      1.976      4.053
REMARK  1 active torsions:
REMARK  status: ('A' for Active; 'I' for Inactive)
REMARK    1  A    between atoms: C6_6  and  C10_10 
ROOT
HETATM    1  C1  UNL     1     -33.316  15.181  -3.818  1.00 20.00     0.014 C 
HETATM    2  C2  UNL     1     -33.370  14.880  -5.324  1.00 20.00     0.039 C 
HETATM    3  C3  UNL     1     -35.342  16.086  -4.685  1.00 20.00     0.049 C 
HETATM    4  C4  UNL     1     -35.507  14.011  -3.619  1.00 20.00     0.177 C 
HETATM    5  C5  UNL     1     -34.805  15.364  -3.456  1.00 20.00    -0.020 C 
HETATM    6  C6  UNL     1     -34.876  14.972  -5.614  1.00 20.00     0.064 C 
HETATM    7  C7  UNL     1     -35.041  16.039  -2.125  1.00 20.00     0.017 C 
HETATM    8  O11 UNL     1     -35.483  13.785  -5.049  1.00 20.00    -0.379 OA
ENDROOT
BRANCH   6   9
HETATM    9  C10 UNL     1     -35.236  15.123  -7.072  1.00 20.00     0.012 C 
HETATM   10  C8  UNL     1     -36.313  16.197  -7.269  1.00 20.00     0.012 C 
HETATM   11  C9  UNL     1     -34.002  15.459  -7.917  1.00 20.00     0.012 C 
ENDBRANCH   6   9
TORSDOF 1
ENDMDL
