MODEL 1
REMARK VINA RESULT:      -5.3      0.000      0.000
REMARK  0 active torsions:
REMARK  status: ('A' for Active; 'I' for Inactive)
ROOT
HETATM    1  C1  UNL     1     -34.034  14.672  -4.143  1.00 20.00     0.051 C 
HETATM    2  C2  UNL     1     -32.986  15.590  -3.649  1.00 20.00     0.058 C 
HETATM    3  C3  UNL     1     -33.839  16.268  -2.549  1.00 20.00     0.007 C 
HETATM    4  C4  UNL     1     -37.586  15.795  -4.762  1.00 20.00     0.004 C 
HETATM    5  C5  UNL     1     -37.512  14.302  -4.335  1.00 20.00     0.036 C 
HETATM    6  C6  UNL     1     -35.251  15.609  -2.597  1.00 20.00     0.018 C 
HETATM    7  C7  UNL     1     -36.113  16.301  -4.855  1.00 20.00     0.018 C 
HETATM    8  C8  UNL     1     -36.067  14.009  -4.633  1.00 20.00     0.169 C 
HETATM    9  C9  UNL     1     -35.393  15.233  -4.077  1.00 20.00     0.031 C 
HETATM   10  N10 UNL     1     -33.959  13.376  -4.192  1.00 20.00    -0.142 NA
HETATM   11  O11 UNL     1     -35.329  12.922  -4.134  1.00 20.00    -0.250 OA
ENDROOT
TORSDOF 0
ENDMDL
MODEL 2
REMARK VINA RESULT:      -5.2      1.291      3.272
REMARK  0 active torsions:
REMARK  status: ('A' for Active; 'I' for Inactive)
ROOT
HETATM    1  C1  UNL     1     -37.294  14.837  -4.076  1.00 20.00     0.051 C 
HETATM    2  C2  UNL     1     -38.339  15.881  -4.142  1.00 20.00     0.058 C 
HETATM    3  C3  UNL     1     -37.518  16.913  -4.953  1.00 20.00     0.007 C 
HETATM    4  C4  UNL     1     -33.691  15.625  -3.264  1.00 20.00     0.004 C 
HETATM    5  C5  UNL     1     -33.821  14.398  -4.209  1.00 20.00     0.036 C 
HETATM    6  C6  UNL     1     -36.123  16.273  -5.223  1.00 20.00     0.018 C 
HETATM    7  C7  UNL     1     -35.145  16.071  -2.916  1.00 20.00     0.018 C 
HETATM    8  C8  UNL     1     -35.259  14.025  -3.969  1.00 20.00     0.169 C 
HETATM    9  C9  UNL     1     -35.926  15.373  -3.998  1.00 20.00     0.031 C 
HETATM   10  N10 UNL     1     -37.400  13.616  -4.507  1.00 20.00    -0.142 NA
HETATM   11  O11 UNL     1     -36.045  13.207  -4.798  1.00 20.00    -0.250 OA
ENDROOT
TORSDOF 0
ENDMDL
MODEL 3
REMARK VINA RESULT:      -5.1      0.873      3.217
REMARK  0 active torsions:
REMARK  status: ('A' for Active; 'I' for Inactive)
ROOT
HETATM    1  C1  UNL     1     -36.386  14.346  -4.224  1.00 20.00     0.051 C 
HETATM    2  C2  UNL     1     -37.823  14.692  -4.232  1.00 20.00     0.058 C 
HETATM    3  C3  UNL     1     -37.647  16.208  -4.493  1.00 20.00     0.007 C 
HETATM    4  C4  UNL     1     -33.813  16.414  -2.390  1.00 20.00     0.004 C 
HETATM    5  C5  UNL     1     -33.219  15.729  -3.652  1.00 20.00     0.036 C 
HETATM    6  C6  UNL     1     -36.114  16.476  -4.597  1.00 20.00     0.018 C 
HETATM    7  C7  UNL     1     -35.294  15.935  -2.283  1.00 20.00     0.018 C 
HETATM    8  C8  UNL     1     -34.241  14.648  -3.877  1.00 20.00     0.169 C 
HETATM    9  C9  UNL     1     -35.525  15.405  -3.673  1.00 20.00     0.031 C 
HETATM   10  N10 UNL     1     -35.799  13.486  -5.001  1.00 20.00    -0.142 NA
HETATM   11  O11 UNL     1     -34.423  13.925  -5.068  1.00 20.00    -0.250 OA
ENDROOT
TORSDOF 0
ENDMDL
MODEL 4
REMARK VINA RESULT:      -5.0      1.275      3.283
REMARK  0 active torsions:
REMARK  status: ('A' for Active; 'I' for Inactive)
ROOT
HETATM    1  C1  UNL     1     -34.828  14.238  -4.033  1.00 20.00     0.051 C 
HETATM    2  C2  UNL     1     -36.200  13.792  -4.353  1.00 20.00     0.058 C 
HETATM    3  C3  UNL     1     -36.782  15.193  -4.663  1.00 20.00     0.007 C 
HETATM    4  C4  UNL     1     -34.129  17.234  -1.843  1.00 20.00     0.004 C 
HETATM    5  C5  UNL     1     -33.023  17.024  -2.914  1.00 20.00     0.036 C 
HETATM    6  C6  UNL     1     -35.625  16.219  -4.471  1.00 20.00     0.018 C 
HETATM    7  C7  UNL     1     -35.136  16.054  -2.010  1.00 20.00     0.018 C 
HETATM    8  C8  UNL     1     -33.270  15.585  -3.277  1.00 20.00     0.169 C 
HETATM    9  C9  UNL     1     -34.770  15.557  -3.384  1.00 20.00     0.031 C 
HETATM   10  N10 UNL     1     -33.737  13.849  -4.622  1.00 20.00    -0.142 NA
HETATM   11  O11 UNL     1     -32.806  14.938  -4.435  1.00 20.00    -0.250 OA
ENDROOT
TORSDOF 0
ENDMDL
MODEL 5
REMARK VINA RESULT:      -4.9      0.973      1.085
REMARK  0 active torsions:
REMARK  status: ('A' for Active; 'I' for Inactive)
ROOT
HETATM    1  C1  UNL     1     -33.526  15.760  -3.881  1.00 20.00     0.051 C 
HETATM    2  C2  UNL     1     -32.968  16.907  -3.133  1.00 20.00     0.058 C 
HETATM    3  C3  UNL     1     -34.015  16.910  -1.993  1.00 20.00     0.007 C 
HETATM    4  C4  UNL     1     -37.224  15.380  -4.547  1.00 20.00     0.004 C 
HETATM    5  C5  UNL     1     -36.509  14.005  -4.418  1.00 20.00     0.036 C 
HETATM    6  C6  UNL     1     -35.007  15.743  -2.282  1.00 20.00     0.018 C 
HETATM    7  C7  UNL     1     -36.113  16.468  -4.421  1.00 20.00     0.018 C 
HETATM    8  C8  UNL     1     -35.083  14.421  -4.652  1.00 20.00     0.169 C 
HETATM    9  C9  UNL     1     -34.993  15.666  -3.813  1.00 20.00     0.031 C 
HETATM   10  N10 UNL     1     -32.901  14.661  -4.179  1.00 20.00    -0.142 NA
HETATM   11  O11 UNL     1     -33.943  13.669  -4.320  1.00 20.00    -0.250 OA
ENDROOT
TORSDOF 0
ENDMDL
MODEL 6
REMARK VINA RESULT:      -4.8      1.172      1.442
REMARK  0 active torsions:
REMARK  status: ('A' for Active; 'I' for Inactive)
ROOT
HETATM    1  C1  UNL     1     -35.236  14.325  -4.547  1.00 20.00     0.051 C 
HETATM    2  C2  UNL     1     -33.814  14.472  -4.169  1.00 20.00     0.058 C 
HETATM    3  C3  UNL     1     -34.030  15.513  -3.043  1.00 20.00     0.007 C 
HETATM    4  C4  UNL     1     -37.540  17.289  -4.963  1.00 20.00     0.004 C 
HETATM    5  C5  UNL     1     -38.299  16.023  -4.476  1.00 20.00     0.036 C 
HETATM    6  C6  UNL     1     -35.562  15.786  -2.962  1.00 20.00     0.018 C 
HETATM    7  C7  UNL     1     -36.057  16.856  -5.182  1.00 20.00     0.018 C 
HETATM    8  C8  UNL     1     -37.314  14.954  -4.862  1.00 20.00     0.169 C 
HETATM    9  C9  UNL     1     -36.017  15.565  -4.410  1.00 20.00     0.031 C 
HETATM   10  N10 UNL     1     -35.922  13.222  -4.543  1.00 20.00    -0.142 NA
HETATM   11  O11 UNL     1     -37.294  13.638  -4.368  1.00 20.00    -0.250 OA
ENDROOT
TORSDOF 0
ENDMDL
MODEL 7
REMARK VINA RESULT:      -4.6     10.756     12.352
REMARK  0 active torsions:
REMARK  status: ('A' for Active; 'I' for Inactive)
ROOT
HETATM    1  C1  UNL     1     -43.209   5.014  -0.472  1.00 20.00     0.051 C 
HETATM    2  C2  UNL     1     -43.331   4.110  -1.636  1.00 20.00     0.058 C 
HETATM    3  C3  UNL     1     -41.881   4.276  -2.152  1.00 20.00     0.007 C 
HETATM    4  C4  UNL     1     -41.528   8.389  -0.694  1.00 20.00     0.004 C 
HETATM    5  C5  UNL     1     -41.372   7.750   0.715  1.00 20.00     0.036 C 
HETATM    6  C6  UNL     1     -41.161   5.258  -1.178  1.00 20.00     0.018 C 
HETATM    7  C7  UNL     1     -42.413   7.410  -1.526  1.00 20.00     0.018 C 
HETATM    8  C8  UNL     1     -42.483   6.737   0.676  1.00 20.00     0.169 C 
HETATM    9  C9  UNL     1     -42.308   6.155  -0.700  1.00 20.00     0.031 C 
HETATM   10  N10 UNL     1     -43.417   4.698   0.771  1.00 20.00    -0.142 NA
HETATM   11  O11 UNL     1     -42.615   5.630   1.531  1.00 20.00    -0.250 OA
ENDROOT
TORSDOF 0
ENDMDL
MODEL 8
REMARK VINA RESULT:      -4.5      2.094      3.384
REMARK  0 active torsions:
REMARK  status: ('A' for Active; 'I' for Inactive)
ROOT
HETATM    1  C1  UNL     1     -35.749  14.727  -6.262  1.00 20.00     0.051 C 
HETATM    2  C2  UNL     1     -35.784  15.056  -7.703  1.00 20.00     0.058 C 
HETATM    3  C3  UNL     1     -34.266  15.312  -7.870  1.00 20.00     0.007 C 
HETATM    4  C4  UNL     1     -33.764  16.753  -3.767  1.00 20.00     0.004 C 
HETATM    5  C5  UNL     1     -33.866  15.257  -3.356  1.00 20.00     0.036 C 
HETATM    6  C6  UNL     1     -33.608  15.077  -6.477  1.00 20.00     0.018 C 
HETATM    7  C7  UNL     1     -34.604  16.909  -5.073  1.00 20.00     0.018 C 
HETATM    8  C8  UNL     1     -35.045  14.829  -4.186  1.00 20.00     0.169 C 
HETATM    9  C9  UNL     1     -34.729  15.473  -5.508  1.00 20.00     0.031 C 
HETATM   10  N10 UNL     1     -36.159  13.622  -5.716  1.00 20.00    -0.142 NA
HETATM   11  O11 UNL     1     -35.394  13.504  -4.496  1.00 20.00    -0.250 OA
ENDROOT
TORSDOF 0
ENDMDL
MODEL 9
REMARK VINA RESULT:      -4.4      2.669      3.627
REMARK  0 active torsions:
REMARK  status: ('A' for Active; 'I' for Inactive)
ROOT
HETATM    1  C1  UNL     1     -33.386  17.524  -1.667  1.00 20.00     0.051 C 
HETATM    2  C2  UNL     1     -32.308  18.499  -1.933  1.00 20.00     0.058 C 
HETATM    3  C3  UNL     1     -32.697  18.809  -3.400  1.00 20.00     0.007 C 
HETATM    4  C4  UNL     1     -34.308  14.802  -4.118  1.00 20.00     0.004 C 
HETATM    5  C5  UNL     1     -35.530  15.273  -3.282  1.00 20.00     0.036 C 
HETATM    6  C6  UNL     1     -33.954  17.948  -3.728  1.00 20.00     0.018 C 
HETATM    7  C7  UNL     1     -33.075  15.597  -3.585  1.00 20.00     0.018 C 
HETATM    8  C8  UNL     1     -34.828  15.936  -2.129  1.00 20.00     0.169 C 
HETATM    9  C9  UNL     1     -33.755  16.715  -2.840  1.00 20.00     0.031 C 
HETATM   10  N10 UNL     1     -34.283  17.607  -0.732  1.00 20.00    -0.142 NA
HETATM   11  O11 UNL     1     -35.407  16.844  -1.226  1.00 20.00    -0.250 OA
ENDROOT
TORSDOF 0
ENDMDL
