MODEL 1
REMARK VINA RESULT:      -5.0      0.000      0.000
REMARK  1 active torsions:
REMARK  status: ('A' for Active; 'I' for Inactive)
REMARK    1  A    between atoms: C6_6  and  C8_8 
ROOT
HETATM    1  C1  UNL     1     -34.437   5.925   5.835  1.00 20.00     0.061 C 
HETATM    2  C2  UNL     1     -33.518   5.414   2.651  1.00 20.00     0.066 C 
HETATM    3  C3  UNL     1     -33.683   7.214   5.421  1.00 20.00     0.170 C 
HETATM    4  C4  UNL     1     -34.979   5.314   4.603  1.00 20.00     0.153 A 
HETATM    5  C5  UNL     1     -33.827   4.649   3.874  1.00 20.00     0.153 A 
HETATM    6  C6  UNL     1     -33.225   6.896   3.043  1.00 20.00     0.123 C 
HETATM    7  O9  UNL     1     -32.694   7.018   4.385  1.00 20.00    -0.386 OA
HETATM    8  O10 UNL     1     -35.007   3.950   4.221  1.00 20.00    -0.375 OA
ENDROOT
BRANCH   6   9
HETATM    9  C8  UNL     1     -32.196   7.501   2.093  1.00 20.00     0.027 C 
HETATM   10  C7  UNL     1     -32.839   8.368   1.059  1.00 20.00     0.007 C 
ENDBRANCH   6   9
TORSDOF 1
ENDMDL
MODEL 2
REMARK VINA RESULT:      -4.6     11.605     12.479
REMARK  1 active torsions:
REMARK  status: ('A' for Active; 'I' for Inactive)
REMARK    1  A    between atoms: C6_6  and  C8_8 
ROOT
HETATM    1  C1  UNL     1     -35.812  14.438  -6.420  1.00 20.00     0.061 C 
HETATM    2  C2  UNL     1     -35.464  15.068  -3.145  1.00 20.00     0.066 C 
HETATM    3  C3  UNL     1     -34.418  15.102  -6.282  1.00 20.00     0.170 C 
HETATM    4  C4  UNL     1     -36.131  13.805  -5.123  1.00 20.00     0.153 A 
HETATM    5  C5  UNL     1     -36.524  14.905  -4.157  1.00 20.00     0.153 A 
HETATM    6  C6  UNL     1     -34.110  15.342  -3.871  1.00 20.00     0.123 C 
HETATM    7  O9  UNL     1     -34.293  15.993  -5.152  1.00 20.00    -0.386 OA
HETATM    8  O10 UNL     1     -37.357  13.790  -4.414  1.00 20.00    -0.375 OA
ENDROOT
BRANCH   6   9
HETATM    9  C8  UNL     1     -33.229  16.252  -3.022  1.00 20.00     0.027 C 
HETATM   10  C7  UNL     1     -33.999  16.891  -1.912  1.00 20.00     0.007 C 
ENDBRANCH   6   9
TORSDOF 1
ENDMDL
MODEL 3
REMARK VINA RESULT:      -4.3     10.938     12.065
REMARK  1 active torsions:
REMARK  status: ('A' for Active; 'I' for Inactive)
REMARK    1  A    between atoms: C6_6  and  C8_8 
ROOT
HETATM    1  C1  UNL     1     -37.409  14.685  -4.196  1.00 20.00     0.061 C 
HETATM    2  C2  UNL     1     -34.062  14.504  -4.119  1.00 20.00     0.066 C 
HETATM    3  C3  UNL     1     -36.931  16.144  -3.982  1.00 20.00     0.170 C 
HETATM    4  C4  UNL     1     -36.316  13.955  -4.873  1.00 20.00     0.153 A 
HETATM    5  C5  UNL     1     -35.244  13.669  -3.840  1.00 20.00     0.153 A 
HETATM    6  C6  UNL     1     -34.498  16.002  -4.153  1.00 20.00     0.123 C 
HETATM    7  O9  UNL     1     -35.653  16.260  -3.317  1.00 20.00    -0.386 OA
HETATM    8  O10 UNL     1     -35.829  12.648  -4.628  1.00 20.00    -0.375 OA
ENDROOT
BRANCH   6   9
HETATM    9  C8  UNL     1     -33.368  16.894  -3.650  1.00 20.00     0.027 C 
HETATM   10  C7  UNL     1     -33.390  17.030  -2.162  1.00 20.00     0.007 C 
ENDBRANCH   6   9
TORSDOF 1
ENDMDL
MODEL 4
REMARK VINA RESULT:      -4.2     11.419     12.684
REMARK  1 active torsions:
REMARK  status: ('A' for Active; 'I' for Inactive)
REMARK    1  A    between atoms: C6_6  and  C8_8 
ROOT
HETATM    1  C1  UNL     1     -36.617  15.717  -6.018  1.00 20.00     0.061 C 
HETATM    2  C2  UNL     1     -34.530  14.356  -3.774  1.00 20.00     0.066 C 
HETATM    3  C3  UNL     1     -35.705  16.883  -5.556  1.00 20.00     0.170 C 
HETATM    4  C4  UNL     1     -35.867  14.460  -5.813  1.00 20.00     0.153 A 
HETATM    5  C5  UNL     1     -35.882  14.153  -4.328  1.00 20.00     0.153 A 
HETATM    6  C6  UNL     1     -34.066  15.811  -4.096  1.00 20.00     0.123 C 
HETATM    7  O9  UNL     1     -35.178  16.731  -4.219  1.00 20.00    -0.386 OA
HETATM    8  O10 UNL     1     -36.324  13.222  -5.299  1.00 20.00    -0.375 OA
ENDROOT
BRANCH   6   9
HETATM    9  C8  UNL     1     -33.164  16.337  -2.985  1.00 20.00     0.027 C 
HETATM   10  C7  UNL     1     -33.953  16.966  -1.882  1.00 20.00     0.007 C 
ENDBRANCH   6   9
TORSDOF 1
ENDMDL
MODEL 5
REMARK VINA RESULT:      -3.9     11.704     12.729
REMARK  1 active torsions:
REMARK  status: ('A' for Active; 'I' for Inactive)
REMARK    1  A    between atoms: C6_6  and  C8_8 
ROOT
HETATM    1  C1  UNL     1     -33.741  18.586  -0.249  1.00 20.00     0.061 C 
HETATM    2  C2  UNL     1     -33.042  16.922  -3.074  1.00 20.00     0.066 C 
HETATM    3  C3  UNL     1     -34.840  17.499  -0.359  1.00 20.00     0.170 C 
HETATM    4  C4  UNL     1     -32.560  18.099  -0.993  1.00 20.00     0.153 A 
HETATM    5  C5  UNL     1     -32.852  18.255  -2.473  1.00 20.00     0.153 A 
HETATM    6  C6  UNL     1     -34.173  16.174  -2.300  1.00 20.00     0.123 C 
HETATM    7  O9  UNL     1     -35.134  17.085  -1.712  1.00 20.00    -0.386 OA
HETATM    8  O10 UNL     1     -31.700  18.809  -1.866  1.00 20.00    -0.375 OA
ENDROOT
BRANCH   6   9
HETATM    9  C8  UNL     1     -34.940  15.253  -3.241  1.00 20.00     0.027 C 
HETATM   10  C7  UNL     1     -34.020  14.431  -4.085  1.00 20.00     0.007 C 
ENDBRANCH   6   9
TORSDOF 1
ENDMDL
MODEL 6
REMARK VINA RESULT:      -3.8     11.792     12.521
REMARK  1 active torsions:
REMARK  status: ('A' for Active; 'I' for Inactive)
REMARK    1  A    between atoms: C6_6  and  C8_8 
ROOT
HETATM    1  C1  UNL     1     -33.798  15.637  -3.308  1.00 20.00     0.061 C 
HETATM    2  C2  UNL     1     -36.030  14.335  -5.445  1.00 20.00     0.066 C 
HETATM    3  C3  UNL     1     -35.165  15.760  -2.587  1.00 20.00     0.170 C 
HETATM    4  C4  UNL     1     -33.901  14.517  -4.266  1.00 20.00     0.153 A 
HETATM    5  C5  UNL     1     -34.713  14.999  -5.453  1.00 20.00     0.153 A 
HETATM    6  C6  UNL     1     -36.724  14.606  -4.074  1.00 20.00     0.123 C 
HETATM    7  O9  UNL     1     -36.300  15.857  -3.478  1.00 20.00    -0.386 OA
HETATM    8  O10 UNL     1     -33.423  14.434  -5.597  1.00 20.00    -0.375 OA
ENDROOT
BRANCH   6   9
HETATM    9  C8  UNL     1     -38.236  14.680  -4.251  1.00 20.00     0.027 C 
HETATM   10  C7  UNL     1     -38.658  15.966  -4.886  1.00 20.00     0.007 C 
ENDBRANCH   6   9
TORSDOF 1
ENDMDL
MODEL 7
REMARK VINA RESULT:      -3.7     10.910     12.522
REMARK  1 active torsions:
REMARK  status: ('A' for Active; 'I' for Inactive)
REMARK    1  A    between atoms: C6_6  and  C8_8 
ROOT
HETATM    1  C1  UNL     1     -33.938  14.481  -4.313  1.00 20.00     0.061 C 
HETATM    2  C2  UNL     1     -37.285  14.679  -4.370  1.00 20.00     0.066 C 
HETATM    3  C3  UNL     1     -34.257  15.980  -4.082  1.00 20.00     0.170 C 
HETATM    4  C4  UNL     1     -35.109  13.703  -3.856  1.00 20.00     0.153 A 
HETATM    5  C5  UNL     1     -36.194  13.843  -4.906  1.00 20.00     0.153 A 
HETATM    6  C6  UNL     1     -36.693  16.048  -3.910  1.00 20.00     0.123 C 
HETATM    7  O9  UNL     1     -35.509  16.417  -4.658  1.00 20.00    -0.386 OA
HETATM    8  O10 UNL     1     -35.728  12.583  -4.462  1.00 20.00    -0.375 OA
ENDROOT
BRANCH   6   9
HETATM    9  C8  UNL     1     -37.717  17.160  -4.108  1.00 20.00     0.027 C 
HETATM   10  C7  UNL     1     -39.046  16.800  -3.527  1.00 20.00     0.007 C 
ENDBRANCH   6   9
TORSDOF 1
ENDMDL
MODEL 8
REMARK VINA RESULT:      -3.7      8.959      9.591
REMARK  1 active torsions:
REMARK  status: ('A' for Active; 'I' for Inactive)
REMARK    1  A    between atoms: C6_6  and  C8_8 
ROOT
HETATM    1  C1  UNL     1     -42.767   4.798   0.553  1.00 20.00     0.061 C 
HETATM    2  C2  UNL     1     -41.470   7.368  -1.166  1.00 20.00     0.066 C 
HETATM    3  C3  UNL     1     -43.398   6.065   1.184  1.00 20.00     0.170 C 
HETATM    4  C4  UNL     1     -42.394   5.134  -0.837  1.00 20.00     0.153 A 
HETATM    5  C5  UNL     1     -41.138   5.982  -0.785  1.00 20.00     0.153 A 
HETATM    6  C6  UNL     1     -42.604   7.892  -0.231  1.00 20.00     0.123 C 
HETATM    7  O9  UNL     1     -42.585   7.255   1.070  1.00 20.00    -0.386 OA
HETATM    8  O10 UNL     1     -41.220   4.796  -1.553  1.00 20.00    -0.375 OA
ENDROOT
BRANCH   6   9
HETATM    9  C8  UNL     1     -42.452   9.392  -0.003  1.00 20.00     0.027 C 
HETATM   10  C7  UNL     1     -41.070   9.748   0.439  1.00 20.00     0.007 C 
ENDBRANCH   6   9
TORSDOF 1
ENDMDL
MODEL 9
REMARK VINA RESULT:      -3.7      1.348      2.173
REMARK  1 active torsions:
REMARK  status: ('A' for Active; 'I' for Inactive)
REMARK    1  A    between atoms: C6_6  and  C8_8 
ROOT
HETATM    1  C1  UNL     1     -34.614   4.251   4.087  1.00 20.00     0.061 C 
HETATM    2  C2  UNL     1     -33.307   7.277   4.700  1.00 20.00     0.066 C 
HETATM    3  C3  UNL     1     -33.704   4.552   2.869  1.00 20.00     0.170 C 
HETATM    4  C4  UNL     1     -34.094   5.030   5.231  1.00 20.00     0.153 A 
HETATM    5  C5  UNL     1     -34.502   6.476   5.026  1.00 20.00     0.153 A 
HETATM    6  C6  UNL     1     -32.605   6.654   3.454  1.00 20.00     0.123 C 
HETATM    7  O9  UNL     1     -33.534   5.959   2.586  1.00 20.00    -0.386 OA
HETATM    8  O10 UNL     1     -34.809   5.763   6.209  1.00 20.00    -0.375 OA
ENDROOT
BRANCH   6   9
HETATM    9  C8  UNL     1     -31.938   7.743   2.621  1.00 20.00     0.027 C 
HETATM   10  C7  UNL     1     -32.646   7.961   1.324  1.00 20.00     0.007 C 
ENDBRANCH   6   9
TORSDOF 1
ENDMDL
