MODEL 1
REMARK VINA RESULT:      -4.9      0.000      0.000
REMARK  1 active torsions:
REMARK  status: ('A' for Active; 'I' for Inactive)
REMARK    1  A    between atoms: C2_2  and  C9_9 
ROOT
HETATM    1  C1  UNL     1     -33.242  15.808  -3.768  1.00 20.00     0.057 A 
HETATM    2  C2  UNL     1     -34.138  15.987  -2.792  1.00 20.00    -0.069 A 
HETATM    3  C3  UNL     1     -33.796  14.764  -4.637  1.00 20.00     0.189 A 
HETATM    4  C4  UNL     1     -35.368  15.132  -2.896  1.00 20.00     0.086 A 
HETATM    5  C5  UNL     1     -35.115  14.251  -4.119  1.00 20.00     0.167 A 
HETATM    6  C6  UNL     1     -36.210  14.337  -5.165  1.00 20.00     0.061 C 
HETATM    7  O10 UNL     1     -33.220  14.353  -5.634  1.00 20.00    -0.290 OA
HETATM    8  F11 UNL     1     -34.995  12.956  -3.721  1.00 20.00    -0.234 F 
ENDROOT
BRANCH   2   9
HETATM    9  C9  UNL     1     -34.001  16.953  -1.667  1.00 20.00     0.006 C 
HETATM   10  C7  UNL     1     -33.731  18.361  -2.196  1.00 20.00     0.014 C 
HETATM   11  C8  UNL     1     -35.246  16.943  -0.777  1.00 20.00     0.014 C 
ENDBRANCH   2   9
TORSDOF 1
ENDMDL
MODEL 2
REMARK VINA RESULT:      -4.8      0.586      1.177
REMARK  1 active torsions:
REMARK  status: ('A' for Active; 'I' for Inactive)
REMARK    1  A    between atoms: C2_2  and  C9_9 
ROOT
HETATM    1  C1  UNL     1     -33.224  15.818  -3.378  1.00 20.00     0.057 A 
HETATM    2  C2  UNL     1     -34.356  16.211  -2.786  1.00 20.00    -0.069 A 
HETATM    3  C3  UNL     1     -33.600  14.717  -4.274  1.00 20.00     0.189 A 
HETATM    4  C4  UNL     1     -35.587  15.465  -3.211  1.00 20.00     0.086 A 
HETATM    5  C5  UNL     1     -35.071  14.403  -4.182  1.00 20.00     0.167 A 
HETATM    6  C6  UNL     1     -35.747  14.442  -5.539  1.00 20.00     0.061 C 
HETATM    7  O10 UNL     1     -32.792  14.122  -4.971  1.00 20.00    -0.290 OA
HETATM    8  F11 UNL     1     -35.258  13.171  -3.637  1.00 20.00    -0.234 F 
ENDROOT
BRANCH   2   9
HETATM    9  C9  UNL     1     -34.465  17.308  -1.784  1.00 20.00     0.006 C 
HETATM   10  C7  UNL     1     -35.296  16.859  -0.582  1.00 20.00     0.014 C 
HETATM   11  C8  UNL     1     -33.082  17.783  -1.334  1.00 20.00     0.014 C 
ENDBRANCH   2   9
TORSDOF 1
ENDMDL
MODEL 3
REMARK VINA RESULT:      -4.7      2.080      2.444
REMARK  1 active torsions:
REMARK  status: ('A' for Active; 'I' for Inactive)
REMARK    1  A    between atoms: C2_2  and  C9_9 
ROOT
HETATM    1  C1  UNL     1     -35.218  14.532  -3.852  1.00 20.00     0.057 A 
HETATM    2  C2  UNL     1     -34.516  15.653  -3.662  1.00 20.00    -0.069 A 
HETATM    3  C3  UNL     1     -35.488  14.465  -5.294  1.00 20.00     0.189 A 
HETATM    4  C4  UNL     1     -34.221  16.436  -4.909  1.00 20.00     0.086 A 
HETATM    5  C5  UNL     1     -34.932  15.663  -6.019  1.00 20.00     0.167 A 
HETATM    6  C6  UNL     1     -34.017  15.263  -7.161  1.00 20.00     0.061 C 
HETATM    7  O10 UNL     1     -36.119  13.556  -5.810  1.00 20.00    -0.290 OA
HETATM    8  F11 UNL     1     -35.942  16.425  -6.518  1.00 20.00    -0.234 F 
ENDROOT
BRANCH   2   9
HETATM    9  C9  UNL     1     -34.019  16.142  -2.347  1.00 20.00     0.006 C 
HETATM   10  C7  UNL     1     -32.993  17.259  -2.540  1.00 20.00     0.014 C 
HETATM   11  C8  UNL     1     -35.174  16.620  -1.464  1.00 20.00     0.014 C 
ENDBRANCH   2   9
TORSDOF 1
ENDMDL
MODEL 4
REMARK VINA RESULT:      -4.7      1.763      2.063
REMARK  1 active torsions:
REMARK  status: ('A' for Active; 'I' for Inactive)
REMARK    1  A    between atoms: C2_2  and  C9_9 
ROOT
HETATM    1  C1  UNL     1     -34.755  14.263  -3.610  1.00 20.00     0.057 A 
HETATM    2  C2  UNL     1     -34.976  15.489  -3.125  1.00 20.00    -0.069 A 
HETATM    3  C3  UNL     1     -35.917  13.947  -4.450  1.00 20.00     0.189 A 
HETATM    4  C4  UNL     1     -36.255  16.131  -3.581  1.00 20.00     0.086 A 
HETATM    5  C5  UNL     1     -36.932  15.061  -4.437  1.00 20.00     0.167 A 
HETATM    6  C6  UNL     1     -37.276  15.533  -5.837  1.00 20.00     0.061 C 
HETATM    7  O10 UNL     1     -36.037  12.887  -5.046  1.00 20.00    -0.290 OA
HETATM    8  F11 UNL     1     -38.074  14.653  -3.823  1.00 20.00    -0.234 F 
ENDROOT
BRANCH   2   9
HETATM    9  C9  UNL     1     -34.062  16.229  -2.212  1.00 20.00     0.006 C 
HETATM   10  C7  UNL     1     -33.120  17.132  -3.009  1.00 20.00     0.014 C 
HETATM   11  C8  UNL     1     -34.850  17.046  -1.186  1.00 20.00     0.014 C 
ENDBRANCH   2   9
TORSDOF 1
ENDMDL
MODEL 5
REMARK VINA RESULT:      -4.7      1.558      2.443
REMARK  1 active torsions:
REMARK  status: ('A' for Active; 'I' for Inactive)
REMARK    1  A    between atoms: C2_2  and  C9_9 
ROOT
HETATM    1  C1  UNL     1     -35.200  15.300  -2.681  1.00 20.00     0.057 A 
HETATM    2  C2  UNL     1     -34.349  16.326  -2.574  1.00 20.00    -0.069 A 
HETATM    3  C3  UNL     1     -34.691  14.468  -3.778  1.00 20.00     0.189 A 
HETATM    4  C4  UNL     1     -33.197  16.297  -3.536  1.00 20.00     0.086 A 
HETATM    5  C5  UNL     1     -33.455  15.064  -4.401  1.00 20.00     0.167 A 
HETATM    6  C6  UNL     1     -32.297  14.084  -4.420  1.00 20.00     0.061 C 
HETATM    7  O10 UNL     1     -35.242  13.440  -4.143  1.00 20.00    -0.290 OA
HETATM    8  F11 UNL     1     -33.712  15.458  -5.677  1.00 20.00    -0.234 F 
ENDROOT
BRANCH   2   9
HETATM    9  C9  UNL     1     -34.465  17.438  -1.591  1.00 20.00     0.006 C 
HETATM   10  C7  UNL     1     -35.318  17.015  -0.396  1.00 20.00     0.014 C 
HETATM   11  C8  UNL     1     -33.085  17.909  -1.127  1.00 20.00     0.014 C 
ENDBRANCH   2   9
TORSDOF 1
ENDMDL
MODEL 6
REMARK VINA RESULT:      -4.6      2.948      4.678
REMARK  1 active torsions:
REMARK  status: ('A' for Active; 'I' for Inactive)
REMARK    1  A    between atoms: C2_2  and  C9_9 
ROOT
HETATM    1  C1  UNL     1     -34.921  16.544  -1.574  1.00 20.00     0.057 A 
HETATM    2  C2  UNL     1     -34.230  16.017  -2.590  1.00 20.00    -0.069 A 
HETATM    3  C3  UNL     1     -34.145  17.704  -1.118  1.00 20.00     0.189 A 
HETATM    4  C4  UNL     1     -32.965  16.745  -2.942  1.00 20.00     0.086 A 
HETATM    5  C5  UNL     1     -32.869  17.862  -1.903  1.00 20.00     0.167 A 
HETATM    6  C6  UNL     1     -32.742  19.246  -2.511  1.00 20.00     0.061 C 
HETATM    7  O10 UNL     1     -34.497  18.416  -0.189  1.00 20.00    -0.290 OA
HETATM    8  F11 UNL     1     -31.791  17.638  -1.104  1.00 20.00    -0.234 F 
ENDROOT
BRANCH   2   9
HETATM    9  C9  UNL     1     -34.632  14.814  -3.369  1.00 20.00     0.006 C 
HETATM   10  C7  UNL     1     -36.075  14.945  -3.858  1.00 20.00     0.014 C 
HETATM   11  C8  UNL     1     -33.685  14.577  -4.547  1.00 20.00     0.014 C 
ENDBRANCH   2   9
TORSDOF 1
ENDMDL
MODEL 7
REMARK VINA RESULT:      -4.6      2.991      4.641
REMARK  1 active torsions:
REMARK  status: ('A' for Active; 'I' for Inactive)
REMARK    1  A    between atoms: C2_2  and  C9_9 
ROOT
HETATM    1  C1  UNL     1     -32.926  16.920  -2.674  1.00 20.00     0.057 A 
HETATM    2  C2  UNL     1     -34.076  16.318  -2.355  1.00 20.00    -0.069 A 
HETATM    3  C3  UNL     1     -32.775  18.031  -1.727  1.00 20.00     0.189 A 
HETATM    4  C4  UNL     1     -34.801  16.917  -1.185  1.00 20.00     0.086 A 
HETATM    5  C5  UNL     1     -33.950  18.123  -0.788  1.00 20.00     0.167 A 
HETATM    6  C6  UNL     1     -33.519  18.108   0.667  1.00 20.00     0.061 C 
HETATM    7  O10 UNL     1     -31.822  18.795  -1.743  1.00 20.00    -0.290 OA
HETATM    8  F11 UNL     1     -34.654  19.263  -1.021  1.00 20.00    -0.234 F 
ENDROOT
BRANCH   2   9
HETATM    9  C9  UNL     1     -34.648  15.134  -3.052  1.00 20.00     0.006 C 
HETATM   10  C7  UNL     1     -36.039  15.450  -3.600  1.00 20.00     0.014 C 
HETATM   11  C8  UNL     1     -33.724  14.655  -4.175  1.00 20.00     0.014 C 
ENDBRANCH   2   9
TORSDOF 1
ENDMDL
MODEL 8
REMARK VINA RESULT:      -4.4      2.647      3.497
REMARK  1 active torsions:
REMARK  status: ('A' for Active; 'I' for Inactive)
REMARK    1  A    between atoms: C2_2  and  C9_9 
ROOT
HETATM    1  C1  UNL     1     -35.866  14.399  -4.163  1.00 20.00     0.057 A 
HETATM    2  C2  UNL     1     -35.269  15.595  -4.193  1.00 20.00    -0.069 A 
HETATM    3  C3  UNL     1     -37.299  14.660  -4.342  1.00 20.00     0.189 A 
HETATM    4  C4  UNL     1     -36.191  16.759  -4.411  1.00 20.00     0.086 A 
HETATM    5  C5  UNL     1     -37.586  16.135  -4.454  1.00 20.00     0.167 A 
HETATM    6  C6  UNL     1     -38.362  16.471  -5.713  1.00 20.00     0.061 C 
HETATM    7  O10 UNL     1     -38.139  13.773  -4.359  1.00 20.00    -0.290 OA
HETATM    8  F11 UNL     1     -38.299  16.561  -3.377  1.00 20.00    -0.234 F 
ENDROOT
BRANCH   2   9
HETATM    9  C9  UNL     1     -33.806  15.828  -4.046  1.00 20.00     0.006 C 
HETATM   10  C7  UNL     1     -33.482  16.354  -2.648  1.00 20.00     0.014 C 
HETATM   11  C8  UNL     1     -33.012  14.553  -4.338  1.00 20.00     0.014 C 
ENDBRANCH   2   9
TORSDOF 1
ENDMDL
MODEL 9
REMARK VINA RESULT:      -4.3      2.109      2.277
REMARK  1 active torsions:
REMARK  status: ('A' for Active; 'I' for Inactive)
REMARK    1  A    between atoms: C2_2  and  C9_9 
ROOT
HETATM    1  C1  UNL     1     -34.234  17.257  -4.751  1.00 20.00     0.057 A 
HETATM    2  C2  UNL     1     -34.074  16.200  -3.948  1.00 20.00    -0.069 A 
HETATM    3  C3  UNL     1     -34.489  16.711  -6.090  1.00 20.00     0.189 A 
HETATM    4  C4  UNL     1     -34.219  14.865  -4.621  1.00 20.00     0.086 A 
HETATM    5  C5  UNL     1     -34.443  15.205  -6.094  1.00 20.00     0.167 A 
HETATM    6  C6  UNL     1     -35.709  14.598  -6.670  1.00 20.00     0.061 C 
HETATM    7  O10 UNL     1     -34.678  17.416  -7.070  1.00 20.00    -0.290 OA
HETATM    8  F11 UNL     1     -33.380  14.767  -6.820  1.00 20.00    -0.234 F 
ENDROOT
BRANCH   2   9
HETATM    9  C9  UNL     1     -33.788  16.266  -2.489  1.00 20.00     0.006 C 
HETATM   10  C7  UNL     1     -32.879  17.453  -2.171  1.00 20.00     0.014 C 
HETATM   11  C8  UNL     1     -35.082  16.347  -1.676  1.00 20.00     0.014 C 
ENDBRANCH   2   9
TORSDOF 1
ENDMDL
