MODEL 1
REMARK VINA RESULT:      -4.0      0.000      0.000
REMARK  1 active torsions:
REMARK  status: ('A' for Active; 'I' for Inactive)
REMARK    1  A    between atoms: C4_4  and  C8_8 
ROOT
HETATM    1  C1  UNL     1     -25.138  18.263  11.947  1.00 20.00     0.302 C 
HETATM    2  C2  UNL     1     -25.422  18.578  10.475  1.00 20.00     0.302 C 
HETATM    3  C3  UNL     1     -22.909  17.574  11.366  1.00 20.00     0.307 C 
HETATM    4  C4  UNL     1     -23.173  17.889   9.875  1.00 20.00     0.250 C 
HETATM    5  C6  UNL     1     -24.602  15.895  11.843  1.00 20.00     0.310 C 
HETATM    6  C7  UNL     1     -24.523  19.263   8.361  1.00 20.00     0.310 C 
HETATM    7  N9  UNL     1     -24.109  17.239  12.140  1.00 20.00     0.088 N 
HETATM    8  N10 UNL     1     -24.195  18.950   9.755  1.00 20.00     0.092 N 
ENDROOT
BRANCH   4   9
HETATM    9  C8  UNL     1     -21.840  18.285   9.225  1.00 20.00     0.033 C 
HETATM   10  C5  UNL     1     -21.405  17.277   8.216  1.00 20.00     0.007 C 
ENDBRANCH   4   9
TORSDOF 1
ENDMDL
MODEL 2
REMARK VINA RESULT:      -3.7      1.316      3.368
REMARK  1 active torsions:
REMARK  status: ('A' for Active; 'I' for Inactive)
REMARK    1  A    between atoms: C4_4  and  C8_8 
ROOT
HETATM    1  C1  UNL     1     -23.434  18.149   8.118  1.00 20.00     0.302 C 
HETATM    2  C2  UNL     1     -24.432  19.059   8.841  1.00 20.00     0.302 C 
HETATM    3  C3  UNL     1     -23.101  16.906  10.149  1.00 20.00     0.307 C 
HETATM    4  C4  UNL     1     -24.107  17.810  10.898  1.00 20.00     0.250 C 
HETATM    5  C6  UNL     1     -21.416  18.502   9.425  1.00 20.00     0.310 C 
HETATM    6  C7  UNL     1     -26.056  19.263  10.592  1.00 20.00     0.310 C 
HETATM    7  N9  UNL     1     -22.439  17.545   9.007  1.00 20.00     0.088 N 
HETATM    8  N10 UNL     1     -25.099  18.358   9.950  1.00 20.00     0.092 N 
ENDROOT
BRANCH   4   9
HETATM    9  C8  UNL     1     -24.760  16.981  12.013  1.00 20.00     0.033 C 
HETATM   10  C5  UNL     1     -24.651  15.520  11.741  1.00 20.00     0.007 C 
ENDBRANCH   4   9
TORSDOF 1
ENDMDL
MODEL 3
REMARK VINA RESULT:      -3.5      1.140      4.193
REMARK  1 active torsions:
REMARK  status: ('A' for Active; 'I' for Inactive)
REMARK    1  A    between atoms: C4_4  and  C8_8 
ROOT
HETATM    1  C1  UNL     1     -22.873  18.341   9.244  1.00 20.00     0.302 C 
HETATM    2  C2  UNL     1     -23.198  17.014   9.935  1.00 20.00     0.302 C 
HETATM    3  C3  UNL     1     -24.944  19.263  10.048  1.00 20.00     0.307 C 
HETATM    4  C4  UNL     1     -25.290  17.933  10.757  1.00 20.00     0.250 C 
HETATM    5  C6  UNL     1     -24.756  18.572   7.724  1.00 20.00     0.310 C 
HETATM    6  C7  UNL     1     -24.311  15.920  11.754  1.00 20.00     0.310 C 
HETATM    7  N9  UNL     1     -24.060  19.122   8.886  1.00 20.00     0.088 N 
HETATM    8  N10 UNL     1     -24.050  17.213  11.118  1.00 20.00     0.092 N 
ENDROOT
BRANCH   4   9
HETATM    9  C8  UNL     1     -26.157  18.253  11.982  1.00 20.00     0.033 C 
HETATM   10  C5  UNL     1     -27.222  19.242  11.652  1.00 20.00     0.007 C 
ENDBRANCH   4   9
TORSDOF 1
ENDMDL
MODEL 4
REMARK VINA RESULT:      -3.5     17.361     19.003
REMARK  1 active torsions:
REMARK  status: ('A' for Active; 'I' for Inactive)
REMARK    1  A    between atoms: C4_4  and  C8_8 
ROOT
HETATM    1  C1  UNL     1     -36.481  15.620  -5.899  1.00 20.00     0.302 C 
HETATM    2  C2  UNL     1     -35.217  14.782  -5.685  1.00 20.00     0.302 C 
HETATM    3  C3  UNL     1     -36.399  16.325  -3.602  1.00 20.00     0.307 C 
HETATM    4  C4  UNL     1     -35.120  15.489  -3.364  1.00 20.00     0.250 C 
HETATM    5  C6  UNL     1     -38.002  14.628  -4.283  1.00 20.00     0.310 C 
HETATM    6  C7  UNL     1     -33.162  14.525  -4.478  1.00 20.00     0.310 C 
HETATM    7  N9  UNL     1     -37.263  15.826  -4.677  1.00 20.00     0.088 N 
HETATM    8  N10 UNL     1     -34.365  15.348  -4.627  1.00 20.00     0.092 N 
ENDROOT
BRANCH   4   9
HETATM    9  C8  UNL     1     -34.296  16.174  -2.264  1.00 20.00     0.033 C 
HETATM   10  C5  UNL     1     -35.172  16.730  -1.194  1.00 20.00     0.007 C 
ENDBRANCH   4   9
TORSDOF 1
ENDMDL
MODEL 5
REMARK VINA RESULT:      -3.5     23.204     24.054
REMARK  1 active torsions:
REMARK  status: ('A' for Active; 'I' for Inactive)
REMARK    1  A    between atoms: C4_4  and  C8_8 
ROOT
HETATM    1  C1  UNL     1     -43.417   8.531   0.048  1.00 20.00     0.302 C 
HETATM    2  C2  UNL     1     -43.388   7.340   1.011  1.00 20.00     0.302 C 
HETATM    3  C3  UNL     1     -41.521   7.628  -1.123  1.00 20.00     0.307 C 
HETATM    4  C4  UNL     1     -41.475   6.414  -0.164  1.00 20.00     0.250 C 
HETATM    5  C6  UNL     1     -41.215   9.498   0.401  1.00 20.00     0.310 C 
HETATM    6  C7  UNL     1     -42.841   5.028   1.324  1.00 20.00     0.310 C 
HETATM    7  N9  UNL     1     -42.114   8.839  -0.545  1.00 20.00     0.088 N 
HETATM    8  N10 UNL     1     -42.826   6.141   0.371  1.00 20.00     0.092 N 
ENDROOT
BRANCH   4   9
HETATM    9  C8  UNL     1     -40.897   5.217  -0.932  1.00 20.00     0.033 C 
HETATM   10  C5  UNL     1     -41.881   4.670  -1.909  1.00 20.00     0.007 C 
ENDBRANCH   4   9
TORSDOF 1
ENDMDL
MODEL 6
REMARK VINA RESULT:      -3.4     15.970     17.607
REMARK  1 active torsions:
REMARK  status: ('A' for Active; 'I' for Inactive)
REMARK    1  A    between atoms: C4_4  and  C8_8 
ROOT
HETATM    1  C1  UNL     1     -34.993  14.103  -4.008  1.00 20.00     0.302 C 
HETATM    2  C2  UNL     1     -35.803  15.223  -3.348  1.00 20.00     0.302 C 
HETATM    3  C3  UNL     1     -33.000  15.435  -3.816  1.00 20.00     0.307 C 
HETATM    4  C4  UNL     1     -33.798  16.577  -3.144  1.00 20.00     0.250 C 
HETATM    5  C6  UNL     1     -34.110  15.233  -5.971  1.00 20.00     0.310 C 
HETATM    6  C7  UNL     1     -35.797  17.066  -1.815  1.00 20.00     0.310 C 
HETATM    7  N9  UNL     1     -33.794  14.577  -4.703  1.00 20.00     0.088 N 
HETATM    8  N10 UNL     1     -34.973  16.026  -2.437  1.00 20.00     0.092 N 
ENDROOT
BRANCH   4   9
HETATM    9  C8  UNL     1     -32.851  17.335  -2.203  1.00 20.00     0.033 C 
HETATM   10  C5  UNL     1     -32.546  18.700  -2.719  1.00 20.00     0.007 C 
ENDBRANCH   4   9
TORSDOF 1
ENDMDL
MODEL 7
REMARK VINA RESULT:      -3.4     17.307     18.854
REMARK  1 active torsions:
REMARK  status: ('A' for Active; 'I' for Inactive)
REMARK    1  A    between atoms: C4_4  and  C8_8 
ROOT
HETATM    1  C1  UNL     1     -37.396  14.418  -4.491  1.00 20.00     0.302 C 
HETATM    2  C2  UNL     1     -37.483  15.900  -4.113  1.00 20.00     0.302 C 
HETATM    3  C3  UNL     1     -35.069  14.402  -3.886  1.00 20.00     0.307 C 
HETATM    4  C4  UNL     1     -35.134  15.898  -3.494  1.00 20.00     0.250 C 
HETATM    5  C6  UNL     1     -35.702  14.458  -6.233  1.00 20.00     0.310 C 
HETATM    6  C7  UNL     1     -36.645  17.669  -2.729  1.00 20.00     0.310 C 
HETATM    7  N9  UNL     1     -36.054  13.992  -4.893  1.00 20.00     0.088 N 
HETATM    8  N10 UNL     1     -36.506  16.251  -3.070  1.00 20.00     0.092 N 
ENDROOT
BRANCH   4   9
HETATM    9  C8  UNL     1     -34.098  16.151  -2.391  1.00 20.00     0.033 C 
HETATM   10  C5  UNL     1     -32.946  16.950  -2.899  1.00 20.00     0.007 C 
ENDBRANCH   4   9
TORSDOF 1
ENDMDL
MODEL 8
REMARK VINA RESULT:      -3.4     17.871     19.644
REMARK  1 active torsions:
REMARK  status: ('A' for Active; 'I' for Inactive)
REMARK    1  A    between atoms: C4_4  and  C8_8 
ROOT
HETATM    1  C1  UNL     1     -34.574  15.744  -7.168  1.00 20.00     0.302 C 
HETATM    2  C2  UNL     1     -35.553  14.740  -6.552  1.00 20.00     0.302 C 
HETATM    3  C3  UNL     1     -34.400  16.870  -5.050  1.00 20.00     0.307 C 
HETATM    4  C4  UNL     1     -35.384  15.864  -4.406  1.00 20.00     0.250 C 
HETATM    5  C6  UNL     1     -35.749  17.844  -6.823  1.00 20.00     0.310 C 
HETATM    6  C7  UNL     1     -36.259  13.582  -4.576  1.00 20.00     0.310 C 
HETATM    7  N9  UNL     1     -34.568  17.046  -6.496  1.00 20.00     0.088 N 
HETATM    8  N10 UNL     1     -35.315  14.566  -5.111  1.00 20.00     0.092 N 
ENDROOT
BRANCH   4   9
HETATM    9  C8  UNL     1     -35.038  15.740  -2.916  1.00 20.00     0.033 C 
HETATM   10  C5  UNL     1     -33.649  16.207  -2.639  1.00 20.00     0.007 C 
ENDBRANCH   4   9
TORSDOF 1
ENDMDL
MODEL 9
REMARK VINA RESULT:      -3.4     17.983     19.518
REMARK  1 active torsions:
REMARK  status: ('A' for Active; 'I' for Inactive)
REMARK    1  A    between atoms: C4_4  and  C8_8 
ROOT
HETATM    1  C1  UNL     1     -37.154  16.559  -5.503  1.00 20.00     0.302 C 
HETATM    2  C2  UNL     1     -36.214  15.908  -6.523  1.00 20.00     0.302 C 
HETATM    3  C3  UNL     1     -35.828  15.659  -3.711  1.00 20.00     0.307 C 
HETATM    4  C4  UNL     1     -34.864  14.996  -4.723  1.00 20.00     0.250 C 
HETATM    5  C6  UNL     1     -37.954  14.622  -4.272  1.00 20.00     0.310 C 
HETATM    6  C7  UNL     1     -33.990  15.157  -7.007  1.00 20.00     0.310 C 
HETATM    7  N9  UNL     1     -37.190  15.867  -4.213  1.00 20.00     0.088 N 
HETATM    8  N10 UNL     1     -34.852  15.762  -5.987  1.00 20.00     0.092 N 
ENDROOT
BRANCH   4   9
HETATM    9  C8  UNL     1     -33.473  14.911  -4.078  1.00 20.00     0.033 C 
HETATM   10  C5  UNL     1     -33.191  16.108  -3.235  1.00 20.00     0.007 C 
ENDBRANCH   4   9
TORSDOF 1
ENDMDL
