MODEL 1
REMARK VINA RESULT:      -5.5      0.000      0.000
REMARK  0 active torsions:
REMARK  status: ('A' for Active; 'I' for Inactive)
ROOT
HETATM    1  C1  UNL     1     -33.411   5.549   2.777  1.00 20.00     0.082 C 
HETATM    2  C2  UNL     1     -34.139   5.631   3.886  1.00 20.00    -0.050 C 
HETATM    3  C3  UNL     1     -32.656   6.814   2.711  1.00 20.00     0.171 C 
HETATM    4  C4  UNL     1     -34.839   4.598   4.700  1.00 20.00     0.036 C 
HETATM    5  C5  UNL     1     -32.871   7.645   3.956  1.00 20.00     0.094 C 
HETATM    6  C6  UNL     1     -34.860   5.243   6.095  1.00 20.00     0.005 C 
HETATM    7  C7  UNL     1     -33.867   6.414   6.038  1.00 20.00     0.010 C 
HETATM    8  C8  UNL     1     -34.036   6.929   4.621  1.00 20.00     0.023 C 
HETATM    9  O9  UNL     1     -31.916   7.123   1.790  1.00 20.00    -0.291 OA
HETATM   10 CL10 UNL     1     -33.148   4.241   1.752  1.00 20.00    -0.080 Cl
ENDROOT
TORSDOF 0
ENDMDL
MODEL 2
REMARK VINA RESULT:      -4.7     12.135     12.906
REMARK  0 active torsions:
REMARK  status: ('A' for Active; 'I' for Inactive)
ROOT
HETATM    1  C1  UNL     1     -34.462  15.510  -5.659  1.00 20.00     0.082 C 
HETATM    2  C2  UNL     1     -34.057  15.707  -4.408  1.00 20.00    -0.050 C 
HETATM    3  C3  UNL     1     -35.495  14.461  -5.574  1.00 20.00     0.171 C 
HETATM    4  C4  UNL     1     -33.308  16.822  -3.765  1.00 20.00     0.036 C 
HETATM    5  C5  UNL     1     -35.803  14.113  -4.135  1.00 20.00     0.094 C 
HETATM    6  C6  UNL     1     -33.782  16.733  -2.305  1.00 20.00     0.005 C 
HETATM    7  C7  UNL     1     -35.014  15.817  -2.313  1.00 20.00     0.010 C 
HETATM    8  C8  UNL     1     -34.672  14.803  -3.389  1.00 20.00     0.023 C 
HETATM    9  O9  UNL     1     -36.061  13.977  -6.542  1.00 20.00    -0.291 OA
HETATM   10 CL10 UNL     1     -34.118  16.384  -7.055  1.00 20.00    -0.080 Cl
ENDROOT
TORSDOF 0
ENDMDL
MODEL 3
REMARK VINA RESULT:      -4.7     11.590     12.373
REMARK  0 active torsions:
REMARK  status: ('A' for Active; 'I' for Inactive)
ROOT
HETATM    1  C1  UNL     1     -36.686  14.874  -4.076  1.00 20.00     0.082 C 
HETATM    2  C2  UNL     1     -35.997  15.918  -3.629  1.00 20.00    -0.050 C 
HETATM    3  C3  UNL     1     -35.689  13.806  -4.278  1.00 20.00     0.171 C 
HETATM    4  C4  UNL     1     -36.417  17.165  -2.928  1.00 20.00     0.036 C 
HETATM    5  C5  UNL     1     -34.326  14.232  -3.782  1.00 20.00     0.094 C 
HETATM    6  C6  UNL     1     -35.148  17.539  -2.144  1.00 20.00     0.005 C 
HETATM    7  C7  UNL     1     -34.244  16.298  -2.181  1.00 20.00     0.010 C 
HETATM    8  C8  UNL     1     -34.517  15.723  -3.558  1.00 20.00     0.023 C 
HETATM    9  O9  UNL     1     -35.948  12.705  -4.739  1.00 20.00    -0.291 OA
HETATM   10 CL10 UNL     1     -38.349  14.642  -4.182  1.00 20.00    -0.080 Cl
ENDROOT
TORSDOF 0
ENDMDL
MODEL 4
REMARK VINA RESULT:      -4.7      2.763      4.097
REMARK  0 active torsions:
REMARK  status: ('A' for Active; 'I' for Inactive)
ROOT
HETATM    1  C1  UNL     1     -34.046   6.537   5.234  1.00 20.00     0.082 C 
HETATM    2  C2  UNL     1     -33.751   6.514   3.938  1.00 20.00    -0.050 C 
HETATM    3  C3  UNL     1     -34.731   5.258   5.501  1.00 20.00     0.171 C 
HETATM    4  C4  UNL     1     -32.794   7.308   3.118  1.00 20.00     0.036 C 
HETATM    5  C5  UNL     1     -34.715   4.365   4.282  1.00 20.00     0.094 C 
HETATM    6  C6  UNL     1     -32.485   6.346   1.959  1.00 20.00     0.005 C 
HETATM    7  C7  UNL     1     -33.005   4.969   2.397  1.00 20.00     0.010 C 
HETATM    8  C8  UNL     1     -34.249   5.317   3.193  1.00 20.00     0.023 C 
HETATM    9  O9  UNL     1     -35.201   4.946   6.584  1.00 20.00    -0.291 OA
HETATM   10 CL10 UNL     1     -33.568   7.618   6.432  1.00 20.00    -0.080 Cl
ENDROOT
TORSDOF 0
ENDMDL
MODEL 5
REMARK VINA RESULT:      -4.4     16.219     16.652
REMARK  0 active torsions:
REMARK  status: ('A' for Active; 'I' for Inactive)
ROOT
HETATM    1  C1  UNL     1     -24.427  17.212  10.950  1.00 20.00     0.082 C 
HETATM    2  C2  UNL     1     -23.602  17.614   9.989  1.00 20.00    -0.050 C 
HETATM    3  C3  UNL     1     -25.482  18.242  11.014  1.00 20.00     0.171 C 
HETATM    4  C4  UNL     1     -22.558  16.897   9.205  1.00 20.00     0.036 C 
HETATM    5  C5  UNL     1     -25.320  19.259   9.908  1.00 20.00     0.094 C 
HETATM    6  C6  UNL     1     -22.514  17.710   7.901  1.00 20.00     0.005 C 
HETATM    7  C7  UNL     1     -23.771  18.593   7.908  1.00 20.00     0.010 C 
HETATM    8  C8  UNL     1     -23.933  18.937   9.377  1.00 20.00     0.023 C 
HETATM    9  O9  UNL     1     -26.393  18.238  11.827  1.00 20.00    -0.291 OA
HETATM   10 CL10 UNL     1     -24.483  15.753  11.786  1.00 20.00    -0.080 Cl
ENDROOT
TORSDOF 0
ENDMDL
MODEL 6
REMARK VINA RESULT:      -4.4     12.001     12.780
REMARK  0 active torsions:
REMARK  status: ('A' for Active; 'I' for Inactive)
ROOT
HETATM    1  C1  UNL     1     -33.083  17.785  -1.197  1.00 20.00     0.082 C 
HETATM    2  C2  UNL     1     -33.587  17.110  -2.225  1.00 20.00    -0.050 C 
HETATM    3  C3  UNL     1     -34.198  17.933  -0.242  1.00 20.00     0.171 C 
HETATM    4  C4  UNL     1     -32.943  16.354  -3.335  1.00 20.00     0.036 C 
HETATM    5  C5  UNL     1     -35.416  17.165  -0.702  1.00 20.00     0.094 C 
HETATM    6  C6  UNL     1     -34.027  15.326  -3.700  1.00 20.00     0.005 C 
HETATM    7  C7  UNL     1     -35.040  15.348  -2.546  1.00 20.00     0.010 C 
HETATM    8  C8  UNL     1     -35.049  16.808  -2.133  1.00 20.00     0.023 C 
HETATM    9  O9  UNL     1     -34.123  18.554   0.806  1.00 20.00    -0.291 OA
HETATM   10 CL10 UNL     1     -31.489  18.201  -0.856  1.00 20.00    -0.080 Cl
ENDROOT
TORSDOF 0
ENDMDL
MODEL 7
REMARK VINA RESULT:      -4.3     16.439     17.093
REMARK  0 active torsions:
REMARK  status: ('A' for Active; 'I' for Inactive)
ROOT
HETATM    1  C1  UNL     1     -24.764  18.458   9.453  1.00 20.00     0.082 C 
HETATM    2  C2  UNL     1     -23.594  17.838   9.332  1.00 20.00    -0.050 C 
HETATM    3  C3  UNL     1     -25.029  18.511  10.903  1.00 20.00     0.171 C 
HETATM    4  C4  UNL     1     -22.616  17.761   8.211  1.00 20.00     0.036 C 
HETATM    5  C5  UNL     1     -23.851  17.991  11.694  1.00 20.00     0.094 C 
HETATM    6  C6  UNL     1     -21.293  17.508   8.951  1.00 20.00     0.005 C 
HETATM    7  C7  UNL     1     -21.567  17.815  10.431  1.00 20.00     0.010 C 
HETATM    8  C8  UNL     1     -22.999  17.347  10.612  1.00 20.00     0.023 C 
HETATM    9  O9  UNL     1     -26.051  18.964  11.396  1.00 20.00    -0.291 OA
HETATM   10 CL10 UNL     1     -25.686  19.260   8.296  1.00 20.00    -0.080 Cl
ENDROOT
TORSDOF 0
ENDMDL
MODEL 8
REMARK VINA RESULT:      -4.3     11.770     12.357
REMARK  0 active torsions:
REMARK  status: ('A' for Active; 'I' for Inactive)
ROOT
HETATM    1  C1  UNL     1     -33.895  14.829  -3.731  1.00 20.00     0.082 C 
HETATM    2  C2  UNL     1     -34.038  15.833  -2.872  1.00 20.00    -0.050 C 
HETATM    3  C3  UNL     1     -35.268  14.408  -4.069  1.00 20.00     0.171 C 
HETATM    4  C4  UNL     1     -33.100  16.897  -2.416  1.00 20.00     0.036 C 
HETATM    5  C5  UNL     1     -36.291  15.332  -3.450  1.00 20.00     0.094 C 
HETATM    6  C6  UNL     1     -34.061  18.029  -2.017  1.00 20.00     0.005 C 
HETATM    7  C7  UNL     1     -35.428  17.653  -2.607  1.00 20.00     0.010 C 
HETATM    8  C8  UNL     1     -35.447  16.141  -2.480  1.00 20.00     0.023 C 
HETATM    9  O9  UNL     1     -35.534  13.464  -4.797  1.00 20.00    -0.291 OA
HETATM   10 CL10 UNL     1     -32.516  14.261  -4.510  1.00 20.00    -0.080 Cl
ENDROOT
TORSDOF 0
ENDMDL
MODEL 9
REMARK VINA RESULT:      -4.2     11.879     13.150
REMARK  0 active torsions:
REMARK  status: ('A' for Active; 'I' for Inactive)
ROOT
HETATM    1  C1  UNL     1     -36.401  15.737  -4.835  1.00 20.00     0.082 C 
HETATM    2  C2  UNL     1     -35.163  16.177  -4.636  1.00 20.00    -0.050 C 
HETATM    3  C3  UNL     1     -36.381  14.320  -4.425  1.00 20.00     0.171 C 
HETATM    4  C4  UNL     1     -34.598  17.552  -4.524  1.00 20.00     0.036 C 
HETATM    5  C5  UNL     1     -35.048  13.946  -3.818  1.00 20.00     0.094 C 
HETATM    6  C6  UNL     1     -33.350  17.320  -3.657  1.00 20.00     0.005 C 
HETATM    7  C7  UNL     1     -33.502  15.914  -3.058  1.00 20.00     0.010 C 
HETATM    8  C8  UNL     1     -34.185  15.145  -4.174  1.00 20.00     0.023 C 
HETATM    9  O9  UNL     1     -37.337  13.566  -4.520  1.00 20.00    -0.291 OA
HETATM   10 CL10 UNL     1     -37.801  16.586  -5.221  1.00 20.00    -0.080 Cl
ENDROOT
TORSDOF 0
ENDMDL
