MODEL 1
REMARK VINA RESULT:      -4.1      0.000      0.000
REMARK  1 active torsions:
REMARK  status: ('A' for Active; 'I' for Inactive)
REMARK    1  A    between atoms: C3_3  and  C6_6 
ROOT
HETATM    1  C1  UNL     1     -22.526  17.578   9.633  1.00 20.00     0.134 C 
HETATM    2  C2  UNL     1     -22.882  17.501  12.004  1.00 20.00     0.137 C 
HETATM    3  C3  UNL     1     -24.040  18.395  11.584  1.00 20.00     0.075 C 
HETATM    4  N7  UNL     1     -21.983  17.384  10.881  1.00 20.00    -0.374 N 
HETATM    5  S8  UNL     1     -21.707  17.379   8.203  1.00 20.00    -0.053 SA
HETATM    6  S9  UNL     1     -24.204  18.067   9.796  1.00 20.00    -0.094 SA
HETATM    7  H20 UNL     1     -21.023  17.076  10.999  1.00 20.00     0.161 HD
ENDROOT
BRANCH   3   8
HETATM    8  C6  UNL     1     -25.327  18.097  12.331  1.00 20.00    -0.007 C 
HETATM    9  C4  UNL     1     -26.490  18.915  11.763  1.00 20.00     0.011 C 
HETATM   10  C5  UNL     1     -25.656  16.603  12.279  1.00 20.00     0.011 C 
ENDBRANCH   3   8
TORSDOF 1
ENDMDL
MODEL 2
REMARK VINA RESULT:      -3.9     24.055     24.827
REMARK  1 active torsions:
REMARK  status: ('A' for Active; 'I' for Inactive)
REMARK    1  A    between atoms: C3_3  and  C6_6 
ROOT
HETATM    1  C1  UNL     1     -42.540   4.537  -1.897  1.00 20.00     0.134 C 
HETATM    2  C2  UNL     1     -40.834   5.641  -0.622  1.00 20.00     0.137 C 
HETATM    3  C3  UNL     1     -41.788   6.802  -0.861  1.00 20.00     0.075 C 
HETATM    4  N7  UNL     1     -41.226   4.559  -1.492  1.00 20.00    -0.374 N 
HETATM    5  S8  UNL     1     -43.234   3.329  -2.799  1.00 20.00    -0.053 SA
HETATM    6  S9  UNL     1     -43.353   5.980  -1.313  1.00 20.00    -0.094 SA
HETATM    7  H20 UNL     1     -40.592   3.797  -1.712  1.00 20.00     0.161 HD
ENDROOT
BRANCH   3   8
HETATM    8  C6  UNL     1     -41.955   7.699   0.352  1.00 20.00    -0.007 C 
HETATM    9  C4  UNL     1     -41.468   9.119   0.053  1.00 20.00     0.011 C 
HETATM   10  C5  UNL     1     -43.413   7.726   0.816  1.00 20.00     0.011 C 
ENDBRANCH   3   8
TORSDOF 1
ENDMDL
MODEL 3
REMARK VINA RESULT:      -3.9     18.156     18.614
REMARK  1 active torsions:
REMARK  status: ('A' for Active; 'I' for Inactive)
REMARK    1  A    between atoms: C3_3  and  C6_6 
ROOT
HETATM    1  C1  UNL     1     -34.228  15.506  -6.295  1.00 20.00     0.134 C 
HETATM    2  C2  UNL     1     -32.979  14.767  -4.385  1.00 20.00     0.137 C 
HETATM    3  C3  UNL     1     -33.405  16.150  -3.913  1.00 20.00     0.075 C 
HETATM    4  N7  UNL     1     -33.246  14.680  -5.800  1.00 20.00    -0.374 N 
HETATM    5  S8  UNL     1     -34.778  15.491  -7.861  1.00 20.00    -0.053 SA
HETATM    6  S9  UNL     1     -34.798  16.565  -5.016  1.00 20.00    -0.094 SA
HETATM    7  H20 UNL     1     -32.802  13.977  -6.383  1.00 20.00     0.161 HD
ENDROOT
BRANCH   3   8
HETATM    8  C6  UNL     1     -33.816  16.183  -2.452  1.00 20.00    -0.007 C 
HETATM    9  C4  UNL     1     -33.350  17.478  -1.783  1.00 20.00     0.011 C 
HETATM   10  C5  UNL     1     -35.331  16.027  -2.307  1.00 20.00     0.011 C 
ENDBRANCH   3   8
TORSDOF 1
ENDMDL
MODEL 4
REMARK VINA RESULT:      -3.8     18.214     18.754
REMARK  1 active torsions:
REMARK  status: ('A' for Active; 'I' for Inactive)
REMARK    1  A    between atoms: C3_3  and  C6_6 
ROOT
HETATM    1  C1  UNL     1     -33.521  16.381  -2.910  1.00 20.00     0.134 C 
HETATM    2  C2  UNL     1     -33.551  14.742  -4.661  1.00 20.00     0.137 C 
HETATM    3  C3  UNL     1     -34.795  14.333  -3.886  1.00 20.00     0.075 C 
HETATM    4  N7  UNL     1     -32.807  15.672  -3.848  1.00 20.00    -0.374 N 
HETATM    5  S8  UNL     1     -32.894  17.581  -1.951  1.00 20.00    -0.053 SA
HETATM    6  S9  UNL     1     -35.183  15.815  -2.894  1.00 20.00    -0.094 SA
HETATM    7  H20 UNL     1     -31.826  15.867  -4.025  1.00 20.00     0.161 HD
ENDROOT
BRANCH   3   8
HETATM    8  C6  UNL     1     -35.955  13.936  -4.781  1.00 20.00    -0.007 C 
HETATM    9  C4  UNL     1     -37.280  14.462  -4.223  1.00 20.00     0.011 C 
HETATM   10  C5  UNL     1     -35.742  14.445  -6.208  1.00 20.00     0.011 C 
ENDBRANCH   3   8
TORSDOF 1
ENDMDL
MODEL 5
REMARK VINA RESULT:      -3.6      1.856      2.135
REMARK  1 active torsions:
REMARK  status: ('A' for Active; 'I' for Inactive)
REMARK    1  A    between atoms: C3_3  and  C6_6 
ROOT
HETATM    1  C1  UNL     1     -24.220  18.549   8.219  1.00 20.00     0.134 C 
HETATM    2  C2  UNL     1     -23.163  17.009   9.724  1.00 20.00     0.137 C 
HETATM    3  C3  UNL     1     -23.732  18.012  10.717  1.00 20.00     0.075 C 
HETATM    4  N7  UNL     1     -23.253  17.590   8.407  1.00 20.00    -0.374 N 
HETATM    5  S8  UNL     1     -24.576  19.263   6.764  1.00 20.00    -0.053 SA
HETATM    6  S9  UNL     1     -25.007  18.890   9.751  1.00 20.00    -0.094 SA
HETATM    7  H20 UNL     1     -22.697  17.239   7.632  1.00 20.00     0.161 HD
ENDROOT
BRANCH   3   8
HETATM    8  C6  UNL     1     -24.316  17.361  11.958  1.00 20.00    -0.007 C 
HETATM    9  C4  UNL     1     -25.655  18.002  12.332  1.00 20.00     0.011 C 
HETATM   10  C5  UNL     1     -24.489  15.854  11.754  1.00 20.00     0.011 C 
ENDBRANCH   3   8
TORSDOF 1
ENDMDL
MODEL 6
REMARK VINA RESULT:      -3.6      1.687      2.255
REMARK  1 active torsions:
REMARK  status: ('A' for Active; 'I' for Inactive)
REMARK    1  A    between atoms: C3_3  and  C6_6 
ROOT
HETATM    1  C1  UNL     1     -22.533  17.678   8.456  1.00 20.00     0.134 C 
HETATM    2  C2  UNL     1     -24.154  19.207   9.345  1.00 20.00     0.137 C 
HETATM    3  C3  UNL     1     -24.674  17.897   9.918  1.00 20.00     0.075 C 
HETATM    4  N7  UNL     1     -23.170  18.891   8.338  1.00 20.00    -0.374 N 
HETATM    5  S8  UNL     1     -21.293  17.161   7.483  1.00 20.00    -0.053 SA
HETATM    6  S9  UNL     1     -23.240  16.776   9.787  1.00 20.00    -0.094 SA
HETATM    7  H20 UNL     1     -22.891  19.569   7.636  1.00 20.00     0.161 HD
ENDROOT
BRANCH   3   8
HETATM    8  C6  UNL     1     -25.161  18.021  11.350  1.00 20.00    -0.007 C 
HETATM    9  C4  UNL     1     -23.982  18.134  12.320  1.00 20.00     0.011 C 
HETATM   10  C5  UNL     1     -26.093  19.225  11.508  1.00 20.00     0.011 C 
ENDBRANCH   3   8
TORSDOF 1
ENDMDL
MODEL 7
REMARK VINA RESULT:      -3.5     18.794     19.308
REMARK  1 active torsions:
REMARK  status: ('A' for Active; 'I' for Inactive)
REMARK    1  A    between atoms: C3_3  and  C6_6 
ROOT
HETATM    1  C1  UNL     1     -35.535  15.327  -6.293  1.00 20.00     0.134 C 
HETATM    2  C2  UNL     1     -35.279  14.236  -4.172  1.00 20.00     0.137 C 
HETATM    3  C3  UNL     1     -34.096  15.192  -4.130  1.00 20.00     0.075 C 
HETATM    4  N7  UNL     1     -35.784  14.215  -5.524  1.00 20.00    -0.374 N 
HETATM    5  S8  UNL     1     -36.119  15.566  -7.828  1.00 20.00    -0.053 SA
HETATM    6  S9  UNL     1     -34.510  16.437  -5.399  1.00 20.00    -0.094 SA
HETATM    7  H20 UNL     1     -36.379  13.462  -5.857  1.00 20.00     0.161 HD
ENDROOT
BRANCH   3   8
HETATM    8  C6  UNL     1     -33.887  15.826  -2.767  1.00 20.00    -0.007 C 
HETATM    9  C4  UNL     1     -33.060  17.109  -2.883  1.00 20.00     0.011 C 
HETATM   10  C5  UNL     1     -35.228  16.120  -2.090  1.00 20.00     0.011 C 
ENDBRANCH   3   8
TORSDOF 1
ENDMDL
MODEL 8
REMARK VINA RESULT:      -3.4     19.016     19.727
REMARK  1 active torsions:
REMARK  status: ('A' for Active; 'I' for Inactive)
REMARK    1  A    between atoms: C3_3  and  C6_6 
ROOT
HETATM    1  C1  UNL     1     -37.878  15.310  -4.038  1.00 20.00     0.134 C 
HETATM    2  C2  UNL     1     -35.909  16.358  -3.155  1.00 20.00     0.137 C 
HETATM    3  C3  UNL     1     -35.391  14.943  -3.368  1.00 20.00     0.075 C 
HETATM    4  N7  UNL     1     -37.346  16.328  -3.282  1.00 20.00    -0.374 N 
HETATM    5  S8  UNL     1     -39.487  15.150  -4.411  1.00 20.00    -0.053 SA
HETATM    6  S9  UNL     1     -36.594  14.222  -4.536  1.00 20.00    -0.094 SA
HETATM    7  H20 UNL     1     -37.927  17.075  -2.915  1.00 20.00     0.161 HD
ENDROOT
BRANCH   3   8
HETATM    8  C6  UNL     1     -33.978  14.899  -3.919  1.00 20.00    -0.007 C 
HETATM    9  C4  UNL     1     -33.986  14.952  -5.449  1.00 20.00     0.011 C 
HETATM   10  C5  UNL     1     -33.135  16.045  -3.354  1.00 20.00     0.011 C 
ENDBRANCH   3   8
TORSDOF 1
ENDMDL
MODEL 9
REMARK VINA RESULT:      -3.4     18.903     19.617
REMARK  1 active torsions:
REMARK  status: ('A' for Active; 'I' for Inactive)
REMARK    1  A    between atoms: C3_3  and  C6_6 
ROOT
HETATM    1  C1  UNL     1     -38.041  15.571  -4.383  1.00 20.00     0.134 C 
HETATM    2  C2  UNL     1     -36.095  14.199  -4.088  1.00 20.00     0.137 C 
HETATM    3  C3  UNL     1     -35.481  15.581  -3.914  1.00 20.00     0.075 C 
HETATM    4  N7  UNL     1     -37.422  14.368  -4.629  1.00 20.00    -0.374 N 
HETATM    5  S8  UNL     1     -39.603  15.937  -4.808  1.00 20.00    -0.053 SA
HETATM    6  S9  UNL     1     -36.922  16.643  -3.558  1.00 20.00    -0.094 SA
HETATM    7  H20 UNL     1     -37.913  13.603  -5.081  1.00 20.00     0.161 HD
ENDROOT
BRANCH   3   8
HETATM    8  C6  UNL     1     -34.449  15.642  -2.803  1.00 20.00    -0.007 C 
HETATM    9  C4  UNL     1     -33.130  16.224  -3.315  1.00 20.00     0.011 C 
HETATM   10  C5  UNL     1     -34.967  16.464  -1.621  1.00 20.00     0.011 C 
ENDBRANCH   3   8
TORSDOF 1
ENDMDL
