MODEL 1
REMARK VINA RESULT:      -5.4      0.000      0.000
REMARK  1 active torsions:
REMARK  status: ('A' for Active; 'I' for Inactive)
REMARK    1  A    between atoms: C6_6  and  C11_11 
ROOT
HETATM    1  C1  UNL     1     -33.482  18.088  -0.411  1.00 20.00    -0.014 C 
HETATM    2  C2  UNL     1     -34.633  17.390  -0.524  1.00 20.00    -0.074 C 
HETATM    3  C3  UNL     1     -32.536  18.124  -1.578  1.00 20.00     0.155 C 
HETATM    4  C4  UNL     1     -34.979  16.561  -1.742  1.00 20.00     0.039 C 
HETATM    5  C5  UNL     1     -32.933  17.441  -2.865  1.00 20.00     0.088 C 
HETATM    6  C6  UNL     1     -33.756  16.193  -2.582  1.00 20.00     0.000 C 
HETATM    7  C7  UNL     1     -33.037  18.866   0.795  1.00 20.00     0.052 C 
HETATM    8  C8  UNL     1     -35.708  17.362   0.533  1.00 20.00     0.044 C 
HETATM    9  O12 UNL     1     -31.481  18.757  -1.509  1.00 20.00    -0.293 OA
ENDROOT
BRANCH   6  10
HETATM   10  C11 UNL     1     -34.172  15.503  -3.879  1.00 20.00    -0.018 C 
HETATM   11  C9  UNL     1     -33.085  14.539  -4.347  1.00 20.00     0.010 C 
HETATM   12  C10 UNL     1     -35.498  14.769  -3.696  1.00 20.00     0.010 C 
ENDBRANCH   6  10
TORSDOF 1
ENDMDL
MODEL 2
REMARK VINA RESULT:      -5.2      0.436      1.028
REMARK  1 active torsions:
REMARK  status: ('A' for Active; 'I' for Inactive)
REMARK    1  A    between atoms: C6_6  and  C11_11 
ROOT
HETATM    1  C1  UNL     1     -33.550  18.051  -0.491  1.00 20.00    -0.014 C 
HETATM    2  C2  UNL     1     -34.693  17.338  -0.573  1.00 20.00    -0.074 C 
HETATM    3  C3  UNL     1     -32.613  18.063  -1.667  1.00 20.00     0.155 C 
HETATM    4  C4  UNL     1     -35.040  16.470  -1.764  1.00 20.00     0.039 C 
HETATM    5  C5  UNL     1     -33.013  17.338  -2.930  1.00 20.00     0.088 C 
HETATM    6  C6  UNL     1     -33.820  16.090  -2.603  1.00 20.00     0.000 C 
HETATM    7  C7  UNL     1     -33.102  18.869   0.687  1.00 20.00     0.052 C 
HETATM    8  C8  UNL     1     -35.759  17.330   0.492  1.00 20.00     0.044 C 
HETATM    9  O12 UNL     1     -31.565  18.710  -1.625  1.00 20.00    -0.293 OA
ENDROOT
BRANCH   6  10
HETATM   10  C11 UNL     1     -34.239  15.358  -3.876  1.00 20.00    -0.018 C 
HETATM   11  C9  UNL     1     -34.681  16.351  -4.947  1.00 20.00     0.010 C 
HETATM   12  C10 UNL     1     -33.099  14.483  -4.393  1.00 20.00     0.010 C 
ENDBRANCH   6  10
TORSDOF 1
ENDMDL
MODEL 3
REMARK VINA RESULT:      -5.0     12.506     14.838
REMARK  1 active torsions:
REMARK  status: ('A' for Active; 'I' for Inactive)
REMARK    1  A    between atoms: C6_6  and  C11_11 
ROOT
HETATM    1  C1  UNL     1     -23.636  18.113  10.982  1.00 20.00    -0.014 C 
HETATM    2  C2  UNL     1     -24.920  18.525  10.912  1.00 20.00    -0.074 C 
HETATM    3  C3  UNL     1     -22.761  18.246   9.767  1.00 20.00     0.155 C 
HETATM    4  C4  UNL     1     -25.554  19.033   9.635  1.00 20.00     0.039 C 
HETATM    5  C5  UNL     1     -23.323  18.902   8.528  1.00 20.00     0.088 C 
HETATM    6  C6  UNL     1     -24.805  18.592   8.378  1.00 20.00     0.000 C 
HETATM    7  C7  UNL     1     -22.963  17.525  12.190  1.00 20.00     0.052 C 
HETATM    8  C8  UNL     1     -25.865  18.542  12.087  1.00 20.00     0.044 C 
HETATM    9  O12 UNL     1     -21.583  17.886   9.801  1.00 20.00    -0.293 OA
ENDROOT
BRANCH   6  10
HETATM   10  C11 UNL     1     -25.383  19.262   7.133  1.00 20.00    -0.018 C 
HETATM   11  C9  UNL     1     -24.362  19.262   5.999  1.00 20.00     0.010 C 
HETATM   12  C10 UNL     1     -26.670  18.566   6.697  1.00 20.00     0.010 C 
ENDBRANCH   6  10
TORSDOF 1
ENDMDL
MODEL 4
REMARK VINA RESULT:      -4.9      1.632      2.505
REMARK  1 active torsions:
REMARK  status: ('A' for Active; 'I' for Inactive)
REMARK    1  A    between atoms: C6_6  and  C11_11 
ROOT
HETATM    1  C1  UNL     1     -33.955  18.043  -0.329  1.00 20.00    -0.014 C 
HETATM    2  C2  UNL     1     -32.901  17.881  -1.157  1.00 20.00    -0.074 C 
HETATM    3  C3  UNL     1     -35.202  17.240  -0.571  1.00 20.00     0.155 C 
HETATM    4  C4  UNL     1     -32.944  16.991  -2.381  1.00 20.00     0.039 C 
HETATM    5  C5  UNL     1     -35.214  16.223  -1.688  1.00 20.00     0.088 C 
HETATM    6  C6  UNL     1     -34.366  16.698  -2.859  1.00 20.00     0.000 C 
HETATM    7  C7  UNL     1     -34.012  18.967   0.855  1.00 20.00     0.052 C 
HETATM    8  C8  UNL     1     -31.564  18.548  -0.960  1.00 20.00     0.044 C 
HETATM    9  O12 UNL     1     -36.178  17.360   0.171  1.00 20.00    -0.293 OA
ENDROOT
BRANCH   6  10
HETATM   10  C11 UNL     1     -34.363  15.670  -3.988  1.00 20.00    -0.018 C 
HETATM   11  C9  UNL     1     -32.989  15.018  -4.117  1.00 20.00     0.010 C 
HETATM   12  C10 UNL     1     -35.439  14.612  -3.755  1.00 20.00     0.010 C 
ENDBRANCH   6  10
TORSDOF 1
ENDMDL
MODEL 5
REMARK VINA RESULT:      -4.8      1.201      1.661
REMARK  1 active torsions:
REMARK  status: ('A' for Active; 'I' for Inactive)
REMARK    1  A    between atoms: C6_6  and  C11_11 
ROOT
HETATM    1  C1  UNL     1     -32.589  18.374   0.611  1.00 20.00    -0.014 C 
HETATM    2  C2  UNL     1     -33.917  18.139   0.559  1.00 20.00    -0.074 C 
HETATM    3  C3  UNL     1     -31.780  18.263  -0.651  1.00 20.00     0.155 C 
HETATM    4  C4  UNL     1     -34.624  17.675  -0.696  1.00 20.00     0.039 C 
HETATM    5  C5  UNL     1     -32.488  17.963  -1.951  1.00 20.00     0.088 C 
HETATM    6  C6  UNL     1     -33.678  17.044  -1.717  1.00 20.00     0.000 C 
HETATM    7  C7  UNL     1     -31.807  18.759   1.836  1.00 20.00     0.052 C 
HETATM    8  C8  UNL     1     -34.850  18.319   1.729  1.00 20.00     0.044 C 
HETATM    9  O12 UNL     1     -30.567  18.479  -0.639  1.00 20.00    -0.293 OA
ENDROOT
BRANCH   6  10
HETATM   10  C11 UNL     1     -34.407  16.745  -3.026  1.00 20.00    -0.018 C 
HETATM   11  C9  UNL     1     -34.685  15.250  -3.157  1.00 20.00     0.010 C 
HETATM   12  C10 UNL     1     -35.706  17.542  -3.111  1.00 20.00     0.010 C 
ENDBRANCH   6  10
TORSDOF 1
ENDMDL
MODEL 6
REMARK VINA RESULT:      -4.8      3.124      5.669
REMARK  1 active torsions:
REMARK  status: ('A' for Active; 'I' for Inactive)
REMARK    1  A    between atoms: C6_6  and  C11_11 
ROOT
HETATM    1  C1  UNL     1     -35.380  15.324  -6.326  1.00 20.00    -0.014 C 
HETATM    2  C2  UNL     1     -34.766  16.498  -6.068  1.00 20.00    -0.074 C 
HETATM    3  C3  UNL     1     -35.722  14.414  -5.180  1.00 20.00     0.155 C 
HETATM    4  C4  UNL     1     -34.318  16.908  -4.682  1.00 20.00     0.039 C 
HETATM    5  C5  UNL     1     -35.434  14.872  -3.769  1.00 20.00     0.088 C 
HETATM    6  C6  UNL     1     -34.175  15.723  -3.725  1.00 20.00     0.000 C 
HETATM    7  C7  UNL     1     -35.781  14.817  -7.683  1.00 20.00     0.052 C 
HETATM    8  C8  UNL     1     -34.466  17.540  -7.116  1.00 20.00     0.044 C 
HETATM    9  O12 UNL     1     -36.289  13.339  -5.382  1.00 20.00    -0.293 OA
ENDROOT
BRANCH   6  10
HETATM   10  C11 UNL     1     -33.884  16.201  -2.304  1.00 20.00    -0.018 C 
HETATM   11  C9  UNL     1     -32.922  17.386  -2.322  1.00 20.00     0.010 C 
HETATM   12  C10 UNL     1     -35.179  16.570  -1.586  1.00 20.00     0.010 C 
ENDBRANCH   6  10
TORSDOF 1
ENDMDL
MODEL 7
REMARK VINA RESULT:      -4.8     12.715     15.281
REMARK  1 active torsions:
REMARK  status: ('A' for Active; 'I' for Inactive)
REMARK    1  A    between atoms: C6_6  and  C11_11 
ROOT
HETATM    1  C1  UNL     1     -24.404  18.753   7.605  1.00 20.00    -0.014 C 
HETATM    2  C2  UNL     1     -25.415  18.795   8.498  1.00 20.00    -0.074 C 
HETATM    3  C3  UNL     1     -23.085  18.165   8.024  1.00 20.00     0.155 C 
HETATM    4  C4  UNL     1     -25.260  18.360   9.940  1.00 20.00     0.039 C 
HETATM    5  C5  UNL     1     -22.954  17.573   9.408  1.00 20.00     0.088 C 
HETATM    6  C6  UNL     1     -23.804  18.342  10.407  1.00 20.00     0.000 C 
HETATM    7  C7  UNL     1     -24.460  19.240   6.184  1.00 20.00     0.052 C 
HETATM    8  C8  UNL     1     -26.810  19.262   8.171  1.00 20.00     0.044 C 
HETATM    9  O12 UNL     1     -22.145  18.106   7.230  1.00 20.00    -0.293 OA
ENDROOT
BRANCH   6  10
HETATM   10  C11 UNL     1     -23.686  17.742  11.806  1.00 20.00    -0.018 C 
HETATM   11  C9  UNL     1     -24.382  16.385  11.869  1.00 20.00     0.010 C 
HETATM   12  C10 UNL     1     -22.220  17.614  12.214  1.00 20.00     0.010 C 
ENDBRANCH   6  10
TORSDOF 1
ENDMDL
MODEL 8
REMARK VINA RESULT:      -4.7      2.179      5.026
REMARK  1 active torsions:
REMARK  status: ('A' for Active; 'I' for Inactive)
REMARK    1  A    between atoms: C6_6  and  C11_11 
ROOT
HETATM    1  C1  UNL     1     -35.250  15.087  -4.010  1.00 20.00    -0.014 C 
HETATM    2  C2  UNL     1     -33.924  15.218  -3.791  1.00 20.00    -0.074 C 
HETATM    3  C3  UNL     1     -36.190  16.098  -3.416  1.00 20.00     0.155 C 
HETATM    4  C4  UNL     1     -33.338  16.287  -2.894  1.00 20.00     0.039 C 
HETATM    5  C5  UNL     1     -35.618  17.271  -2.654  1.00 20.00     0.088 C 
HETATM    6  C6  UNL     1     -34.355  16.865  -1.909  1.00 20.00     0.000 C 
HETATM    7  C7  UNL     1     -35.908  14.005  -4.821  1.00 20.00     0.052 C 
HETATM    8  C8  UNL     1     -32.875  14.332  -4.415  1.00 20.00     0.044 C 
HETATM    9  O12 UNL     1     -37.404  16.010  -3.604  1.00 20.00    -0.293 OA
ENDROOT
BRANCH   6  10
HETATM   10  C11 UNL     1     -33.764  18.049  -1.145  1.00 20.00    -0.018 C 
HETATM   11  C9  UNL     1     -34.192  18.010   0.319  1.00 20.00     0.010 C 
HETATM   12  C10 UNL     1     -32.241  18.056  -1.260  1.00 20.00     0.010 C 
ENDBRANCH   6  10
TORSDOF 1
ENDMDL
MODEL 9
REMARK VINA RESULT:      -4.6      1.708      2.711
REMARK  1 active torsions:
REMARK  status: ('A' for Active; 'I' for Inactive)
REMARK    1  A    between atoms: C6_6  and  C11_11 
ROOT
HETATM    1  C1  UNL     1     -33.960  18.023  -0.372  1.00 20.00    -0.014 C 
HETATM    2  C2  UNL     1     -32.906  17.853  -1.199  1.00 20.00    -0.074 C 
HETATM    3  C3  UNL     1     -35.214  17.232  -0.619  1.00 20.00     0.155 C 
HETATM    4  C4  UNL     1     -32.955  16.968  -2.426  1.00 20.00     0.039 C 
HETATM    5  C5  UNL     1     -35.233  16.219  -1.740  1.00 20.00     0.088 C 
HETATM    6  C6  UNL     1     -34.379  16.690  -2.908  1.00 20.00     0.000 C 
HETATM    7  C7  UNL     1     -34.012  18.942   0.815  1.00 20.00     0.052 C 
HETATM    8  C8  UNL     1     -31.563  18.507  -0.996  1.00 20.00     0.044 C 
HETATM    9  O12 UNL     1     -36.191  17.358   0.121  1.00 20.00    -0.293 OA
ENDROOT
BRANCH   6  10
HETATM   10  C11 UNL     1     -34.382  15.666  -4.040  1.00 20.00    -0.018 C 
HETATM   11  C9  UNL     1     -34.720  16.336  -5.370  1.00 20.00     0.010 C 
HETATM   12  C10 UNL     1     -33.034  14.954  -4.125  1.00 20.00     0.010 C 
ENDBRANCH   6  10
TORSDOF 1
ENDMDL
