MODEL 1
REMARK VINA RESULT:      -5.1      0.000      0.000
REMARK  0 active torsions:
REMARK  status: ('A' for Active; 'I' for Inactive)
ROOT
HETATM    1  C1  UNL     1     -33.714  15.057  -5.765  1.00 20.00    -0.029 C 
HETATM    2  C2  UNL     1     -34.986  15.459  -5.682  1.00 20.00    -0.013 C 
HETATM    3  C3  UNL     1     -36.486  14.009  -4.411  1.00 20.00     0.139 C 
HETATM    4  C4  UNL     1     -33.229  14.486  -4.473  1.00 20.00     0.032 C 
HETATM    5  C5  UNL     1     -37.938  14.403  -4.296  1.00 20.00     0.079 C 
HETATM    6  C6  UNL     1     -37.871  15.919  -4.424  1.00 20.00     0.009 C 
HETATM    7  C7  UNL     1     -36.523  16.292  -3.813  1.00 20.00     0.022 C 
HETATM    8  C8  UNL     1     -34.294  14.953  -3.458  1.00 20.00     0.004 C 
HETATM    9  C9  UNL     1     -35.555  15.215  -4.314  1.00 20.00     0.041 C 
HETATM   10  C10 UNL     1     -33.788  16.184  -2.696  1.00 20.00     0.011 C 
HETATM   11  O11 UNL     1     -36.118  12.850  -4.564  1.00 20.00    -0.297 OA
ENDROOT
TORSDOF 0
ENDMDL
MODEL 2
REMARK VINA RESULT:      -4.8      1.455      1.917
REMARK  0 active torsions:
REMARK  status: ('A' for Active; 'I' for Inactive)
ROOT
HETATM    1  C1  UNL     1     -33.608  17.209  -4.154  1.00 20.00    -0.029 C 
HETATM    2  C2  UNL     1     -34.740  16.629  -4.564  1.00 20.00    -0.013 C 
HETATM    3  C3  UNL     1     -34.912  14.223  -4.176  1.00 20.00     0.139 C 
HETATM    4  C4  UNL     1     -33.151  16.664  -2.840  1.00 20.00     0.032 C 
HETATM    5  C5  UNL     1     -36.162  13.511  -4.632  1.00 20.00     0.079 C 
HETATM    6  C6  UNL     1     -37.205  14.619  -4.570  1.00 20.00     0.009 C 
HETATM    7  C7  UNL     1     -36.741  15.513  -3.423  1.00 20.00     0.022 C 
HETATM    8  C8  UNL     1     -34.397  15.918  -2.314  1.00 20.00     0.004 C 
HETATM    9  C9  UNL     1     -35.219  15.597  -3.584  1.00 20.00     0.041 C 
HETATM   10  C10 UNL     1     -35.138  16.791  -1.293  1.00 20.00     0.011 C 
HETATM   11  O11 UNL     1     -33.791  13.738  -4.277  1.00 20.00    -0.297 OA
ENDROOT
TORSDOF 0
ENDMDL
MODEL 3
REMARK VINA RESULT:      -4.7      1.727      2.702
REMARK  0 active torsions:
REMARK  status: ('A' for Active; 'I' for Inactive)
ROOT
HETATM    1  C1  UNL     1     -34.073  16.473  -2.109  1.00 20.00    -0.029 C 
HETATM    2  C2  UNL     1     -35.182  15.808  -2.448  1.00 20.00    -0.013 C 
HETATM    3  C3  UNL     1     -36.178  16.410  -4.596  1.00 20.00     0.139 C 
HETATM    4  C4  UNL     1     -33.171  16.676  -3.282  1.00 20.00     0.032 C 
HETATM    5  C5  UNL     1     -37.442  15.704  -5.023  1.00 20.00     0.079 C 
HETATM    6  C6  UNL     1     -37.319  14.364  -4.309  1.00 20.00     0.009 C 
HETATM    7  C7  UNL     1     -35.816  14.103  -4.248  1.00 20.00     0.022 C 
HETATM    8  C8  UNL     1     -33.726  15.689  -4.331  1.00 20.00     0.004 C 
HETATM    9  C9  UNL     1     -35.197  15.463  -3.909  1.00 20.00     0.041 C 
HETATM   10  C10 UNL     1     -32.878  14.411  -4.349  1.00 20.00     0.011 C 
HETATM   11  O11 UNL     1     -35.983  17.605  -4.787  1.00 20.00    -0.297 OA
ENDROOT
TORSDOF 0
ENDMDL
MODEL 4
REMARK VINA RESULT:      -4.4      1.658      3.117
REMARK  0 active torsions:
REMARK  status: ('A' for Active; 'I' for Inactive)
ROOT
HETATM    1  C1  UNL     1     -33.650  16.761  -2.633  1.00 20.00    -0.029 C 
HETATM    2  C2  UNL     1     -33.598  16.921  -3.959  1.00 20.00    -0.013 C 
HETATM    3  C3  UNL     1     -34.020  14.920  -5.296  1.00 20.00     0.139 C 
HETATM    4  C4  UNL     1     -34.767  15.856  -2.229  1.00 20.00     0.032 C 
HETATM    5  C5  UNL     1     -33.959  15.036  -6.799  1.00 20.00     0.079 C 
HETATM    6  C6  UNL     1     -34.330  16.495  -7.025  1.00 20.00     0.009 C 
HETATM    7  C7  UNL     1     -35.285  16.825  -5.881  1.00 20.00     0.022 C 
HETATM    8  C8  UNL     1     -35.641  15.783  -3.499  1.00 20.00     0.004 C 
HETATM    9  C9  UNL     1     -34.676  16.140  -4.653  1.00 20.00     0.041 C 
HETATM   10  C10 UNL     1     -36.837  16.735  -3.367  1.00 20.00     0.011 C 
HETATM   11  O11 UNL     1     -33.588  13.951  -4.682  1.00 20.00    -0.297 OA
ENDROOT
TORSDOF 0
ENDMDL
MODEL 5
REMARK VINA RESULT:      -4.3      2.471      4.061
REMARK  0 active torsions:
REMARK  status: ('A' for Active; 'I' for Inactive)
ROOT
HETATM    1  C1  UNL     1     -35.336  16.990  -0.830  1.00 20.00    -0.029 C 
HETATM    2  C2  UNL     1     -35.001  16.120  -1.787  1.00 20.00    -0.013 C 
HETATM    3  C3  UNL     1     -34.993  16.989  -4.070  1.00 20.00     0.139 C 
HETATM    4  C4  UNL     1     -34.745  18.339  -1.077  1.00 20.00     0.032 C 
HETATM    5  C5  UNL     1     -34.638  16.047  -5.194  1.00 20.00     0.079 C 
HETATM    6  C6  UNL     1     -33.735  15.039  -4.497  1.00 20.00     0.009 C 
HETATM    7  C7  UNL     1     -33.038  15.846  -3.405  1.00 20.00     0.022 C 
HETATM    8  C8  UNL     1     -33.667  18.062  -2.148  1.00 20.00     0.004 C 
HETATM    9  C9  UNL     1     -34.130  16.755  -2.832  1.00 20.00     0.041 C 
HETATM   10  C10 UNL     1     -32.285  17.967  -1.489  1.00 20.00     0.011 C 
HETATM   11  O11 UNL     1     -35.874  17.836  -4.160  1.00 20.00    -0.297 OA
ENDROOT
TORSDOF 0
ENDMDL
MODEL 6
REMARK VINA RESULT:      -4.3      2.196      4.168
REMARK  0 active torsions:
REMARK  status: ('A' for Active; 'I' for Inactive)
ROOT
HETATM    1  C1  UNL     1     -36.268  16.671  -4.143  1.00 20.00    -0.029 C 
HETATM    2  C2  UNL     1     -35.243  17.415  -3.719  1.00 20.00    -0.013 C 
HETATM    3  C3  UNL     1     -34.564  17.079  -1.397  1.00 20.00     0.139 C 
HETATM    4  C4  UNL     1     -36.193  15.275  -3.618  1.00 20.00     0.032 C 
HETATM    5  C5  UNL     1     -33.421  17.903  -0.857  1.00 20.00     0.079 C 
HETATM    6  C6  UNL     1     -32.609  18.189  -2.113  1.00 20.00     0.009 C 
HETATM    7  C7  UNL     1     -32.830  16.963  -2.995  1.00 20.00     0.022 C 
HETATM    8  C8  UNL     1     -34.741  15.168  -3.105  1.00 20.00     0.004 C 
HETATM    9  C9  UNL     1     -34.317  16.630  -2.835  1.00 20.00     0.041 C 
HETATM   10  C10 UNL     1     -33.871  14.446  -4.143  1.00 20.00     0.011 C 
HETATM   11  O11 UNL     1     -35.564  16.812  -0.741  1.00 20.00    -0.297 OA
ENDROOT
TORSDOF 0
ENDMDL
MODEL 7
REMARK VINA RESULT:      -4.2      1.977      2.966
REMARK  0 active torsions:
REMARK  status: ('A' for Active; 'I' for Inactive)
ROOT
HETATM    1  C1  UNL     1     -34.511  16.355  -5.964  1.00 20.00    -0.029 C 
HETATM    2  C2  UNL     1     -34.327  16.998  -4.808  1.00 20.00    -0.013 C 
HETATM    3  C3  UNL     1     -35.483  16.066  -2.868  1.00 20.00     0.139 C 
HETATM    4  C4  UNL     1     -34.511  14.872  -5.779  1.00 20.00     0.032 C 
HETATM    5  C5  UNL     1     -35.325  16.760  -1.537  1.00 20.00     0.079 C 
HETATM    6  C6  UNL     1     -33.958  17.416  -1.676  1.00 20.00     0.009 C 
HETATM    7  C7  UNL     1     -33.174  16.472  -2.584  1.00 20.00     0.022 C 
HETATM    8  C8  UNL     1     -33.911  14.693  -4.367  1.00 20.00     0.004 C 
HETATM    9  C9  UNL     1     -34.177  16.042  -3.660  1.00 20.00     0.041 C 
HETATM   10  C10 UNL     1     -32.426  14.324  -4.472  1.00 20.00     0.011 C 
HETATM   11  O11 UNL     1     -36.543  15.584  -3.249  1.00 20.00    -0.297 OA
ENDROOT
TORSDOF 0
ENDMDL
MODEL 8
REMARK VINA RESULT:      -4.2      2.109      3.581
REMARK  0 active torsions:
REMARK  status: ('A' for Active; 'I' for Inactive)
ROOT
HETATM    1  C1  UNL     1     -33.341  14.707  -4.926  1.00 20.00    -0.029 C 
HETATM    2  C2  UNL     1     -33.322  15.321  -3.739  1.00 20.00    -0.013 C 
HETATM    3  C3  UNL     1     -34.254  17.579  -3.686  1.00 20.00     0.139 C 
HETATM    4  C4  UNL     1     -34.613  14.972  -5.664  1.00 20.00     0.032 C 
HETATM    5  C5  UNL     1     -34.244  18.327  -2.375  1.00 20.00     0.079 C 
HETATM    6  C6  UNL     1     -34.285  17.195  -1.357  1.00 20.00     0.009 C 
HETATM    7  C7  UNL     1     -35.081  16.092  -2.049  1.00 20.00     0.022 C 
HETATM    8  C8  UNL     1     -35.544  15.541  -4.572  1.00 20.00     0.004 C 
HETATM    9  C9  UNL     1     -34.583  16.099  -3.498  1.00 20.00     0.041 C 
HETATM   10  C10 UNL     1     -36.484  14.442  -4.061  1.00 20.00     0.011 C 
HETATM   11  O11 UNL     1     -34.023  18.114  -4.763  1.00 20.00    -0.297 OA
ENDROOT
TORSDOF 0
ENDMDL
MODEL 9
REMARK VINA RESULT:      -4.2      1.661      3.322
REMARK  0 active torsions:
REMARK  status: ('A' for Active; 'I' for Inactive)
ROOT
HETATM    1  C1  UNL     1     -36.285  13.692  -4.879  1.00 20.00    -0.029 C 
HETATM    2  C2  UNL     1     -35.935  14.389  -3.793  1.00 20.00    -0.013 C 
HETATM    3  C3  UNL     1     -33.748  15.475  -3.877  1.00 20.00     0.139 C 
HETATM    4  C4  UNL     1     -35.883  14.391  -6.137  1.00 20.00     0.032 C 
HETATM    5  C5  UNL     1     -33.293  16.263  -2.672  1.00 20.00     0.079 C 
HETATM    6  C6  UNL     1     -34.614  16.703  -2.056  1.00 20.00     0.009 C 
HETATM    7  C7  UNL     1     -35.554  16.860  -3.248  1.00 20.00     0.022 C 
HETATM    8  C8  UNL     1     -35.566  15.824  -5.659  1.00 20.00     0.004 C 
HETATM    9  C9  UNL     1     -35.237  15.667  -4.157  1.00 20.00     0.041 C 
HETATM   10  C10 UNL     1     -36.757  16.748  -5.947  1.00 20.00     0.011 C 
HETATM   11  O11 UNL     1     -32.996  14.771  -4.539  1.00 20.00    -0.297 OA
ENDROOT
TORSDOF 0
ENDMDL
