MODEL 1
REMARK VINA RESULT:      -4.6      0.000      0.000
REMARK  0 active torsions:
REMARK  status: ('A' for Active; 'I' for Inactive)
ROOT
HETATM    1  C1  UNL     1     -34.248   5.766   6.013  1.00 20.00    -0.029 A 
HETATM    2  C2  UNL     1     -34.014   6.965   5.471  1.00 20.00    -0.023 A 
HETATM    3  C3  UNL     1     -33.328   5.361   2.891  1.00 20.00     0.155 C 
HETATM    4  C4  UNL     1     -34.697   4.732   5.026  1.00 20.00     0.040 A 
HETATM    5  C5  UNL     1     -34.268   6.938   4.011  1.00 20.00     0.050 A 
HETATM    6  C6  UNL     1     -34.646   5.460   3.684  1.00 20.00     0.071 A 
HETATM    7  C7  UNL     1     -33.029   6.882   3.048  1.00 20.00     0.101 C 
HETATM    8  C8  UNL     1     -33.236   7.668   1.752  1.00 20.00     0.042 C 
HETATM    9  O9  UNL     1     -32.753   4.441   2.348  1.00 20.00    -0.295 OA
HETATM   10 CL10 UNL     1     -31.391   7.174   3.725  1.00 20.00    -0.111 Cl
ENDROOT
TORSDOF 0
ENDMDL
MODEL 2
REMARK VINA RESULT:      -4.6     12.038     12.549
REMARK  0 active torsions:
REMARK  status: ('A' for Active; 'I' for Inactive)
ROOT
HETATM    1  C1  UNL     1     -33.204  16.261  -3.110  1.00 20.00    -0.029 A 
HETATM    2  C2  UNL     1     -34.471  16.302  -2.686  1.00 20.00    -0.023 A 
HETATM    3  C3  UNL     1     -35.103  14.698  -5.280  1.00 20.00     0.155 C 
HETATM    4  C4  UNL     1     -32.884  15.062  -3.949  1.00 20.00     0.040 A 
HETATM    5  C5  UNL     1     -35.225  15.124  -3.175  1.00 20.00     0.050 A 
HETATM    6  C6  UNL     1     -34.220  14.332  -4.070  1.00 20.00     0.071 A 
HETATM    7  C7  UNL     1     -36.210  15.326  -4.381  1.00 20.00     0.101 C 
HETATM    8  C8  UNL     1     -37.466  14.459  -4.287  1.00 20.00     0.042 C 
HETATM    9  O9  UNL     1     -34.976  14.543  -6.477  1.00 20.00    -0.295 OA
HETATM   10 CL10 UNL     1     -36.618  16.998  -4.896  1.00 20.00    -0.111 Cl
ENDROOT
TORSDOF 0
ENDMDL
MODEL 3
REMARK VINA RESULT:      -4.6     12.004     12.619
REMARK  0 active torsions:
REMARK  status: ('A' for Active; 'I' for Inactive)
ROOT
HETATM    1  C1  UNL     1     -33.927  17.048  -2.014  1.00 20.00    -0.029 A 
HETATM    2  C2  UNL     1     -35.020  16.289  -1.900  1.00 20.00    -0.023 A 
HETATM    3  C3  UNL     1     -34.565  15.661  -4.916  1.00 20.00     0.155 C 
HETATM    4  C4  UNL     1     -32.967  16.576  -3.063  1.00 20.00     0.040 A 
HETATM    5  C5  UNL     1     -34.980  15.165  -2.865  1.00 20.00     0.050 A 
HETATM    6  C6  UNL     1     -33.673  15.377  -3.692  1.00 20.00     0.071 A 
HETATM    7  C7  UNL     1     -35.867  15.268  -4.156  1.00 20.00     0.101 C 
HETATM    8  C8  UNL     1     -36.438  13.923  -4.606  1.00 20.00     0.042 C 
HETATM    9  O9  UNL     1     -34.330  16.040  -6.045  1.00 20.00    -0.295 OA
HETATM   10 CL10 UNL     1     -37.111  16.561  -4.251  1.00 20.00    -0.111 Cl
ENDROOT
TORSDOF 0
ENDMDL
MODEL 4
REMARK VINA RESULT:      -4.5     15.880     16.671
REMARK  0 active torsions:
REMARK  status: ('A' for Active; 'I' for Inactive)
ROOT
HETATM    1  C1  UNL     1     -25.420  18.908   8.384  1.00 20.00    -0.029 A 
HETATM    2  C2  UNL     1     -25.335  18.892   9.717  1.00 20.00    -0.023 A 
HETATM    3  C3  UNL     1     -22.720  17.263   9.257  1.00 20.00     0.155 C 
HETATM    4  C4  UNL     1     -24.093  18.840   7.691  1.00 20.00     0.040 A 
HETATM    5  C5  UNL     1     -23.920  18.808  10.151  1.00 20.00     0.050 A 
HETATM    6  C6  UNL     1     -23.090  18.698   8.833  1.00 20.00     0.071 A 
HETATM    7  C7  UNL     1     -23.384  17.422  10.658  1.00 20.00     0.101 C 
HETATM    8  C8  UNL     1     -22.365  17.547  11.791  1.00 20.00     0.042 C 
HETATM    9  O9  UNL     1     -22.129  16.359   8.704  1.00 20.00    -0.295 OA
HETATM   10 CL10 UNL     1     -24.562  16.108  10.992  1.00 20.00    -0.111 Cl
ENDROOT
TORSDOF 0
ENDMDL
MODEL 5
REMARK VINA RESULT:      -4.5     11.478     12.132
REMARK  0 active torsions:
REMARK  status: ('A' for Active; 'I' for Inactive)
ROOT
HETATM    1  C1  UNL     1     -33.978  16.578  -2.033  1.00 20.00    -0.029 A 
HETATM    2  C2  UNL     1     -33.306  16.784  -3.169  1.00 20.00    -0.023 A 
HETATM    3  C3  UNL     1     -34.851  14.290  -4.214  1.00 20.00     0.155 C 
HETATM    4  C4  UNL     1     -35.312  15.923  -2.227  1.00 20.00     0.040 A 
HETATM    5  C5  UNL     1     -34.083  16.295  -4.333  1.00 20.00     0.050 A 
HETATM    6  C6  UNL     1     -35.373  15.657  -3.729  1.00 20.00     0.071 A 
HETATM    7  C7  UNL     1     -33.658  14.931  -4.984  1.00 20.00     0.101 C 
HETATM    8  C8  UNL     1     -33.842  14.903  -6.501  1.00 20.00     0.042 C 
HETATM    9  O9  UNL     1     -35.236  13.150  -4.056  1.00 20.00    -0.295 OA
HETATM   10 CL10 UNL     1     -32.088  14.198  -4.511  1.00 20.00    -0.111 Cl
ENDROOT
TORSDOF 0
ENDMDL
MODEL 6
REMARK VINA RESULT:      -4.4     11.530     12.566
REMARK  0 active torsions:
REMARK  status: ('A' for Active; 'I' for Inactive)
ROOT
HETATM    1  C1  UNL     1     -33.600  17.088  -4.075  1.00 20.00    -0.029 A 
HETATM    2  C2  UNL     1     -34.854  17.172  -4.529  1.00 20.00    -0.023 A 
HETATM    3  C3  UNL     1     -34.995  14.126  -3.897  1.00 20.00     0.155 C 
HETATM    4  C4  UNL     1     -33.395  16.011  -3.054  1.00 20.00     0.040 A 
HETATM    5  C5  UNL     1     -35.714  16.153  -3.882  1.00 20.00     0.050 A 
HETATM    6  C6  UNL     1     -34.758  15.329  -2.963  1.00 20.00     0.071 A 
HETATM    7  C7  UNL     1     -36.093  14.875  -4.711  1.00 20.00     0.101 C 
HETATM    8  C8  UNL     1     -37.504  14.364  -4.420  1.00 20.00     0.042 C 
HETATM    9  O9  UNL     1     -34.509  13.016  -3.962  1.00 20.00    -0.295 OA
HETATM   10 CL10 UNL     1     -35.750  14.852  -6.474  1.00 20.00    -0.111 Cl
ENDROOT
TORSDOF 0
ENDMDL
MODEL 7
REMARK VINA RESULT:      -4.2     11.684     12.830
REMARK  0 active torsions:
REMARK  status: ('A' for Active; 'I' for Inactive)
ROOT
HETATM    1  C1  UNL     1     -33.762  16.235  -2.984  1.00 20.00    -0.029 A 
HETATM    2  C2  UNL     1     -33.906  16.810  -4.182  1.00 20.00    -0.023 A 
HETATM    3  C3  UNL     1     -35.800  14.416  -4.799  1.00 20.00     0.155 C 
HETATM    4  C4  UNL     1     -34.952  15.436  -2.548  1.00 20.00     0.040 A 
HETATM    5  C5  UNL     1     -35.233  16.490  -4.760  1.00 20.00     0.050 A 
HETATM    6  C6  UNL     1     -35.909  15.526  -3.735  1.00 20.00     0.071 A 
HETATM    7  C7  UNL     1     -35.302  15.406  -5.894  1.00 20.00     0.101 C 
HETATM    8  C8  UNL     1     -36.362  15.708  -6.954  1.00 20.00     0.042 C 
HETATM    9  O9  UNL     1     -36.027  13.224  -4.782  1.00 20.00    -0.295 OA
HETATM   10 CL10 UNL     1     -33.772  14.848  -6.653  1.00 20.00    -0.111 Cl
ENDROOT
TORSDOF 0
ENDMDL
MODEL 8
REMARK VINA RESULT:      -4.1     12.208     13.179
REMARK  0 active torsions:
REMARK  status: ('A' for Active; 'I' for Inactive)
ROOT
HETATM    1  C1  UNL     1     -34.933  16.260  -1.793  1.00 20.00    -0.029 A 
HETATM    2  C2  UNL     1     -35.199  15.283  -2.665  1.00 20.00    -0.023 A 
HETATM    3  C3  UNL     1     -33.930  17.191  -4.774  1.00 20.00     0.155 C 
HETATM    4  C4  UNL     1     -33.752  17.102  -2.169  1.00 20.00     0.040 A 
HETATM    5  C5  UNL     1     -34.231  15.304  -3.787  1.00 20.00     0.050 A 
HETATM    6  C6  UNL     1     -33.315  16.540  -3.519  1.00 20.00     0.071 A 
HETATM    7  C7  UNL     1     -34.706  15.897  -5.160  1.00 20.00     0.101 C 
HETATM    8  C8  UNL     1     -34.105  15.179  -6.369  1.00 20.00     0.042 C 
HETATM    9  O9  UNL     1     -33.834  18.295  -5.268  1.00 20.00    -0.295 OA
HETATM   10 CL10 UNL     1     -36.457  16.217  -5.406  1.00 20.00    -0.111 Cl
ENDROOT
TORSDOF 0
ENDMDL
MODEL 9
REMARK VINA RESULT:      -4.0     12.082     12.868
REMARK  0 active torsions:
REMARK  status: ('A' for Active; 'I' for Inactive)
ROOT
HETATM    1  C1  UNL     1     -33.409  14.985  -4.157  1.00 20.00    -0.029 A 
HETATM    2  C2  UNL     1     -33.007  16.026  -3.422  1.00 20.00    -0.023 A 
HETATM    3  C3  UNL     1     -36.046  16.634  -3.117  1.00 20.00     0.155 C 
HETATM    4  C4  UNL     1     -34.759  14.458  -3.775  1.00 20.00     0.040 A 
HETATM    5  C5  UNL     1     -34.031  16.379  -2.410  1.00 20.00     0.050 A 
HETATM    6  C6  UNL     1     -35.224  15.408  -2.674  1.00 20.00     0.071 A 
HETATM    7  C7  UNL     1     -34.934  17.635  -2.681  1.00 20.00     0.101 C 
HETATM    8  C8  UNL     1     -35.290  18.408  -1.411  1.00 20.00     0.042 C 
HETATM    9  O9  UNL     1     -37.147  16.762  -3.611  1.00 20.00    -0.295 OA
HETATM   10 CL10 UNL     1     -34.484  18.754  -4.012  1.00 20.00    -0.111 Cl
ENDROOT
TORSDOF 0
ENDMDL
