MODEL 1
REMARK VINA RESULT:      -4.9      0.000      0.000
REMARK  1 active torsions:
REMARK  status: ('A' for Active; 'I' for Inactive)
REMARK    1  A    between atoms: C7_7  and  C10_10 
ROOT
HETATM    1  C1  UNL     1     -34.987  17.294  -0.918  1.00 20.00     0.011 C 
HETATM    2  C2  UNL     1     -35.002  16.263  -1.773  1.00 20.00    -0.020 C 
HETATM    3  C3  UNL     1     -33.835  18.155  -0.771  1.00 20.00     0.000 C 
HETATM    4  C4  UNL     1     -32.671  17.965  -1.694  1.00 20.00     0.159 C 
HETATM    5  C5  UNL     1     -33.775  19.133   0.142  1.00 20.00     0.027 C 
HETATM    6  C6  UNL     1     -32.918  17.120  -2.928  1.00 20.00     0.092 C 
HETATM    7  C7  UNL     1     -33.839  15.919  -2.668  1.00 20.00     0.019 C 
HETATM    8  O11 UNL     1     -31.589  18.516  -1.505  1.00 20.00    -0.292 OA
ENDROOT
BRANCH   7   9
HETATM    9  C10 UNL     1     -34.331  15.346  -3.999  1.00 20.00    -0.015 C 
HETATM   10  C8  UNL     1     -33.294  14.388  -4.581  1.00 20.00     0.010 C 
HETATM   11  C9  UNL     1     -35.672  14.642  -3.814  1.00 20.00     0.010 C 
ENDBRANCH   7   9
TORSDOF 1
ENDMDL
MODEL 2
REMARK VINA RESULT:      -4.9      2.763      5.071
REMARK  1 active torsions:
REMARK  status: ('A' for Active; 'I' for Inactive)
REMARK    1  A    between atoms: C7_7  and  C10_10 
ROOT
HETATM    1  C1  UNL     1     -34.576  16.153  -5.609  1.00 20.00     0.011 C 
HETATM    2  C2  UNL     1     -34.001  16.482  -4.445  1.00 20.00    -0.020 C 
HETATM    3  C3  UNL     1     -35.318  14.924  -5.781  1.00 20.00     0.000 C 
HETATM    4  C4  UNL     1     -35.558  14.055  -4.585  1.00 20.00     0.159 C 
HETATM    5  C5  UNL     1     -35.821  14.542  -6.962  1.00 20.00     0.027 C 
HETATM    6  C6  UNL     1     -35.306  14.685  -3.229  1.00 20.00     0.092 C 
HETATM    7  C7  UNL     1     -34.089  15.622  -3.211  1.00 20.00     0.019 C 
HETATM    8  O11 UNL     1     -36.000  12.912  -4.684  1.00 20.00    -0.292 OA
ENDROOT
BRANCH   7   9
HETATM    9  C10 UNL     1     -34.120  16.487  -1.949  1.00 20.00    -0.015 C 
HETATM   10  C8  UNL     1     -33.060  17.582  -2.028  1.00 20.00     0.010 C 
HETATM   11  C9  UNL     1     -35.506  17.091  -1.749  1.00 20.00     0.010 C 
ENDBRANCH   7   9
TORSDOF 1
ENDMDL
MODEL 3
REMARK VINA RESULT:      -4.7      1.434      2.335
REMARK  1 active torsions:
REMARK  status: ('A' for Active; 'I' for Inactive)
REMARK    1  A    between atoms: C7_7  and  C10_10 
ROOT
HETATM    1  C1  UNL     1     -32.666  17.581  -1.903  1.00 20.00     0.011 C 
HETATM    2  C2  UNL     1     -33.040  16.728  -2.865  1.00 20.00    -0.020 C 
HETATM    3  C3  UNL     1     -33.583  18.045  -0.887  1.00 20.00     0.000 C 
HETATM    4  C4  UNL     1     -34.958  17.453  -0.834  1.00 20.00     0.159 C 
HETATM    5  C5  UNL     1     -33.246  18.965   0.027  1.00 20.00     0.027 C 
HETATM    6  C6  UNL     1     -35.177  16.178  -1.623  1.00 20.00     0.092 C 
HETATM    7  C7  UNL     1     -34.432  16.160  -2.966  1.00 20.00     0.019 C 
HETATM    8  O11 UNL     1     -35.850  17.931  -0.136  1.00 20.00    -0.292 OA
ENDROOT
BRANCH   7   9
HETATM    9  C10 UNL     1     -34.397  14.733  -3.519  1.00 20.00    -0.015 C 
HETATM   10  C8  UNL     1     -35.717  14.396  -4.207  1.00 20.00     0.010 C 
HETATM   11  C9  UNL     1     -33.227  14.564  -4.484  1.00 20.00     0.010 C 
ENDBRANCH   7   9
TORSDOF 1
ENDMDL
MODEL 4
REMARK VINA RESULT:      -4.6      1.569      4.345
REMARK  1 active torsions:
REMARK  status: ('A' for Active; 'I' for Inactive)
REMARK    1  A    between atoms: C7_7  and  C10_10 
ROOT
HETATM    1  C1  UNL     1     -35.167  16.762  -0.901  1.00 20.00     0.011 C 
HETATM    2  C2  UNL     1     -34.582  17.748  -0.209  1.00 20.00    -0.020 C 
HETATM    3  C3  UNL     1     -34.667  16.319  -2.183  1.00 20.00     0.000 C 
HETATM    4  C4  UNL     1     -33.381  16.896  -2.692  1.00 20.00     0.159 C 
HETATM    5  C5  UNL     1     -35.293  15.397  -2.925  1.00 20.00     0.027 C 
HETATM    6  C6  UNL     1     -32.527  17.638  -1.684  1.00 20.00     0.092 C 
HETATM    7  C7  UNL     1     -33.347  18.468  -0.686  1.00 20.00     0.019 C 
HETATM    8  O11 UNL     1     -32.998  16.723  -3.847  1.00 20.00    -0.292 OA
ENDROOT
BRANCH   7   9
HETATM    9  C10 UNL     1     -32.466  18.876   0.497  1.00 20.00    -0.015 C 
HETATM   10  C8  UNL     1     -33.037  18.325   1.801  1.00 20.00     0.010 C 
HETATM   11  C9  UNL     1     -31.035  18.392   0.288  1.00 20.00     0.010 C 
ENDBRANCH   7   9
TORSDOF 1
ENDMDL
MODEL 5
REMARK VINA RESULT:      -4.5      2.462      4.883
REMARK  1 active torsions:
REMARK  status: ('A' for Active; 'I' for Inactive)
REMARK    1  A    between atoms: C7_7  and  C10_10 
ROOT
HETATM    1  C1  UNL     1     -34.702  16.642  -5.511  1.00 20.00     0.011 C 
HETATM    2  C2  UNL     1     -34.091  17.284  -4.507  1.00 20.00    -0.020 C 
HETATM    3  C3  UNL     1     -35.051  15.242  -5.430  1.00 20.00     0.000 C 
HETATM    4  C4  UNL     1     -34.837  14.520  -4.134  1.00 20.00     0.159 C 
HETATM    5  C5  UNL     1     -35.582  14.567  -6.458  1.00 20.00     0.027 C 
HETATM    6  C6  UNL     1     -34.594  15.383  -2.912  1.00 20.00     0.092 C 
HETATM    7  C7  UNL     1     -33.732  16.620  -3.203  1.00 20.00     0.019 C 
HETATM    8  O11 UNL     1     -34.919  13.297  -4.045  1.00 20.00    -0.292 OA
ENDROOT
BRANCH   7   9
HETATM    9  C10 UNL     1     -33.839  17.611  -2.042  1.00 20.00    -0.015 C 
HETATM   10  C8  UNL     1     -34.805  17.087  -0.982  1.00 20.00     0.010 C 
HETATM   11  C9  UNL     1     -32.464  17.874  -1.436  1.00 20.00     0.010 C 
ENDBRANCH   7   9
TORSDOF 1
ENDMDL
MODEL 6
REMARK VINA RESULT:      -4.5      2.040      3.250
REMARK  1 active torsions:
REMARK  status: ('A' for Active; 'I' for Inactive)
REMARK    1  A    between atoms: C7_7  and  C10_10 
ROOT
HETATM    1  C1  UNL     1     -31.138  18.357  -0.459  1.00 20.00     0.011 C 
HETATM    2  C2  UNL     1     -31.988  18.172  -1.478  1.00 20.00    -0.020 C 
HETATM    3  C3  UNL     1     -31.594  18.666   0.877  1.00 20.00     0.000 C 
HETATM    4  C4  UNL     1     -33.066  18.655   1.157  1.00 20.00     0.159 C 
HETATM    5  C5  UNL     1     -30.754  18.939   1.884  1.00 20.00     0.027 C 
HETATM    6  C6  UNL     1     -33.947  17.991   0.117  1.00 20.00     0.092 C 
HETATM    7  C7  UNL     1     -33.485  18.249  -1.325  1.00 20.00     0.019 C 
HETATM    8  O11 UNL     1     -33.538  19.097   2.202  1.00 20.00    -0.292 OA
ENDROOT
BRANCH   7   9
HETATM    9  C10 UNL     1     -34.178  17.270  -2.274  1.00 20.00    -0.015 C 
HETATM   10  C8  UNL     1     -33.145  16.428  -3.018  1.00 20.00     0.010 C 
HETATM   11  C9  UNL     1     -35.149  16.378  -1.506  1.00 20.00     0.010 C 
ENDBRANCH   7   9
TORSDOF 1
ENDMDL
MODEL 7
REMARK VINA RESULT:      -4.4      2.397      4.437
REMARK  1 active torsions:
REMARK  status: ('A' for Active; 'I' for Inactive)
REMARK    1  A    between atoms: C7_7  and  C10_10 
ROOT
HETATM    1  C1  UNL     1     -33.012  16.239  -3.105  1.00 20.00     0.011 C 
HETATM    2  C2  UNL     1     -33.830  16.838  -2.230  1.00 20.00    -0.020 C 
HETATM    3  C3  UNL     1     -33.400  15.052  -3.832  1.00 20.00     0.000 C 
HETATM    4  C4  UNL     1     -34.806  14.552  -3.698  1.00 20.00     0.159 C 
HETATM    5  C5  UNL     1     -32.561  14.393  -4.642  1.00 20.00     0.027 C 
HETATM    6  C6  UNL     1     -35.808  15.510  -3.086  1.00 20.00     0.092 C 
HETATM    7  C7  UNL     1     -35.225  16.350  -1.940  1.00 20.00     0.019 C 
HETATM    8  O11 UNL     1     -35.153  13.451  -4.120  1.00 20.00    -0.292 OA
ENDROOT
BRANCH   7   9
HETATM    9  C10 UNL     1     -36.157  17.523  -1.631  1.00 20.00    -0.015 C 
HETATM   10  C8  UNL     1     -35.358  18.817  -1.496  1.00 20.00     0.010 C 
HETATM   11  C9  UNL     1     -37.223  17.658  -2.714  1.00 20.00     0.010 C 
ENDBRANCH   7   9
TORSDOF 1
ENDMDL
MODEL 8
REMARK VINA RESULT:      -4.3      3.302      4.946
REMARK  1 active torsions:
REMARK  status: ('A' for Active; 'I' for Inactive)
REMARK    1  A    between atoms: C7_7  and  C10_10 
ROOT
HETATM    1  C1  UNL     1     -37.191  17.282  -4.313  1.00 20.00     0.011 C 
HETATM    2  C2  UNL     1     -35.871  17.160  -4.507  1.00 20.00    -0.020 C 
HETATM    3  C3  UNL     1     -38.067  16.136  -4.241  1.00 20.00     0.000 C 
HETATM    4  C4  UNL     1     -37.462  14.765  -4.256  1.00 20.00     0.159 C 
HETATM    5  C5  UNL     1     -39.398  16.247  -4.136  1.00 20.00     0.027 C 
HETATM    6  C6  UNL     1     -35.970  14.681  -4.002  1.00 20.00     0.092 C 
HETATM    7  C7  UNL     1     -35.179  15.829  -4.646  1.00 20.00     0.019 C 
HETATM    8  O11 UNL     1     -38.142  13.751  -4.399  1.00 20.00    -0.292 OA
ENDROOT
BRANCH   7   9
HETATM    9  C10 UNL     1     -33.771  15.885  -4.051  1.00 20.00    -0.015 C 
HETATM   10  C8  UNL     1     -33.837  16.161  -2.551  1.00 20.00     0.010 C 
HETATM   11  C9  UNL     1     -33.022  14.585  -4.327  1.00 20.00     0.010 C 
ENDBRANCH   7   9
TORSDOF 1
ENDMDL
MODEL 9
REMARK VINA RESULT:      -4.3      2.308      4.808
REMARK  1 active torsions:
REMARK  status: ('A' for Active; 'I' for Inactive)
REMARK    1  A    between atoms: C7_7  and  C10_10 
ROOT
HETATM    1  C1  UNL     1     -33.220  15.897  -3.878  1.00 20.00     0.011 C 
HETATM    2  C2  UNL     1     -33.385  16.349  -2.628  1.00 20.00    -0.020 C 
HETATM    3  C3  UNL     1     -34.307  15.323  -4.638  1.00 20.00     0.000 C 
HETATM    4  C4  UNL     1     -35.687  15.350  -4.055  1.00 20.00     0.159 C 
HETATM    5  C5  UNL     1     -34.136  14.787  -5.854  1.00 20.00     0.027 C 
HETATM    6  C6  UNL     1     -35.904  16.276  -2.875  1.00 20.00     0.092 C 
HETATM    7  C7  UNL     1     -34.710  16.321  -1.910  1.00 20.00     0.019 C 
HETATM    8  O11 UNL     1     -36.617  14.712  -4.543  1.00 20.00    -0.292 OA
ENDROOT
BRANCH   7   9
HETATM    9  C10 UNL     1     -34.845  17.523  -0.974  1.00 20.00    -0.015 C 
HETATM   10  C8  UNL     1     -35.489  17.102   0.344  1.00 20.00     0.010 C 
HETATM   11  C9  UNL     1     -33.482  18.164  -0.727  1.00 20.00     0.010 C 
ENDBRANCH   7   9
TORSDOF 1
ENDMDL
