MODEL 1
REMARK VINA RESULT:      -3.8      0.000      0.000
REMARK  0 active torsions:
REMARK  status: ('A' for Active; 'I' for Inactive)
ROOT
HETATM    1  C1  UNL     1     -23.936  18.302   8.404  1.00 20.00     0.147 A 
HETATM    2  C2  UNL     1     -23.643  17.868  12.177  1.00 20.00     0.168 A 
HETATM    3  C3  UNL     1     -23.945  18.163   9.821  1.00 20.00     0.061 A 
HETATM    4  C4  UNL     1     -22.679  17.858  10.235  1.00 20.00     0.134 A 
HETATM    5  N5  UNL     1     -22.795  18.128   7.731  1.00 20.00    -0.220 NA
HETATM    6  N6  UNL     1     -22.488  17.685  11.571  1.00 20.00    -0.244 NA
HETATM    7  S7  UNL     1     -25.009  18.252  11.186  1.00 20.00    -0.078 SA
HETATM    8  S8  UNL     1     -21.605  17.767   8.864  1.00 20.00     0.032 SA
ENDROOT
TORSDOF 0
ENDMDL
MODEL 2
REMARK VINA RESULT:      -3.8      1.768      1.957
REMARK  0 active torsions:
REMARK  status: ('A' for Active; 'I' for Inactive)
ROOT
HETATM    1  C1  UNL     1     -21.934  18.132   9.318  1.00 20.00     0.147 A 
HETATM    2  C2  UNL     1     -24.372  17.926  12.239  1.00 20.00     0.168 A 
HETATM    3  C3  UNL     1     -22.751  18.028  10.480  1.00 20.00     0.061 A 
HETATM    4  C4  UNL     1     -24.045  18.286  10.126  1.00 20.00     0.134 A 
HETATM    5  N5  UNL     1     -22.492  18.441   8.145  1.00 20.00    -0.220 NA
HETATM    6  N6  UNL     1     -24.981  18.234  11.112  1.00 20.00    -0.244 NA
HETATM    7  S7  UNL     1     -22.659  17.686  12.177  1.00 20.00    -0.078 SA
HETATM    8  S8  UNL     1     -24.142  18.631   8.419  1.00 20.00     0.032 SA
ENDROOT
TORSDOF 0
ENDMDL
MODEL 3
REMARK VINA RESULT:      -3.6      2.039      3.292
REMARK  0 active torsions:
REMARK  status: ('A' for Active; 'I' for Inactive)
ROOT
HETATM    1  C1  UNL     1     -25.259  18.252  11.220  1.00 20.00     0.147 A 
HETATM    2  C2  UNL     1     -22.693  17.604   8.480  1.00 20.00     0.168 A 
HETATM    3  C3  UNL     1     -24.319  18.123  10.157  1.00 20.00     0.061 A 
HETATM    4  C4  UNL     1     -23.785  16.866  10.202  1.00 20.00     0.134 A 
HETATM    5  N5  UNL     1     -25.471  17.222  12.043  1.00 20.00    -0.220 NA
HETATM    6  N6  UNL     1     -22.858  16.552   9.256  1.00 20.00    -0.244 NA
HETATM    7  S7  UNL     1     -23.631  19.013   8.839  1.00 20.00    -0.078 SA
HETATM    8  S8  UNL     1     -24.474  15.967  11.528  1.00 20.00     0.032 SA
ENDROOT
TORSDOF 0
ENDMDL
MODEL 4
REMARK VINA RESULT:      -3.5     16.746     17.220
REMARK  0 active torsions:
REMARK  status: ('A' for Active; 'I' for Inactive)
ROOT
HETATM    1  C1  UNL     1     -32.785   7.103   3.336  1.00 20.00     0.147 A 
HETATM    2  C2  UNL     1     -34.944   5.155   5.798  1.00 20.00     0.168 A 
HETATM    3  C3  UNL     1     -33.578   6.466   4.334  1.00 20.00     0.061 A 
HETATM    4  C4  UNL     1     -34.004   5.263   3.847  1.00 20.00     0.134 A 
HETATM    5  N5  UNL     1     -32.584   6.493   2.165  1.00 20.00    -0.220 NA
HETATM    6  N6  UNL     1     -34.782   4.503   4.665  1.00 20.00    -0.244 NA
HETATM    7  S7  UNL     1     -34.179   6.700   5.942  1.00 20.00    -0.078 SA
HETATM    8  S8  UNL     1     -33.402   5.023   2.228  1.00 20.00     0.032 SA
ENDROOT
TORSDOF 0
ENDMDL
MODEL 5
REMARK VINA RESULT:      -3.4      5.062      6.364
REMARK  0 active torsions:
REMARK  status: ('A' for Active; 'I' for Inactive)
ROOT
HETATM    1  C1  UNL     1     -27.450  19.213   6.456  1.00 20.00     0.147 A 
HETATM    2  C2  UNL     1     -25.434  19.099   3.225  1.00 20.00     0.168 A 
HETATM    3  C3  UNL     1     -26.802  19.167   5.189  1.00 20.00     0.061 A 
HETATM    4  C4  UNL     1     -25.451  19.184   5.392  1.00 20.00     0.134 A 
HETATM    5  N5  UNL     1     -26.717  19.263   7.571  1.00 20.00    -0.220 NA
HETATM    6  N6  UNL     1     -24.656  19.146   4.288  1.00 20.00    -0.244 NA
HETATM    7  S7  UNL     1     -27.144  19.098   3.491  1.00 20.00    -0.078 SA
HETATM    8  S8  UNL     1     -25.101  19.254   7.099  1.00 20.00     0.032 SA
ENDROOT
TORSDOF 0
ENDMDL
MODEL 6
REMARK VINA RESULT:      -3.4     16.645     17.334
REMARK  0 active torsions:
REMARK  status: ('A' for Active; 'I' for Inactive)
ROOT
HETATM    1  C1  UNL     1     -34.819   4.728   4.796  1.00 20.00     0.147 A 
HETATM    2  C2  UNL     1     -32.541   6.598   2.382  1.00 20.00     0.168 A 
HETATM    3  C3  UNL     1     -33.986   5.337   3.815  1.00 20.00     0.061 A 
HETATM    4  C4  UNL     1     -33.506   6.511   4.322  1.00 20.00     0.134 A 
HETATM    5  N5  UNL     1     -35.005   5.332   5.972  1.00 20.00    -0.220 NA
HETATM    6  N6  UNL     1     -32.683   7.243   3.523  1.00 20.00    -0.244 NA
HETATM    7  S7  UNL     1     -33.379   5.094   2.210  1.00 20.00    -0.078 SA
HETATM    8  S8  UNL     1     -34.114   6.760   5.938  1.00 20.00     0.032 SA
ENDROOT
TORSDOF 0
ENDMDL
MODEL 7
REMARK VINA RESULT:      -3.3     16.385     17.281
REMARK  0 active torsions:
REMARK  status: ('A' for Active; 'I' for Inactive)
ROOT
HETATM    1  C1  UNL     1     -32.882  15.067  -4.260  1.00 20.00     0.147 A 
HETATM    2  C2  UNL     1     -34.556  17.131  -1.531  1.00 20.00     0.168 A 
HETATM    3  C3  UNL     1     -33.408  15.906  -3.237  1.00 20.00     0.061 A 
HETATM    4  C4  UNL     1     -34.663  15.470  -2.921  1.00 20.00     0.134 A 
HETATM    5  N5  UNL     1     -33.620  14.059  -4.732  1.00 20.00    -0.220 NA
HETATM    6  N6  UNL     1     -35.333  16.154  -1.954  1.00 20.00    -0.244 NA
HETATM    7  S7  UNL     1     -32.996  17.281  -2.265  1.00 20.00    -0.078 SA
HETATM    8  S8  UNL     1     -35.082  14.087  -3.897  1.00 20.00     0.032 SA
ENDROOT
TORSDOF 0
ENDMDL
MODEL 8
REMARK VINA RESULT:      -3.3     18.112     19.349
REMARK  0 active torsions:
REMARK  status: ('A' for Active; 'I' for Inactive)
ROOT
HETATM    1  C1  UNL     1     -36.212  13.549  -4.517  1.00 20.00     0.147 A 
HETATM    2  C2  UNL     1     -33.918  16.562  -4.099  1.00 20.00     0.168 A 
HETATM    3  C3  UNL     1     -35.261  14.600  -4.370  1.00 20.00     0.061 A 
HETATM    4  C4  UNL     1     -35.936  15.778  -4.223  1.00 20.00     0.134 A 
HETATM    5  N5  UNL     1     -37.517  13.833  -4.495  1.00 20.00    -0.220 NA
HETATM    6  N6  UNL     1     -35.190  16.906  -4.068  1.00 20.00    -0.244 NA
HETATM    7  S7  UNL     1     -33.553  14.884  -4.313  1.00 20.00    -0.078 SA
HETATM    8  S8  UNL     1     -37.656  15.496  -4.280  1.00 20.00     0.032 SA
ENDROOT
TORSDOF 0
ENDMDL
MODEL 9
REMARK VINA RESULT:      -3.2     17.447     18.684
REMARK  0 active torsions:
REMARK  status: ('A' for Active; 'I' for Inactive)
ROOT
HETATM    1  C1  UNL     1     -35.270  15.927  -2.374  1.00 20.00     0.147 A 
HETATM    2  C2  UNL     1     -35.980  14.117  -5.650  1.00 20.00     0.168 A 
HETATM    3  C3  UNL     1     -35.650  15.240  -3.563  1.00 20.00     0.061 A 
HETATM    4  C4  UNL     1     -34.549  15.110  -4.360  1.00 20.00     0.134 A 
HETATM    5  N5  UNL     1     -34.003  16.317  -2.214  1.00 20.00    -0.220 NA
HETATM    6  N6  UNL     1     -34.716  14.475  -5.552  1.00 20.00    -0.244 NA
HETATM    7  S7  UNL     1     -37.026  14.520  -4.332  1.00 20.00    -0.078 SA
HETATM    8  S8  UNL     1     -33.161  15.835  -3.590  1.00 20.00     0.032 SA
ENDROOT
TORSDOF 0
ENDMDL
