MODEL 1
REMARK VINA RESULT:      -5.2      0.000      0.000
REMARK  2 active torsions:
REMARK  status: ('A' for Active; 'I' for Inactive)
REMARK    1  A    between atoms: C2_2  and  C3_3 
REMARK    2  A    between atoms: C3_3  and  O11_11 
ROOT
HETATM    1  C1  UNL     1     -35.829  15.410  -6.098  1.00 20.00    -0.008 C 
HETATM    2  C2  UNL     1     -35.563  14.772  -4.954  1.00 20.00     0.020 C 
HETATM    3  C4  UNL     1     -34.358  16.790  -4.866  1.00 20.00     0.022 C 
HETATM    4  C5  UNL     1     -34.930  16.594  -6.281  1.00 20.00     0.006 C 
HETATM    5  C6  UNL     1     -34.457  15.413  -4.163  1.00 20.00    -0.014 C 
HETATM    6  C7  UNL     1     -35.662  17.829  -6.784  1.00 20.00     0.014 C 
HETATM    7  C8  UNL     1     -33.151  14.622  -4.310  1.00 20.00     0.020 C 
HETATM    8  C9  UNL     1     -34.797  15.596  -2.679  1.00 20.00     0.020 C 
ENDROOT
BRANCH   2   9
HETATM    9  C3  UNL     1     -36.269  13.558  -4.577  1.00 20.00     0.172 C 
HETATM   10  O10 UNL     1     -35.743  12.466  -4.406  1.00 20.00    -0.646 OA
BRANCH   9  11
HETATM   11  O11 UNL     1     -37.591  13.813  -4.444  1.00 20.00    -0.773 OA
HETATM   12  H25 UNL     1     -37.882  14.573  -4.993  1.00 20.00     0.167 HD
ENDBRANCH   9  11
ENDBRANCH   2   9
TORSDOF 2
ENDMDL
MODEL 2
REMARK VINA RESULT:      -5.1      1.116      2.900
REMARK  2 active torsions:
REMARK  status: ('A' for Active; 'I' for Inactive)
REMARK    1  A    between atoms: C2_2  and  C3_3 
REMARK    2  A    between atoms: C3_3  and  O11_11 
ROOT
HETATM    1  C1  UNL     1     -35.193  15.330  -3.201  1.00 20.00    -0.008 C 
HETATM    2  C2  UNL     1     -35.729  14.933  -4.359  1.00 20.00     0.020 C 
HETATM    3  C4  UNL     1     -34.288  16.714  -4.890  1.00 20.00     0.022 C 
HETATM    4  C5  UNL     1     -34.447  16.619  -3.363  1.00 20.00     0.006 C 
HETATM    5  C6  UNL     1     -35.432  15.866  -5.500  1.00 20.00    -0.014 C 
HETATM    6  C7  UNL     1     -33.108  16.630  -2.641  1.00 20.00     0.014 C 
HETATM    7  C8  UNL     1     -36.653  16.737  -5.824  1.00 20.00     0.020 C 
HETATM    8  C9  UNL     1     -34.948  15.147  -6.764  1.00 20.00     0.020 C 
ENDROOT
BRANCH   2   9
HETATM    9  C3  UNL     1     -36.547  13.734  -4.448  1.00 20.00     0.172 C 
HETATM   10  O10 UNL     1     -37.771  13.721  -4.466  1.00 20.00    -0.646 OA
BRANCH   9  11
HETATM   11  O11 UNL     1     -35.757  12.637  -4.506  1.00 20.00    -0.773 OA
HETATM   12  H25 UNL     1     -36.273  11.811  -4.621  1.00 20.00     0.167 HD
ENDBRANCH   9  11
ENDBRANCH   2   9
TORSDOF 2
ENDMDL
MODEL 3
REMARK VINA RESULT:      -5.0      1.173      2.634
REMARK  2 active torsions:
REMARK  status: ('A' for Active; 'I' for Inactive)
REMARK    1  A    between atoms: C2_2  and  C3_3 
REMARK    2  A    between atoms: C3_3  and  O11_11 
ROOT
HETATM    1  C1  UNL     1     -35.825  15.518  -2.841  1.00 20.00    -0.008 C 
HETATM    2  C2  UNL     1     -35.328  14.744  -3.810  1.00 20.00     0.020 C 
HETATM    3  C4  UNL     1     -33.658  16.329  -3.328  1.00 20.00     0.022 C 
HETATM    4  C5  UNL     1     -34.963  16.722  -2.613  1.00 20.00     0.006 C 
HETATM    5  C6  UNL     1     -34.049  15.276  -4.395  1.00 20.00    -0.014 C 
HETATM    6  C7  UNL     1     -34.743  17.030  -1.139  1.00 20.00     0.014 C 
HETATM    7  C8  UNL     1     -34.302  15.936  -5.756  1.00 20.00     0.020 C 
HETATM    8  C9  UNL     1     -32.951  14.213  -4.521  1.00 20.00     0.020 C 
ENDROOT
BRANCH   2   9
HETATM    9  C3  UNL     1     -36.016  13.542  -4.252  1.00 20.00     0.172 C 
HETATM   10  O10 UNL     1     -35.517  12.425  -4.297  1.00 20.00    -0.646 OA
BRANCH   9  11
HETATM   11  O11 UNL     1     -37.288  13.840  -4.606  1.00 20.00    -0.773 OA
HETATM   12  H25 UNL     1     -37.470  14.803  -4.568  1.00 20.00     0.167 HD
ENDBRANCH   9  11
ENDBRANCH   2   9
TORSDOF 2
ENDMDL
MODEL 4
REMARK VINA RESULT:      -4.7     18.121     19.146
REMARK  2 active torsions:
REMARK  status: ('A' for Active; 'I' for Inactive)
REMARK    1  A    between atoms: C2_2  and  C3_3 
REMARK    2  A    between atoms: C3_3  and  O11_11 
ROOT
HETATM    1  C1  UNL     1     -26.030  19.190  10.611  1.00 20.00    -0.008 C 
HETATM    2  C2  UNL     1     -24.907  18.537  10.297  1.00 20.00     0.020 C 
HETATM    3  C4  UNL     1     -25.819  17.404  12.146  1.00 20.00     0.022 C 
HETATM    4  C5  UNL     1     -26.580  18.724  11.924  1.00 20.00     0.006 C 
HETATM    5  C6  UNL     1     -24.510  17.515  11.326  1.00 20.00    -0.014 C 
HETATM    6  C7  UNL     1     -28.088  18.525  11.906  1.00 20.00     0.014 C 
HETATM    7  C8  UNL     1     -23.356  18.034  12.194  1.00 20.00     0.020 C 
HETATM    8  C9  UNL     1     -24.143  16.155  10.721  1.00 20.00     0.020 C 
ENDROOT
BRANCH   2   9
HETATM    9  C3  UNL     1     -24.156  18.850   9.092  1.00 20.00     0.172 C 
HETATM   10  O10 UNL     1     -23.003  19.262   9.072  1.00 20.00    -0.646 OA
BRANCH   9  11
HETATM   11  O11 UNL     1     -24.919  18.621   7.998  1.00 20.00    -0.773 OA
HETATM   12  H25 UNL     1     -24.787  17.720   7.634  1.00 20.00     0.167 HD
ENDBRANCH   9  11
ENDBRANCH   2   9
TORSDOF 2
ENDMDL
MODEL 5
REMARK VINA RESULT:      -4.6      2.274      3.584
REMARK  2 active torsions:
REMARK  status: ('A' for Active; 'I' for Inactive)
REMARK    1  A    between atoms: C2_2  and  C3_3 
REMARK    2  A    between atoms: C3_3  and  O11_11 
ROOT
HETATM    1  C1  UNL     1     -33.500  15.982  -4.057  1.00 20.00    -0.008 C 
HETATM    2  C2  UNL     1     -34.383  15.546  -4.960  1.00 20.00     0.020 C 
HETATM    3  C4  UNL     1     -35.555  15.688  -2.926  1.00 20.00     0.022 C 
HETATM    4  C5  UNL     1     -34.051  15.880  -2.667  1.00 20.00     0.006 C 
HETATM    5  C6  UNL     1     -35.678  15.088  -4.349  1.00 20.00    -0.014 C 
HETATM    6  C7  UNL     1     -33.763  17.109  -1.817  1.00 20.00     0.014 C 
HETATM    7  C8  UNL     1     -35.747  13.556  -4.298  1.00 20.00     0.020 C 
HETATM    8  C9  UNL     1     -36.916  15.647  -5.058  1.00 20.00     0.020 C 
ENDROOT
BRANCH   2   9
HETATM    9  C3  UNL     1     -34.060  15.496  -6.377  1.00 20.00     0.172 C 
HETATM   10  O10 UNL     1     -34.486  16.274  -7.221  1.00 20.00    -0.646 OA
BRANCH   9  11
HETATM   11  O11 UNL     1     -33.221  14.464  -6.625  1.00 20.00    -0.773 OA
HETATM   12  H25 UNL     1     -32.358  14.567  -6.171  1.00 20.00     0.167 HD
ENDBRANCH   9  11
ENDBRANCH   2   9
TORSDOF 2
ENDMDL
MODEL 6
REMARK VINA RESULT:      -4.4      1.741      2.890
REMARK  2 active torsions:
REMARK  status: ('A' for Active; 'I' for Inactive)
REMARK    1  A    between atoms: C2_2  and  C3_3 
REMARK    2  A    between atoms: C3_3  and  O11_11 
ROOT
HETATM    1  C1  UNL     1     -36.391  16.373  -3.069  1.00 20.00    -0.008 C 
HETATM    2  C2  UNL     1     -36.274  15.355  -3.928  1.00 20.00     0.020 C 
HETATM    3  C4  UNL     1     -34.186  15.546  -2.862  1.00 20.00     0.022 C 
HETATM    4  C5  UNL     1     -35.059  16.762  -2.505  1.00 20.00     0.006 C 
HETATM    5  C6  UNL     1     -34.859  14.872  -4.084  1.00 20.00    -0.014 C 
HETATM    6  C7  UNL     1     -35.098  17.025  -1.007  1.00 20.00     0.014 C 
HETATM    7  C8  UNL     1     -34.250  15.378  -5.398  1.00 20.00     0.020 C 
HETATM    8  C9  UNL     1     -34.723  13.348  -3.994  1.00 20.00     0.020 C 
ENDROOT
BRANCH   2   9
HETATM    9  C3  UNL     1     -37.423  14.831  -4.648  1.00 20.00     0.172 C 
HETATM   10  O10 UNL     1     -38.067  13.843  -4.318  1.00 20.00    -0.646 OA
BRANCH   9  11
HETATM   11  O11 UNL     1     -37.676  15.595  -5.735  1.00 20.00    -0.773 OA
HETATM   12  H25 UNL     1     -37.269  15.231  -6.550  1.00 20.00     0.167 HD
ENDBRANCH   9  11
ENDBRANCH   2   9
TORSDOF 2
ENDMDL
MODEL 7
REMARK VINA RESULT:      -4.4      1.543      2.109
REMARK  2 active torsions:
REMARK  status: ('A' for Active; 'I' for Inactive)
REMARK    1  A    between atoms: C2_2  and  C3_3 
REMARK    2  A    between atoms: C3_3  and  O11_11 
ROOT
HETATM    1  C1  UNL     1     -34.429  15.720  -5.763  1.00 20.00    -0.008 C 
HETATM    2  C2  UNL     1     -34.177  15.248  -4.538  1.00 20.00     0.020 C 
HETATM    3  C4  UNL     1     -35.029  17.419  -4.232  1.00 20.00     0.022 C 
HETATM    4  C5  UNL     1     -34.742  17.185  -5.725  1.00 20.00     0.006 C 
HETATM    5  C6  UNL     1     -34.286  16.296  -3.466  1.00 20.00    -0.014 C 
HETATM    6  C7  UNL     1     -35.921  17.567  -6.607  1.00 20.00     0.014 C 
HETATM    7  C8  UNL     1     -32.896  16.763  -3.014  1.00 20.00     0.020 C 
HETATM    8  C9  UNL     1     -35.108  15.843  -2.254  1.00 20.00     0.020 C 
ENDROOT
BRANCH   2   9
HETATM    9  C3  UNL     1     -33.794  13.862  -4.321  1.00 20.00     0.172 C 
HETATM   10  O10 UNL     1     -34.560  12.969  -3.979  1.00 20.00    -0.646 OA
BRANCH   9  11
HETATM   11  O11 UNL     1     -32.470  13.705  -4.550  1.00 20.00    -0.773 OA
HETATM   12  H25 UNL     1     -31.971  13.503  -3.731  1.00 20.00     0.167 HD
ENDBRANCH   9  11
ENDBRANCH   2   9
TORSDOF 2
ENDMDL
MODEL 8
REMARK VINA RESULT:      -4.3      2.206      2.593
REMARK  2 active torsions:
REMARK  status: ('A' for Active; 'I' for Inactive)
REMARK    1  A    between atoms: C2_2  and  C3_3 
REMARK    2  A    between atoms: C3_3  and  O11_11 
ROOT
HETATM    1  C1  UNL     1     -37.839  15.385  -4.665  1.00 20.00    -0.008 C 
HETATM    2  C2  UNL     1     -36.559  15.008  -4.574  1.00 20.00     0.020 C 
HETATM    3  C4  UNL     1     -36.748  16.973  -3.295  1.00 20.00     0.022 C 
HETATM    4  C5  UNL     1     -38.041  16.758  -4.102  1.00 20.00     0.006 C 
HETATM    5  C6  UNL     1     -35.682  16.044  -3.928  1.00 20.00    -0.014 C 
HETATM    6  C7  UNL     1     -39.287  16.872  -3.237  1.00 20.00     0.014 C 
HETATM    7  C8  UNL     1     -34.853  16.791  -4.980  1.00 20.00     0.020 C 
HETATM    8  C9  UNL     1     -34.763  15.472  -2.843  1.00 20.00     0.020 C 
ENDROOT
BRANCH   2   9
HETATM    9  C3  UNL     1     -36.102  13.733  -5.102  1.00 20.00     0.172 C 
HETATM   10  O10 UNL     1     -35.945  12.716  -4.439  1.00 20.00    -0.646 OA
BRANCH   9  11
HETATM   11  O11 UNL     1     -35.876  13.837  -6.432  1.00 20.00    -0.773 OA
HETATM   12  H25 UNL     1     -36.289  13.106  -6.939  1.00 20.00     0.167 HD
ENDBRANCH   9  11
ENDBRANCH   2   9
TORSDOF 2
ENDMDL
MODEL 9
REMARK VINA RESULT:      -4.3      4.020      5.212
REMARK  2 active torsions:
REMARK  status: ('A' for Active; 'I' for Inactive)
REMARK    1  A    between atoms: C2_2  and  C3_3 
REMARK    2  A    between atoms: C3_3  and  O11_11 
ROOT
HETATM    1  C1  UNL     1     -33.055  16.506  -3.023  1.00 20.00    -0.008 C 
HETATM    2  C2  UNL     1     -33.343  17.349  -2.026  1.00 20.00     0.020 C 
HETATM    3  C4  UNL     1     -35.291  16.081  -2.385  1.00 20.00     0.022 C 
HETATM    4  C5  UNL     1     -34.286  15.813  -3.519  1.00 20.00     0.006 C 
HETATM    5  C6  UNL     1     -34.803  17.364  -1.667  1.00 20.00    -0.014 C 
HETATM    6  C7  UNL     1     -34.077  14.326  -3.766  1.00 20.00     0.014 C 
HETATM    7  C8  UNL     1     -35.492  18.611  -2.234  1.00 20.00     0.020 C 
HETATM    8  C9  UNL     1     -35.059  17.260  -0.159  1.00 20.00     0.020 C 
ENDROOT
BRANCH   2   9
HETATM    9  C3  UNL     1     -32.320  18.180  -1.412  1.00 20.00     0.172 C 
HETATM   10  O10 UNL     1     -31.902  18.047  -0.268  1.00 20.00    -0.646 OA
BRANCH   9  11
HETATM   11  O11 UNL     1     -31.898  19.120  -2.289  1.00 20.00    -0.773 OA
HETATM   12  H25 UNL     1     -30.924  19.115  -2.402  1.00 20.00     0.167 HD
ENDBRANCH   9  11
ENDBRANCH   2   9
TORSDOF 2
ENDMDL
