MODEL 1
REMARK VINA RESULT:      -4.3      0.000      0.000
REMARK  1 active torsions:
REMARK  status: ('A' for Active; 'I' for Inactive)
REMARK    1  A    between atoms: C4_4  and  C7_7 
ROOT
HETATM    1  C1  UNL     1     -22.809  17.749   8.073  1.00 20.00     0.075 C 
HETATM    2  C2  UNL     1     -24.691  18.962   9.108  1.00 20.00     0.105 C 
HETATM    3  C3  UNL     1     -23.799  17.729   9.154  1.00 20.00     0.164 C 
HETATM    4  C4  UNL     1     -24.493  18.194  11.727  1.00 20.00     0.113 C 
HETATM    5  N8  UNL     1     -22.025  17.766   7.218  1.00 20.00    -0.196 NA
HETATM    6  S9  UNL     1     -25.688  19.019  10.625  1.00 20.00    -0.151 SA
HETATM    7  S10 UNL     1     -23.002  17.744  10.786  1.00 20.00    -0.133 SA
ENDROOT
BRANCH   4   8
HETATM    8  C7  UNL     1     -25.126  16.949  12.332  1.00 20.00     0.001 C 
HETATM    9  C5  UNL     1     -26.650  17.059  12.326  1.00 20.00     0.011 C 
HETATM   10  C6  UNL     1     -24.677  15.696  11.581  1.00 20.00     0.011 C 
ENDBRANCH   4   8
TORSDOF 1
ENDMDL
MODEL 2
REMARK VINA RESULT:      -4.3     16.297     17.271
REMARK  1 active torsions:
REMARK  status: ('A' for Active; 'I' for Inactive)
REMARK    1  A    between atoms: C4_4  and  C7_7 
ROOT
HETATM    1  C1  UNL     1     -35.606  13.831  -4.177  1.00 20.00     0.075 C 
HETATM    2  C2  UNL     1     -35.998  16.266  -4.145  1.00 20.00     0.105 C 
HETATM    3  C3  UNL     1     -35.222  15.099  -3.549  1.00 20.00     0.164 C 
HETATM    4  C4  UNL     1     -33.562  17.226  -3.351  1.00 20.00     0.113 C 
HETATM    5  N8  UNL     1     -35.910  12.827  -4.674  1.00 20.00    -0.196 NA
HETATM    6  S9  UNL     1     -35.276  17.818  -3.539  1.00 20.00    -0.151 SA
HETATM    7  S10 UNL     1     -33.466  15.471  -3.823  1.00 20.00    -0.133 SA
ENDROOT
BRANCH   4   8
HETATM    8  C7  UNL     1     -33.112  17.405  -1.908  1.00 20.00     0.001 C 
HETATM    9  C5  UNL     1     -32.161  18.595  -1.781  1.00 20.00     0.011 C 
HETATM   10  C6  UNL     1     -34.317  17.583  -0.984  1.00 20.00     0.011 C 
ENDBRANCH   4   8
TORSDOF 1
ENDMDL
MODEL 3
REMARK VINA RESULT:      -4.2      1.489      2.230
REMARK  1 active torsions:
REMARK  status: ('A' for Active; 'I' for Inactive)
REMARK    1  A    between atoms: C4_4  and  C7_7 
ROOT
HETATM    1  C1  UNL     1     -22.069  17.397   8.233  1.00 20.00     0.075 C 
HETATM    2  C2  UNL     1     -21.617  17.765  10.630  1.00 20.00     0.105 C 
HETATM    3  C3  UNL     1     -22.660  17.772   9.521  1.00 20.00     0.164 C 
HETATM    4  C4  UNL     1     -24.022  17.128  11.769  1.00 20.00     0.113 C 
HETATM    5  N8  UNL     1     -21.601  17.100   7.214  1.00 20.00    -0.196 NA
HETATM    6  S9  UNL     1     -22.460  17.949  12.227  1.00 20.00    -0.151 SA
HETATM    7  S10 UNL     1     -23.944  16.593  10.031  1.00 20.00    -0.133 SA
ENDROOT
BRANCH   4   8
HETATM    8  C7  UNL     1     -25.185  18.089  11.968  1.00 20.00     0.001 C 
HETATM    9  C5  UNL     1     -25.408  18.938  10.717  1.00 20.00     0.011 C 
HETATM   10  C6  UNL     1     -26.460  17.327  12.331  1.00 20.00     0.011 C 
ENDBRANCH   4   8
TORSDOF 1
ENDMDL
MODEL 4
REMARK VINA RESULT:      -4.1     17.380     18.362
REMARK  1 active torsions:
REMARK  status: ('A' for Active; 'I' for Inactive)
REMARK    1  A    between atoms: C4_4  and  C7_7 
ROOT
HETATM    1  C1  UNL     1     -37.554  14.709  -4.287  1.00 20.00     0.075 C 
HETATM    2  C2  UNL     1     -36.056  16.297  -5.435  1.00 20.00     0.105 C 
HETATM    3  C3  UNL     1     -36.374  15.567  -4.137  1.00 20.00     0.164 C 
HETATM    4  C4  UNL     1     -33.689  15.904  -4.119  1.00 20.00     0.113 C 
HETATM    5  N8  UNL     1     -38.487  14.030  -4.405  1.00 20.00    -0.196 NA
HETATM    6  S9  UNL     1     -34.437  17.104  -5.270  1.00 20.00    -0.151 SA
HETATM    7  S10 UNL     1     -34.894  14.596  -3.731  1.00 20.00    -0.133 SA
ENDROOT
BRANCH   4   8
HETATM    8  C7  UNL     1     -33.261  16.615  -2.843  1.00 20.00     0.001 C 
HETATM    9  C5  UNL     1     -32.852  18.058  -3.138  1.00 20.00     0.011 C 
HETATM   10  C6  UNL     1     -34.379  16.578  -1.801  1.00 20.00     0.011 C 
ENDBRANCH   4   8
TORSDOF 1
ENDMDL
MODEL 5
REMARK VINA RESULT:      -4.0     17.862     18.780
REMARK  1 active torsions:
REMARK  status: ('A' for Active; 'I' for Inactive)
REMARK    1  A    between atoms: C4_4  and  C7_7 
ROOT
HETATM    1  C1  UNL     1     -36.410  15.871  -6.906  1.00 20.00     0.075 C 
HETATM    2  C2  UNL     1     -34.281  14.940  -6.081  1.00 20.00     0.105 C 
HETATM    3  C3  UNL     1     -35.480  15.826  -5.774  1.00 20.00     0.164 C 
HETATM    4  C4  UNL     1     -34.720  14.811  -3.383  1.00 20.00     0.113 C 
HETATM    5  N8  UNL     1     -37.147  15.906  -7.801  1.00 20.00    -0.196 NA
HETATM    6  S9  UNL     1     -33.328  14.695  -4.555  1.00 20.00    -0.151 SA
HETATM    7  S10 UNL     1     -36.264  15.117  -4.297  1.00 20.00    -0.133 SA
ENDROOT
BRANCH   4   8
HETATM    8  C7  UNL     1     -34.466  15.940  -2.394  1.00 20.00     0.001 C 
HETATM    9  C5  UNL     1     -33.237  16.751  -2.800  1.00 20.00     0.011 C 
HETATM   10  C6  UNL     1     -35.692  16.847  -2.281  1.00 20.00     0.011 C 
ENDBRANCH   4   8
TORSDOF 1
ENDMDL
MODEL 6
REMARK VINA RESULT:      -4.0     16.987     17.946
REMARK  1 active torsions:
REMARK  status: ('A' for Active; 'I' for Inactive)
REMARK    1  A    between atoms: C4_4  and  C7_7 
ROOT
HETATM    1  C1  UNL     1     -37.423  14.813  -4.219  1.00 20.00     0.075 C 
HETATM    2  C2  UNL     1     -35.879  16.414  -5.284  1.00 20.00     0.105 C 
HETATM    3  C3  UNL     1     -36.433  15.866  -3.977  1.00 20.00     0.164 C 
HETATM    4  C4  UNL     1     -33.904  16.640  -3.404  1.00 20.00     0.113 C 
HETATM    5  N8  UNL     1     -38.207  13.978  -4.412  1.00 20.00    -0.196 NA
HETATM    6  S9  UNL     1     -34.466  17.493  -4.915  1.00 20.00    -0.151 SA
HETATM    7  S10 UNL     1     -35.004  15.234  -3.051  1.00 20.00    -0.133 SA
ENDROOT
BRANCH   4   8
HETATM    8  C7  UNL     1     -33.908  17.613  -2.234  1.00 20.00     0.001 C 
HETATM    9  C5  UNL     1     -34.725  17.056  -1.068  1.00 20.00     0.011 C 
HETATM   10  C6  UNL     1     -32.480  17.924  -1.785  1.00 20.00     0.011 C 
ENDBRANCH   4   8
TORSDOF 1
ENDMDL
MODEL 7
REMARK VINA RESULT:      -3.9     15.918     16.885
REMARK  1 active torsions:
REMARK  status: ('A' for Active; 'I' for Inactive)
REMARK    1  A    between atoms: C4_4  and  C7_7 
ROOT
HETATM    1  C1  UNL     1     -32.200  18.409  -1.872  1.00 20.00     0.075 C 
HETATM    2  C2  UNL     1     -33.424  18.179  -4.001  1.00 20.00     0.105 C 
HETATM    3  C3  UNL     1     -32.901  17.474  -2.757  1.00 20.00     0.164 C 
HETATM    4  C4  UNL     1     -35.130  16.110  -3.458  1.00 20.00     0.113 C 
HETATM    5  N8  UNL     1     -31.645  19.150  -1.172  1.00 20.00    -0.196 NA
HETATM    6  S9  UNL     1     -34.519  17.044  -4.900  1.00 20.00    -0.151 SA
HETATM    7  S10 UNL     1     -34.353  16.750  -1.942  1.00 20.00    -0.133 SA
ENDROOT
BRANCH   4   8
HETATM    8  C7  UNL     1     -34.807  14.633  -3.628  1.00 20.00     0.001 C 
HETATM    9  C5  UNL     1     -35.947  13.907  -4.343  1.00 20.00     0.011 C 
HETATM   10  C6  UNL     1     -33.496  14.450  -4.392  1.00 20.00     0.011 C 
ENDBRANCH   4   8
TORSDOF 1
ENDMDL
MODEL 8
REMARK VINA RESULT:      -3.9     17.595     18.581
REMARK  1 active torsions:
REMARK  status: ('A' for Active; 'I' for Inactive)
REMARK    1  A    between atoms: C4_4  and  C7_7 
ROOT
HETATM    1  C1  UNL     1     -37.854  14.759  -4.201  1.00 20.00     0.075 C 
HETATM    2  C2  UNL     1     -37.124  17.054  -3.670  1.00 20.00     0.105 C 
HETATM    3  C3  UNL     1     -36.708  15.600  -3.838  1.00 20.00     0.164 C 
HETATM    4  C4  UNL     1     -34.528  17.042  -4.533  1.00 20.00     0.113 C 
HETATM    5  N8  UNL     1     -38.760  14.094  -4.488  1.00 20.00    -0.196 NA
HETATM    6  S9  UNL     1     -35.630  18.075  -3.512  1.00 20.00    -0.151 SA
HETATM    7  S10 UNL     1     -35.438  15.587  -5.136  1.00 20.00    -0.133 SA
ENDROOT
BRANCH   4   8
HETATM    8  C7  UNL     1     -33.326  16.603  -3.708  1.00 20.00     0.001 C 
HETATM    9  C5  UNL     1     -33.579  16.830  -2.218  1.00 20.00     0.011 C 
HETATM   10  C6  UNL     1     -32.993  15.135  -3.976  1.00 20.00     0.011 C 
ENDBRANCH   4   8
TORSDOF 1
ENDMDL
MODEL 9
REMARK VINA RESULT:      -3.9     18.272     19.211
REMARK  1 active torsions:
REMARK  status: ('A' for Active; 'I' for Inactive)
REMARK    1  A    between atoms: C4_4  and  C7_7 
ROOT
HETATM    1  C1  UNL     1     -37.983  16.185  -5.889  1.00 20.00     0.075 C 
HETATM    2  C2  UNL     1     -35.685  15.467  -6.426  1.00 20.00     0.105 C 
HETATM    3  C3  UNL     1     -36.620  16.037  -5.369  1.00 20.00     0.164 C 
HETATM    4  C4  UNL     1     -34.761  14.638  -3.987  1.00 20.00     0.113 C 
HETATM    5  N8  UNL     1     -39.061  16.301  -6.301  1.00 20.00    -0.196 NA
HETATM    6  S9  UNL     1     -34.105  15.040  -5.641  1.00 20.00    -0.151 SA
HETATM    7  S10 UNL     1     -36.565  14.879  -3.971  1.00 20.00    -0.133 SA
ENDROOT
BRANCH   4   8
HETATM    8  C7  UNL     1     -34.105  15.530  -2.944  1.00 20.00     0.001 C 
HETATM    9  C5  UNL     1     -33.287  16.635  -3.612  1.00 20.00     0.011 C 
HETATM   10  C6  UNL     1     -35.155  16.133  -2.010  1.00 20.00     0.011 C 
ENDBRANCH   4   8
TORSDOF 1
ENDMDL
