MODEL 1
REMARK VINA RESULT:      -4.1      0.000      0.000
REMARK  0 active torsions:
REMARK  status: ('A' for Active; 'I' for Inactive)
ROOT
HETATM    1  C1  UNL     1     -33.770   6.488   5.396  1.00 20.00     0.146 C 
HETATM    2  C2  UNL     1     -34.789   5.571   6.064  1.00 20.00     0.084 C 
HETATM    3  C3  UNL     1     -35.465   5.817   3.655  1.00 20.00     0.034 C 
HETATM    4  C4  UNL     1     -33.969   4.401   3.995  1.00 20.00     0.034 C 
HETATM    5  C5  UNL     1     -35.263   4.770   4.818  1.00 20.00    -0.004 C 
HETATM    6  C6  UNL     1     -33.917   5.973   3.903  1.00 20.00     0.079 C 
HETATM    7  O7  UNL     1     -33.092   7.335   5.942  1.00 20.00    -0.296 OA
HETATM    8 BR8  UNL     1     -32.832   6.809   2.610  1.00 20.00    -0.077 Br
ENDROOT
TORSDOF 0
ENDMDL
MODEL 2
REMARK VINA RESULT:      -4.0     16.051     16.794
REMARK  0 active torsions:
REMARK  status: ('A' for Active; 'I' for Inactive)
ROOT
HETATM    1  C1  UNL     1     -24.341  18.008   9.883  1.00 20.00     0.146 C 
HETATM    2  C2  UNL     1     -23.270  16.942  10.094  1.00 20.00     0.084 C 
HETATM    3  C3  UNL     1     -23.737  17.990  12.331  1.00 20.00     0.034 C 
HETATM    4  C4  UNL     1     -25.098  16.511  11.765  1.00 20.00     0.034 C 
HETATM    5  C5  UNL     1     -23.533  16.611  11.590  1.00 20.00    -0.004 C 
HETATM    6  C6  UNL     1     -24.963  18.022  11.342  1.00 20.00     0.079 C 
HETATM    7  O7  UNL     1     -24.569  18.611   8.854  1.00 20.00    -0.296 OA
HETATM    8 BR8  UNL     1     -26.388  19.218  11.642  1.00 20.00    -0.077 Br
ENDROOT
TORSDOF 0
ENDMDL
MODEL 3
REMARK VINA RESULT:      -4.0      9.340     10.053
REMARK  0 active torsions:
REMARK  status: ('A' for Active; 'I' for Inactive)
ROOT
HETATM    1  C1  UNL     1     -42.685   7.445  -1.246  1.00 20.00     0.146 C 
HETATM    2  C2  UNL     1     -41.712   8.073  -0.252  1.00 20.00     0.084 C 
HETATM    3  C3  UNL     1     -42.375   5.827   0.662  1.00 20.00     0.034 C 
HETATM    4  C4  UNL     1     -40.864   5.766  -0.777  1.00 20.00     0.034 C 
HETATM    5  C5  UNL     1     -41.145   6.779   0.399  1.00 20.00    -0.004 C 
HETATM    6  C6  UNL     1     -42.426   5.917  -0.910  1.00 20.00     0.079 C 
HETATM    7  O7  UNL     1     -43.403   8.036  -2.026  1.00 20.00    -0.296 OA
HETATM    8 BR8  UNL     1     -43.417   4.656  -1.897  1.00 20.00    -0.077 Br
ENDROOT
TORSDOF 0
ENDMDL
MODEL 4
REMARK VINA RESULT:      -3.9     16.060     16.847
REMARK  0 active torsions:
REMARK  status: ('A' for Active; 'I' for Inactive)
ROOT
HETATM    1  C1  UNL     1     -24.757  18.515  10.269  1.00 20.00     0.146 C 
HETATM    2  C2  UNL     1     -25.426  18.470  11.640  1.00 20.00     0.084 C 
HETATM    3  C3  UNL     1     -24.320  16.243  11.270  1.00 20.00     0.034 C 
HETATM    4  C4  UNL     1     -23.039  17.746  11.946  1.00 20.00     0.034 C 
HETATM    5  C5  UNL     1     -24.530  17.399  12.324  1.00 20.00    -0.004 C 
HETATM    6  C6  UNL     1     -23.621  17.436  10.516  1.00 20.00     0.079 C 
HETATM    7  O7  UNL     1     -25.080  19.213   9.330  1.00 20.00    -0.296 OA
HETATM    8 BR8  UNL     1     -22.457  17.091   9.075  1.00 20.00    -0.077 Br
ENDROOT
TORSDOF 0
ENDMDL
MODEL 5
REMARK VINA RESULT:      -3.9     12.193     12.829
REMARK  0 active torsions:
REMARK  status: ('A' for Active; 'I' for Inactive)
ROOT
HETATM    1  C1  UNL     1     -35.447  13.819  -4.243  1.00 20.00     0.146 C 
HETATM    2  C2  UNL     1     -33.977  14.099  -3.943  1.00 20.00     0.084 C 
HETATM    3  C3  UNL     1     -35.019  16.264  -4.682  1.00 20.00     0.034 C 
HETATM    4  C4  UNL     1     -35.337  15.790  -2.674  1.00 20.00     0.034 C 
HETATM    5  C5  UNL     1     -34.073  15.613  -3.600  1.00 20.00    -0.004 C 
HETATM    6  C6  UNL     1     -36.030  15.273  -3.991  1.00 20.00     0.079 C 
HETATM    7  O7  UNL     1     -35.928  12.754  -4.571  1.00 20.00    -0.296 OA
HETATM    8 BR8  UNL     1     -37.885  15.492  -4.233  1.00 20.00    -0.077 Br
ENDROOT
TORSDOF 0
ENDMDL
MODEL 6
REMARK VINA RESULT:      -3.9     12.261     12.979
REMARK  0 active torsions:
REMARK  status: ('A' for Active; 'I' for Inactive)
ROOT
HETATM    1  C1  UNL     1     -36.439  14.296  -4.152  1.00 20.00     0.146 C 
HETATM    2  C2  UNL     1     -35.030  13.725  -4.029  1.00 20.00     0.084 C 
HETATM    3  C3  UNL     1     -34.804  16.174  -4.549  1.00 20.00     0.034 C 
HETATM    4  C4  UNL     1     -35.154  15.743  -2.536  1.00 20.00     0.034 C 
HETATM    5  C5  UNL     1     -34.268  15.017  -3.620  1.00 20.00    -0.004 C 
HETATM    6  C6  UNL     1     -36.126  15.805  -3.774  1.00 20.00     0.079 C 
HETATM    7  O7  UNL     1     -37.443  13.685  -4.458  1.00 20.00    -0.296 OA
HETATM    8 BR8  UNL     1     -37.585  16.995  -3.773  1.00 20.00    -0.077 Br
ENDROOT
TORSDOF 0
ENDMDL
MODEL 7
REMARK VINA RESULT:      -3.9     12.132     12.862
REMARK  0 active torsions:
REMARK  status: ('A' for Active; 'I' for Inactive)
ROOT
HETATM    1  C1  UNL     1     -35.996  13.762  -4.391  1.00 20.00     0.146 C 
HETATM    2  C2  UNL     1     -37.319  14.501  -4.216  1.00 20.00     0.084 C 
HETATM    3  C3  UNL     1     -35.551  15.832  -3.024  1.00 20.00     0.034 C 
HETATM    4  C4  UNL     1     -35.640  16.160  -5.084  1.00 20.00     0.034 C 
HETATM    5  C5  UNL     1     -36.777  15.944  -4.011  1.00 20.00    -0.004 C 
HETATM    6  C6  UNL     1     -35.005  14.991  -4.239  1.00 20.00     0.079 C 
HETATM    7  O7  UNL     1     -35.853  12.572  -4.586  1.00 20.00    -0.296 OA
HETATM    8 BR8  UNL     1     -33.165  14.615  -4.379  1.00 20.00    -0.077 Br
ENDROOT
TORSDOF 0
ENDMDL
MODEL 8
REMARK VINA RESULT:      -3.9     16.712     17.262
REMARK  0 active torsions:
REMARK  status: ('A' for Active; 'I' for Inactive)
ROOT
HETATM    1  C1  UNL     1     -24.477  18.639   9.751  1.00 20.00     0.146 C 
HETATM    2  C2  UNL     1     -24.228  18.586   8.247  1.00 20.00     0.084 C 
HETATM    3  C3  UNL     1     -21.984  18.613   9.381  1.00 20.00     0.034 C 
HETATM    4  C4  UNL     1     -22.890  16.734   9.296  1.00 20.00     0.034 C 
HETATM    5  C5  UNL     1     -22.827  17.910   8.247  1.00 20.00    -0.004 C 
HETATM    6  C6  UNL     1     -23.130  17.966  10.248  1.00 20.00     0.079 C 
HETATM    7  O7  UNL     1     -25.460  19.088  10.305  1.00 20.00    -0.296 OA
HETATM    8 BR8  UNL     1     -22.916  17.780  12.110  1.00 20.00    -0.077 Br
ENDROOT
TORSDOF 0
ENDMDL
MODEL 9
REMARK VINA RESULT:      -3.7      9.341      9.880
REMARK  0 active torsions:
REMARK  status: ('A' for Active; 'I' for Inactive)
ROOT
HETATM    1  C1  UNL     1     -42.625   6.576   0.753  1.00 20.00     0.146 C 
HETATM    2  C2  UNL     1     -41.771   7.840   0.790  1.00 20.00     0.084 C 
HETATM    3  C3  UNL     1     -40.991   6.463  -1.163  1.00 20.00     0.034 C 
HETATM    4  C4  UNL     1     -42.687   7.621  -1.541  1.00 20.00     0.034 C 
HETATM    5  C5  UNL     1     -41.379   7.925  -0.712  1.00 20.00    -0.004 C 
HETATM    6  C6  UNL     1     -42.507   6.246  -0.794  1.00 20.00     0.079 C 
HETATM    7  O7  UNL     1     -43.189   6.057   1.695  1.00 20.00    -0.296 OA
HETATM    8 BR8  UNL     1     -43.417   4.713  -1.402  1.00 20.00    -0.077 Br
ENDROOT
TORSDOF 0
ENDMDL
