MODEL 1
REMARK VINA RESULT:      -4.2      0.000      0.000
REMARK  1 active torsions:
REMARK  status: ('A' for Active; 'I' for Inactive)
REMARK    1  A    between atoms: C9_9  and  N10_10 
ROOT
HETATM    1  C1  UNL     1     -24.709  19.124   7.531  1.00 20.00     0.004 A 
HETATM    2  C2  UNL     1     -23.551  18.514   7.806  1.00 20.00     0.042 A 
HETATM    3  C3  UNL     1     -25.726  19.263   8.533  1.00 20.00     0.017 A 
HETATM    4  C4  UNL     1     -25.514  18.788   9.765  1.00 20.00     0.093 A 
HETATM    5  C5  UNL     1     -23.291  17.959   9.181  1.00 20.00     0.103 A 
HETATM    6  N10 UNL     1     -24.330  18.148  10.135  1.00 20.00    -0.339 N 
HETATM    7  S11 UNL     1     -21.831  17.165   9.502  1.00 20.00    -0.060 SA
ENDROOT
BRANCH   6   8
HETATM    8  C9  UNL     1     -24.229  17.674  11.504  1.00 20.00     0.027 C 
HETATM    9  C6  UNL     1     -25.375  18.269  12.331  1.00 20.00     0.038 C 
HETATM   10  C7  UNL     1     -24.322  16.145  11.513  1.00 20.00     0.038 C 
HETATM   11  C8  UNL     1     -22.885  18.116  12.096  1.00 20.00     0.038 C 
ENDBRANCH   6   8
TORSDOF 1
ENDMDL
MODEL 2
REMARK VINA RESULT:      -3.8     16.810     18.691
REMARK  1 active torsions:
REMARK  status: ('A' for Active; 'I' for Inactive)
REMARK    1  A    between atoms: C9_9  and  N10_10 
ROOT
HETATM    1  C1  UNL     1     -34.079  16.530  -2.194  1.00 20.00     0.004 A 
HETATM    2  C2  UNL     1     -34.823  15.501  -2.613  1.00 20.00     0.042 A 
HETATM    3  C3  UNL     1     -33.577  17.503  -3.119  1.00 20.00     0.017 A 
HETATM    4  C4  UNL     1     -33.863  17.392  -4.421  1.00 20.00     0.093 A 
HETATM    5  C5  UNL     1     -35.150  15.344  -4.074  1.00 20.00     0.103 A 
HETATM    6  N10 UNL     1     -34.641  16.354  -4.937  1.00 20.00    -0.339 N 
HETATM    7  S11 UNL     1     -36.068  14.019  -4.590  1.00 20.00    -0.060 SA
ENDROOT
BRANCH   6   8
HETATM    8  C9  UNL     1     -34.874  16.346  -6.371  1.00 20.00     0.027 C 
HETATM    9  C6  UNL     1     -34.354  17.656  -6.975  1.00 20.00     0.038 C 
HETATM   10  C7  UNL     1     -34.131  15.159  -6.992  1.00 20.00     0.038 C 
HETATM   11  C8  UNL     1     -36.377  16.217  -6.640  1.00 20.00     0.038 C 
ENDBRANCH   6   8
TORSDOF 1
ENDMDL
MODEL 3
REMARK VINA RESULT:      -3.8     12.893     14.781
REMARK  1 active torsions:
REMARK  status: ('A' for Active; 'I' for Inactive)
REMARK    1  A    between atoms: C9_9  and  N10_10 
ROOT
HETATM    1  C1  UNL     1     -31.748  18.640   1.158  1.00 20.00     0.004 A 
HETATM    2  C2  UNL     1     -33.044  18.400   1.384  1.00 20.00     0.042 A 
HETATM    3  C3  UNL     1     -31.191  18.508  -0.156  1.00 20.00     0.017 A 
HETATM    4  C4  UNL     1     -31.977  18.151  -1.177  1.00 20.00     0.093 A 
HETATM    5  C5  UNL     1     -33.949  17.984   0.256  1.00 20.00     0.103 A 
HETATM    6  N10 UNL     1     -33.340  17.892  -1.028  1.00 20.00    -0.339 N 
HETATM    7  S11 UNL     1     -35.579  17.655   0.567  1.00 20.00    -0.060 SA
ENDROOT
BRANCH   6   8
HETATM    8  C9  UNL     1     -34.081  17.508  -2.217  1.00 20.00     0.027 C 
HETATM    9  C6  UNL     1     -35.096  18.605  -2.557  1.00 20.00     0.038 C 
HETATM   10  C7  UNL     1     -33.100  17.331  -3.381  1.00 20.00     0.038 C 
HETATM   11  C8  UNL     1     -34.817  16.190  -1.952  1.00 20.00     0.038 C 
ENDBRANCH   6   8
TORSDOF 1
ENDMDL
MODEL 4
REMARK VINA RESULT:      -3.7      1.481      2.410
REMARK  1 active torsions:
REMARK  status: ('A' for Active; 'I' for Inactive)
REMARK    1  A    between atoms: C9_9  and  N10_10 
ROOT
HETATM    1  C1  UNL     1     -22.002  17.978   8.345  1.00 20.00     0.004 A 
HETATM    2  C2  UNL     1     -21.700  17.829   9.640  1.00 20.00     0.042 A 
HETATM    3  C3  UNL     1     -23.346  18.255   7.929  1.00 20.00     0.017 A 
HETATM    4  C4  UNL     1     -24.313  18.378   8.844  1.00 20.00     0.093 A 
HETATM    5  C5  UNL     1     -22.770  17.949  10.690  1.00 20.00     0.103 A 
HETATM    6  N10 UNL     1     -24.078  18.247  10.214  1.00 20.00    -0.339 N 
HETATM    7  S11 UNL     1     -22.374  17.728  12.320  1.00 20.00    -0.060 SA
ENDROOT
BRANCH   6   8
HETATM    8  C9  UNL     1     -25.217  18.399  11.103  1.00 20.00     0.027 C 
HETATM    9  C6  UNL     1     -24.795  19.212  12.332  1.00 20.00     0.038 C 
HETATM   10  C7  UNL     1     -26.339  19.130  10.359  1.00 20.00     0.038 C 
HETATM   11  C8  UNL     1     -25.704  17.014  11.545  1.00 20.00     0.038 C 
ENDBRANCH   6   8
TORSDOF 1
ENDMDL
MODEL 5
REMARK VINA RESULT:      -3.7     12.425     14.162
REMARK  1 active torsions:
REMARK  status: ('A' for Active; 'I' for Inactive)
REMARK    1  A    between atoms: C9_9  and  N10_10 
ROOT
HETATM    1  C1  UNL     1     -31.012  18.474   0.885  1.00 20.00     0.004 A 
HETATM    2  C2  UNL     1     -31.206  18.390  -0.436  1.00 20.00     0.042 A 
HETATM    3  C3  UNL     1     -32.110  18.359   1.800  1.00 20.00     0.017 A 
HETATM    4  C4  UNL     1     -33.345  18.153   1.333  1.00 20.00     0.093 A 
HETATM    5  C5  UNL     1     -32.588  18.171  -0.990  1.00 20.00     0.103 A 
HETATM    6  N10 UNL     1     -33.630  18.043  -0.029  1.00 20.00    -0.339 N 
HETATM    7  S11 UNL     1     -32.818  18.097  -2.665  1.00 20.00    -0.060 SA
ENDROOT
BRANCH   6   8
HETATM    8  C9  UNL     1     -35.016  17.825  -0.405  1.00 20.00     0.027 C 
HETATM    9  C6  UNL     1     -35.842  17.536   0.854  1.00 20.00     0.038 C 
HETATM   10  C7  UNL     1     -35.551  19.081  -1.099  1.00 20.00     0.038 C 
HETATM   11  C8  UNL     1     -35.100  16.628  -1.360  1.00 20.00     0.038 C 
ENDBRANCH   6   8
TORSDOF 1
ENDMDL
MODEL 6
REMARK VINA RESULT:      -3.7     16.309     17.918
REMARK  1 active torsions:
REMARK  status: ('A' for Active; 'I' for Inactive)
REMARK    1  A    between atoms: C9_9  and  N10_10 
ROOT
HETATM    1  C1  UNL     1     -36.294  13.644  -4.566  1.00 20.00     0.004 A 
HETATM    2  C2  UNL     1     -37.123  14.670  -4.346  1.00 20.00     0.042 A 
HETATM    3  C3  UNL     1     -34.922  13.702  -4.153  1.00 20.00     0.017 A 
HETATM    4  C4  UNL     1     -34.462  14.792  -3.530  1.00 20.00     0.093 A 
HETATM    5  C5  UNL     1     -36.629  15.914  -3.658  1.00 20.00     0.103 A 
HETATM    6  N10 UNL     1     -35.264  15.901  -3.255  1.00 20.00    -0.339 N 
HETATM    7  S11 UNL     1     -37.685  17.214  -3.416  1.00 20.00    -0.060 SA
ENDROOT
BRANCH   6   8
HETATM    8  C9  UNL     1     -34.639  17.023  -2.576  1.00 20.00     0.027 C 
HETATM    9  C6  UNL     1     -33.122  16.809  -2.536  1.00 20.00     0.038 C 
HETATM   10  C7  UNL     1     -34.961  18.311  -3.339  1.00 20.00     0.038 C 
HETATM   11  C8  UNL     1     -35.182  17.116  -1.145  1.00 20.00     0.038 C 
ENDBRANCH   6   8
TORSDOF 1
ENDMDL
MODEL 7
REMARK VINA RESULT:      -3.7     16.820     18.636
REMARK  1 active torsions:
REMARK  status: ('A' for Active; 'I' for Inactive)
REMARK    1  A    between atoms: C9_9  and  N10_10 
ROOT
HETATM    1  C1  UNL     1     -34.204  16.707  -1.952  1.00 20.00     0.004 A 
HETATM    2  C2  UNL     1     -35.504  16.708  -2.266  1.00 20.00     0.042 A 
HETATM    3  C3  UNL     1     -33.217  16.272  -2.897  1.00 20.00     0.017 A 
HETATM    4  C4  UNL     1     -33.596  15.871  -4.115  1.00 20.00     0.093 A 
HETATM    5  C5  UNL     1     -35.959  16.250  -3.625  1.00 20.00     0.103 A 
HETATM    6  N10 UNL     1     -34.930  15.852  -4.524  1.00 20.00    -0.339 N 
HETATM    7  S11 UNL     1     -37.611  16.230  -3.993  1.00 20.00    -0.060 SA
ENDROOT
BRANCH   6   8
HETATM    8  C9  UNL     1     -35.207  15.389  -5.873  1.00 20.00     0.027 C 
HETATM    9  C6  UNL     1     -35.938  16.493  -6.646  1.00 20.00     0.038 C 
HETATM   10  C7  UNL     1     -33.884  15.058  -6.570  1.00 20.00     0.038 C 
HETATM   11  C8  UNL     1     -36.089  14.137  -5.808  1.00 20.00     0.038 C 
ENDBRANCH   6   8
TORSDOF 1
ENDMDL
MODEL 8
REMARK VINA RESULT:      -3.7     16.942     18.668
REMARK  1 active torsions:
REMARK  status: ('A' for Active; 'I' for Inactive)
REMARK    1  A    between atoms: C9_9  and  N10_10 
ROOT
HETATM    1  C1  UNL     1     -33.442  17.136  -2.727  1.00 20.00     0.004 A 
HETATM    2  C2  UNL     1     -33.525  17.613  -3.974  1.00 20.00     0.042 A 
HETATM    3  C3  UNL     1     -34.286  16.063  -2.290  1.00 20.00     0.017 A 
HETATM    4  C4  UNL     1     -35.164  15.520  -3.140  1.00 20.00     0.093 A 
HETATM    5  C5  UNL     1     -34.513  17.029  -4.948  1.00 20.00     0.103 A 
HETATM    6  N10 UNL     1     -35.305  15.953  -4.459  1.00 20.00    -0.339 N 
HETATM    7  S11 UNL     1     -34.624  17.665  -6.512  1.00 20.00    -0.060 SA
ENDROOT
BRANCH   6   8
HETATM    8  C9  UNL     1     -36.300  15.281  -5.278  1.00 20.00     0.027 C 
HETATM    9  C6  UNL     1     -36.967  14.172  -4.455  1.00 20.00     0.038 C 
HETATM   10  C7  UNL     1     -37.353  16.300  -5.723  1.00 20.00     0.038 C 
HETATM   11  C8  UNL     1     -35.616  14.669  -6.506  1.00 20.00     0.038 C 
ENDBRANCH   6   8
TORSDOF 1
ENDMDL
MODEL 9
REMARK VINA RESULT:      -3.7     16.410     18.080
REMARK  1 active torsions:
REMARK  status: ('A' for Active; 'I' for Inactive)
REMARK    1  A    between atoms: C9_9  and  N10_10 
ROOT
HETATM    1  C1  UNL     1     -34.056  17.190  -1.747  1.00 20.00     0.004 A 
HETATM    2  C2  UNL     1     -33.405  16.355  -2.564  1.00 20.00     0.042 A 
HETATM    3  C3  UNL     1     -35.472  17.380  -1.861  1.00 20.00     0.017 A 
HETATM    4  C4  UNL     1     -36.160  16.707  -2.790  1.00 20.00     0.093 A 
HETATM    5  C5  UNL     1     -34.152  15.594  -3.626  1.00 20.00     0.103 A 
HETATM    6  N10 UNL     1     -35.558  15.810  -3.674  1.00 20.00    -0.339 N 
HETATM    7  S11 UNL     1     -33.307  14.565  -4.671  1.00 20.00    -0.060 SA
ENDROOT
BRANCH   6   8
HETATM    8  C9  UNL     1     -36.417  15.147  -4.640  1.00 20.00     0.027 C 
HETATM    9  C6  UNL     1     -37.878  15.509  -4.348  1.00 20.00     0.038 C 
HETATM   10  C7  UNL     1     -36.040  15.613  -6.049  1.00 20.00     0.038 C 
HETATM   11  C8  UNL     1     -36.231  13.630  -4.526  1.00 20.00     0.038 C 
ENDBRANCH   6   8
TORSDOF 1
ENDMDL
