MODEL 1
REMARK VINA RESULT:      -3.7      0.000      0.000
REMARK  0 active torsions:
REMARK  status: ('A' for Active; 'I' for Inactive)
ROOT
HETATM    1  C1  UNL     1     -34.674  14.256  -4.080  1.00 20.00     0.154 C 
HETATM    2  C2  UNL     1     -35.249  15.053  -2.931  1.00 20.00     0.081 C 
HETATM    3  C3  UNL     1     -34.304  16.166  -2.491  1.00 20.00     0.018 C 
HETATM    4  C4  UNL     1     -33.474  16.809  -3.600  1.00 20.00     0.076 C 
HETATM    5  C5  UNL     1     -34.418  14.963  -5.393  1.00 20.00     0.212 C 
HETATM    6  O6  UNL     1     -34.483  13.044  -3.967  1.00 20.00    -0.295 OA
HETATM    7  S7  UNL     1     -34.311  16.760  -5.208  1.00 20.00    -0.141 SA
HETATM    8 CL8  UNL     1     -35.733  14.520  -6.498  1.00 20.00    -0.105 Cl
ENDROOT
TORSDOF 0
ENDMDL
MODEL 2
REMARK VINA RESULT:      -3.7     18.552     19.116
REMARK  0 active torsions:
REMARK  status: ('A' for Active; 'I' for Inactive)
ROOT
HETATM    1  C1  UNL     1     -22.782  17.585  11.557  1.00 20.00     0.154 C 
HETATM    2  C2  UNL     1     -23.950  16.698  11.925  1.00 20.00     0.081 C 
HETATM    3  C3  UNL     1     -25.261  17.475  11.947  1.00 20.00     0.018 C 
HETATM    4  C4  UNL     1     -25.380  18.605  10.927  1.00 20.00     0.076 C 
HETATM    5  C5  UNL     1     -22.767  18.230  10.189  1.00 20.00     0.212 C 
HETATM    6  O6  UNL     1     -21.834  17.724  12.332  1.00 20.00    -0.295 OA
HETATM    7  S7  UNL     1     -24.409  18.290   9.429  1.00 20.00    -0.141 SA
HETATM    8 CL8  UNL     1     -21.639  17.305   9.180  1.00 20.00    -0.105 Cl
ENDROOT
TORSDOF 0
ENDMDL
MODEL 3
REMARK VINA RESULT:      -3.7      1.900      2.094
REMARK  0 active torsions:
REMARK  status: ('A' for Active; 'I' for Inactive)
ROOT
HETATM    1  C1  UNL     1     -35.787  13.890  -4.413  1.00 20.00     0.154 C 
HETATM    2  C2  UNL     1     -34.748  14.536  -3.525  1.00 20.00     0.081 C 
HETATM    3  C3  UNL     1     -33.827  15.457  -4.316  1.00 20.00     0.018 C 
HETATM    4  C4  UNL     1     -34.472  16.191  -5.490  1.00 20.00     0.076 C 
HETATM    5  C5  UNL     1     -36.790  14.778  -5.116  1.00 20.00     0.212 C 
HETATM    6  O6  UNL     1     -35.854  12.663  -4.507  1.00 20.00    -0.295 OA
HETATM    7  S7  UNL     1     -36.239  16.498  -5.228  1.00 20.00    -0.141 SA
HETATM    8 CL8  UNL     1     -38.317  14.662  -4.221  1.00 20.00    -0.105 Cl
ENDROOT
TORSDOF 0
ENDMDL
MODEL 4
REMARK VINA RESULT:      -3.7     17.781     18.486
REMARK  0 active torsions:
REMARK  status: ('A' for Active; 'I' for Inactive)
ROOT
HETATM    1  C1  UNL     1     -22.939  18.621   9.499  1.00 20.00     0.154 C 
HETATM    2  C2  UNL     1     -22.566  17.315  10.162  1.00 20.00     0.081 C 
HETATM    3  C3  UNL     1     -22.795  17.363  11.668  1.00 20.00     0.018 C 
HETATM    4  C4  UNL     1     -23.980  18.209  12.132  1.00 20.00     0.076 C 
HETATM    5  C5  UNL     1     -24.379  19.080   9.564  1.00 20.00     0.212 C 
HETATM    6  O6  UNL     1     -22.099  19.262   8.864  1.00 20.00    -0.295 OA
HETATM    7  S7  UNL     1     -25.305  18.280  10.898  1.00 20.00    -0.141 SA
HETATM    8 CL8  UNL     1     -25.116  18.733   7.989  1.00 20.00    -0.105 Cl
ENDROOT
TORSDOF 0
ENDMDL
MODEL 5
REMARK VINA RESULT:      -3.6     18.005     18.686
REMARK  0 active torsions:
REMARK  status: ('A' for Active; 'I' for Inactive)
ROOT
HETATM    1  C1  UNL     1     -23.493  17.224  11.139  1.00 20.00     0.154 C 
HETATM    2  C2  UNL     1     -22.162  17.869  10.826  1.00 20.00     0.081 C 
HETATM    3  C3  UNL     1     -21.868  17.852   9.330  1.00 20.00     0.018 C 
HETATM    4  C4  UNL     1     -23.081  17.989   8.413  1.00 20.00     0.076 C 
HETATM    5  C5  UNL     1     -24.750  17.854  10.583  1.00 20.00     0.212 C 
HETATM    6  O6  UNL     1     -23.552  16.246  11.887  1.00 20.00    -0.295 OA
HETATM    7  S7  UNL     1     -24.420  18.944   9.176  1.00 20.00    -0.141 SA
HETATM    8 CL8  UNL     1     -25.524  18.748  11.906  1.00 20.00    -0.105 Cl
ENDROOT
TORSDOF 0
ENDMDL
MODEL 6
REMARK VINA RESULT:      -3.6     12.005     12.482
REMARK  0 active torsions:
REMARK  status: ('A' for Active; 'I' for Inactive)
ROOT
HETATM    1  C1  UNL     1     -33.653   5.339   3.223  1.00 20.00     0.154 C 
HETATM    2  C2  UNL     1     -35.033   5.314   3.842  1.00 20.00     0.081 C 
HETATM    3  C3  UNL     1     -34.967   5.342   5.364  1.00 20.00     0.018 C 
HETATM    4  C4  UNL     1     -33.815   6.144   5.964  1.00 20.00     0.076 C 
HETATM    5  C5  UNL     1     -32.777   6.548   3.460  1.00 20.00     0.212 C 
HETATM    6  O6  UNL     1     -33.281   4.421   2.490  1.00 20.00    -0.295 OA
HETATM    7  S7  UNL     1     -33.298   7.516   4.897  1.00 20.00    -0.141 SA
HETATM    8 CL8  UNL     1     -32.827   7.533   1.985  1.00 20.00    -0.105 Cl
ENDROOT
TORSDOF 0
ENDMDL
MODEL 7
REMARK VINA RESULT:      -3.5     12.297     12.818
REMARK  0 active torsions:
REMARK  status: ('A' for Active; 'I' for Inactive)
ROOT
HETATM    1  C1  UNL     1     -34.677   5.257   4.135  1.00 20.00     0.154 C 
HETATM    2  C2  UNL     1     -33.692   4.259   3.568  1.00 20.00     0.081 C 
HETATM    3  C3  UNL     1     -33.133   4.722   2.227  1.00 20.00     0.018 C 
HETATM    4  C4  UNL     1     -32.956   6.231   2.068  1.00 20.00     0.076 C 
HETATM    5  C5  UNL     1     -34.183   6.643   4.484  1.00 20.00     0.212 C 
HETATM    6  O6  UNL     1     -35.841   4.923   4.369  1.00 20.00    -0.295 OA
HETATM    7  S7  UNL     1     -32.633   7.061   3.647  1.00 20.00    -0.141 SA
HETATM    8 CL8  UNL     1     -33.985   6.706   6.245  1.00 20.00    -0.105 Cl
ENDROOT
TORSDOF 0
ENDMDL
MODEL 8
REMARK VINA RESULT:      -3.5     17.550     18.143
REMARK  0 active torsions:
REMARK  status: ('A' for Active; 'I' for Inactive)
ROOT
HETATM    1  C1  UNL     1     -23.103  17.240   9.421  1.00 20.00     0.154 C 
HETATM    2  C2  UNL     1     -22.845  18.627   8.877  1.00 20.00     0.081 C 
HETATM    3  C3  UNL     1     -24.117  19.261   8.327  1.00 20.00     0.018 C 
HETATM    4  C4  UNL     1     -25.409  18.893   9.053  1.00 20.00     0.076 C 
HETATM    5  C5  UNL     1     -24.042  17.088  10.596  1.00 20.00     0.212 C 
HETATM    6  O6  UNL     1     -22.508  16.266   8.956  1.00 20.00    -0.295 OA
HETATM    7  S7  UNL     1     -25.136  18.515  10.804  1.00 20.00    -0.141 SA
HETATM    8 CL8  UNL     1     -23.043  16.843  12.042  1.00 20.00    -0.105 Cl
ENDROOT
TORSDOF 0
ENDMDL
MODEL 9
REMARK VINA RESULT:      -3.5     17.744     18.302
REMARK  0 active torsions:
REMARK  status: ('A' for Active; 'I' for Inactive)
ROOT
HETATM    1  C1  UNL     1     -24.861  18.288  10.894  1.00 20.00     0.154 C 
HETATM    2  C2  UNL     1     -25.279  18.645   9.485  1.00 20.00     0.081 C 
HETATM    3  C3  UNL     1     -24.129  19.263   8.698  1.00 20.00     0.018 C 
HETATM    4  C4  UNL     1     -22.737  18.731   9.029  1.00 20.00     0.076 C 
HETATM    5  C5  UNL     1     -23.779  17.248  11.085  1.00 20.00     0.212 C 
HETATM    6  O6  UNL     1     -25.438  18.786  11.862  1.00 20.00    -0.295 OA
HETATM    7  S7  UNL     1     -22.770  17.011   9.601  1.00 20.00    -0.141 SA
HETATM    8 CL8  UNL     1     -24.577  15.735  11.553  1.00 20.00    -0.105 Cl
ENDROOT
TORSDOF 0
ENDMDL
