MODEL 1
REMARK VINA RESULT:      -5.2      0.000      0.000
REMARK  0 active torsions:
REMARK  status: ('A' for Active; 'I' for Inactive)
ROOT
HETATM    1  C1  UNL     1     -25.558  19.112   8.787  1.00 20.00     0.154 A 
HETATM    2  C2  UNL     1     -25.132  18.651  10.009  1.00 20.00     0.005 A 
HETATM    3  C3  UNL     1     -23.899  18.049   9.789  1.00 20.00     0.013 A 
HETATM    4  C4  UNL     1     -23.555  18.275   8.492  1.00 20.00     0.062 A 
HETATM    5  C5  UNL     1     -24.686  18.440  12.332  1.00 20.00     0.143 C 
HETATM    6  C6  UNL     1     -25.569  18.753  11.354  1.00 20.00    -0.027 C 
HETATM    7  C7  UNL     1     -22.215  18.070   7.909  1.00 20.00     0.066 C 
HETATM    8  C8  UNL     1     -21.303  17.360   8.957  1.00 20.00     0.009 C 
HETATM    9  C9  UNL     1     -21.577  17.755  10.442  1.00 20.00     0.038 C 
HETATM   10  C10 UNL     1     -23.046  17.478  10.839  1.00 20.00     0.164 C 
HETATM   11  C11 UNL     1     -26.952  19.263  11.590  1.00 20.00     0.051 C 
HETATM   12  O12 UNL     1     -24.573  18.897   7.838  1.00 20.00    -0.326 OA
HETATM   13  O13 UNL     1     -23.377  17.988  12.157  1.00 20.00    -0.352 OA
ENDROOT
TORSDOF 0
ENDMDL
MODEL 2
REMARK VINA RESULT:      -4.9     11.266     13.327
REMARK  0 active torsions:
REMARK  status: ('A' for Active; 'I' for Inactive)
ROOT
HETATM    1  C1  UNL     1     -30.653  18.611   0.690  1.00 20.00     0.154 A 
HETATM    2  C2  UNL     1     -31.908  18.594   1.249  1.00 20.00     0.005 A 
HETATM    3  C3  UNL     1     -32.799  18.413   0.199  1.00 20.00     0.013 A 
HETATM    4  C4  UNL     1     -32.070  18.192  -0.928  1.00 20.00     0.062 A 
HETATM    5  C5  UNL     1     -33.742  18.228   2.712  1.00 20.00     0.143 C 
HETATM    6  C6  UNL     1     -32.447  18.594   2.560  1.00 20.00    -0.027 C 
HETATM    7  C7  UNL     1     -32.594  17.670  -2.205  1.00 20.00     0.066 C 
HETATM    8  C8  UNL     1     -34.151  17.603  -2.130  1.00 20.00     0.009 C 
HETATM    9  C9  UNL     1     -34.727  17.254  -0.722  1.00 20.00     0.038 C 
HETATM   10  C10 UNL     1     -34.252  18.264   0.349  1.00 20.00     0.164 C 
HETATM   11  C11 UNL     1     -31.524  18.934   3.683  1.00 20.00     0.051 C 
HETATM   12  O12 UNL     1     -30.743  18.343  -0.665  1.00 20.00    -0.326 OA
HETATM   13  O13 UNL     1     -34.631  17.875   1.695  1.00 20.00    -0.352 OA
ENDROOT
TORSDOF 0
ENDMDL
MODEL 3
REMARK VINA RESULT:      -4.9      1.606      3.064
REMARK  0 active torsions:
REMARK  status: ('A' for Active; 'I' for Inactive)
ROOT
HETATM    1  C1  UNL     1     -22.739  18.355   7.773  1.00 20.00     0.154 A 
HETATM    2  C2  UNL     1     -23.937  18.485   8.431  1.00 20.00     0.005 A 
HETATM    3  C3  UNL     1     -23.701  18.107   9.747  1.00 20.00     0.013 A 
HETATM    4  C4  UNL     1     -22.364  17.894   9.881  1.00 20.00     0.062 A 
HETATM    5  C5  UNL     1     -26.060  19.258   9.159  1.00 20.00     0.143 C 
HETATM    6  C6  UNL     1     -25.225  18.994   8.127  1.00 20.00    -0.027 C 
HETATM    7  C7  UNL     1     -21.637  17.761  11.159  1.00 20.00     0.066 C 
HETATM    8  C8  UNL     1     -22.666  17.698  12.329  1.00 20.00     0.009 C 
HETATM    9  C9  UNL     1     -23.952  18.558  12.121  1.00 20.00     0.038 C 
HETATM   10  C10 UNL     1     -24.696  18.159  10.825  1.00 20.00     0.164 C 
HETATM   11  C11 UNL     1     -25.537  19.263   6.693  1.00 20.00     0.051 C 
HETATM   12  O12 UNL     1     -21.747  18.004   8.672  1.00 20.00    -0.326 OA
HETATM   13  O13 UNL     1     -25.799  19.049  10.515  1.00 20.00    -0.352 OA
ENDROOT
TORSDOF 0
ENDMDL
MODEL 4
REMARK VINA RESULT:      -4.7      1.489      3.660
REMARK  0 active torsions:
REMARK  status: ('A' for Active; 'I' for Inactive)
ROOT
HETATM    1  C1  UNL     1     -24.592  18.209  11.493  1.00 20.00     0.154 A 
HETATM    2  C2  UNL     1     -23.542  18.025  10.627  1.00 20.00     0.005 A 
HETATM    3  C3  UNL     1     -24.052  18.223   9.350  1.00 20.00     0.013 A 
HETATM    4  C4  UNL     1     -25.338  18.647   9.481  1.00 20.00     0.062 A 
HETATM    5  C5  UNL     1     -21.385  18.022   9.635  1.00 20.00     0.143 C 
HETATM    6  C6  UNL     1     -22.143  17.820  10.739  1.00 20.00    -0.027 C 
HETATM    7  C7  UNL     1     -26.161  19.246   8.412  1.00 20.00     0.066 C 
HETATM    8  C8  UNL     1     -25.398  19.133   7.055  1.00 20.00     0.009 C 
HETATM    9  C9  UNL     1     -23.846  19.257   7.161  1.00 20.00     0.038 C 
HETATM   10  C10 UNL     1     -23.257  18.193   8.116  1.00 20.00     0.164 C 
HETATM   11  C11 UNL     1     -21.606  17.460  12.084  1.00 20.00     0.051 C 
HETATM   12  O12 UNL     1     -25.713  18.614  10.789  1.00 20.00    -0.326 OA
HETATM   13  O13 UNL     1     -21.841  18.386   8.367  1.00 20.00    -0.352 OA
ENDROOT
TORSDOF 0
ENDMDL
MODEL 5
REMARK VINA RESULT:      -4.7     16.735     18.570
REMARK  0 active torsions:
REMARK  status: ('A' for Active; 'I' for Inactive)
ROOT
HETATM    1  C1  UNL     1     -36.299  13.645  -4.599  1.00 20.00     0.154 A 
HETATM    2  C2  UNL     1     -36.742  14.817  -4.034  1.00 20.00     0.005 A 
HETATM    3  C3  UNL     1     -35.618  15.445  -3.513  1.00 20.00     0.013 A 
HETATM    4  C4  UNL     1     -34.529  14.721  -3.887  1.00 20.00     0.062 A 
HETATM    5  C5  UNL     1     -37.922  16.831  -3.604  1.00 20.00     0.143 C 
HETATM    6  C6  UNL     1     -37.965  15.530  -3.977  1.00 20.00    -0.027 C 
HETATM    7  C7  UNL     1     -33.125  15.170  -3.803  1.00 20.00     0.066 C 
HETATM    8  C8  UNL     1     -33.066  16.524  -3.030  1.00 20.00     0.009 C 
HETATM    9  C9  UNL     1     -34.291  17.465  -3.256  1.00 20.00     0.038 C 
HETATM   10  C10 UNL     1     -35.618  16.768  -2.875  1.00 20.00     0.164 C 
HETATM   11  C11 UNL     1     -39.202  14.809  -4.397  1.00 20.00     0.051 C 
HETATM   12  O12 UNL     1     -34.918  13.585  -4.528  1.00 20.00    -0.326 OA
HETATM   13  O13 UNL     1     -36.785  17.552  -3.231  1.00 20.00    -0.352 OA
ENDROOT
TORSDOF 0
ENDMDL
MODEL 6
REMARK VINA RESULT:      -4.6     17.421     19.465
REMARK  0 active torsions:
REMARK  status: ('A' for Active; 'I' for Inactive)
ROOT
HETATM    1  C1  UNL     1     -36.203  13.644  -4.506  1.00 20.00     0.154 A 
HETATM    2  C2  UNL     1     -35.767  14.924  -4.263  1.00 20.00     0.005 A 
HETATM    3  C3  UNL     1     -36.906  15.717  -4.201  1.00 20.00     0.013 A 
HETATM    4  C4  UNL     1     -37.987  14.894  -4.269  1.00 20.00     0.062 A 
HETATM    5  C5  UNL     1     -34.560  16.801  -3.453  1.00 20.00     0.143 C 
HETATM    6  C6  UNL     1     -34.529  15.547  -3.963  1.00 20.00    -0.027 C 
HETATM    7  C7  UNL     1     -39.378  15.270  -3.952  1.00 20.00     0.066 C 
HETATM    8  C8  UNL     1     -39.451  16.812  -3.722  1.00 20.00     0.009 C 
HETATM    9  C9  UNL     1     -38.185  17.439  -3.060  1.00 20.00     0.038 C 
HETATM   10  C10 UNL     1     -36.912  17.152  -3.889  1.00 20.00     0.164 C 
HETATM   11  C11 UNL     1     -33.288  14.745  -4.171  1.00 20.00     0.051 C 
HETATM   12  O12 UNL     1     -37.587  13.612  -4.493  1.00 20.00    -0.326 OA
HETATM   13  O13 UNL     1     -35.698  17.575  -3.216  1.00 20.00    -0.352 OA
ENDROOT
TORSDOF 0
ENDMDL
MODEL 7
REMARK VINA RESULT:      -4.6     17.345     19.187
REMARK  0 active torsions:
REMARK  status: ('A' for Active; 'I' for Inactive)
ROOT
HETATM    1  C1  UNL     1     -37.069  17.670  -2.892  1.00 20.00     0.154 A 
HETATM    2  C2  UNL     1     -37.607  16.599  -3.562  1.00 20.00     0.005 A 
HETATM    3  C3  UNL     1     -36.536  15.797  -3.937  1.00 20.00     0.013 A 
HETATM    4  C4  UNL     1     -35.412  16.321  -3.377  1.00 20.00     0.062 A 
HETATM    5  C5  UNL     1     -39.024  14.819  -4.242  1.00 20.00     0.143 C 
HETATM    6  C6  UNL     1     -38.908  16.103  -3.828  1.00 20.00    -0.027 C 
HETATM    7  C7  UNL     1     -34.106  15.642  -3.271  1.00 20.00     0.066 C 
HETATM    8  C8  UNL     1     -34.154  14.310  -4.080  1.00 20.00     0.009 C 
HETATM    9  C9  UNL     1     -35.537  13.586  -4.075  1.00 20.00     0.038 C 
HETATM   10  C10 UNL     1     -36.657  14.503  -4.620  1.00 20.00     0.164 C 
HETATM   11  C11 UNL     1     -40.059  17.017  -3.566  1.00 20.00     0.051 C 
HETATM   12  O12 UNL     1     -35.702  17.497  -2.756  1.00 20.00    -0.326 OA
HETATM   13  O13 UNL     1     -37.978  13.922  -4.472  1.00 20.00    -0.352 OA
ENDROOT
TORSDOF 0
ENDMDL
MODEL 8
REMARK VINA RESULT:      -4.6     10.710     12.730
REMARK  0 active torsions:
REMARK  status: ('A' for Active; 'I' for Inactive)
ROOT
HETATM    1  C1  UNL     1     -31.880  18.305  -1.149  1.00 20.00     0.154 A 
HETATM    2  C2  UNL     1     -32.808  18.055  -0.168  1.00 20.00     0.005 A 
HETATM    3  C3  UNL     1     -32.147  18.215   1.043  1.00 20.00     0.013 A 
HETATM    4  C4  UNL     1     -30.898  18.683   0.773  1.00 20.00     0.062 A 
HETATM    5  C5  UNL     1     -34.823  17.945   1.083  1.00 20.00     0.143 C 
HETATM    6  C6  UNL     1     -34.204  17.811  -0.114  1.00 20.00    -0.027 C 
HETATM    7  C7  UNL     1     -29.964  19.263   1.757  1.00 20.00     0.066 C 
HETATM    8  C8  UNL     1     -30.547  19.071   3.191  1.00 20.00     0.009 C 
HETATM    9  C9  UNL     1     -32.103  19.152   3.285  1.00 20.00     0.038 C 
HETATM   10  C10 UNL     1     -32.780  18.110   2.364  1.00 20.00     0.164 C 
HETATM   11  C11 UNL     1     -34.896  17.491  -1.397  1.00 20.00     0.051 C 
HETATM   12  O12 UNL     1     -30.690  18.715  -0.572  1.00 20.00    -0.326 OA
HETATM   13  O13 UNL     1     -34.220  18.271   2.299  1.00 20.00    -0.352 OA
ENDROOT
TORSDOF 0
ENDMDL
MODEL 9
REMARK VINA RESULT:      -4.6     11.255     13.427
REMARK  0 active torsions:
REMARK  status: ('A' for Active; 'I' for Inactive)
ROOT
HETATM    1  C1  UNL     1     -34.868  17.685   0.918  1.00 20.00     0.154 A 
HETATM    2  C2  UNL     1     -33.880  17.997   0.015  1.00 20.00     0.005 A 
HETATM    3  C3  UNL     1     -32.842  18.552   0.752  1.00 20.00     0.013 A 
HETATM    4  C4  UNL     1     -33.164  18.439   2.069  1.00 20.00     0.062 A 
HETATM    5  C5  UNL     1     -32.387  17.949  -1.830  1.00 20.00     0.143 C 
HETATM    6  C6  UNL     1     -33.649  17.783  -1.367  1.00 20.00    -0.027 C 
HETATM    7  C7  UNL     1     -32.237  18.630   3.202  1.00 20.00     0.066 C 
HETATM    8  C8  UNL     1     -30.880  19.181   2.666  1.00 20.00     0.009 C 
HETATM    9  C9  UNL     1     -30.467  18.654   1.256  1.00 20.00     0.038 C 
HETATM   10  C10 UNL     1     -31.548  18.968   0.196  1.00 20.00     0.164 C 
HETATM   11  C11 UNL     1     -34.803  17.327  -2.195  1.00 20.00     0.051 C 
HETATM   12  O12 UNL     1     -34.423  17.941   2.203  1.00 20.00    -0.326 OA
HETATM   13  O13 UNL     1     -31.274  18.346  -1.086  1.00 20.00    -0.352 OA
ENDROOT
TORSDOF 0
ENDMDL
