MODEL 1
REMARK VINA RESULT:      -5.4      0.000      0.000
REMARK  0 active torsions:
REMARK  status: ('A' for Active; 'I' for Inactive)
ROOT
HETATM    1  C1  UNL     1     -36.841  14.700  -4.199  1.00 20.00     0.088 C 
HETATM    2  C2  UNL     1     -35.600  16.322  -2.920  1.00 20.00    -0.041 C 
HETATM    3  C3  UNL     1     -34.296  15.899  -3.440  1.00 20.00    -0.050 C 
HETATM    4  C4  UNL     1     -36.772  15.768  -3.271  1.00 20.00     0.101 C 
HETATM    5  C5  UNL     1     -34.029  14.678  -3.931  1.00 20.00    -0.081 C 
HETATM    6  C6  UNL     1     -35.563  17.478  -1.940  1.00 20.00     0.044 C 
HETATM    7  C7  UNL     1     -33.214  16.944  -3.325  1.00 20.00     0.040 C 
HETATM    8  C8  UNL     1     -33.018  17.426  -1.883  1.00 20.00     0.009 C 
HETATM    9  C9  UNL     1     -34.313  17.418  -1.046  1.00 20.00    -0.014 C 
HETATM   10  C10 UNL     1     -32.669  14.314  -4.446  1.00 20.00     0.043 C 
HETATM   11  C11 UNL     1     -35.073  13.605  -3.996  1.00 20.00     0.043 C 
HETATM   12  C12 UNL     1     -34.310  18.551  -0.022  1.00 20.00     0.010 C 
HETATM   13  N13 UNL     1     -36.906  13.825  -4.957  1.00 20.00    -0.192 NA
ENDROOT
TORSDOF 0
ENDMDL
MODEL 2
REMARK VINA RESULT:      -5.3      3.389      6.059
REMARK  0 active torsions:
REMARK  status: ('A' for Active; 'I' for Inactive)
ROOT
HETATM    1  C1  UNL     1     -30.888  18.779   0.337  1.00 20.00     0.088 C 
HETATM    2  C2  UNL     1     -32.715  17.910  -0.971  1.00 20.00    -0.041 C 
HETATM    3  C3  UNL     1     -33.725  18.180   0.056  1.00 20.00    -0.050 C 
HETATM    4  C4  UNL     1     -31.407  18.186  -0.840  1.00 20.00     0.101 C 
HETATM    5  C5  UNL     1     -33.470  18.284   1.370  1.00 20.00    -0.081 C 
HETATM    6  C6  UNL     1     -33.241  17.293  -2.252  1.00 20.00     0.044 C 
HETATM    7  C7  UNL     1     -35.136  18.274  -0.471  1.00 20.00     0.040 C 
HETATM    8  C8  UNL     1     -35.559  17.014  -1.236  1.00 20.00     0.009 C 
HETATM    9  C9  UNL     1     -34.398  16.319  -1.974  1.00 20.00    -0.014 C 
HETATM   10  C10 UNL     1     -34.555  18.562   2.367  1.00 20.00     0.043 C 
HETATM   11  C11 UNL     1     -32.085  18.131   1.923  1.00 20.00     0.043 C 
HETATM   12  C12 UNL     1     -34.886  15.658  -3.262  1.00 20.00     0.010 C 
HETATM   13  N13 UNL     1     -30.454  19.263   1.298  1.00 20.00    -0.192 NA
ENDROOT
TORSDOF 0
ENDMDL
MODEL 3
REMARK VINA RESULT:      -5.3      2.790      5.370
REMARK  0 active torsions:
REMARK  status: ('A' for Active; 'I' for Inactive)
ROOT
HETATM    1  C1  UNL     1     -32.357  18.660   0.078  1.00 20.00     0.088 C 
HETATM    2  C2  UNL     1     -33.289  17.363  -1.726  1.00 20.00    -0.041 C 
HETATM    3  C3  UNL     1     -34.663  17.443  -1.222  1.00 20.00    -0.050 C 
HETATM    4  C4  UNL     1     -32.227  17.924  -1.125  1.00 20.00     0.101 C 
HETATM    5  C5  UNL     1     -34.995  17.650   0.063  1.00 20.00    -0.081 C 
HETATM    6  C6  UNL     1     -33.118  16.599  -3.024  1.00 20.00     0.044 C 
HETATM    7  C7  UNL     1     -35.723  17.207  -2.270  1.00 20.00     0.040 C 
HETATM    8  C8  UNL     1     -35.553  15.857  -2.977  1.00 20.00     0.009 C 
HETATM    9  C9  UNL     1     -34.085  15.406  -3.107  1.00 20.00    -0.014 C 
HETATM   10  C10 UNL     1     -36.425  17.720   0.508  1.00 20.00     0.043 C 
HETATM   11  C11 UNL     1     -33.958  17.825   1.130  1.00 20.00     0.043 C 
HETATM   12  C12 UNL     1     -33.868  14.607  -4.390  1.00 20.00     0.010 C 
HETATM   13  N13 UNL     1     -32.455  19.263   1.065  1.00 20.00    -0.192 NA
ENDROOT
TORSDOF 0
ENDMDL
MODEL 4
REMARK VINA RESULT:      -5.2      1.785      2.185
REMARK  0 active torsions:
REMARK  status: ('A' for Active; 'I' for Inactive)
ROOT
HETATM    1  C1  UNL     1     -35.698  14.132  -4.398  1.00 20.00     0.088 C 
HETATM    2  C2  UNL     1     -34.577  15.991  -3.353  1.00 20.00    -0.041 C 
HETATM    3  C3  UNL     1     -34.512  16.787  -4.582  1.00 20.00    -0.050 C 
HETATM    4  C4  UNL     1     -35.124  14.767  -3.269  1.00 20.00     0.101 C 
HETATM    5  C5  UNL     1     -34.540  16.278  -5.825  1.00 20.00    -0.081 C 
HETATM    6  C6  UNL     1     -33.989  16.652  -2.121  1.00 20.00     0.044 C 
HETATM    7  C7  UNL     1     -34.341  18.269  -4.354  1.00 20.00     0.040 C 
HETATM    8  C8  UNL     1     -33.101  18.590  -3.513  1.00 20.00     0.009 C 
HETATM    9  C9  UNL     1     -32.758  17.504  -2.474  1.00 20.00    -0.014 C 
HETATM   10  C10 UNL     1     -34.470  17.152  -7.040  1.00 20.00     0.043 C 
HETATM   11  C11 UNL     1     -34.646  14.803  -6.074  1.00 20.00     0.043 C 
HETATM   12  C12 UNL     1     -32.136  18.120  -1.222  1.00 20.00     0.010 C 
HETATM   13  N13 UNL     1     -36.169  13.604  -5.317  1.00 20.00    -0.192 NA
ENDROOT
TORSDOF 0
ENDMDL
MODEL 5
REMARK VINA RESULT:      -5.1      1.124      2.806
REMARK  0 active torsions:
REMARK  status: ('A' for Active; 'I' for Inactive)
ROOT
HETATM    1  C1  UNL     1     -35.232  13.611  -4.225  1.00 20.00     0.088 C 
HETATM    2  C2  UNL     1     -34.451  15.638  -3.182  1.00 20.00    -0.041 C 
HETATM    3  C3  UNL     1     -35.786  16.232  -3.080  1.00 20.00    -0.050 C 
HETATM    4  C4  UNL     1     -34.196  14.430  -3.711  1.00 20.00     0.101 C 
HETATM    5  C5  UNL     1     -36.827  15.916  -3.869  1.00 20.00    -0.081 C 
HETATM    6  C6  UNL     1     -33.322  16.480  -2.622  1.00 20.00     0.044 C 
HETATM    7  C7  UNL     1     -35.907  17.310  -2.031  1.00 20.00     0.040 C 
HETATM    8  C8  UNL     1     -34.897  18.444  -2.241  1.00 20.00     0.009 C 
HETATM    9  C9  UNL     1     -33.565  17.979  -2.863  1.00 20.00    -0.014 C 
HETATM   10  C10 UNL     1     -38.168  16.565  -3.707  1.00 20.00     0.043 C 
HETATM   11  C11 UNL     1     -36.711  14.892  -4.958  1.00 20.00     0.043 C 
HETATM   12  C12 UNL     1     -32.398  18.819  -2.348  1.00 20.00     0.010 C 
HETATM   13  N13 UNL     1     -36.074  12.935  -4.650  1.00 20.00    -0.192 NA
ENDROOT
TORSDOF 0
ENDMDL
MODEL 6
REMARK VINA RESULT:      -5.1      2.239      3.586
REMARK  0 active torsions:
REMARK  status: ('A' for Active; 'I' for Inactive)
ROOT
HETATM    1  C1  UNL     1     -36.206  17.883  -1.079  1.00 20.00     0.088 C 
HETATM    2  C2  UNL     1     -34.024  18.423  -0.214  1.00 20.00    -0.041 C 
HETATM    3  C3  UNL     1     -33.305  17.816  -1.337  1.00 20.00    -0.050 C 
HETATM    4  C4  UNL     1     -35.361  18.453  -0.096  1.00 20.00     0.101 C 
HETATM    5  C5  UNL     1     -33.796  16.842  -2.122  1.00 20.00    -0.081 C 
HETATM    6  C6  UNL     1     -33.148  19.061   0.847  1.00 20.00     0.044 C 
HETATM    7  C7  UNL     1     -31.898  18.329  -1.525  1.00 20.00     0.040 C 
HETATM    8  C8  UNL     1     -31.042  18.160  -0.265  1.00 20.00     0.009 C 
HETATM    9  C9  UNL     1     -31.843  18.273   1.048  1.00 20.00    -0.014 C 
HETATM   10  C10 UNL     1     -33.003  16.266  -3.256  1.00 20.00     0.043 C 
HETATM   11  C11 UNL     1     -35.167  16.273  -1.914  1.00 20.00     0.043 C 
HETATM   12  C12 UNL     1     -30.991  18.887   2.157  1.00 20.00     0.010 C 
HETATM   13  N13 UNL     1     -36.905  17.417  -1.879  1.00 20.00    -0.192 NA
ENDROOT
TORSDOF 0
ENDMDL
MODEL 7
REMARK VINA RESULT:      -5.0      1.603      3.682
REMARK  0 active torsions:
REMARK  status: ('A' for Active; 'I' for Inactive)
ROOT
HETATM    1  C1  UNL     1     -38.474  15.031  -4.165  1.00 20.00     0.088 C 
HETATM    2  C2  UNL     1     -36.097  14.869  -3.811  1.00 20.00    -0.041 C 
HETATM    3  C3  UNL     1     -36.017  16.104  -3.026  1.00 20.00    -0.050 C 
HETATM    4  C4  UNL     1     -37.230  14.376  -4.336  1.00 20.00     0.101 C 
HETATM    5  C5  UNL     1     -36.894  17.119  -3.106  1.00 20.00    -0.081 C 
HETATM    6  C6  UNL     1     -34.785  14.132  -3.995  1.00 20.00     0.044 C 
HETATM    7  C7  UNL     1     -34.805  16.195  -2.132  1.00 20.00     0.040 C 
HETATM    8  C8  UNL     1     -33.493  16.040  -2.910  1.00 20.00     0.009 C 
HETATM    9  C9  UNL     1     -33.606  15.110  -4.134  1.00 20.00    -0.014 C 
HETATM   10  C10 UNL     1     -36.751  18.356  -2.272  1.00 20.00     0.043 C 
HETATM   11  C11 UNL     1     -38.071  17.077  -4.034  1.00 20.00     0.043 C 
HETATM   12  C12 UNL     1     -32.295  14.364  -4.377  1.00 20.00     0.010 C 
HETATM   13  N13 UNL     1     -39.497  15.561  -4.032  1.00 20.00    -0.192 NA
ENDROOT
TORSDOF 0
ENDMDL
MODEL 8
REMARK VINA RESULT:      -4.8      3.463      5.283
REMARK  0 active torsions:
REMARK  status: ('A' for Active; 'I' for Inactive)
ROOT
HETATM    1  C1  UNL     1     -31.365  18.440   0.373  1.00 20.00     0.088 C 
HETATM    2  C2  UNL     1     -33.726  18.334   0.839  1.00 20.00    -0.041 C 
HETATM    3  C3  UNL     1     -34.060  17.678  -0.429  1.00 20.00    -0.050 C 
HETATM    4  C4  UNL     1     -32.483  18.685   1.207  1.00 20.00     0.101 C 
HETATM    5  C5  UNL     1     -33.320  17.755  -1.547  1.00 20.00    -0.081 C 
HETATM    6  C6  UNL     1     -34.899  18.592   1.764  1.00 20.00     0.044 C 
HETATM    7  C7  UNL     1     -35.372  16.934  -0.416  1.00 20.00     0.040 C 
HETATM    8  C8  UNL     1     -36.549  17.833  -0.021  1.00 20.00     0.009 C 
HETATM    9  C9  UNL     1     -36.170  18.948   0.975  1.00 20.00    -0.014 C 
HETATM   10  C10 UNL     1     -33.723  17.057  -2.811  1.00 20.00     0.043 C 
HETATM   11  C11 UNL     1     -32.045  18.541  -1.600  1.00 20.00     0.043 C 
HETATM   12  C12 UNL     1     -37.333  19.263   1.913  1.00 20.00     0.010 C 
HETATM   13  N13 UNL     1     -30.443  18.245  -0.305  1.00 20.00    -0.192 NA
ENDROOT
TORSDOF 0
ENDMDL
MODEL 9
REMARK VINA RESULT:      -4.8      1.688      2.612
REMARK  0 active torsions:
REMARK  status: ('A' for Active; 'I' for Inactive)
ROOT
HETATM    1  C1  UNL     1     -35.643  13.899  -4.444  1.00 20.00     0.088 C 
HETATM    2  C2  UNL     1     -34.706  15.839  -3.364  1.00 20.00    -0.041 C 
HETATM    3  C3  UNL     1     -35.491  16.794  -4.151  1.00 20.00    -0.050 C 
HETATM    4  C4  UNL     1     -34.777  14.504  -3.501  1.00 20.00     0.101 C 
HETATM    5  C5  UNL     1     -36.002  16.544  -5.368  1.00 20.00    -0.081 C 
HETATM    6  C6  UNL     1     -33.784  16.454  -2.331  1.00 20.00     0.044 C 
HETATM    7  C7  UNL     1     -35.642  18.151  -3.510  1.00 20.00     0.040 C 
HETATM    8  C8  UNL     1     -34.289  18.797  -3.188  1.00 20.00     0.009 C 
HETATM    9  C9  UNL     1     -33.187  17.781  -2.828  1.00 20.00    -0.014 C 
HETATM   10  C10 UNL     1     -36.797  17.571  -6.118  1.00 20.00     0.043 C 
HETATM   11  C11 UNL     1     -35.812  15.224  -6.051  1.00 20.00     0.043 C 
HETATM   12  C12 UNL     1     -32.214  18.367  -1.807  1.00 20.00     0.010 C 
HETATM   13  N13 UNL     1     -36.349  13.395  -5.215  1.00 20.00    -0.192 NA
ENDROOT
TORSDOF 0
ENDMDL
