MODEL 1
REMARK VINA RESULT:      -4.7      0.000      0.000
REMARK  2 active torsions:
REMARK  status: ('A' for Active; 'I' for Inactive)
REMARK    1  A    between atoms: C5_5  and  O12_12 
REMARK    2  A    between atoms: C6_6  and  C11_11 
ROOT
HETATM    1  C1  UNL     1     -33.005  15.920  -3.340  1.00 20.00    -0.021 C 
HETATM    2  C2  UNL     1     -33.473  16.841  -2.478  1.00 20.00    -0.059 C 
HETATM    3  C3  UNL     1     -33.874  14.943  -4.073  1.00 20.00     0.032 C 
HETATM    4  C4  UNL     1     -35.842  16.254  -3.210  1.00 20.00     0.042 C 
HETATM    5  C5  UNL     1     -34.951  16.997  -2.206  1.00 20.00     0.149 C 
HETATM    6  C6  UNL     1     -35.298  14.850  -3.504  1.00 20.00    -0.005 C 
HETATM    7  C7  UNL     1     -32.551  17.783  -1.759  1.00 20.00     0.046 C 
ENDROOT
BRANCH   6   8
HETATM    8  C11 UNL     1     -36.215  14.093  -4.463  1.00 20.00    -0.018 C 
HETATM    9  C8  UNL     1     -37.668  14.519  -4.264  1.00 20.00     0.010 C 
HETATM   10  C9  UNL     1     -35.783  14.319  -5.909  1.00 20.00     0.010 C 
ENDBRANCH   6   8
BRANCH   5  11
HETATM   11  O12 UNL     1     -35.244  16.504  -0.899  1.00 20.00    -0.386 OA
HETATM   12  C10 UNL     1     -35.874  17.495  -0.102  1.00 20.00     0.202 C 
ENDBRANCH   5  11
TORSDOF 2
ENDMDL
MODEL 2
REMARK VINA RESULT:      -4.6      1.388      4.311
REMARK  2 active torsions:
REMARK  status: ('A' for Active; 'I' for Inactive)
REMARK    1  A    between atoms: C5_5  and  O12_12 
REMARK    2  A    between atoms: C6_6  and  C11_11 
ROOT
HETATM    1  C1  UNL     1     -32.815  16.428  -3.184  1.00 20.00    -0.021 C 
HETATM    2  C2  UNL     1     -33.761  15.576  -3.616  1.00 20.00    -0.059 C 
HETATM    3  C3  UNL     1     -33.005  17.378  -2.039  1.00 20.00     0.032 C 
HETATM    4  C4  UNL     1     -35.166  16.172  -1.576  1.00 20.00     0.042 C 
HETATM    5  C5  UNL     1     -35.109  15.473  -2.940  1.00 20.00     0.149 C 
HETATM    6  C6  UNL     1     -34.475  17.542  -1.622  1.00 20.00    -0.005 C 
HETATM    7  C7  UNL     1     -33.518  14.660  -4.781  1.00 20.00     0.046 C 
ENDROOT
BRANCH   6   8
HETATM    8  C11 UNL     1     -34.579  18.258  -0.277  1.00 20.00    -0.018 C 
HETATM    9  C8  UNL     1     -35.406  17.433   0.707  1.00 20.00     0.010 C 
HETATM   10  C9  UNL     1     -33.190  18.536   0.291  1.00 20.00     0.010 C 
ENDBRANCH   6   8
BRANCH   5  11
HETATM   11  O12 UNL     1     -36.103  16.056  -3.782  1.00 20.00    -0.386 OA
HETATM   12  C10 UNL     1     -37.093  15.106  -4.146  1.00 20.00     0.202 C 
ENDBRANCH   5  11
TORSDOF 2
ENDMDL
MODEL 3
REMARK VINA RESULT:      -4.5      1.381      4.228
REMARK  2 active torsions:
REMARK  status: ('A' for Active; 'I' for Inactive)
REMARK    1  A    between atoms: C5_5  and  O12_12 
REMARK    2  A    between atoms: C6_6  and  C11_11 
ROOT
HETATM    1  C1  UNL     1     -33.843  14.736  -4.064  1.00 20.00    -0.021 C 
HETATM    2  C2  UNL     1     -35.171  14.698  -3.852  1.00 20.00    -0.059 C 
HETATM    3  C3  UNL     1     -32.928  15.755  -3.451  1.00 20.00     0.032 C 
HETATM    4  C4  UNL     1     -34.888  16.465  -2.039  1.00 20.00     0.042 C 
HETATM    5  C5  UNL     1     -35.858  15.672  -2.925  1.00 20.00     0.149 C 
HETATM    6  C6  UNL     1     -33.674  16.952  -2.840  1.00 20.00    -0.005 C 
HETATM    7  C7  UNL     1     -36.039  13.663  -4.509  1.00 20.00     0.046 C 
ENDROOT
BRANCH   6   8
HETATM    8  C11 UNL     1     -32.736  17.785  -1.969  1.00 20.00    -0.018 C 
HETATM    9  C8  UNL     1     -32.392  19.103  -2.659  1.00 20.00     0.010 C 
HETATM   10  C9  UNL     1     -33.363  18.044  -0.601  1.00 20.00     0.010 C 
ENDBRANCH   6   8
BRANCH   5  11
HETATM   11  O12 UNL     1     -36.618  16.601  -3.697  1.00 20.00    -0.386 OA
HETATM   12  C10 UNL     1     -37.396  17.449  -2.866  1.00 20.00     0.202 C 
ENDBRANCH   5  11
TORSDOF 2
ENDMDL
MODEL 4
REMARK VINA RESULT:      -4.4      1.330      1.927
REMARK  2 active torsions:
REMARK  status: ('A' for Active; 'I' for Inactive)
REMARK    1  A    between atoms: C5_5  and  O12_12 
REMARK    2  A    between atoms: C6_6  and  C11_11 
ROOT
HETATM    1  C1  UNL     1     -32.846  17.458  -1.852  1.00 20.00    -0.021 C 
HETATM    2  C2  UNL     1     -33.515  18.112  -0.885  1.00 20.00    -0.059 C 
HETATM    3  C3  UNL     1     -33.469  16.430  -2.750  1.00 20.00     0.032 C 
HETATM    4  C4  UNL     1     -35.686  17.125  -1.780  1.00 20.00     0.042 C 
HETATM    5  C5  UNL     1     -34.991  17.891  -0.648  1.00 20.00     0.149 C 
HETATM    6  C6  UNL     1     -34.837  15.937  -2.253  1.00 20.00    -0.005 C 
HETATM    7  C7  UNL     1     -32.833  19.119  -0.004  1.00 20.00     0.046 C 
ENDROOT
BRANCH   6   8
HETATM    8  C11 UNL     1     -35.554  15.145  -3.344  1.00 20.00    -0.018 C 
HETATM    9  C8  UNL     1     -36.134  16.087  -4.397  1.00 20.00     0.010 C 
HETATM   10  C9  UNL     1     -34.604  14.139  -3.989  1.00 20.00     0.010 C 
ENDBRANCH   6   8
BRANCH   5  11
HETATM   11  O12 UNL     1     -35.168  17.156   0.563  1.00 20.00    -0.386 OA
HETATM   12  C10 UNL     1     -36.130  17.773   1.405  1.00 20.00     0.202 C 
ENDBRANCH   5  11
TORSDOF 2
ENDMDL
MODEL 5
REMARK VINA RESULT:      -4.4      2.143      4.908
REMARK  2 active torsions:
REMARK  status: ('A' for Active; 'I' for Inactive)
REMARK    1  A    between atoms: C5_5  and  O12_12 
REMARK    2  A    between atoms: C6_6  and  C11_11 
ROOT
HETATM    1  C1  UNL     1     -35.196  15.027  -2.878  1.00 20.00    -0.021 C 
HETATM    2  C2  UNL     1     -35.432  14.750  -4.173  1.00 20.00    -0.059 C 
HETATM    3  C3  UNL     1     -34.295  16.132  -2.410  1.00 20.00     0.032 C 
HETATM    4  C4  UNL     1     -34.216  16.898  -4.807  1.00 20.00     0.042 C 
HETATM    5  C5  UNL     1     -34.830  15.576  -5.286  1.00 20.00     0.149 C 
HETATM    6  C6  UNL     1     -33.400  16.699  -3.522  1.00 20.00    -0.005 C 
HETATM    7  C7  UNL     1     -36.330  13.618  -4.581  1.00 20.00     0.046 C 
ENDROOT
BRANCH   6   8
HETATM    8  C11 UNL     1     -32.746  18.005  -3.076  1.00 20.00    -0.018 C 
HETATM    9  C8  UNL     1     -33.636  19.196  -3.424  1.00 20.00     0.010 C 
HETATM   10  C9  UNL     1     -32.453  17.974  -1.578  1.00 20.00     0.010 C 
ENDBRANCH   6   8
BRANCH   5  11
HETATM   11  O12 UNL     1     -33.809  14.819  -5.935  1.00 20.00    -0.386 OA
HETATM   12  C10 UNL     1     -33.780  15.080  -7.330  1.00 20.00     0.202 C 
ENDBRANCH   5  11
TORSDOF 2
ENDMDL
MODEL 6
REMARK VINA RESULT:      -4.3      1.676      4.821
REMARK  2 active torsions:
REMARK  status: ('A' for Active; 'I' for Inactive)
REMARK    1  A    between atoms: C5_5  and  O12_12 
REMARK    2  A    between atoms: C6_6  and  C11_11 
ROOT
HETATM    1  C1  UNL     1     -33.418  16.487  -2.734  1.00 20.00    -0.021 C 
HETATM    2  C2  UNL     1     -34.689  16.169  -2.431  1.00 20.00    -0.059 C 
HETATM    3  C3  UNL     1     -32.596  17.474  -1.959  1.00 20.00     0.032 C 
HETATM    4  C4  UNL     1     -34.452  17.477  -0.257  1.00 20.00     0.042 C 
HETATM    5  C5  UNL     1     -35.395  16.761  -1.233  1.00 20.00     0.149 C 
HETATM    6  C6  UNL     1     -33.431  18.344  -1.005  1.00 20.00    -0.005 C 
HETATM    7  C7  UNL     1     -35.469  15.185  -3.256  1.00 20.00     0.046 C 
ENDROOT
BRANCH   6   8
HETATM    8  C11 UNL     1     -32.527  19.096  -0.030  1.00 20.00    -0.018 C 
HETATM    9  C8  UNL     1     -33.053  18.966   1.398  1.00 20.00     0.010 C 
HETATM   10  C9  UNL     1     -31.092  18.581  -0.122  1.00 20.00     0.010 C 
ENDBRANCH   6   8
BRANCH   5  11
HETATM   11  O12 UNL     1     -36.372  17.700  -1.680  1.00 20.00    -0.386 OA
HETATM   12  C10 UNL     1     -37.172  18.164  -0.603  1.00 20.00     0.202 C 
ENDBRANCH   5  11
TORSDOF 2
ENDMDL
MODEL 7
REMARK VINA RESULT:      -4.1      1.946      4.491
REMARK  2 active torsions:
REMARK  status: ('A' for Active; 'I' for Inactive)
REMARK    1  A    between atoms: C5_5  and  O12_12 
REMARK    2  A    between atoms: C6_6  and  C11_11 
ROOT
HETATM    1  C1  UNL     1     -34.500  16.219  -6.209  1.00 20.00    -0.021 C 
HETATM    2  C2  UNL     1     -35.492  15.360  -6.500  1.00 20.00    -0.059 C 
HETATM    3  C3  UNL     1     -34.041  16.524  -4.813  1.00 20.00     0.032 C 
HETATM    4  C4  UNL     1     -35.512  14.625  -4.060  1.00 20.00     0.042 C 
HETATM    5  C5  UNL     1     -36.213  14.582  -5.424  1.00 20.00     0.149 C 
HETATM    6  C6  UNL     1     -35.020  16.041  -3.732  1.00 20.00    -0.005 C 
HETATM    7  C7  UNL     1     -35.920  15.108  -7.917  1.00 20.00     0.046 C 
ENDROOT
BRANCH   6   8
HETATM    8  C11 UNL     1     -34.368  16.092  -2.352  1.00 20.00    -0.018 C 
HETATM    9  C8  UNL     1     -33.075  16.903  -2.399  1.00 20.00     0.010 C 
HETATM   10  C9  UNL     1     -35.333  16.681  -1.325  1.00 20.00     0.010 C 
ENDBRANCH   6   8
BRANCH   5  11
HETATM   11  O12 UNL     1     -37.530  15.109  -5.265  1.00 20.00    -0.386 OA
HETATM   12  C10 UNL     1     -38.221  14.462  -4.206  1.00 20.00     0.202 C 
ENDBRANCH   5  11
TORSDOF 2
ENDMDL
MODEL 8
REMARK VINA RESULT:      -3.7      2.871      4.641
REMARK  2 active torsions:
REMARK  status: ('A' for Active; 'I' for Inactive)
REMARK    1  A    between atoms: C5_5  and  O12_12 
REMARK    2  A    between atoms: C6_6  and  C11_11 
ROOT
HETATM    1  C1  UNL     1     -31.187  18.493   0.566  1.00 20.00    -0.021 C 
HETATM    2  C2  UNL     1     -32.082  18.833   1.510  1.00 20.00    -0.059 C 
HETATM    3  C3  UNL     1     -31.554  18.141  -0.845  1.00 20.00     0.032 C 
HETATM    4  C4  UNL     1     -33.882  18.925  -0.291  1.00 20.00     0.042 C 
HETATM    5  C5  UNL     1     -33.559  18.932   1.209  1.00 20.00     0.149 C 
HETATM    6  C6  UNL     1     -33.054  17.866  -1.033  1.00 20.00    -0.005 C 
HETATM    7  C7  UNL     1     -31.656  19.159   2.913  1.00 20.00     0.046 C 
ENDROOT
BRANCH   6   8
HETATM    8  C11 UNL     1     -33.414  17.825  -2.516  1.00 20.00    -0.018 C 
HETATM    9  C8  UNL     1     -32.645  18.897  -3.285  1.00 20.00     0.010 C 
HETATM   10  C9  UNL     1     -33.131  16.441  -3.098  1.00 20.00     0.010 C 
ENDBRANCH   6   8
BRANCH   5  11
HETATM   11  O12 UNL     1     -34.238  17.834   1.817  1.00 20.00    -0.386 OA
HETATM   12  C10 UNL     1     -35.643  17.935   1.642  1.00 20.00     0.202 C 
ENDBRANCH   5  11
TORSDOF 2
ENDMDL
MODEL 9
REMARK VINA RESULT:      -3.7      1.615      2.119
REMARK  2 active torsions:
REMARK  status: ('A' for Active; 'I' for Inactive)
REMARK    1  A    between atoms: C5_5  and  O12_12 
REMARK    2  A    between atoms: C6_6  and  C11_11 
ROOT
HETATM    1  C1  UNL     1     -33.381  15.856  -3.134  1.00 20.00    -0.021 C 
HETATM    2  C2  UNL     1     -34.161  16.842  -2.657  1.00 20.00    -0.059 C 
HETATM    3  C3  UNL     1     -33.636  15.140  -4.428  1.00 20.00     0.032 C 
HETATM    4  C4  UNL     1     -35.403  16.876  -4.881  1.00 20.00     0.042 C 
HETATM    5  C5  UNL     1     -35.359  17.352  -3.423  1.00 20.00     0.149 C 
HETATM    6  C6  UNL     1     -35.044  15.388  -4.992  1.00 20.00    -0.005 C 
HETATM    7  C7  UNL     1     -33.864  17.510  -1.345  1.00 20.00     0.046 C 
ENDROOT
BRANCH   6   8
HETATM    8  C11 UNL     1     -35.139  14.903  -6.437  1.00 20.00    -0.018 C 
HETATM    9  C8  UNL     1     -36.235  15.660  -7.185  1.00 20.00     0.010 C 
HETATM   10  C9  UNL     1     -33.797  15.064  -7.147  1.00 20.00     0.010 C 
ENDBRANCH   6   8
BRANCH   5  11
HETATM   11  O12 UNL     1     -36.553  16.914  -2.775  1.00 20.00    -0.386 OA
HETATM   12  C10 UNL     1     -37.707  17.454  -3.400  1.00 20.00     0.202 C 
ENDBRANCH   5  11
TORSDOF 2
ENDMDL
