MODEL 1
REMARK VINA RESULT:      -3.5      0.000      0.000
REMARK  1 active torsions:
REMARK  status: ('A' for Active; 'I' for Inactive)
REMARK    1  A    between atoms: C2_2  and  C4_4 
ROOT
HETATM    1  C1  UNL     1     -34.599   4.831   4.724  1.00 20.00     0.171 A 
HETATM    2  C2  UNL     1     -33.913   5.972   4.004  1.00 20.00     0.175 A 
HETATM    3  C3  UNL     1     -34.875   4.825   6.187  1.00 20.00     0.044 C 
HETATM    4  O5  UNL     1     -35.341   5.814   3.992  1.00 20.00    -0.352 OA
HETATM    5 CL6  UNL     1     -33.243   7.314   4.926  1.00 20.00    -0.084 Cl
ENDROOT
BRANCH   2   6
HETATM    6  C4  UNL     1     -33.276   5.721   2.675  1.00 20.00     0.172 C 
HETATM    7 CL7  UNL     1     -32.508   7.200   2.041  1.00 20.00    -0.126 Cl
ENDBRANCH   2   6
TORSDOF 1
ENDMDL
MODEL 2
REMARK VINA RESULT:      -3.4     16.808     17.103
REMARK  1 active torsions:
REMARK  status: ('A' for Active; 'I' for Inactive)
REMARK    1  A    between atoms: C2_2  and  C4_4 
ROOT
HETATM    1  C1  UNL     1     -24.280  16.859  10.549  1.00 20.00     0.171 A 
HETATM    2  C2  UNL     1     -23.156  17.856  10.731  1.00 20.00     0.175 A 
HETATM    3  C3  UNL     1     -24.673  15.861  11.581  1.00 20.00     0.044 C 
HETATM    4  O5  UNL     1     -24.533  18.219  10.921  1.00 20.00    -0.352 OA
HETATM    5 CL6  UNL     1     -22.125  17.766  12.156  1.00 20.00    -0.084 Cl
ENDROOT
BRANCH   2   6
HETATM    6  C4  UNL     1     -22.537  18.489   9.526  1.00 20.00     0.172 C 
HETATM    7 CL7  UNL     1     -21.293  17.431   8.812  1.00 20.00    -0.126 Cl
ENDBRANCH   2   6
TORSDOF 1
ENDMDL
MODEL 3
REMARK VINA RESULT:      -3.3      1.830      3.387
REMARK  1 active torsions:
REMARK  status: ('A' for Active; 'I' for Inactive)
REMARK    1  A    between atoms: C2_2  and  C4_4 
ROOT
HETATM    1  C1  UNL     1     -33.378   6.498   2.346  1.00 20.00     0.171 A 
HETATM    2  C2  UNL     1     -33.659   6.199   3.804  1.00 20.00     0.175 A 
HETATM    3  C3  UNL     1     -32.465   7.581   1.887  1.00 20.00     0.044 C 
HETATM    4  O5  UNL     1     -32.719   5.429   3.036  1.00 20.00    -0.352 OA
HETATM    5 CL6  UNL     1     -33.023   7.262   5.056  1.00 20.00    -0.084 Cl
ENDROOT
BRANCH   2   6
HETATM    6  C4  UNL     1     -34.892   5.437   4.170  1.00 20.00     0.172 C 
HETATM    7 CL7  UNL     1     -34.968   5.143   5.927  1.00 20.00    -0.126 Cl
ENDBRANCH   2   6
TORSDOF 1
ENDMDL
MODEL 4
REMARK VINA RESULT:      -3.3     17.295     17.680
REMARK  1 active torsions:
REMARK  status: ('A' for Active; 'I' for Inactive)
REMARK    1  A    between atoms: C2_2  and  C4_4 
ROOT
HETATM    1  C1  UNL     1     -21.469  17.581   8.862  1.00 20.00     0.171 A 
HETATM    2  C2  UNL     1     -22.651  18.088   9.662  1.00 20.00     0.175 A 
HETATM    3  C3  UNL     1     -21.527  17.275   7.406  1.00 20.00     0.044 C 
HETATM    4  O5  UNL     1     -21.625  18.970   9.177  1.00 20.00    -0.352 OA
HETATM    5 CL6  UNL     1     -24.241  18.186   8.910  1.00 20.00    -0.084 Cl
ENDROOT
BRANCH   2   6
HETATM    6  C4  UNL     1     -22.649  17.935  11.148  1.00 20.00     0.172 C 
HETATM    7 CL7  UNL     1     -23.586  16.504  11.650  1.00 20.00    -0.126 Cl
ENDBRANCH   2   6
TORSDOF 1
ENDMDL
MODEL 5
REMARK VINA RESULT:      -3.2     16.873     17.418
REMARK  1 active torsions:
REMARK  status: ('A' for Active; 'I' for Inactive)
REMARK    1  A    between atoms: C2_2  and  C4_4 
ROOT
HETATM    1  C1  UNL     1     -22.922  18.009   9.616  1.00 20.00     0.171 A 
HETATM    2  C2  UNL     1     -23.353  17.707  11.036  1.00 20.00     0.175 A 
HETATM    3  C3  UNL     1     -21.501  18.169   9.202  1.00 20.00     0.044 C 
HETATM    4  O5  UNL     1     -23.266  16.682  10.032  1.00 20.00    -0.352 OA
HETATM    5 CL6  UNL     1     -22.160  17.693  12.331  1.00 20.00    -0.084 Cl
ENDROOT
BRANCH   2   6
HETATM    6  C4  UNL     1     -24.756  18.009  11.454  1.00 20.00     0.172 C 
HETATM    7 CL7  UNL     1     -25.544  16.569  12.149  1.00 20.00    -0.126 Cl
ENDBRANCH   2   6
TORSDOF 1
ENDMDL
MODEL 6
REMARK VINA RESULT:      -3.2     12.209     13.116
REMARK  1 active torsions:
REMARK  status: ('A' for Active; 'I' for Inactive)
REMARK    1  A    between atoms: C2_2  and  C4_4 
ROOT
HETATM    1  C1  UNL     1     -34.994  15.242  -6.199  1.00 20.00     0.171 A 
HETATM    2  C2  UNL     1     -34.680  14.756  -4.800  1.00 20.00     0.175 A 
HETATM    3  C3  UNL     1     -33.998  15.277  -7.304  1.00 20.00     0.044 C 
HETATM    4  O5  UNL     1     -35.342  13.921  -5.765  1.00 20.00    -0.352 OA
HETATM    5 CL6  UNL     1     -33.023  14.352  -4.363  1.00 20.00    -0.084 Cl
ENDROOT
BRANCH   2   6
HETATM    6  C4  UNL     1     -35.563  15.168  -3.666  1.00 20.00     0.172 C 
HETATM    7 CL7  UNL     1     -34.607  15.816  -2.309  1.00 20.00    -0.126 Cl
ENDBRANCH   2   6
TORSDOF 1
ENDMDL
MODEL 7
REMARK VINA RESULT:      -3.1      9.355      9.612
REMARK  1 active torsions:
REMARK  status: ('A' for Active; 'I' for Inactive)
REMARK    1  A    between atoms: C2_2  and  C4_4 
ROOT
HETATM    1  C1  UNL     1     -41.846   5.512  -0.678  1.00 20.00     0.171 A 
HETATM    2  C2  UNL     1     -41.859   7.025  -0.624  1.00 20.00     0.175 A 
HETATM    3  C3  UNL     1     -42.679   4.712  -1.617  1.00 20.00     0.044 C 
HETATM    4  O5  UNL     1     -40.831   6.297  -1.316  1.00 20.00    -0.352 OA
HETATM    5 CL6  UNL     1     -43.021   7.927  -1.594  1.00 20.00    -0.084 Cl
ENDROOT
BRANCH   2   6
HETATM    6  C4  UNL     1     -41.370   7.719   0.606  1.00 20.00     0.172 C 
HETATM    7 CL7  UNL     1     -41.357   9.488   0.385  1.00 20.00    -0.126 Cl
ENDBRANCH   2   6
TORSDOF 1
ENDMDL
MODEL 8
REMARK VINA RESULT:      -3.1      9.254      9.551
REMARK  1 active torsions:
REMARK  status: ('A' for Active; 'I' for Inactive)
REMARK    1  A    between atoms: C2_2  and  C4_4 
ROOT
HETATM    1  C1  UNL     1     -41.517   7.956   0.644  1.00 20.00     0.171 A 
HETATM    2  C2  UNL     1     -42.326   6.934  -0.126  1.00 20.00     0.175 A 
HETATM    3  C3  UNL     1     -41.455   9.400   0.285  1.00 20.00     0.044 C 
HETATM    4  O5  UNL     1     -42.804   7.519   1.097  1.00 20.00    -0.352 OA
HETATM    5 CL6  UNL     1     -43.126   7.397  -1.625  1.00 20.00    -0.084 Cl
ENDROOT
BRANCH   2   6
HETATM    6  C4  UNL     1     -41.987   5.484   0.003  1.00 20.00     0.172 C 
HETATM    7 CL7  UNL     1     -40.865   4.970  -1.284  1.00 20.00    -0.126 Cl
ENDBRANCH   2   6
TORSDOF 1
ENDMDL
MODEL 9
REMARK VINA RESULT:      -3.1      8.896      9.080
REMARK  1 active torsions:
REMARK  status: ('A' for Active; 'I' for Inactive)
REMARK    1  A    between atoms: C2_2  and  C4_4 
ROOT
HETATM    1  C1  UNL     1     -42.736   6.458   0.781  1.00 20.00     0.171 A 
HETATM    2  C2  UNL     1     -41.682   6.751  -0.265  1.00 20.00     0.175 A 
HETATM    3  C3  UNL     1     -43.054   5.089   1.271  1.00 20.00     0.044 C 
HETATM    4  O5  UNL     1     -41.429   6.921   1.140  1.00 20.00    -0.352 OA
HETATM    5 CL6  UNL     1     -40.873   5.423  -1.091  1.00 20.00    -0.084 Cl
ENDROOT
BRANCH   2   6
HETATM    6  C4  UNL     1     -41.737   8.041  -1.018  1.00 20.00     0.172 C 
HETATM    7 CL7  UNL     1     -41.366   9.423   0.045  1.00 20.00    -0.126 Cl
ENDBRANCH   2   6
TORSDOF 1
ENDMDL
