MODEL 1
REMARK VINA RESULT:      -5.6      0.000      0.000
REMARK  1 active torsions:
REMARK  status: ('A' for Active; 'I' for Inactive)
REMARK    1  A    between atoms: C7_7  and  C10_10 
ROOT
HETATM    1  C1  UNL     1     -34.325   5.595   6.319  1.00 20.00    -0.004 C 
HETATM    2  C2  UNL     1     -33.754   6.875   5.972  1.00 20.00    -0.004 C 
HETATM    3  C3  UNL     1     -35.060   4.789   5.539  1.00 20.00    -0.019 C 
HETATM    4  C4  UNL     1     -33.481   7.394   4.764  1.00 20.00    -0.014 C 
HETATM    5  C5  UNL     1     -34.092   5.359   3.383  1.00 20.00     0.138 C 
HETATM    6  C6  UNL     1     -35.378   5.015   4.100  1.00 20.00     0.106 C 
HETATM    7  C7  UNL     1     -33.678   6.829   3.381  1.00 20.00     0.081 C 
HETATM    8  O11 UNL     1     -33.411   4.476   2.860  1.00 20.00    -0.297 OA
ENDROOT
BRANCH   7   9
HETATM    9  C10 UNL     1     -32.411   7.027   2.548  1.00 20.00    -0.008 C 
HETATM   10  C8  UNL     1     -32.688   7.953   1.366  1.00 20.00     0.010 C 
HETATM   11  C9  UNL     1     -31.285   7.582   3.416  1.00 20.00     0.010 C 
ENDBRANCH   7   9
TORSDOF 1
ENDMDL
MODEL 2
REMARK VINA RESULT:      -4.6     11.877     12.574
REMARK  1 active torsions:
REMARK  status: ('A' for Active; 'I' for Inactive)
REMARK    1  A    between atoms: C7_7  and  C10_10 
ROOT
HETATM    1  C1  UNL     1     -34.615  14.709  -5.754  1.00 20.00    -0.004 C 
HETATM    2  C2  UNL     1     -33.583  14.975  -4.780  1.00 20.00    -0.004 C 
HETATM    3  C3  UNL     1     -35.906  14.435  -5.522  1.00 20.00    -0.019 C 
HETATM    4  C4  UNL     1     -33.689  15.380  -3.504  1.00 20.00    -0.014 C 
HETATM    5  C5  UNL     1     -36.202  15.703  -3.468  1.00 20.00     0.138 C 
HETATM    6  C6  UNL     1     -36.573  14.426  -4.188  1.00 20.00     0.106 C 
HETATM    7  C7  UNL     1     -34.903  15.686  -2.666  1.00 20.00     0.081 C 
HETATM    8  O11 UNL     1     -36.911  16.705  -3.564  1.00 20.00    -0.297 OA
ENDROOT
BRANCH   7   9
HETATM    9  C10 UNL     1     -34.711  17.013  -1.930  1.00 20.00    -0.008 C 
HETATM   10  C8  UNL     1     -35.271  16.924  -0.513  1.00 20.00     0.010 C 
HETATM   11  C9  UNL     1     -33.234  17.398  -1.903  1.00 20.00     0.010 C 
ENDBRANCH   7   9
TORSDOF 1
ENDMDL
MODEL 3
REMARK VINA RESULT:      -4.5     11.674     13.209
REMARK  1 active torsions:
REMARK  status: ('A' for Active; 'I' for Inactive)
REMARK    1  A    between atoms: C7_7  and  C10_10 
ROOT
HETATM    1  C1  UNL     1     -36.509  15.512  -6.233  1.00 20.00    -0.004 C 
HETATM    2  C2  UNL     1     -36.405  16.588  -5.276  1.00 20.00    -0.004 C 
HETATM    3  C3  UNL     1     -35.509  14.836  -6.815  1.00 20.00    -0.019 C 
HETATM    4  C4  UNL     1     -35.386  16.924  -4.468  1.00 20.00    -0.014 C 
HETATM    5  C5  UNL     1     -33.865  14.976  -5.029  1.00 20.00     0.138 C 
HETATM    6  C6  UNL     1     -34.055  15.005  -6.528  1.00 20.00     0.106 C 
HETATM    7  C7  UNL     1     -34.024  16.303  -4.290  1.00 20.00     0.081 C 
HETATM    8  O11 UNL     1     -33.625  13.917  -4.448  1.00 20.00    -0.297 OA
ENDROOT
BRANCH   7   9
HETATM    9  C10 UNL     1     -33.718  16.128  -2.802  1.00 20.00    -0.008 C 
HETATM   10  C8  UNL     1     -32.854  17.279  -2.295  1.00 20.00     0.010 C 
HETATM   11  C9  UNL     1     -35.013  16.032  -2.000  1.00 20.00     0.010 C 
ENDBRANCH   7   9
TORSDOF 1
ENDMDL
MODEL 4
REMARK VINA RESULT:      -4.5     11.939     12.754
REMARK  1 active torsions:
REMARK  status: ('A' for Active; 'I' for Inactive)
REMARK    1  A    between atoms: C7_7  and  C10_10 
ROOT
HETATM    1  C1  UNL     1     -34.658  18.506  -0.505  1.00 20.00    -0.004 C 
HETATM    2  C2  UNL     1     -35.329  17.251  -0.752  1.00 20.00    -0.004 C 
HETATM    3  C3  UNL     1     -33.375  18.808  -0.751  1.00 20.00    -0.019 C 
HETATM    4  C4  UNL     1     -35.001  16.251  -1.587  1.00 20.00    -0.014 C 
HETATM    5  C5  UNL     1     -33.006  17.371  -2.677  1.00 20.00     0.138 C 
HETATM    6  C6  UNL     1     -32.378  17.921  -1.417  1.00 20.00     0.106 C 
HETATM    7  C7  UNL     1     -33.837  16.098  -2.531  1.00 20.00     0.081 C 
HETATM    8  O11 UNL     1     -32.868  17.955  -3.752  1.00 20.00    -0.297 OA
ENDROOT
BRANCH   7   9
HETATM    9  C10 UNL     1     -34.331  15.622  -3.899  1.00 20.00    -0.008 C 
HETATM   10  C8  UNL     1     -33.417  14.528  -4.445  1.00 20.00     0.010 C 
HETATM   11  C9  UNL     1     -35.770  15.123  -3.801  1.00 20.00     0.010 C 
ENDBRANCH   7   9
TORSDOF 1
ENDMDL
MODEL 5
REMARK VINA RESULT:      -4.2     12.018     12.766
REMARK  1 active torsions:
REMARK  status: ('A' for Active; 'I' for Inactive)
REMARK    1  A    between atoms: C7_7  and  C10_10 
ROOT
HETATM    1  C1  UNL     1     -33.209  16.411  -2.802  1.00 20.00    -0.004 C 
HETATM    2  C2  UNL     1     -34.495  16.441  -2.146  1.00 20.00    -0.004 C 
HETATM    3  C3  UNL     1     -32.792  15.553  -3.744  1.00 20.00    -0.019 C 
HETATM    4  C4  UNL     1     -35.670  15.921  -2.536  1.00 20.00    -0.014 C 
HETATM    5  C5  UNL     1     -34.927  15.092  -4.812  1.00 20.00     0.138 C 
HETATM    6  C6  UNL     1     -33.613  14.482  -4.378  1.00 20.00     0.106 C 
HETATM    7  C7  UNL     1     -36.041  15.138  -3.768  1.00 20.00     0.081 C 
HETATM    8  O11 UNL     1     -35.060  15.552  -5.946  1.00 20.00    -0.297 OA
ENDROOT
BRANCH   7   9
HETATM    9  C10 UNL     1     -37.325  15.700  -4.380  1.00 20.00    -0.008 C 
HETATM   10  C8  UNL     1     -38.480  14.719  -4.193  1.00 20.00     0.010 C 
HETATM   11  C9  UNL     1     -37.662  17.054  -3.761  1.00 20.00     0.010 C 
ENDBRANCH   7   9
TORSDOF 1
ENDMDL
MODEL 6
REMARK VINA RESULT:      -4.1     15.548     16.609
REMARK  1 active torsions:
REMARK  status: ('A' for Active; 'I' for Inactive)
REMARK    1  A    between atoms: C7_7  and  C10_10 
ROOT
HETATM    1  C1  UNL     1     -25.623  19.032   7.854  1.00 20.00    -0.004 C 
HETATM    2  C2  UNL     1     -25.654  19.183   9.290  1.00 20.00    -0.004 C 
HETATM    3  C3  UNL     1     -24.544  18.911   7.068  1.00 20.00    -0.019 C 
HETATM    4  C4  UNL     1     -24.722  18.876  10.206  1.00 20.00    -0.014 C 
HETATM    5  C5  UNL     1     -23.056  17.795   8.633  1.00 20.00     0.138 C 
HETATM    6  C6  UNL     1     -23.129  18.827   7.532  1.00 20.00     0.106 C 
HETATM    7  C7  UNL     1     -23.347  18.281  10.051  1.00 20.00     0.081 C 
HETATM    8  O11 UNL     1     -22.803  16.617   8.374  1.00 20.00    -0.297 OA
ENDROOT
BRANCH   7   9
HETATM    9  C10 UNL     1     -23.150  17.147  11.058  1.00 20.00    -0.008 C 
HETATM   10  C8  UNL     1     -22.492  17.671  12.332  1.00 20.00     0.010 C 
HETATM   11  C9  UNL     1     -24.485  16.479  11.376  1.00 20.00     0.010 C 
ENDBRANCH   7   9
TORSDOF 1
ENDMDL
MODEL 7
REMARK VINA RESULT:      -4.1     11.602     13.142
REMARK  1 active torsions:
REMARK  status: ('A' for Active; 'I' for Inactive)
REMARK    1  A    between atoms: C7_7  and  C10_10 
ROOT
HETATM    1  C1  UNL     1     -33.317  17.145  -3.134  1.00 20.00    -0.004 C 
HETATM    2  C2  UNL     1     -33.722  17.578  -4.450  1.00 20.00    -0.004 C 
HETATM    3  C3  UNL     1     -33.939  16.265  -2.336  1.00 20.00    -0.019 C 
HETATM    4  C4  UNL     1     -34.540  16.986  -5.336  1.00 20.00    -0.014 C 
HETATM    5  C5  UNL     1     -34.938  14.846  -4.039  1.00 20.00     0.138 C 
HETATM    6  C6  UNL     1     -35.157  15.477  -2.683  1.00 20.00     0.106 C 
HETATM    7  C7  UNL     1     -35.305  15.691  -5.257  1.00 20.00     0.081 C 
HETATM    8  O11 UNL     1     -34.456  13.717  -4.134  1.00 20.00    -0.297 OA
ENDROOT
BRANCH   7   9
HETATM    9  C10 UNL     1     -35.110  14.888  -6.545  1.00 20.00    -0.008 C 
HETATM   10  C8  UNL     1     -36.149  15.289  -7.587  1.00 20.00     0.010 C 
HETATM   11  C9  UNL     1     -33.697  15.086  -7.087  1.00 20.00     0.010 C 
ENDBRANCH   7   9
TORSDOF 1
ENDMDL
MODEL 8
REMARK VINA RESULT:      -4.0     11.846     13.194
REMARK  1 active torsions:
REMARK  status: ('A' for Active; 'I' for Inactive)
REMARK    1  A    between atoms: C7_7  and  C10_10 
ROOT
HETATM    1  C1  UNL     1     -34.850  16.770  -1.642  1.00 20.00    -0.004 C 
HETATM    2  C2  UNL     1     -35.136  15.502  -2.272  1.00 20.00    -0.004 C 
HETATM    3  C3  UNL     1     -33.878  17.638  -1.957  1.00 20.00    -0.019 C 
HETATM    4  C4  UNL     1     -34.798  15.053  -3.491  1.00 20.00    -0.014 C 
HETATM    5  C5  UNL     1     -33.717  17.182  -4.340  1.00 20.00     0.138 C 
HETATM    6  C6  UNL     1     -32.924  17.508  -3.095  1.00 20.00     0.106 C 
HETATM    7  C7  UNL     1     -34.014  15.706  -4.599  1.00 20.00     0.081 C 
HETATM    8  O11 UNL     1     -34.123  18.081  -5.078  1.00 20.00    -0.297 OA
ENDROOT
BRANCH   7   9
HETATM    9  C10 UNL     1     -34.745  15.533  -5.932  1.00 20.00    -0.008 C 
HETATM   10  C8  UNL     1     -33.772  15.088  -7.020  1.00 20.00     0.010 C 
HETATM   11  C9  UNL     1     -35.887  14.532  -5.786  1.00 20.00     0.010 C 
ENDBRANCH   7   9
TORSDOF 1
ENDMDL
MODEL 9
REMARK VINA RESULT:      -4.0     11.873     12.542
REMARK  1 active torsions:
REMARK  status: ('A' for Active; 'I' for Inactive)
REMARK    1  A    between atoms: C7_7  and  C10_10 
ROOT
HETATM    1  C1  UNL     1     -34.773  17.109  -1.166  1.00 20.00    -0.004 C 
HETATM    2  C2  UNL     1     -33.595  16.946  -1.987  1.00 20.00    -0.004 C 
HETATM    3  C3  UNL     1     -36.038  17.275  -1.577  1.00 20.00    -0.019 C 
HETATM    4  C4  UNL     1     -33.487  16.552  -3.266  1.00 20.00    -0.014 C 
HETATM    5  C5  UNL     1     -35.933  16.016  -3.654  1.00 20.00     0.138 C 
HETATM    6  C6  UNL     1     -36.510  17.245  -2.991  1.00 20.00     0.106 C 
HETATM    7  C7  UNL     1     -34.541  16.155  -4.266  1.00 20.00     0.081 C 
HETATM    8  O11 UNL     1     -36.559  14.955  -3.661  1.00 20.00    -0.297 OA
ENDROOT
BRANCH   7   9
HETATM    9  C10 UNL     1     -34.134  14.859  -4.971  1.00 20.00    -0.008 C 
HETATM   10  C8  UNL     1     -34.058  15.073  -6.480  1.00 20.00     0.010 C 
HETATM   11  C9  UNL     1     -32.798  14.356  -4.429  1.00 20.00     0.010 C 
ENDBRANCH   7   9
TORSDOF 1
ENDMDL
