MODEL 1
REMARK VINA RESULT:      -5.3      0.000      0.000
REMARK  0 active torsions:
REMARK  status: ('A' for Active; 'I' for Inactive)
ROOT
HETATM    1  C1  UNL     1     -34.094  17.000  -1.468  1.00 20.00    -0.004 C 
HETATM    2  C2  UNL     1     -33.038  17.214  -2.418  1.00 20.00    -0.003 C 
HETATM    3  C3  UNL     1     -35.137  16.213  -1.757  1.00 20.00    -0.025 C 
HETATM    4  C4  UNL     1     -33.151  16.814  -3.693  1.00 20.00    -0.009 C 
HETATM    5  C5  UNL     1     -33.820  14.898  -5.025  1.00 20.00     0.140 C 
HETATM    6  C6  UNL     1     -35.281  15.524  -3.087  1.00 20.00     0.048 C 
HETATM    7  C7  UNL     1     -33.931  14.906  -6.531  1.00 20.00     0.079 C 
HETATM    8  C8  UNL     1     -35.309  15.299  -7.039  1.00 20.00     0.008 C 
HETATM    9  C9  UNL     1     -36.108  16.208  -6.109  1.00 20.00     0.006 C 
HETATM   10  C10 UNL     1     -35.236  17.040  -5.154  1.00 20.00     0.001 C 
HETATM   11  C11 UNL     1     -34.377  16.101  -4.240  1.00 20.00     0.044 C 
HETATM   12  C12 UNL     1     -34.463  18.113  -5.940  1.00 20.00     0.011 C 
HETATM   13  O13 UNL     1     -33.211  13.983  -4.462  1.00 20.00    -0.297 OA
ENDROOT
TORSDOF 0
ENDMDL
MODEL 2
REMARK VINA RESULT:      -4.8      1.585      2.808
REMARK  0 active torsions:
REMARK  status: ('A' for Active; 'I' for Inactive)
ROOT
HETATM    1  C1  UNL     1     -33.683  17.333  -1.327  1.00 20.00    -0.004 C 
HETATM    2  C2  UNL     1     -34.963  16.686  -1.421  1.00 20.00    -0.003 C 
HETATM    3  C3  UNL     1     -32.991  17.659  -2.424  1.00 20.00    -0.025 C 
HETATM    4  C4  UNL     1     -35.417  16.196  -2.583  1.00 20.00    -0.009 C 
HETATM    5  C5  UNL     1     -35.664  16.794  -4.923  1.00 20.00     0.140 C 
HETATM    6  C6  UNL     1     -33.490  17.357  -3.811  1.00 20.00     0.048 C 
HETATM    7  C7  UNL     1     -36.133  15.843  -5.999  1.00 20.00     0.079 C 
HETATM    8  C8  UNL     1     -35.004  15.081  -6.674  1.00 20.00     0.008 C 
HETATM    9  C9  UNL     1     -33.761  14.868  -5.815  1.00 20.00     0.006 C 
HETATM   10  C10 UNL     1     -34.038  14.901  -4.303  1.00 20.00     0.001 C 
HETATM   11  C11 UNL     1     -34.642  16.286  -3.889  1.00 20.00     0.044 C 
HETATM   12  C12 UNL     1     -34.841  13.658  -3.882  1.00 20.00     0.011 C 
HETATM   13  O13 UNL     1     -36.170  17.917  -4.838  1.00 20.00    -0.297 OA
ENDROOT
TORSDOF 0
ENDMDL
MODEL 3
REMARK VINA RESULT:      -4.7      1.651      2.810
REMARK  0 active torsions:
REMARK  status: ('A' for Active; 'I' for Inactive)
ROOT
HETATM    1  C1  UNL     1     -34.828  17.576  -0.859  1.00 20.00    -0.004 C 
HETATM    2  C2  UNL     1     -35.957  17.445  -1.738  1.00 20.00    -0.003 C 
HETATM    3  C3  UNL     1     -33.579  17.401  -1.306  1.00 20.00    -0.025 C 
HETATM    4  C4  UNL     1     -35.828  16.941  -2.973  1.00 20.00    -0.009 C 
HETATM    5  C5  UNL     1     -34.438  17.119  -4.956  1.00 20.00     0.140 C 
HETATM    6  C6  UNL     1     -33.278  17.041  -2.736  1.00 20.00     0.048 C 
HETATM    7  C7  UNL     1     -34.559  16.220  -6.164  1.00 20.00     0.079 C 
HETATM    8  C8  UNL     1     -33.685  14.978  -6.089  1.00 20.00     0.008 C 
HETATM    9  C9  UNL     1     -33.369  14.491  -4.677  1.00 20.00     0.006 C 
HETATM   10  C10 UNL     1     -34.407  14.918  -3.626  1.00 20.00     0.001 C 
HETATM   11  C11 UNL     1     -34.500  16.481  -3.555  1.00 20.00     0.044 C 
HETATM   12  C12 UNL     1     -35.732  14.170  -3.851  1.00 20.00     0.011 C 
HETATM   13  O13 UNL     1     -34.384  18.343  -5.109  1.00 20.00    -0.297 OA
ENDROOT
TORSDOF 0
ENDMDL
MODEL 4
REMARK VINA RESULT:      -4.6      2.470      3.760
REMARK  0 active torsions:
REMARK  status: ('A' for Active; 'I' for Inactive)
ROOT
HETATM    1  C1  UNL     1     -33.659  14.871  -5.031  1.00 20.00    -0.004 C 
HETATM    2  C2  UNL     1     -34.618  14.965  -6.097  1.00 20.00    -0.003 C 
HETATM    3  C3  UNL     1     -34.040  14.941  -3.750  1.00 20.00    -0.025 C 
HETATM    4  C4  UNL     1     -35.886  15.335  -5.869  1.00 20.00    -0.009 C 
HETATM    5  C5  UNL     1     -37.748  14.893  -4.374  1.00 20.00     0.140 C 
HETATM    6  C6  UNL     1     -35.476  15.140  -3.346  1.00 20.00     0.048 C 
HETATM    7  C7  UNL     1     -39.043  15.671  -4.375  1.00 20.00     0.079 C 
HETATM    8  C8  UNL     1     -39.033  16.872  -3.443  1.00 20.00     0.008 C 
HETATM    9  C9  UNL     1     -37.659  17.483  -3.187  1.00 20.00     0.006 C 
HETATM   10  C10 UNL     1     -36.640  17.213  -4.306  1.00 20.00     0.001 C 
HETATM   11  C11 UNL     1     -36.423  15.671  -4.486  1.00 20.00     0.044 C 
HETATM   12  C12 UNL     1     -37.022  17.996  -5.574  1.00 20.00     0.011 C 
HETATM   13  O13 UNL     1     -37.777  13.659  -4.376  1.00 20.00    -0.297 OA
ENDROOT
TORSDOF 0
ENDMDL
MODEL 5
REMARK VINA RESULT:      -4.6      1.271      1.537
REMARK  0 active torsions:
REMARK  status: ('A' for Active; 'I' for Inactive)
ROOT
HETATM    1  C1  UNL     1     -34.122  16.195  -2.258  1.00 20.00    -0.004 C 
HETATM    2  C2  UNL     1     -33.282  15.843  -3.369  1.00 20.00    -0.003 C 
HETATM    3  C3  UNL     1     -35.455  16.214  -2.378  1.00 20.00    -0.025 C 
HETATM    4  C4  UNL     1     -33.773  15.728  -4.611  1.00 20.00    -0.009 C 
HETATM    5  C5  UNL     1     -35.623  14.736  -5.831  1.00 20.00     0.140 C 
HETATM    6  C6  UNL     1     -36.153  15.893  -3.671  1.00 20.00     0.048 C 
HETATM    7  C7  UNL     1     -35.898  14.970  -7.298  1.00 20.00     0.079 C 
HETATM    8  C8  UNL     1     -36.813  16.155  -7.565  1.00 20.00     0.008 C 
HETATM    9  C9  UNL     1     -36.778  17.254  -6.507  1.00 20.00     0.006 C 
HETATM   10  C10 UNL     1     -35.469  17.300  -5.702  1.00 20.00     0.001 C 
HETATM   11  C11 UNL     1     -35.240  15.942  -4.953  1.00 20.00     0.044 C 
HETATM   12  C12 UNL     1     -34.313  17.784  -6.595  1.00 20.00     0.011 C 
HETATM   13  O13 UNL     1     -35.622  13.584  -5.387  1.00 20.00    -0.297 OA
ENDROOT
TORSDOF 0
ENDMDL
MODEL 6
REMARK VINA RESULT:      -4.5      1.549      2.018
REMARK  0 active torsions:
REMARK  status: ('A' for Active; 'I' for Inactive)
ROOT
HETATM    1  C1  UNL     1     -33.196  17.630  -2.364  1.00 20.00    -0.004 C 
HETATM    2  C2  UNL     1     -33.101  17.314  -3.762  1.00 20.00    -0.003 C 
HETATM    3  C3  UNL     1     -34.080  17.011  -1.573  1.00 20.00    -0.025 C 
HETATM    4  C4  UNL     1     -34.021  16.553  -4.372  1.00 20.00    -0.009 C 
HETATM    5  C5  UNL     1     -35.249  14.477  -4.093  1.00 20.00     0.140 C 
HETATM    6  C6  UNL     1     -35.034  15.970  -2.091  1.00 20.00     0.048 C 
HETATM    7  C7  UNL     1     -36.361  14.017  -5.005  1.00 20.00     0.079 C 
HETATM    8  C8  UNL     1     -37.741  14.485  -4.568  1.00 20.00     0.008 C 
HETATM    9  C9  UNL     1     -37.762  15.784  -3.767  1.00 20.00     0.006 C 
HETATM   10  C10 UNL     1     -36.551  16.694  -4.028  1.00 20.00     0.001 C 
HETATM   11  C11 UNL     1     -35.221  15.953  -3.654  1.00 20.00     0.044 C 
HETATM   12  C12 UNL     1     -36.623  17.282  -5.447  1.00 20.00     0.011 C 
HETATM   13  O13 UNL     1     -34.343  13.694  -3.793  1.00 20.00    -0.297 OA
ENDROOT
TORSDOF 0
ENDMDL
MODEL 7
REMARK VINA RESULT:      -4.5      1.783      2.813
REMARK  0 active torsions:
REMARK  status: ('A' for Active; 'I' for Inactive)
ROOT
HETATM    1  C1  UNL     1     -32.815  18.547  -2.819  1.00 20.00    -0.004 C 
HETATM    2  C2  UNL     1     -33.061  17.361  -2.045  1.00 20.00    -0.003 C 
HETATM    3  C3  UNL     1     -33.497  18.792  -3.944  1.00 20.00    -0.025 C 
HETATM    4  C4  UNL     1     -33.818  16.361  -2.516  1.00 20.00    -0.009 C 
HETATM    5  C5  UNL     1     -35.940  15.951  -3.624  1.00 20.00     0.140 C 
HETATM    6  C6  UNL     1     -34.539  17.847  -4.477  1.00 20.00     0.048 C 
HETATM    7  C7  UNL     1     -36.387  14.602  -4.133  1.00 20.00     0.079 C 
HETATM    8  C8  UNL     1     -35.981  14.328  -5.572  1.00 20.00     0.008 C 
HETATM    9  C9  UNL     1     -34.723  15.054  -6.041  1.00 20.00     0.006 C 
HETATM   10  C10 UNL     1     -33.767  15.439  -4.901  1.00 20.00     0.001 C 
HETATM   11  C11 UNL     1     -34.486  16.390  -3.883  1.00 20.00     0.044 C 
HETATM   12  C12 UNL     1     -33.114  14.180  -4.306  1.00 20.00     0.011 C 
HETATM   13  O13 UNL     1     -36.710  16.632  -2.940  1.00 20.00    -0.297 OA
ENDROOT
TORSDOF 0
ENDMDL
MODEL 8
REMARK VINA RESULT:      -4.4      2.183      4.293
REMARK  0 active torsions:
REMARK  status: ('A' for Active; 'I' for Inactive)
ROOT
HETATM    1  C1  UNL     1     -35.820  14.062  -5.723  1.00 20.00    -0.004 C 
HETATM    2  C2  UNL     1     -35.021  15.216  -6.030  1.00 20.00    -0.003 C 
HETATM    3  C3  UNL     1     -36.630  14.044  -4.658  1.00 20.00    -0.025 C 
HETATM    4  C4  UNL     1     -34.890  16.228  -5.161  1.00 20.00    -0.009 C 
HETATM    5  C5  UNL     1     -36.207  17.657  -3.704  1.00 20.00     0.140 C 
HETATM    6  C6  UNL     1     -36.742  15.208  -3.711  1.00 20.00     0.048 C 
HETATM    7  C7  UNL     1     -35.620  18.650  -2.729  1.00 20.00     0.079 C 
HETATM    8  C8  UNL     1     -35.364  18.068  -1.348  1.00 20.00     0.008 C 
HETATM    9  C9  UNL     1     -35.100  16.566  -1.314  1.00 20.00     0.006 C 
HETATM   10  C10 UNL     1     -34.554  16.002  -2.636  1.00 20.00     0.001 C 
HETATM   11  C11 UNL     1     -35.571  16.257  -3.801  1.00 20.00     0.044 C 
HETATM   12  C12 UNL     1     -33.116  16.497  -2.872  1.00 20.00     0.011 C 
HETATM   13  O13 UNL     1     -37.116  18.009  -4.462  1.00 20.00    -0.297 OA
ENDROOT
TORSDOF 0
ENDMDL
MODEL 9
REMARK VINA RESULT:      -4.4      1.576      4.185
REMARK  0 active torsions:
REMARK  status: ('A' for Active; 'I' for Inactive)
ROOT
HETATM    1  C1  UNL     1     -36.624  15.921  -7.255  1.00 20.00    -0.004 C 
HETATM    2  C2  UNL     1     -35.230  15.572  -7.241  1.00 20.00    -0.003 C 
HETATM    3  C3  UNL     1     -37.170  16.628  -6.260  1.00 20.00    -0.025 C 
HETATM    4  C4  UNL     1     -34.474  15.750  -6.148  1.00 20.00    -0.009 C 
HETATM    5  C5  UNL     1     -33.971  17.403  -4.442  1.00 20.00     0.140 C 
HETATM    6  C6  UNL     1     -36.378  17.082  -5.064  1.00 20.00     0.048 C 
HETATM    7  C7  UNL     1     -33.105  17.141  -3.233  1.00 20.00     0.079 C 
HETATM    8  C8  UNL     1     -33.881  16.642  -2.024  1.00 20.00     0.008 C 
HETATM    9  C9  UNL     1     -35.167  15.886  -2.346  1.00 20.00     0.006 C 
HETATM   10  C10 UNL     1     -35.177  15.242  -3.742  1.00 20.00     0.001 C 
HETATM   11  C11 UNL     1     -35.006  16.338  -4.850  1.00 20.00     0.044 C 
HETATM   12  C12 UNL     1     -34.184  14.068  -3.793  1.00 20.00     0.011 C 
HETATM   13  O13 UNL     1     -33.774  18.411  -5.127  1.00 20.00    -0.297 OA
ENDROOT
TORSDOF 0
ENDMDL
