MODEL 1
REMARK VINA RESULT:      -5.5      0.000      0.000
REMARK  0 active torsions:
REMARK  status: ('A' for Active; 'I' for Inactive)
ROOT
HETATM    1  C1  UNL     1     -24.275  18.753   8.782  1.00 20.00     0.086 C 
HETATM    2  C2  UNL     1     -24.730  18.512  10.017  1.00 20.00    -0.064 C 
HETATM    3  C3  UNL     1     -23.042  18.086   8.319  1.00 20.00     0.283 C 
HETATM    4  C4  UNL     1     -25.903  19.182  10.669  1.00 20.00     0.035 C 
HETATM    5  C5  UNL     1     -25.834  18.702  12.120  1.00 20.00     0.005 C 
HETATM    6  C6  UNL     1     -24.382  18.271  12.328  1.00 20.00     0.016 C 
HETATM    7  C7  UNL     1     -22.498  17.777  10.674  1.00 20.00     0.192 C 
HETATM    8  C8  UNL     1     -23.984  17.644  10.988  1.00 20.00     0.002 C 
HETATM    9  C9  UNL     1     -24.444  16.181  10.885  1.00 20.00     0.022 C 
HETATM   10  O10 UNL     1     -22.756  18.057   7.127  1.00 20.00    -0.260 OA
HETATM   11  O11 UNL     1     -22.255  17.511   9.272  1.00 20.00    -0.317 OA
ENDROOT
TORSDOF 0
ENDMDL
MODEL 2
REMARK VINA RESULT:      -5.2     15.690     16.780
REMARK  0 active torsions:
REMARK  status: ('A' for Active; 'I' for Inactive)
ROOT
HETATM    1  C1  UNL     1     -32.876   7.246   3.731  1.00 20.00     0.086 C 
HETATM    2  C2  UNL     1     -33.715   6.612   4.558  1.00 20.00    -0.064 C 
HETATM    3  C3  UNL     1     -32.753   6.793   2.331  1.00 20.00     0.283 C 
HETATM    4  C4  UNL     1     -33.880   6.883   6.023  1.00 20.00     0.035 C 
HETATM    5  C5  UNL     1     -34.780   5.744   6.504  1.00 20.00     0.005 C 
HETATM    6  C6  UNL     1     -34.614   4.638   5.461  1.00 20.00     0.016 C 
HETATM    7  C7  UNL     1     -33.644   4.659   3.098  1.00 20.00     0.192 C 
HETATM    8  C8  UNL     1     -34.484   5.395   4.135  1.00 20.00     0.002 C 
HETATM    9  C9  UNL     1     -35.858   5.781   3.563  1.00 20.00     0.022 C 
HETATM   10  O10 UNL     1     -32.225   7.507   1.486  1.00 20.00    -0.260 OA
HETATM   11  O11 UNL     1     -33.254   5.561   2.035  1.00 20.00    -0.317 OA
ENDROOT
TORSDOF 0
ENDMDL
MODEL 3
REMARK VINA RESULT:      -5.1     16.975     18.208
REMARK  0 active torsions:
REMARK  status: ('A' for Active; 'I' for Inactive)
ROOT
HETATM    1  C1  UNL     1     -36.149  15.037  -3.237  1.00 20.00     0.086 C 
HETATM    2  C2  UNL     1     -34.956  15.629  -3.120  1.00 20.00    -0.064 C 
HETATM    3  C3  UNL     1     -36.524  14.404  -4.517  1.00 20.00     0.283 C 
HETATM    4  C4  UNL     1     -34.468  16.398  -1.929  1.00 20.00     0.035 C 
HETATM    5  C5  UNL     1     -33.162  17.029  -2.415  1.00 20.00     0.005 C 
HETATM    6  C6  UNL     1     -33.272  17.048  -3.939  1.00 20.00     0.016 C 
HETATM    7  C7  UNL     1     -34.839  15.829  -5.548  1.00 20.00     0.192 C 
HETATM    8  C8  UNL     1     -34.005  15.744  -4.275  1.00 20.00     0.002 C 
HETATM    9  C9  UNL     1     -33.043  14.546  -4.320  1.00 20.00     0.022 C 
HETATM   10  O10 UNL     1     -37.467  13.621  -4.577  1.00 20.00    -0.260 OA
HETATM   11  O11 UNL     1     -35.776  14.727  -5.610  1.00 20.00    -0.317 OA
ENDROOT
TORSDOF 0
ENDMDL
MODEL 4
REMARK VINA RESULT:      -4.7     17.431     18.744
REMARK  0 active torsions:
REMARK  status: ('A' for Active; 'I' for Inactive)
ROOT
HETATM    1  C1  UNL     1     -34.683  14.320  -3.754  1.00 20.00     0.086 C 
HETATM    2  C2  UNL     1     -34.320  15.586  -3.984  1.00 20.00    -0.064 C 
HETATM    3  C3  UNL     1     -35.806  13.736  -4.514  1.00 20.00     0.283 C 
HETATM    4  C4  UNL     1     -33.274  16.353  -3.231  1.00 20.00     0.035 C 
HETATM    5  C5  UNL     1     -33.428  17.783  -3.751  1.00 20.00     0.005 C 
HETATM    6  C6  UNL     1     -34.849  17.853  -4.311  1.00 20.00     0.016 C 
HETATM    7  C7  UNL     1     -36.527  16.027  -4.926  1.00 20.00     0.192 C 
HETATM    8  C8  UNL     1     -35.069  16.471  -4.937  1.00 20.00     0.002 C 
HETATM    9  C9  UNL     1     -34.474  16.387  -6.352  1.00 20.00     0.022 C 
HETATM   10  O10 UNL     1     -35.982  12.523  -4.539  1.00 20.00    -0.260 OA
HETATM   11  O11 UNL     1     -36.621  14.605  -5.178  1.00 20.00    -0.317 OA
ENDROOT
TORSDOF 0
ENDMDL
MODEL 5
REMARK VINA RESULT:      -4.6     17.492     18.697
REMARK  0 active torsions:
REMARK  status: ('A' for Active; 'I' for Inactive)
ROOT
HETATM    1  C1  UNL     1     -34.488  14.817  -5.464  1.00 20.00     0.086 C 
HETATM    2  C2  UNL     1     -34.428  15.543  -4.343  1.00 20.00    -0.064 C 
HETATM    3  C3  UNL     1     -35.805  14.460  -6.029  1.00 20.00     0.283 C 
HETATM    4  C4  UNL     1     -33.180  15.901  -3.591  1.00 20.00     0.035 C 
HETATM    5  C5  UNL     1     -33.703  16.532  -2.300  1.00 20.00     0.005 C 
HETATM    6  C6  UNL     1     -35.130  16.005  -2.149  1.00 20.00     0.016 C 
HETATM    7  C7  UNL     1     -36.707  14.861  -3.802  1.00 20.00     0.192 C 
HETATM    8  C8  UNL     1     -35.659  15.947  -3.586  1.00 20.00     0.002 C 
HETATM    9  C9  UNL     1     -36.173  17.316  -4.058  1.00 20.00     0.022 C 
HETATM   10  O10 UNL     1     -35.902  14.051  -7.181  1.00 20.00    -0.260 OA
HETATM   11  O11 UNL     1     -36.888  14.612  -5.216  1.00 20.00    -0.317 OA
ENDROOT
TORSDOF 0
ENDMDL
MODEL 6
REMARK VINA RESULT:      -4.6     17.141     18.337
REMARK  0 active torsions:
REMARK  status: ('A' for Active; 'I' for Inactive)
ROOT
HETATM    1  C1  UNL     1     -36.233  14.906  -4.692  1.00 20.00     0.086 C 
HETATM    2  C2  UNL     1     -35.687  16.081  -4.362  1.00 20.00    -0.064 C 
HETATM    3  C3  UNL     1     -35.518  13.656  -4.368  1.00 20.00     0.283 C 
HETATM    4  C4  UNL     1     -36.234  17.435  -4.707  1.00 20.00     0.035 C 
HETATM    5  C5  UNL     1     -35.119  18.394  -4.289  1.00 20.00     0.005 C 
HETATM    6  C6  UNL     1     -33.849  17.543  -4.263  1.00 20.00     0.016 C 
HETATM    7  C7  UNL     1     -33.497  15.012  -4.258  1.00 20.00     0.192 C 
HETATM    8  C8  UNL     1     -34.325  16.183  -3.740  1.00 20.00     0.002 C 
HETATM    9  C9  UNL     1     -34.416  16.163  -2.206  1.00 20.00     0.022 C 
HETATM   10  O10 UNL     1     -36.099  12.577  -4.395  1.00 20.00    -0.260 OA
HETATM   11  O11 UNL     1     -34.199  13.765  -4.040  1.00 20.00    -0.317 OA
ENDROOT
TORSDOF 0
ENDMDL
MODEL 7
REMARK VINA RESULT:      -4.6     17.624     18.892
REMARK  0 active torsions:
REMARK  status: ('A' for Active; 'I' for Inactive)
ROOT
HETATM    1  C1  UNL     1     -36.213  13.966  -4.244  1.00 20.00     0.086 C 
HETATM    2  C2  UNL     1     -35.115  14.727  -4.184  1.00 20.00    -0.064 C 
HETATM    3  C3  UNL     1     -37.543  14.604  -4.220  1.00 20.00     0.283 C 
HETATM    4  C4  UNL     1     -33.702  14.231  -4.098  1.00 20.00     0.035 C 
HETATM    5  C5  UNL     1     -32.888  15.499  -3.832  1.00 20.00     0.005 C 
HETATM    6  C6  UNL     1     -33.887  16.498  -3.247  1.00 20.00     0.016 C 
HETATM    7  C7  UNL     1     -36.441  16.525  -3.204  1.00 20.00     0.192 C 
HETATM    8  C8  UNL     1     -35.185  16.216  -4.011  1.00 20.00     0.002 C 
HETATM    9  C9  UNL     1     -35.210  16.930  -5.372  1.00 20.00     0.022 C 
HETATM   10  O10 UNL     1     -38.544  13.980  -4.553  1.00 20.00    -0.260 OA
HETATM   11  O11 UNL     1     -37.597  15.906  -3.817  1.00 20.00    -0.317 OA
ENDROOT
TORSDOF 0
ENDMDL
MODEL 8
REMARK VINA RESULT:      -4.6     17.019     18.220
REMARK  0 active torsions:
REMARK  status: ('A' for Active; 'I' for Inactive)
ROOT
HETATM    1  C1  UNL     1     -35.036  16.212  -5.862  1.00 20.00     0.086 C 
HETATM    2  C2  UNL     1     -34.462  16.688  -4.752  1.00 20.00    -0.064 C 
HETATM    3  C3  UNL     1     -35.339  14.771  -5.964  1.00 20.00     0.283 C 
HETATM    4  C4  UNL     1     -34.001  18.098  -4.534  1.00 20.00     0.035 C 
HETATM    5  C5  UNL     1     -33.236  18.029  -3.211  1.00 20.00     0.005 C 
HETATM    6  C6  UNL     1     -32.841  16.561  -3.056  1.00 20.00     0.016 C 
HETATM    7  C7  UNL     1     -33.659  14.444  -4.230  1.00 20.00     0.192 C 
HETATM    8  C8  UNL     1     -34.038  15.792  -3.626  1.00 20.00     0.002 C 
HETATM    9  C9  UNL     1     -35.162  15.639  -2.589  1.00 20.00     0.022 C 
HETATM   10  O10 UNL     1     -36.105  14.351  -6.824  1.00 20.00    -0.260 OA
HETATM   11  O11 UNL     1     -34.734  13.947  -5.062  1.00 20.00    -0.317 OA
ENDROOT
TORSDOF 0
ENDMDL
MODEL 9
REMARK VINA RESULT:      -4.6     22.746     23.564
REMARK  0 active torsions:
REMARK  status: ('A' for Active; 'I' for Inactive)
ROOT
HETATM    1  C1  UNL     1     -40.739   8.287  -0.123  1.00 20.00     0.086 C 
HETATM    2  C2  UNL     1     -41.381   7.136  -0.349  1.00 20.00    -0.064 C 
HETATM    3  C3  UNL     1     -41.514   9.499   0.210  1.00 20.00     0.283 C 
HETATM    4  C4  UNL     1     -40.752   5.849  -0.793  1.00 20.00     0.035 C 
HETATM    5  C5  UNL     1     -41.949   4.949  -1.106  1.00 20.00     0.005 C 
HETATM    6  C6  UNL     1     -43.113   5.908  -1.355  1.00 20.00     0.016 C 
HETATM    7  C7  UNL     1     -43.417   8.390  -0.831  1.00 20.00     0.192 C 
HETATM    8  C8  UNL     1     -42.879   7.045  -0.355  1.00 20.00     0.002 C 
HETATM    9  C9  UNL     1     -43.417   6.694   1.041  1.00 20.00     0.022 C 
HETATM   10  O10 UNL     1     -40.962  10.482   0.693  1.00 20.00    -0.260 OA
HETATM   11  O11 UNL     1     -42.853   9.465  -0.041  1.00 20.00    -0.317 OA
ENDROOT
TORSDOF 0
ENDMDL
