MODEL 1
REMARK VINA RESULT:      -5.1      0.000      0.000
REMARK  1 active torsions:
REMARK  status: ('A' for Active; 'I' for Inactive)
REMARK    1  A    between atoms: C8_8  and  C11_11 
ROOT
HETATM    1  C1  UNL     1     -35.467  13.946  -4.400  1.00 20.00     0.071 C 
HETATM    2  C2  UNL     1     -35.328  15.208  -7.591  1.00 20.00    -0.004 A 
HETATM    3  C3  UNL     1     -36.593  15.727  -7.112  1.00 20.00    -0.004 A 
HETATM    4  C4  UNL     1     -34.229  15.269  -6.818  1.00 20.00    -0.020 A 
HETATM    5  C5  UNL     1     -36.685  16.277  -5.888  1.00 20.00    -0.020 A 
HETATM    6  C6  UNL     1     -34.205  15.892  -5.476  1.00 20.00     0.041 A 
HETATM    7  C7  UNL     1     -35.534  16.438  -4.973  1.00 20.00     0.041 A 
HETATM    8  C8  UNL     1     -34.880  15.259  -4.274  1.00 20.00     0.067 A 
HETATM    9  N12 UNL     1     -35.938  12.890  -4.502  1.00 20.00    -0.196 NA
ENDROOT
BRANCH   8  10
HETATM   10  C11 UNL     1     -34.263  15.518  -2.922  1.00 20.00     0.001 C 
HETATM   11  C9  UNL     1     -33.017  16.406  -3.042  1.00 20.00     0.011 C 
HETATM   12  C10 UNL     1     -35.272  16.164  -1.966  1.00 20.00     0.011 C 
ENDBRANCH   8  10
TORSDOF 1
ENDMDL
MODEL 2
REMARK VINA RESULT:      -5.0      1.928      4.172
REMARK  1 active torsions:
REMARK  status: ('A' for Active; 'I' for Inactive)
REMARK    1  A    between atoms: C8_8  and  C11_11 
ROOT
HETATM    1  C1  UNL     1     -35.469  17.264  -4.575  1.00 20.00     0.071 C 
HETATM    2  C2  UNL     1     -32.965  17.208  -2.224  1.00 20.00    -0.004 A 
HETATM    3  C3  UNL     1     -34.154  17.288  -1.402  1.00 20.00    -0.004 A 
HETATM    4  C4  UNL     1     -32.906  16.350  -3.259  1.00 20.00    -0.020 A 
HETATM    5  C5  UNL     1     -35.217  16.505  -1.661  1.00 20.00    -0.020 A 
HETATM    6  C6  UNL     1     -33.996  15.411  -3.606  1.00 20.00     0.041 A 
HETATM    7  C7  UNL     1     -35.246  15.495  -2.741  1.00 20.00     0.041 A 
HETATM    8  C8  UNL     1     -35.308  15.876  -4.210  1.00 20.00     0.067 A 
HETATM    9  N12 UNL     1     -35.596  18.379  -4.869  1.00 20.00    -0.196 NA
ENDROOT
BRANCH   8  10
HETATM   10  C11 UNL     1     -36.015  14.921  -5.139  1.00 20.00     0.001 C 
HETATM   11  C9  UNL     1     -35.293  14.823  -6.489  1.00 20.00     0.011 C 
HETATM   12  C10 UNL     1     -36.139  13.527  -4.512  1.00 20.00     0.011 C 
ENDBRANCH   8  10
TORSDOF 1
ENDMDL
MODEL 3
REMARK VINA RESULT:      -4.8      0.831      3.876
REMARK  1 active torsions:
REMARK  status: ('A' for Active; 'I' for Inactive)
REMARK    1  A    between atoms: C8_8  and  C11_11 
ROOT
HETATM    1  C1  UNL     1     -35.694  13.880  -5.029  1.00 20.00     0.071 C 
HETATM    2  C2  UNL     1     -35.568  16.237  -2.533  1.00 20.00    -0.004 A 
HETATM    3  C3  UNL     1     -34.193  15.785  -2.596  1.00 20.00    -0.004 A 
HETATM    4  C4  UNL     1     -36.246  16.518  -3.660  1.00 20.00    -0.020 A 
HETATM    5  C5  UNL     1     -33.576  15.639  -3.782  1.00 20.00    -0.020 A 
HETATM    6  C6  UNL     1     -35.654  16.437  -5.014  1.00 20.00     0.041 A 
HETATM    7  C7  UNL     1     -34.209  15.962  -5.080  1.00 20.00     0.041 A 
HETATM    8  C8  UNL     1     -35.319  15.114  -5.677  1.00 20.00     0.067 A 
HETATM    9  N12 UNL     1     -35.998  12.889  -4.506  1.00 20.00    -0.196 NA
ENDROOT
BRANCH   8  10
HETATM   10  C11 UNL     1     -35.405  15.057  -7.182  1.00 20.00     0.001 C 
HETATM   11  C9  UNL     1     -36.481  16.014  -7.712  1.00 20.00     0.011 C 
HETATM   12  C10 UNL     1     -34.054  15.383  -7.828  1.00 20.00     0.011 C 
ENDBRANCH   8  10
TORSDOF 1
ENDMDL
MODEL 4
REMARK VINA RESULT:      -4.7      1.881      2.561
REMARK  1 active torsions:
REMARK  status: ('A' for Active; 'I' for Inactive)
REMARK    1  A    between atoms: C8_8  and  C11_11 
ROOT
HETATM    1  C1  UNL     1     -35.584  16.989  -3.907  1.00 20.00     0.071 C 
HETATM    2  C2  UNL     1     -36.138  14.136  -5.737  1.00 20.00    -0.004 A 
HETATM    3  C3  UNL     1     -35.055  14.761  -6.467  1.00 20.00    -0.004 A 
HETATM    4  C4  UNL     1     -36.097  14.051  -4.395  1.00 20.00    -0.020 A 
HETATM    5  C5  UNL     1     -33.993  15.267  -5.814  1.00 20.00    -0.020 A 
HETATM    6  C6  UNL     1     -34.960  14.531  -3.579  1.00 20.00     0.041 A 
HETATM    7  C7  UNL     1     -33.821  15.189  -4.347  1.00 20.00     0.041 A 
HETATM    8  C8  UNL     1     -34.664  16.007  -3.384  1.00 20.00     0.067 A 
HETATM    9  N12 UNL     1     -36.324  17.778  -4.328  1.00 20.00    -0.196 NA
ENDROOT
BRANCH   8  10
HETATM   10  C11 UNL     1     -34.021  16.414  -2.082  1.00 20.00     0.001 C 
HETATM   11  C9  UNL     1     -32.975  17.514  -2.301  1.00 20.00     0.011 C 
HETATM   12  C10 UNL     1     -35.070  16.886  -1.068  1.00 20.00     0.011 C 
ENDBRANCH   8  10
TORSDOF 1
ENDMDL
MODEL 5
REMARK VINA RESULT:      -4.7      2.051      4.402
REMARK  1 active torsions:
REMARK  status: ('A' for Active; 'I' for Inactive)
REMARK    1  A    between atoms: C8_8  and  C11_11 
ROOT
HETATM    1  C1  UNL     1     -35.598  17.237  -4.189  1.00 20.00     0.071 C 
HETATM    2  C2  UNL     1     -32.879  17.612  -2.125  1.00 20.00    -0.004 A 
HETATM    3  C3  UNL     1     -33.984  17.723  -1.197  1.00 20.00    -0.004 A 
HETATM    4  C4  UNL     1     -32.862  16.639  -3.054  1.00 20.00    -0.020 A 
HETATM    5  C5  UNL     1     -35.010  16.855  -1.250  1.00 20.00    -0.020 A 
HETATM    6  C6  UNL     1     -33.912  15.604  -3.174  1.00 20.00     0.041 A 
HETATM    7  C7  UNL     1     -35.075  15.721  -2.197  1.00 20.00     0.041 A 
HETATM    8  C8  UNL     1     -35.307  15.916  -3.685  1.00 20.00     0.067 A 
HETATM    9  N12 UNL     1     -35.831  18.299  -4.595  1.00 20.00    -0.196 NA
ENDROOT
BRANCH   8  10
HETATM   10  C11 UNL     1     -36.033  14.815  -4.418  1.00 20.00     0.001 C 
HETATM   11  C9  UNL     1     -37.548  15.057  -4.420  1.00 20.00     0.011 C 
HETATM   12  C10 UNL     1     -35.525  14.678  -5.858  1.00 20.00     0.011 C 
ENDBRANCH   8  10
TORSDOF 1
ENDMDL
MODEL 6
REMARK VINA RESULT:      -4.7      1.091      1.483
REMARK  1 active torsions:
REMARK  status: ('A' for Active; 'I' for Inactive)
REMARK    1  A    between atoms: C8_8  and  C11_11 
ROOT
HETATM    1  C1  UNL     1     -35.827  14.144  -4.270  1.00 20.00     0.071 C 
HETATM    2  C2  UNL     1     -37.210  16.225  -6.626  1.00 20.00    -0.004 A 
HETATM    3  C3  UNL     1     -38.274  16.122  -5.649  1.00 20.00    -0.004 A 
HETATM    4  C4  UNL     1     -35.941  16.437  -6.235  1.00 20.00    -0.020 A 
HETATM    5  C5  UNL     1     -38.007  16.236  -4.335  1.00 20.00    -0.020 A 
HETATM    6  C6  UNL     1     -35.540  16.624  -4.822  1.00 20.00     0.041 A 
HETATM    7  C7  UNL     1     -36.659  16.515  -3.794  1.00 20.00     0.041 A 
HETATM    8  C8  UNL     1     -35.543  15.485  -3.819  1.00 20.00     0.067 A 
HETATM    9  N12 UNL     1     -36.056  13.065  -4.634  1.00 20.00    -0.196 NA
ENDROOT
BRANCH   8  10
HETATM   10  C11 UNL     1     -34.526  15.546  -2.706  1.00 20.00     0.001 C 
HETATM   11  C9  UNL     1     -33.174  16.058  -3.218  1.00 20.00     0.011 C 
HETATM   12  C10 UNL     1     -35.017  16.431  -1.555  1.00 20.00     0.011 C 
ENDBRANCH   8  10
TORSDOF 1
ENDMDL
MODEL 7
REMARK VINA RESULT:      -4.6      1.511      3.748
REMARK  1 active torsions:
REMARK  status: ('A' for Active; 'I' for Inactive)
REMARK    1  A    between atoms: C8_8  and  C11_11 
ROOT
HETATM    1  C1  UNL     1     -36.305  14.028  -4.533  1.00 20.00     0.071 C 
HETATM    2  C2  UNL     1     -33.990  15.764  -2.683  1.00 20.00    -0.004 A 
HETATM    3  C3  UNL     1     -33.479  15.915  -4.029  1.00 20.00    -0.004 A 
HETATM    4  C4  UNL     1     -35.298  15.944  -2.424  1.00 20.00    -0.020 A 
HETATM    5  C5  UNL     1     -34.306  16.236  -5.041  1.00 20.00    -0.020 A 
HETATM    6  C6  UNL     1     -36.287  16.344  -3.449  1.00 20.00     0.041 A 
HETATM    7  C7  UNL     1     -35.750  16.503  -4.865  1.00 20.00     0.041 A 
HETATM    8  C8  UNL     1     -36.747  15.402  -4.546  1.00 20.00     0.067 A 
HETATM    9  N12 UNL     1     -35.949  12.923  -4.521  1.00 20.00    -0.196 NA
ENDROOT
BRANCH   8  10
HETATM   10  C11 UNL     1     -38.154  15.579  -5.060  1.00 20.00     0.001 C 
HETATM   11  C9  UNL     1     -39.170  14.876  -4.151  1.00 20.00     0.011 C 
HETATM   12  C10 UNL     1     -38.513  17.064  -5.192  1.00 20.00     0.011 C 
ENDBRANCH   8  10
TORSDOF 1
ENDMDL
MODEL 8
REMARK VINA RESULT:      -4.5      2.489      3.802
REMARK  1 active torsions:
REMARK  status: ('A' for Active; 'I' for Inactive)
REMARK    1  A    between atoms: C8_8  and  C11_11 
ROOT
HETATM    1  C1  UNL     1     -34.506  17.976  -3.923  1.00 20.00     0.071 C 
HETATM    2  C2  UNL     1     -35.361  14.663  -4.225  1.00 20.00    -0.004 A 
HETATM    3  C3  UNL     1     -34.000  14.673  -4.721  1.00 20.00    -0.004 A 
HETATM    4  C4  UNL     1     -35.681  15.318  -3.095  1.00 20.00    -0.020 A 
HETATM    5  C5  UNL     1     -33.037  15.338  -4.057  1.00 20.00    -0.020 A 
HETATM    6  C6  UNL     1     -34.696  16.042  -2.261  1.00 20.00     0.041 A 
HETATM    7  C7  UNL     1     -33.265  16.052  -2.782  1.00 20.00     0.041 A 
HETATM    8  C8  UNL     1     -34.058  17.345  -2.704  1.00 20.00     0.067 A 
HETATM    9  N12 UNL     1     -34.867  18.481  -4.903  1.00 20.00    -0.196 NA
ENDROOT
BRANCH   8  10
HETATM   10  C11 UNL     1     -33.671  18.325  -1.624  1.00 20.00     0.001 C 
HETATM   11  C9  UNL     1     -34.301  17.942  -0.278  1.00 20.00     0.011 C 
HETATM   12  C10 UNL     1     -32.148  18.418  -1.479  1.00 20.00     0.011 C 
ENDBRANCH   8  10
TORSDOF 1
ENDMDL
MODEL 9
REMARK VINA RESULT:      -4.5      2.064      3.097
REMARK  1 active torsions:
REMARK  status: ('A' for Active; 'I' for Inactive)
REMARK    1  A    between atoms: C8_8  and  C11_11 
ROOT
HETATM    1  C1  UNL     1     -34.350  16.497  -5.346  1.00 20.00     0.071 C 
HETATM    2  C2  UNL     1     -37.130  14.785  -4.280  1.00 20.00    -0.004 A 
HETATM    3  C3  UNL     1     -36.168  13.719  -4.466  1.00 20.00    -0.004 A 
HETATM    4  C4  UNL     1     -36.779  15.918  -3.645  1.00 20.00    -0.020 A 
HETATM    5  C5  UNL     1     -34.910  13.847  -4.008  1.00 20.00    -0.020 A 
HETATM    6  C6  UNL     1     -35.439  16.147  -3.059  1.00 20.00     0.041 A 
HETATM    7  C7  UNL     1     -34.428  15.026  -3.256  1.00 20.00     0.041 A 
HETATM    8  C8  UNL     1     -34.207  16.376  -3.915  1.00 20.00     0.067 A 
HETATM    9  N12 UNL     1     -34.466  16.595  -6.497  1.00 20.00    -0.196 NA
ENDROOT
BRANCH   8  10
HETATM   10  C11 UNL     1     -33.123  17.253  -3.339  1.00 20.00     0.001 C 
HETATM   11  C9  UNL     1     -33.110  18.632  -4.011  1.00 20.00     0.011 C 
HETATM   12  C10 UNL     1     -33.285  17.413  -1.823  1.00 20.00     0.011 C 
ENDBRANCH   8  10
TORSDOF 1
ENDMDL
