MODEL 1
REMARK VINA RESULT:      -4.9      0.000      0.000
REMARK  1 active torsions:
REMARK  status: ('A' for Active; 'I' for Inactive)
REMARK    1  A    between atoms: C7_7  and  C10_10 
ROOT
HETATM    1  C1  UNL     1     -35.124  16.243  -6.813  1.00 20.00    -0.023 C 
HETATM    2  C2  UNL     1     -34.551  14.996  -6.700  1.00 20.00    -0.012 C 
HETATM    3  C3  UNL     1     -36.062  13.789  -4.704  1.00 20.00     0.140 C 
HETATM    4  C4  UNL     1     -37.349  14.525  -4.277  1.00 20.00     0.080 C 
HETATM    5  C5  UNL     1     -37.140  15.980  -4.839  1.00 20.00     0.017 C 
HETATM    6  C6  UNL     1     -36.317  15.709  -6.074  1.00 20.00     0.028 C 
HETATM    7  C7  UNL     1     -35.157  14.897  -5.306  1.00 20.00     0.048 C 
HETATM    8  O11 UNL     1     -35.861  12.595  -4.548  1.00 20.00    -0.297 OA
ENDROOT
BRANCH   7   9
HETATM    9  C10 UNL     1     -34.211  15.453  -4.225  1.00 20.00    -0.002 C 
HETATM   10  C8  UNL     1     -34.873  15.369  -2.858  1.00 20.00     0.011 C 
HETATM   11  C9  UNL     1     -32.892  14.694  -4.244  1.00 20.00     0.011 C 
ENDBRANCH   7   9
TORSDOF 1
ENDMDL
MODEL 2
REMARK VINA RESULT:      -4.4      1.298      3.128
REMARK  1 active torsions:
REMARK  status: ('A' for Active; 'I' for Inactive)
REMARK    1  A    between atoms: C7_7  and  C10_10 
ROOT
HETATM    1  C1  UNL     1     -33.814  15.802  -3.280  1.00 20.00    -0.023 C 
HETATM    2  C2  UNL     1     -34.972  15.416  -2.642  1.00 20.00    -0.012 C 
HETATM    3  C3  UNL     1     -36.520  14.397  -4.713  1.00 20.00     0.140 C 
HETATM    4  C4  UNL     1     -35.806  14.186  -6.064  1.00 20.00     0.080 C 
HETATM    5  C5  UNL     1     -34.500  15.052  -5.926  1.00 20.00     0.017 C 
HETATM    6  C6  UNL     1     -34.229  14.950  -4.445  1.00 20.00     0.028 C 
HETATM    7  C7  UNL     1     -35.679  15.482  -3.990  1.00 20.00     0.048 C 
HETATM    8  O11 UNL     1     -37.536  13.815  -4.367  1.00 20.00    -0.297 OA
ENDROOT
BRANCH   7   9
HETATM    9  C10 UNL     1     -36.270  16.879  -4.263  1.00 20.00    -0.002 C 
HETATM   10  C8  UNL     1     -37.059  16.867  -5.564  1.00 20.00     0.011 C 
HETATM   11  C9  UNL     1     -37.144  17.314  -3.095  1.00 20.00     0.011 C 
ENDBRANCH   7   9
TORSDOF 1
ENDMDL
MODEL 3
REMARK VINA RESULT:      -4.4      1.900      3.202
REMARK  1 active torsions:
REMARK  status: ('A' for Active; 'I' for Inactive)
REMARK    1  A    between atoms: C7_7  and  C10_10 
ROOT
HETATM    1  C1  UNL     1     -36.148  13.604  -4.571  1.00 20.00    -0.023 C 
HETATM    2  C2  UNL     1     -36.772  14.678  -3.975  1.00 20.00    -0.012 C 
HETATM    3  C3  UNL     1     -35.382  16.857  -4.998  1.00 20.00     0.140 C 
HETATM    4  C4  UNL     1     -34.417  16.568  -6.166  1.00 20.00     0.080 C 
HETATM    5  C5  UNL     1     -34.219  15.009  -6.099  1.00 20.00     0.017 C 
HETATM    6  C6  UNL     1     -35.558  14.560  -5.566  1.00 20.00     0.028 C 
HETATM    7  C7  UNL     1     -35.521  15.499  -4.259  1.00 20.00     0.048 C 
HETATM    8  O11 UNL     1     -35.874  17.948  -4.757  1.00 20.00    -0.297 OA
ENDROOT
BRANCH   7   9
HETATM    9  C10 UNL     1     -34.505  15.420  -3.102  1.00 20.00    -0.002 C 
HETATM   10  C8  UNL     1     -33.180  16.036  -3.528  1.00 20.00     0.011 C 
HETATM   11  C9  UNL     1     -35.063  16.117  -1.869  1.00 20.00     0.011 C 
ENDBRANCH   7   9
TORSDOF 1
ENDMDL
MODEL 4
REMARK VINA RESULT:      -4.3      1.367      3.311
REMARK  1 active torsions:
REMARK  status: ('A' for Active; 'I' for Inactive)
REMARK    1  A    between atoms: C7_7  and  C10_10 
ROOT
HETATM    1  C1  UNL     1     -35.063  16.829  -2.873  1.00 20.00    -0.023 C 
HETATM    2  C2  UNL     1     -36.427  16.760  -3.056  1.00 20.00    -0.012 C 
HETATM    3  C3  UNL     1     -36.774  14.281  -4.264  1.00 20.00     0.140 C 
HETATM    4  C4  UNL     1     -35.545  13.348  -4.282  1.00 20.00     0.080 C 
HETATM    5  C5  UNL     1     -34.345  14.319  -3.978  1.00 20.00     0.017 C 
HETATM    6  C6  UNL     1     -35.008  15.344  -3.089  1.00 20.00     0.028 C 
HETATM    7  C7  UNL     1     -36.181  15.709  -4.131  1.00 20.00     0.048 C 
HETATM    8  O11 UNL     1     -37.932  13.906  -4.362  1.00 20.00    -0.297 OA
ENDROOT
BRANCH   7   9
HETATM    9  C10 UNL     1     -36.003  16.341  -5.525  1.00 20.00    -0.002 C 
HETATM   10  C8  UNL     1     -35.878  15.252  -6.580  1.00 20.00     0.011 C 
HETATM   11  C9  UNL     1     -37.171  17.269  -5.830  1.00 20.00     0.011 C 
ENDBRANCH   7   9
TORSDOF 1
ENDMDL
MODEL 5
REMARK VINA RESULT:      -4.2      1.212      3.580
REMARK  1 active torsions:
REMARK  status: ('A' for Active; 'I' for Inactive)
REMARK    1  A    between atoms: C7_7  and  C10_10 
ROOT
HETATM    1  C1  UNL     1     -34.892  17.004  -2.100  1.00 20.00    -0.023 C 
HETATM    2  C2  UNL     1     -35.933  16.127  -2.316  1.00 20.00    -0.012 C 
HETATM    3  C3  UNL     1     -34.832  14.265  -4.061  1.00 20.00     0.140 C 
HETATM    4  C4  UNL     1     -33.306  14.339  -4.271  1.00 20.00     0.080 C 
HETATM    5  C5  UNL     1     -32.932  15.770  -3.734  1.00 20.00     0.017 C 
HETATM    6  C6  UNL     1     -33.962  15.959  -2.647  1.00 20.00     0.028 C 
HETATM    7  C7  UNL     1     -35.234  15.690  -3.597  1.00 20.00     0.048 C 
HETATM    8  O11 UNL     1     -35.513  13.271  -4.260  1.00 20.00    -0.297 OA
ENDROOT
BRANCH   7   9
HETATM    9  C10 UNL     1     -35.669  16.538  -4.808  1.00 20.00    -0.002 C 
HETATM   10  C8  UNL     1     -34.980  16.039  -6.070  1.00 20.00     0.011 C 
HETATM   11  C9  UNL     1     -37.183  16.498  -4.958  1.00 20.00     0.011 C 
ENDBRANCH   7   9
TORSDOF 1
ENDMDL
MODEL 6
REMARK VINA RESULT:      -4.2      1.380      3.009
REMARK  1 active torsions:
REMARK  status: ('A' for Active; 'I' for Inactive)
REMARK    1  A    between atoms: C7_7  and  C10_10 
ROOT
HETATM    1  C1  UNL     1     -37.052  14.532  -4.190  1.00 20.00    -0.023 C 
HETATM    2  C2  UNL     1     -36.175  13.722  -4.878  1.00 20.00    -0.012 C 
HETATM    3  C3  UNL     1     -33.691  14.766  -4.198  1.00 20.00     0.140 C 
HETATM    4  C4  UNL     1     -33.671  15.801  -3.054  1.00 20.00     0.080 C 
HETATM    5  C5  UNL     1     -35.174  16.250  -2.942  1.00 20.00     0.017 C 
HETATM    6  C6  UNL     1     -35.895  14.987  -3.348  1.00 20.00     0.028 C 
HETATM    7  C7  UNL     1     -35.136  14.829  -4.760  1.00 20.00     0.048 C 
HETATM    8  O11 UNL     1     -32.731  14.095  -4.543  1.00 20.00    -0.297 OA
ENDROOT
BRANCH   7   9
HETATM    9  C10 UNL     1     -35.199  15.808  -5.949  1.00 20.00    -0.002 C 
HETATM   10  C8  UNL     1     -34.416  17.073  -5.626  1.00 20.00     0.011 C 
HETATM   11  C9  UNL     1     -34.664  15.138  -7.206  1.00 20.00     0.011 C 
ENDBRANCH   7   9
TORSDOF 1
ENDMDL
MODEL 7
REMARK VINA RESULT:      -4.0      1.451      1.787
REMARK  1 active torsions:
REMARK  status: ('A' for Active; 'I' for Inactive)
REMARK    1  A    between atoms: C7_7  and  C10_10 
ROOT
HETATM    1  C1  UNL     1     -35.845  17.035  -5.975  1.00 20.00    -0.023 C 
HETATM    2  C2  UNL     1     -34.494  16.765  -5.984  1.00 20.00    -0.012 C 
HETATM    3  C3  UNL     1     -34.312  14.432  -4.483  1.00 20.00     0.140 C 
HETATM    4  C4  UNL     1     -35.642  13.725  -4.149  1.00 20.00     0.080 C 
HETATM    5  C5  UNL     1     -36.723  14.836  -4.418  1.00 20.00     0.017 C 
HETATM    6  C6  UNL     1     -36.077  15.619  -5.535  1.00 20.00     0.028 C 
HETATM    7  C7  UNL     1     -34.707  15.911  -4.740  1.00 20.00     0.048 C 
HETATM    8  O11 UNL     1     -33.220  13.885  -4.500  1.00 20.00    -0.297 OA
ENDROOT
BRANCH   7   9
HETATM    9  C10 UNL     1     -34.557  16.732  -3.444  1.00 20.00    -0.002 C 
HETATM   10  C8  UNL     1     -34.980  15.896  -2.245  1.00 20.00     0.011 C 
HETATM   11  C9  UNL     1     -33.121  17.216  -3.296  1.00 20.00     0.011 C 
ENDBRANCH   7   9
TORSDOF 1
ENDMDL
MODEL 8
REMARK VINA RESULT:      -3.9      3.370      4.610
REMARK  1 active torsions:
REMARK  status: ('A' for Active; 'I' for Inactive)
REMARK    1  A    between atoms: C7_7  and  C10_10 
ROOT
HETATM    1  C1  UNL     1     -34.428  15.360  -3.575  1.00 20.00    -0.023 C 
HETATM    2  C2  UNL     1     -33.162  15.900  -3.612  1.00 20.00    -0.012 C 
HETATM    3  C3  UNL     1     -33.186  17.701  -1.494  1.00 20.00     0.140 C 
HETATM    4  C4  UNL     1     -34.392  17.617  -0.536  1.00 20.00     0.080 C 
HETATM    5  C5  UNL     1     -35.454  16.795  -1.356  1.00 20.00     0.017 C 
HETATM    6  C6  UNL     1     -34.564  15.894  -2.178  1.00 20.00     0.028 C 
HETATM    7  C7  UNL     1     -33.699  17.089  -2.825  1.00 20.00     0.048 C 
HETATM    8  O11 UNL     1     -32.101  18.179  -1.204  1.00 20.00    -0.297 OA
ENDROOT
BRANCH   7   9
HETATM    9  C10 UNL     1     -34.225  18.203  -3.752  1.00 20.00    -0.002 C 
HETATM   10  C8  UNL     1     -34.950  19.263  -2.935  1.00 20.00     0.011 C 
HETATM   11  C9  UNL     1     -33.074  18.811  -4.542  1.00 20.00     0.011 C 
ENDBRANCH   7   9
TORSDOF 1
ENDMDL
MODEL 9
REMARK VINA RESULT:      -3.9      1.728      3.027
REMARK  1 active torsions:
REMARK  status: ('A' for Active; 'I' for Inactive)
REMARK    1  A    between atoms: C7_7  and  C10_10 
ROOT
HETATM    1  C1  UNL     1     -33.327  14.538  -4.174  1.00 20.00    -0.023 C 
HETATM    2  C2  UNL     1     -33.596  15.770  -3.621  1.00 20.00    -0.012 C 
HETATM    3  C3  UNL     1     -36.370  15.915  -3.730  1.00 20.00     0.140 C 
HETATM    4  C4  UNL     1     -37.111  14.612  -4.096  1.00 20.00     0.080 C 
HETATM    5  C5  UNL     1     -35.983  13.714  -4.724  1.00 20.00     0.017 C 
HETATM    6  C6  UNL     1     -34.769  14.179  -3.957  1.00 20.00     0.028 C 
HETATM    7  C7  UNL     1     -34.947  15.737  -4.324  1.00 20.00     0.048 C 
HETATM    8  O11 UNL     1     -36.868  16.849  -3.122  1.00 20.00    -0.297 OA
ENDROOT
BRANCH   7   9
HETATM    9  C10 UNL     1     -34.879  16.360  -5.732  1.00 20.00    -0.002 C 
HETATM   10  C8  UNL     1     -36.252  16.319  -6.387  1.00 20.00     0.011 C 
HETATM   11  C9  UNL     1     -34.354  17.786  -5.647  1.00 20.00     0.011 C 
ENDBRANCH   7   9
TORSDOF 1
ENDMDL
