MODEL 1
REMARK VINA RESULT:      -4.6      0.000      0.000
REMARK  1 active torsions:
REMARK  status: ('A' for Active; 'I' for Inactive)
REMARK    1  A    between atoms: C7_7  and  C11_11 
ROOT
HETATM    1  C1  UNL     1     -35.515  15.189  -2.884  1.00 20.00    -0.021 C 
HETATM    2  C2  UNL     1     -35.750  14.838  -4.165  1.00 20.00    -0.053 C 
HETATM    3  C3  UNL     1     -34.270  15.941  -2.483  1.00 20.00     0.034 C 
HETATM    4  C4  UNL     1     -34.084  16.585  -4.880  1.00 20.00     0.050 C 
HETATM    5  C5  UNL     1     -32.690  14.853  -4.168  1.00 20.00     0.174 C 
HETATM    6  C6  UNL     1     -33.292  16.164  -3.656  1.00 20.00     0.016 C 
HETATM    7  C7  UNL     1     -34.731  15.239  -5.229  1.00 20.00     0.087 C 
HETATM    8  C8  UNL     1     -36.942  14.013  -4.543  1.00 20.00     0.046 C 
HETATM    9  O12 UNL     1     -33.635  14.299  -5.111  1.00 20.00    -0.375 OA
ENDROOT
BRANCH   7  10
HETATM   10  C11 UNL     1     -35.247  15.231  -6.664  1.00 20.00     0.016 C 
HETATM   11  C9  UNL     1     -36.089  16.476  -6.941  1.00 20.00     0.013 C 
HETATM   12  C10 UNL     1     -34.087  15.138  -7.654  1.00 20.00     0.013 C 
ENDBRANCH   7  10
TORSDOF 1
ENDMDL
MODEL 2
REMARK VINA RESULT:      -4.3      1.524      3.856
REMARK  1 active torsions:
REMARK  status: ('A' for Active; 'I' for Inactive)
REMARK    1  A    between atoms: C7_7  and  C11_11 
ROOT
HETATM    1  C1  UNL     1     -35.308  16.278  -5.643  1.00 20.00    -0.021 C 
HETATM    2  C2  UNL     1     -34.845  17.107  -4.685  1.00 20.00    -0.053 C 
HETATM    3  C3  UNL     1     -35.248  14.779  -5.492  1.00 20.00     0.034 C 
HETATM    4  C4  UNL     1     -35.000  15.197  -3.051  1.00 20.00     0.050 C 
HETATM    5  C5  UNL     1     -33.041  14.681  -4.212  1.00 20.00     0.174 C 
HETATM    6  C6  UNL     1     -34.531  14.328  -4.202  1.00 20.00     0.016 C 
HETATM    7  C7  UNL     1     -34.267  16.496  -3.410  1.00 20.00     0.087 C 
HETATM    8  C8  UNL     1     -34.825  18.593  -4.878  1.00 20.00     0.046 C 
HETATM    9  O12 UNL     1     -32.932  16.046  -3.749  1.00 20.00    -0.375 OA
ENDROOT
BRANCH   7  10
HETATM   10  C11 UNL     1     -34.192  17.436  -2.211  1.00 20.00     0.016 C 
HETATM   11  C9  UNL     1     -35.038  16.904  -1.055  1.00 20.00     0.013 C 
HETATM   12  C10 UNL     1     -32.743  17.629  -1.768  1.00 20.00     0.013 C 
ENDBRANCH   7  10
TORSDOF 1
ENDMDL
MODEL 3
REMARK VINA RESULT:      -4.3      1.369      3.908
REMARK  1 active torsions:
REMARK  status: ('A' for Active; 'I' for Inactive)
REMARK    1  A    between atoms: C7_7  and  C11_11 
ROOT
HETATM    1  C1  UNL     1     -34.380  14.918  -6.135  1.00 20.00    -0.021 C 
HETATM    2  C2  UNL     1     -33.964  14.966  -4.854  1.00 20.00    -0.053 C 
HETATM    3  C3  UNL     1     -35.680  15.546  -6.571  1.00 20.00     0.034 C 
HETATM    4  C4  UNL     1     -35.543  16.892  -4.482  1.00 20.00     0.050 C 
HETATM    5  C5  UNL     1     -36.993  15.062  -4.436  1.00 20.00     0.174 C 
HETATM    6  C6  UNL     1     -36.489  16.140  -5.399  1.00 20.00     0.016 C 
HETATM    7  C7  UNL     1     -34.832  15.698  -3.832  1.00 20.00     0.087 C 
HETATM    8  C8  UNL     1     -32.717  14.263  -4.409  1.00 20.00     0.046 C 
HETATM    9  O12 UNL     1     -35.918  14.796  -3.508  1.00 20.00    -0.375 OA
ENDROOT
BRANCH   7  10
HETATM   10  C11 UNL     1     -34.121  16.112  -2.548  1.00 20.00     0.016 C 
HETATM   11  C9  UNL     1     -33.198  17.303  -2.803  1.00 20.00     0.013 C 
HETATM   12  C10 UNL     1     -35.135  16.445  -1.454  1.00 20.00     0.013 C 
ENDBRANCH   7  10
TORSDOF 1
ENDMDL
MODEL 4
REMARK VINA RESULT:      -4.2      2.047      3.429
REMARK  1 active torsions:
REMARK  status: ('A' for Active; 'I' for Inactive)
REMARK    1  A    between atoms: C7_7  and  C11_11 
ROOT
HETATM    1  C1  UNL     1     -33.964  15.280  -3.285  1.00 20.00    -0.021 C 
HETATM    2  C2  UNL     1     -35.101  15.876  -2.874  1.00 20.00    -0.053 C 
HETATM    3  C3  UNL     1     -33.856  14.625  -4.639  1.00 20.00     0.034 C 
HETATM    4  C4  UNL     1     -35.828  16.002  -5.281  1.00 20.00     0.050 C 
HETATM    5  C5  UNL     1     -36.258  13.766  -4.763  1.00 20.00     0.174 C 
HETATM    6  C6  UNL     1     -35.185  14.635  -5.425  1.00 20.00     0.016 C 
HETATM    7  C7  UNL     1     -36.297  15.900  -3.824  1.00 20.00     0.087 C 
HETATM    8  C8  UNL     1     -35.230  16.446  -1.494  1.00 20.00     0.046 C 
HETATM    9  O12 UNL     1     -36.892  14.582  -3.753  1.00 20.00    -0.375 OA
ENDROOT
BRANCH   7  10
HETATM   10  C11 UNL     1     -37.358  16.949  -3.512  1.00 20.00     0.016 C 
HETATM   11  C9  UNL     1     -37.065  18.251  -4.257  1.00 20.00     0.013 C 
HETATM   12  C10 UNL     1     -38.750  16.431  -3.869  1.00 20.00     0.013 C 
ENDBRANCH   7  10
TORSDOF 1
ENDMDL
MODEL 5
REMARK VINA RESULT:      -4.2      1.152      3.503
REMARK  1 active torsions:
REMARK  status: ('A' for Active; 'I' for Inactive)
REMARK    1  A    between atoms: C7_7  and  C11_11 
ROOT
HETATM    1  C1  UNL     1     -36.769  16.462  -5.987  1.00 20.00    -0.021 C 
HETATM    2  C2  UNL     1     -35.445  16.403  -5.738  1.00 20.00    -0.053 C 
HETATM    3  C3  UNL     1     -37.765  15.676  -5.172  1.00 20.00     0.034 C 
HETATM    4  C4  UNL     1     -35.983  15.522  -3.441  1.00 20.00     0.050 C 
HETATM    5  C5  UNL     1     -36.294  13.628  -4.771  1.00 20.00     0.174 C 
HETATM    6  C6  UNL     1     -37.101  14.757  -4.124  1.00 20.00     0.016 C 
HETATM    7  C7  UNL     1     -34.958  15.531  -4.583  1.00 20.00     0.087 C 
HETATM    8  C8  UNL     1     -34.453  17.116  -6.607  1.00 20.00     0.046 C 
HETATM    9  O12 UNL     1     -34.987  14.167  -5.071  1.00 20.00    -0.375 OA
ENDROOT
BRANCH   7  10
HETATM   10  C11 UNL     1     -33.560  15.850  -4.066  1.00 20.00     0.016 C 
HETATM   11  C9  UNL     1     -33.613  16.286  -2.602  1.00 20.00     0.013 C 
HETATM   12  C10 UNL     1     -32.634  14.646  -4.232  1.00 20.00     0.013 C 
ENDBRANCH   7  10
TORSDOF 1
ENDMDL
MODEL 6
REMARK VINA RESULT:      -4.2      1.409      2.763
REMARK  1 active torsions:
REMARK  status: ('A' for Active; 'I' for Inactive)
REMARK    1  A    between atoms: C7_7  and  C11_11 
ROOT
HETATM    1  C1  UNL     1     -33.266  16.294  -2.731  1.00 20.00    -0.021 C 
HETATM    2  C2  UNL     1     -33.672  15.491  -3.735  1.00 20.00    -0.053 C 
HETATM    3  C3  UNL     1     -34.160  17.368  -2.164  1.00 20.00     0.034 C 
HETATM    4  C4  UNL     1     -36.049  16.103  -3.176  1.00 20.00     0.050 C 
HETATM    5  C5  UNL     1     -35.328  17.989  -4.348  1.00 20.00     0.174 C 
HETATM    6  C6  UNL     1     -35.505  17.494  -2.910  1.00 20.00     0.016 C 
HETATM    7  C7  UNL     1     -35.084  15.671  -4.287  1.00 20.00     0.087 C 
HETATM    8  C8  UNL     1     -32.748  14.486  -4.354  1.00 20.00     0.046 C 
HETATM    9  O12 UNL     1     -35.031  16.829  -5.156  1.00 20.00    -0.375 OA
ENDROOT
BRANCH   7  10
HETATM   10  C11 UNL     1     -35.637  14.482  -5.066  1.00 20.00     0.016 C 
HETATM   11  C9  UNL     1     -37.005  14.071  -4.522  1.00 20.00     0.013 C 
HETATM   12  C10 UNL     1     -35.730  14.809  -6.556  1.00 20.00     0.013 C 
ENDBRANCH   7  10
TORSDOF 1
ENDMDL
MODEL 7
REMARK VINA RESULT:      -4.2      3.199      5.110
REMARK  1 active torsions:
REMARK  status: ('A' for Active; 'I' for Inactive)
REMARK    1  A    between atoms: C7_7  and  C11_11 
ROOT
HETATM    1  C1  UNL     1     -33.715  18.120   0.693  1.00 20.00    -0.021 C 
HETATM    2  C2  UNL     1     -33.114  18.076  -0.513  1.00 20.00    -0.053 C 
HETATM    3  C3  UNL     1     -35.177  17.793   0.863  1.00 20.00     0.034 C 
HETATM    4  C4  UNL     1     -35.004  16.627  -1.329  1.00 20.00     0.050 C 
HETATM    5  C5  UNL     1     -35.974  18.751  -1.366  1.00 20.00     0.174 C 
HETATM    6  C6  UNL     1     -35.895  17.508  -0.474  1.00 20.00     0.016 C 
HETATM    7  C7  UNL     1     -33.944  17.661  -1.726  1.00 20.00     0.087 C 
HETATM    8  C8  UNL     1     -31.684  18.489  -0.690  1.00 20.00     0.046 C 
HETATM    9  O12 UNL     1     -34.728  18.823  -2.093  1.00 20.00    -0.375 OA
ENDROOT
BRANCH   7  10
HETATM   10  C11 UNL     1     -33.143  17.192  -2.936  1.00 20.00     0.016 C 
HETATM   11  C9  UNL     1     -33.529  15.764  -3.318  1.00 20.00     0.013 C 
HETATM   12  C10 UNL     1     -33.349  18.137  -4.119  1.00 20.00     0.013 C 
ENDBRANCH   7  10
TORSDOF 1
ENDMDL
MODEL 8
REMARK VINA RESULT:      -4.1      1.982      3.247
REMARK  1 active torsions:
REMARK  status: ('A' for Active; 'I' for Inactive)
REMARK    1  A    between atoms: C7_7  and  C11_11 
ROOT
HETATM    1  C1  UNL     1     -33.866  17.568  -4.432  1.00 20.00    -0.021 C 
HETATM    2  C2  UNL     1     -35.001  16.997  -4.884  1.00 20.00    -0.053 C 
HETATM    3  C3  UNL     1     -33.257  17.181  -3.107  1.00 20.00     0.034 C 
HETATM    4  C4  UNL     1     -34.606  15.097  -3.280  1.00 20.00     0.050 C 
HETATM    5  C5  UNL     1     -35.447  16.755  -1.867  1.00 20.00     0.174 C 
HETATM    6  C6  UNL     1     -34.110  16.163  -2.322  1.00 20.00     0.016 C 
HETATM    7  C7  UNL     1     -35.662  15.915  -4.033  1.00 20.00     0.087 C 
HETATM    8  C8  UNL     1     -35.650  17.449  -6.157  1.00 20.00     0.046 C 
HETATM    9  O12 UNL     1     -36.365  16.612  -2.974  1.00 20.00    -0.375 OA
ENDROOT
BRANCH   7  10
HETATM   10  C11 UNL     1     -36.639  15.008  -4.772  1.00 20.00     0.016 C 
HETATM   11  C9  UNL     1     -36.213  13.545  -4.650  1.00 20.00     0.013 C 
HETATM   12  C10 UNL     1     -38.059  15.197  -4.242  1.00 20.00     0.013 C 
ENDBRANCH   7  10
TORSDOF 1
ENDMDL
MODEL 9
REMARK VINA RESULT:      -4.1      1.652      3.779
REMARK  1 active torsions:
REMARK  status: ('A' for Active; 'I' for Inactive)
REMARK    1  A    between atoms: C7_7  and  C11_11 
ROOT
HETATM    1  C1  UNL     1     -35.552  14.750  -6.149  1.00 20.00    -0.021 C 
HETATM    2  C2  UNL     1     -35.267  14.702  -4.832  1.00 20.00    -0.053 C 
HETATM    3  C3  UNL     1     -35.713  16.061  -6.878  1.00 20.00     0.034 C 
HETATM    4  C4  UNL     1     -34.455  17.080  -4.988  1.00 20.00     0.050 C 
HETATM    5  C5  UNL     1     -36.773  17.362  -4.954  1.00 20.00     0.174 C 
HETATM    6  C6  UNL     1     -35.610  17.288  -5.948  1.00 20.00     0.016 C 
HETATM    7  C7  UNL     1     -35.082  16.016  -4.077  1.00 20.00     0.087 C 
HETATM    8  C8  UNL     1     -35.198  13.399  -4.094  1.00 20.00     0.046 C 
HETATM    9  O12 UNL     1     -36.414  16.528  -3.829  1.00 20.00    -0.375 OA
ENDROOT
BRANCH   7  10
HETATM   10  C11 UNL     1     -34.330  15.910  -2.755  1.00 20.00     0.016 C 
HETATM   11  C9  UNL     1     -33.003  16.665  -2.827  1.00 20.00     0.013 C 
HETATM   12  C10 UNL     1     -35.184  16.440  -1.604  1.00 20.00     0.013 C 
ENDBRANCH   7  10
TORSDOF 1
ENDMDL
