MODEL 1
REMARK VINA RESULT:      -4.9      0.000      0.000
REMARK  1 active torsions:
REMARK  status: ('A' for Active; 'I' for Inactive)
REMARK    1  A    between atoms: C2_2  and  C10_10 
ROOT
HETATM    1  C1  UNL     1     -33.678  16.195  -3.993  1.00 20.00    -0.017 C 
HETATM    2  C2  UNL     1     -34.548  15.731  -3.071  1.00 20.00    -0.068 C 
HETATM    3  C3  UNL     1     -35.952  14.221  -4.575  1.00 20.00     0.135 C 
HETATM    4  C4  UNL     1     -35.667  14.710  -5.978  1.00 20.00     0.080 C 
HETATM    5  C5  UNL     1     -34.133  14.679  -6.084  1.00 20.00     0.017 C 
HETATM    6  C6  UNL     1     -33.535  14.854  -4.682  1.00 20.00     0.024 C 
HETATM    7  C7  UNL     1     -34.649  14.366  -3.730  1.00 20.00     0.092 C 
HETATM    8  O11 UNL     1     -37.056  13.835  -4.208  1.00 20.00    -0.297 OA
ENDROOT
BRANCH   2   9
HETATM    9  C10 UNL     1     -35.254  16.370  -1.860  1.00 20.00     0.007 C 
HETATM   10  C8  UNL     1     -34.260  17.226  -1.109  1.00 20.00     0.014 C 
HETATM   11  C9  UNL     1     -36.450  17.161  -2.340  1.00 20.00     0.014 C 
ENDBRANCH   2   9
TORSDOF 1
ENDMDL
MODEL 2
REMARK VINA RESULT:      -4.7      1.517      2.264
REMARK  1 active torsions:
REMARK  status: ('A' for Active; 'I' for Inactive)
REMARK    1  A    between atoms: C2_2  and  C10_10 
ROOT
HETATM    1  C1  UNL     1     -33.555  14.837  -4.176  1.00 20.00    -0.017 C 
HETATM    2  C2  UNL     1     -33.796  15.818  -3.281  1.00 20.00    -0.068 C 
HETATM    3  C3  UNL     1     -36.315  16.053  -3.621  1.00 20.00     0.135 C 
HETATM    4  C4  UNL     1     -36.579  15.410  -4.965  1.00 20.00     0.080 C 
HETATM    5  C5  UNL     1     -35.953  14.012  -4.846  1.00 20.00     0.017 C 
HETATM    6  C6  UNL     1     -34.810  14.066  -3.823  1.00 20.00     0.024 C 
HETATM    7  C7  UNL     1     -35.164  15.267  -2.919  1.00 20.00     0.092 C 
HETATM    8  O11 UNL     1     -36.903  17.053  -3.226  1.00 20.00    -0.297 OA
ENDROOT
BRANCH   2   9
HETATM    9  C10 UNL     1     -33.024  17.081  -2.855  1.00 20.00     0.007 C 
HETATM   10  C8  UNL     1     -33.233  18.156  -3.897  1.00 20.00     0.014 C 
HETATM   11  C9  UNL     1     -33.489  17.511  -1.482  1.00 20.00     0.014 C 
ENDBRANCH   2   9
TORSDOF 1
ENDMDL
MODEL 3
REMARK VINA RESULT:      -4.6      1.407      1.828
REMARK  1 active torsions:
REMARK  status: ('A' for Active; 'I' for Inactive)
REMARK    1  A    between atoms: C2_2  and  C10_10 
ROOT
HETATM    1  C1  UNL     1     -33.051  16.322  -3.166  1.00 20.00    -0.017 C 
HETATM    2  C2  UNL     1     -34.095  16.541  -2.339  1.00 20.00    -0.068 C 
HETATM    3  C3  UNL     1     -35.992  15.876  -3.911  1.00 20.00     0.135 C 
HETATM    4  C4  UNL     1     -35.381  15.936  -5.294  1.00 20.00     0.080 C 
HETATM    5  C5  UNL     1     -34.128  15.051  -5.192  1.00 20.00     0.017 C 
HETATM    6  C6  UNL     1     -33.639  15.048  -3.737  1.00 20.00     0.024 C 
HETATM    7  C7  UNL     1     -34.899  15.386  -2.911  1.00 20.00     0.092 C 
HETATM    8  O11 UNL     1     -37.145  16.216  -3.670  1.00 20.00    -0.297 OA
ENDROOT
BRANCH   2   9
HETATM    9  C10 UNL     1     -34.404  17.616  -1.279  1.00 20.00     0.007 C 
HETATM   10  C8  UNL     1     -35.343  17.030  -0.249  1.00 20.00     0.014 C 
HETATM   11  C9  UNL     1     -33.110  18.103  -0.670  1.00 20.00     0.014 C 
ENDBRANCH   2   9
TORSDOF 1
ENDMDL
MODEL 4
REMARK VINA RESULT:      -4.5      1.574      2.818
REMARK  1 active torsions:
REMARK  status: ('A' for Active; 'I' for Inactive)
REMARK    1  A    between atoms: C2_2  and  C10_10 
ROOT
HETATM    1  C1  UNL     1     -35.953  16.888  -3.882  1.00 20.00    -0.017 C 
HETATM    2  C2  UNL     1     -35.010  15.935  -4.039  1.00 20.00    -0.068 C 
HETATM    3  C3  UNL     1     -36.521  13.992  -4.714  1.00 20.00     0.135 C 
HETATM    4  C4  UNL     1     -37.903  14.406  -4.256  1.00 20.00     0.080 C 
HETATM    5  C5  UNL     1     -38.111  15.791  -4.890  1.00 20.00     0.017 C 
HETATM    6  C6  UNL     1     -36.743  16.453  -5.098  1.00 20.00     0.024 C 
HETATM    7  C7  UNL     1     -35.756  15.268  -5.182  1.00 20.00     0.092 C 
HETATM    8  O11 UNL     1     -36.111  12.838  -4.655  1.00 20.00    -0.297 OA
ENDROOT
BRANCH   2   9
HETATM    9  C10 UNL     1     -33.714  15.587  -3.283  1.00 20.00     0.007 C 
HETATM   10  C8  UNL     1     -32.811  14.796  -4.201  1.00 20.00     0.014 C 
HETATM   11  C9  UNL     1     -33.064  16.862  -2.793  1.00 20.00     0.014 C 
ENDBRANCH   2   9
TORSDOF 1
ENDMDL
MODEL 5
REMARK VINA RESULT:      -4.5      1.764      3.832
REMARK  1 active torsions:
REMARK  status: ('A' for Active; 'I' for Inactive)
REMARK    1  A    between atoms: C2_2  and  C10_10 
ROOT
HETATM    1  C1  UNL     1     -36.095  16.993  -2.775  1.00 20.00    -0.017 C 
HETATM    2  C2  UNL     1     -35.926  15.843  -3.460  1.00 20.00    -0.068 C 
HETATM    3  C3  UNL     1     -33.378  15.710  -3.387  1.00 20.00     0.135 C 
HETATM    4  C4  UNL     1     -32.932  17.119  -3.060  1.00 20.00     0.080 C 
HETATM    5  C5  UNL     1     -33.714  17.476  -1.786  1.00 20.00     0.017 C 
HETATM    6  C6  UNL     1     -35.019  16.668  -1.761  1.00 20.00     0.024 C 
HETATM    7  C7  UNL     1     -34.717  15.432  -2.637  1.00 20.00     0.092 C 
HETATM    8  O11 UNL     1     -32.773  14.975  -4.160  1.00 20.00    -0.297 OA
ENDROOT
BRANCH   2   9
HETATM    9  C10 UNL     1     -36.627  15.220  -4.682  1.00 20.00     0.007 C 
HETATM   10  C8  UNL     1     -36.116  15.895  -5.934  1.00 20.00     0.014 C 
HETATM   11  C9  UNL     1     -36.385  13.728  -4.690  1.00 20.00     0.014 C 
ENDBRANCH   2   9
TORSDOF 1
ENDMDL
MODEL 6
REMARK VINA RESULT:      -4.5      1.603      2.089
REMARK  1 active torsions:
REMARK  status: ('A' for Active; 'I' for Inactive)
REMARK    1  A    between atoms: C2_2  and  C10_10 
ROOT
HETATM    1  C1  UNL     1     -34.555  14.153  -3.873  1.00 20.00    -0.017 C 
HETATM    2  C2  UNL     1     -34.936  15.248  -3.182  1.00 20.00    -0.068 C 
HETATM    3  C3  UNL     1     -36.196  16.467  -5.036  1.00 20.00     0.135 C 
HETATM    4  C4  UNL     1     -35.698  15.833  -6.317  1.00 20.00     0.080 C 
HETATM    5  C5  UNL     1     -35.923  14.327  -6.105  1.00 20.00     0.017 C 
HETATM    6  C6  UNL     1     -35.877  14.026  -4.601  1.00 20.00     0.024 C 
HETATM    7  C7  UNL     1     -36.252  15.367  -3.932  1.00 20.00     0.092 C 
HETATM    8  O11 UNL     1     -36.449  17.662  -4.932  1.00 20.00    -0.297 OA
ENDROOT
BRANCH   2   9
HETATM    9  C10 UNL     1     -34.256  16.115  -2.106  1.00 20.00     0.007 C 
HETATM   10  C8  UNL     1     -33.229  17.003  -2.772  1.00 20.00     0.014 C 
HETATM   11  C9  UNL     1     -35.309  16.907  -1.365  1.00 20.00     0.014 C 
ENDBRANCH   2   9
TORSDOF 1
ENDMDL
MODEL 7
REMARK VINA RESULT:      -4.5      1.271      1.619
REMARK  1 active torsions:
REMARK  status: ('A' for Active; 'I' for Inactive)
REMARK    1  A    between atoms: C2_2  and  C10_10 
ROOT
HETATM    1  C1  UNL     1     -34.725  16.916  -4.779  1.00 20.00    -0.017 C 
HETATM    2  C2  UNL     1     -34.077  16.156  -3.871  1.00 20.00    -0.068 C 
HETATM    3  C3  UNL     1     -34.861  13.855  -4.650  1.00 20.00     0.135 C 
HETATM    4  C4  UNL     1     -36.090  14.134  -5.488  1.00 20.00     0.080 C 
HETATM    5  C5  UNL     1     -35.615  15.168  -6.521  1.00 20.00     0.017 C 
HETATM    6  C6  UNL     1     -34.447  15.965  -5.925  1.00 20.00     0.024 C 
HETATM    7  C7  UNL     1     -33.849  15.023  -4.858  1.00 20.00     0.092 C 
HETATM    8  O11 UNL     1     -34.758  12.882  -3.911  1.00 20.00    -0.297 OA
ENDROOT
BRANCH   2   9
HETATM    9  C10 UNL     1     -33.769  16.323  -2.371  1.00 20.00     0.007 C 
HETATM   10  C8  UNL     1     -32.867  17.522  -2.189  1.00 20.00     0.014 C 
HETATM   11  C9  UNL     1     -35.067  16.455  -1.607  1.00 20.00     0.014 C 
ENDBRANCH   2   9
TORSDOF 1
ENDMDL
MODEL 8
REMARK VINA RESULT:      -4.4      1.656      3.044
REMARK  1 active torsions:
REMARK  status: ('A' for Active; 'I' for Inactive)
REMARK    1  A    between atoms: C2_2  and  C10_10 
ROOT
HETATM    1  C1  UNL     1     -35.254  17.208  -3.884  1.00 20.00    -0.017 C 
HETATM    2  C2  UNL     1     -36.193  16.240  -3.929  1.00 20.00    -0.068 C 
HETATM    3  C3  UNL     1     -34.661  14.199  -3.895  1.00 20.00     0.135 C 
HETATM    4  C4  UNL     1     -33.307  14.732  -4.311  1.00 20.00     0.080 C 
HETATM    5  C5  UNL     1     -33.047  15.898  -3.344  1.00 20.00     0.017 C 
HETATM    6  C6  UNL     1     -34.393  16.469  -2.880  1.00 20.00     0.024 C 
HETATM    7  C7  UNL     1     -35.384  15.297  -3.055  1.00 20.00     0.092 C 
HETATM    8  O11 UNL     1     -35.085  13.100  -4.235  1.00 20.00    -0.297 OA
ENDROOT
BRANCH   2   9
HETATM    9  C10 UNL     1     -37.538  16.098  -4.667  1.00 20.00     0.007 C 
HETATM   10  C8  UNL     1     -37.284  16.148  -6.157  1.00 20.00     0.014 C 
HETATM   11  C9  UNL     1     -38.209  14.812  -4.239  1.00 20.00     0.014 C 
ENDBRANCH   2   9
TORSDOF 1
ENDMDL
MODEL 9
REMARK VINA RESULT:      -4.3      1.783      3.582
REMARK  1 active torsions:
REMARK  status: ('A' for Active; 'I' for Inactive)
REMARK    1  A    between atoms: C2_2  and  C10_10 
ROOT
HETATM    1  C1  UNL     1     -36.150  16.685  -2.996  1.00 20.00    -0.017 C 
HETATM    2  C2  UNL     1     -36.251  15.574  -3.757  1.00 20.00    -0.068 C 
HETATM    3  C3  UNL     1     -33.772  14.996  -3.942  1.00 20.00     0.135 C 
HETATM    4  C4  UNL     1     -33.053  16.278  -3.584  1.00 20.00     0.080 C 
HETATM    5  C5  UNL     1     -33.645  16.675  -2.221  1.00 20.00     0.017 C 
HETATM    6  C6  UNL     1     -35.066  16.106  -2.112  1.00 20.00     0.024 C 
HETATM    7  C7  UNL     1     -35.069  14.902  -3.080  1.00 20.00     0.092 C 
HETATM    8  O11 UNL     1     -33.379  14.224  -4.810  1.00 20.00    -0.297 OA
ENDROOT
BRANCH   2   9
HETATM    9  C10 UNL     1     -37.156  15.172  -4.936  1.00 20.00     0.007 C 
HETATM   10  C8  UNL     1     -38.576  15.590  -4.627  1.00 20.00     0.014 C 
HETATM   11  C9  UNL     1     -36.632  15.805  -6.206  1.00 20.00     0.014 C 
ENDBRANCH   2   9
TORSDOF 1
ENDMDL
