MODEL 1
REMARK VINA RESULT:      -4.7      0.000      0.000
REMARK  2 active torsions:
REMARK  status: ('A' for Active; 'I' for Inactive)
REMARK    1  A    between atoms: C3_3  and  C5_5 
REMARK    2  A    between atoms: C3_3  and  O9_9 
ROOT
HETATM    1  C1  UNL     1     -34.087   6.274   6.152  1.00 20.00    -0.002 A 
HETATM    2  C2  UNL     1     -33.818   6.980   5.057  1.00 20.00     0.013 A 
HETATM    3  C4  UNL     1     -34.813   5.036   5.784  1.00 20.00     0.196 A 
HETATM    4  C5  UNL     1     -34.342   6.274   3.867  1.00 20.00     0.244 A 
HETATM    5  O8  UNL     1     -34.971   5.080   4.352  1.00 20.00    -0.368 OA
ENDROOT
BRANCH   4   6
HETATM    6  C3  UNL     1     -33.204   5.867   2.990  1.00 20.00     0.291 C 
HETATM    7  O7  UNL     1     -33.088   4.758   2.488  1.00 20.00    -0.262 OA
BRANCH   6   8
HETATM    8  O9  UNL     1     -32.341   6.913   2.850  1.00 20.00    -0.324 OA
HETATM    9  C6  UNL     1     -32.475   7.663   1.639  1.00 20.00     0.213 C 
ENDBRANCH   6   8
ENDBRANCH   4   6
TORSDOF 2
ENDMDL
MODEL 2
REMARK VINA RESULT:      -4.4     11.238     12.138
REMARK  2 active torsions:
REMARK  status: ('A' for Active; 'I' for Inactive)
REMARK    1  A    between atoms: C3_3  and  C5_5 
REMARK    2  A    between atoms: C3_3  and  O9_9 
ROOT
HETATM    1  C1  UNL     1     -33.786  15.721  -3.458  1.00 20.00    -0.002 A 
HETATM    2  C2  UNL     1     -34.959  15.171  -3.156  1.00 20.00     0.013 A 
HETATM    3  C4  UNL     1     -33.006  14.797  -4.315  1.00 20.00     0.196 A 
HETATM    4  C5  UNL     1     -35.060  13.834  -3.784  1.00 20.00     0.244 A 
HETATM    5  O8  UNL     1     -33.826  13.623  -4.480  1.00 20.00    -0.368 OA
ENDROOT
BRANCH   4   6
HETATM    6  C3  UNL     1     -36.160  13.842  -4.794  1.00 20.00     0.291 C 
HETATM    7  O7  UNL     1     -35.981  13.929  -6.001  1.00 20.00    -0.262 OA
BRANCH   6   8
HETATM    8  O9  UNL     1     -37.363  13.741  -4.159  1.00 20.00    -0.324 OA
HETATM    9  C6  UNL     1     -38.268  14.826  -4.380  1.00 20.00     0.213 C 
ENDBRANCH   6   8
ENDBRANCH   4   6
TORSDOF 2
ENDMDL
MODEL 3
REMARK VINA RESULT:      -4.4     11.226     12.204
REMARK  2 active torsions:
REMARK  status: ('A' for Active; 'I' for Inactive)
REMARK    1  A    between atoms: C3_3  and  C5_5 
REMARK    2  A    between atoms: C3_3  and  O9_9 
ROOT
HETATM    1  C1  UNL     1     -33.898  15.739  -3.394  1.00 20.00    -0.002 A 
HETATM    2  C2  UNL     1     -35.052  15.138  -3.118  1.00 20.00     0.013 A 
HETATM    3  C4  UNL     1     -33.071  14.862  -4.256  1.00 20.00     0.196 A 
HETATM    4  C5  UNL     1     -35.092  13.810  -3.770  1.00 20.00     0.244 A 
HETATM    5  O8  UNL     1     -33.841  13.660  -4.453  1.00 20.00    -0.368 OA
ENDROOT
BRANCH   4   6
HETATM    6  C3  UNL     1     -36.178  13.793  -4.796  1.00 20.00     0.291 C 
HETATM    7  O7  UNL     1     -37.367  13.682  -4.533  1.00 20.00    -0.262 OA
BRANCH   6   8
HETATM    8  O9  UNL     1     -35.631  13.920  -6.039  1.00 20.00    -0.324 OA
HETATM    9  C6  UNL     1     -35.938  15.137  -6.724  1.00 20.00     0.213 C 
ENDBRANCH   6   8
ENDBRANCH   4   6
TORSDOF 2
ENDMDL
MODEL 4
REMARK VINA RESULT:      -4.1     11.466     12.268
REMARK  2 active torsions:
REMARK  status: ('A' for Active; 'I' for Inactive)
REMARK    1  A    between atoms: C3_3  and  C5_5 
REMARK    2  A    between atoms: C3_3  and  O9_9 
ROOT
HETATM    1  C1  UNL     1     -33.548  15.331  -4.008  1.00 20.00    -0.002 A 
HETATM    2  C2  UNL     1     -34.438  15.049  -4.956  1.00 20.00     0.013 A 
HETATM    3  C4  UNL     1     -34.246  15.600  -2.729  1.00 20.00     0.196 A 
HETATM    4  C5  UNL     1     -35.805  15.108  -4.389  1.00 20.00     0.244 A 
HETATM    5  O8  UNL     1     -35.654  15.470  -3.011  1.00 20.00    -0.368 OA
ENDROOT
BRANCH   4   6
HETATM    6  C3  UNL     1     -36.421  13.748  -4.440  1.00 20.00     0.291 C 
HETATM    7  O7  UNL     1     -35.783  12.709  -4.527  1.00 20.00    -0.262 OA
BRANCH   6   8
HETATM    8  O9  UNL     1     -37.779  13.862  -4.374  1.00 20.00    -0.324 OA
HETATM    9  C6  UNL     1     -38.307  15.142  -4.733  1.00 20.00     0.213 C 
ENDBRANCH   6   8
ENDBRANCH   4   6
TORSDOF 2
ENDMDL
MODEL 5
REMARK VINA RESULT:      -3.9     16.450     17.152
REMARK  2 active torsions:
REMARK  status: ('A' for Active; 'I' for Inactive)
REMARK    1  A    between atoms: C3_3  and  C5_5 
REMARK    2  A    between atoms: C3_3  and  O9_9 
ROOT
HETATM    1  C1  UNL     1     -24.271  17.926  12.196  1.00 20.00    -0.002 A 
HETATM    2  C2  UNL     1     -24.635  17.870  10.918  1.00 20.00     0.013 A 
HETATM    3  C4  UNL     1     -22.808  17.721  12.311  1.00 20.00     0.196 A 
HETATM    4  C5  UNL     1     -23.445  17.621  10.072  1.00 20.00     0.244 A 
HETATM    5  O8  UNL     1     -22.331  17.514  10.966  1.00 20.00    -0.368 OA
ENDROOT
BRANCH   4   6
HETATM    6  C3  UNL     1     -23.210  18.801   9.187  1.00 20.00     0.291 C 
HETATM    7  O7  UNL     1     -22.105  19.262   8.939  1.00 20.00    -0.262 OA
BRANCH   6   8
HETATM    8  O9  UNL     1     -24.404  19.262   8.717  1.00 20.00    -0.324 OA
HETATM    9  C6  UNL     1     -24.662  19.003   7.334  1.00 20.00     0.213 C 
ENDBRANCH   6   8
ENDBRANCH   4   6
TORSDOF 2
ENDMDL
MODEL 6
REMARK VINA RESULT:      -3.9     11.745     12.633
REMARK  2 active torsions:
REMARK  status: ('A' for Active; 'I' for Inactive)
REMARK    1  A    between atoms: C3_3  and  C5_5 
REMARK    2  A    between atoms: C3_3  and  O9_9 
ROOT
HETATM    1  C1  UNL     1     -34.900  15.784  -2.365  1.00 20.00    -0.002 A 
HETATM    2  C2  UNL     1     -34.601  15.050  -3.433  1.00 20.00     0.013 A 
HETATM    3  C4  UNL     1     -36.008  16.713  -2.689  1.00 20.00     0.196 A 
HETATM    4  C5  UNL     1     -35.483  15.429  -4.561  1.00 20.00     0.244 A 
HETATM    5  O8  UNL     1     -36.332  16.475  -4.074  1.00 20.00    -0.368 OA
ENDROOT
BRANCH   4   6
HETATM    6  C3  UNL     1     -36.350  14.268  -4.923  1.00 20.00     0.291 C 
HETATM    7  O7  UNL     1     -37.233  13.821  -4.203  1.00 20.00    -0.262 OA
BRANCH   6   8
HETATM    8  O9  UNL     1     -36.000  13.805  -6.157  1.00 20.00    -0.324 OA
HETATM    9  C6  UNL     1     -35.615  14.806  -7.102  1.00 20.00     0.213 C 
ENDBRANCH   6   8
ENDBRANCH   4   6
TORSDOF 2
ENDMDL
MODEL 7
REMARK VINA RESULT:      -3.9     16.059     16.727
REMARK  2 active torsions:
REMARK  status: ('A' for Active; 'I' for Inactive)
REMARK    1  A    between atoms: C3_3  and  C5_5 
REMARK    2  A    between atoms: C3_3  and  O9_9 
ROOT
HETATM    1  C1  UNL     1     -25.557  19.263   8.253  1.00 20.00    -0.002 A 
HETATM    2  C2  UNL     1     -24.734  19.148   9.293  1.00 20.00     0.013 A 
HETATM    3  C4  UNL     1     -24.833  18.931   7.003  1.00 20.00     0.196 A 
HETATM    4  C5  UNL     1     -23.393  18.732   8.824  1.00 20.00     0.244 A 
HETATM    5  O8  UNL     1     -23.481  18.623   7.398  1.00 20.00    -0.368 OA
ENDROOT
BRANCH   4   6
HETATM    6  C3  UNL     1     -23.077  17.377   9.367  1.00 20.00     0.291 C 
HETATM    7  O7  UNL     1     -22.458  16.519   8.752  1.00 20.00    -0.262 OA
BRANCH   6   8
HETATM    8  O9  UNL     1     -23.581  17.262  10.629  1.00 20.00    -0.324 OA
HETATM    9  C6  UNL     1     -22.655  17.524  11.687  1.00 20.00     0.213 C 
ENDBRANCH   6   8
ENDBRANCH   4   6
TORSDOF 2
ENDMDL
MODEL 8
REMARK VINA RESULT:      -3.8     11.360     12.172
REMARK  2 active torsions:
REMARK  status: ('A' for Active; 'I' for Inactive)
REMARK    1  A    between atoms: C3_3  and  C5_5 
REMARK    2  A    between atoms: C3_3  and  O9_9 
ROOT
HETATM    1  C1  UNL     1     -33.774  16.100  -2.546  1.00 20.00    -0.002 A 
HETATM    2  C2  UNL     1     -33.733  15.717  -3.819  1.00 20.00     0.013 A 
HETATM    3  C4  UNL     1     -35.172  16.053  -2.054  1.00 20.00     0.196 A 
HETATM    4  C5  UNL     1     -35.099  15.384  -4.285  1.00 20.00     0.244 A 
HETATM    5  O8  UNL     1     -35.971  15.621  -3.173  1.00 20.00    -0.368 OA
ENDROOT
BRANCH   4   6
HETATM    6  C3  UNL     1     -35.168  13.930  -4.619  1.00 20.00     0.291 C 
HETATM    7  O7  UNL     1     -34.594  13.054  -3.988  1.00 20.00    -0.262 OA
BRANCH   6   8
HETATM    8  O9  UNL     1     -35.959  13.753  -5.716  1.00 20.00    -0.324 OA
HETATM    9  C6  UNL     1     -35.790  14.718  -6.758  1.00 20.00     0.213 C 
ENDBRANCH   6   8
ENDBRANCH   4   6
TORSDOF 2
ENDMDL
MODEL 9
REMARK VINA RESULT:      -3.8      8.909      9.771
REMARK  2 active torsions:
REMARK  status: ('A' for Active; 'I' for Inactive)
REMARK    1  A    between atoms: C3_3  and  C5_5 
REMARK    2  A    between atoms: C3_3  and  O9_9 
ROOT
HETATM    1  C1  UNL     1     -42.613   8.881   0.065  1.00 20.00    -0.002 A 
HETATM    2  C2  UNL     1     -41.406   8.323   0.036  1.00 20.00     0.013 A 
HETATM    3  C4  UNL     1     -43.417   8.395  -1.081  1.00 20.00     0.196 A 
HETATM    4  C5  UNL     1     -41.302   7.419  -1.132  1.00 20.00     0.244 A 
HETATM    5  O8  UNL     1     -42.559   7.499  -1.816  1.00 20.00    -0.368 OA
ENDROOT
BRANCH   4   6
HETATM    6  C3  UNL     1     -41.129   6.014  -0.657  1.00 20.00     0.291 C 
HETATM    7  O7  UNL     1     -40.724   5.098  -1.359  1.00 20.00    -0.262 OA
BRANCH   6   8
HETATM    8  O9  UNL     1     -41.490   5.929   0.656  1.00 20.00    -0.324 OA
HETATM    9  C6  UNL     1     -42.661   5.151   0.922  1.00 20.00     0.213 C 
ENDBRANCH   6   8
ENDBRANCH   4   6
TORSDOF 2
ENDMDL
