MODEL 1
REMARK VINA RESULT:      -4.6      0.000      0.000
REMARK  1 active torsions:
REMARK  status: ('A' for Active; 'I' for Inactive)
REMARK    1  A    between atoms: C4_4  and  C7_7 
ROOT
HETATM    1  C1  UNL     1     -35.702  13.763  -4.507  1.00 20.00     0.268 C 
HETATM    2  C2  UNL     1     -36.180  14.647  -5.623  1.00 20.00     0.184 C 
HETATM    3  C3  UNL     1     -34.040  16.166  -4.725  1.00 20.00     0.107 C 
HETATM    4  C4  UNL     1     -34.898  15.818  -3.517  1.00 20.00     0.144 C 
HETATM    5  O8  UNL     1     -35.882  12.548  -4.513  1.00 20.00    -0.264 OA
HETATM    6  O9  UNL     1     -35.102  14.391  -3.462  1.00 20.00    -0.314 OA
HETATM    7  S10 UNL     1     -34.840  15.664  -6.279  1.00 20.00    -0.157 SA
ENDROOT
BRANCH   4   8
HETATM    8  C7  UNL     1     -34.196  16.218  -2.223  1.00 20.00     0.008 C 
HETATM    9  C5  UNL     1     -33.074  17.216  -2.505  1.00 20.00     0.012 C 
HETATM   10  C6  UNL     1     -35.194  16.803  -1.226  1.00 20.00     0.012 C 
ENDBRANCH   4   8
TORSDOF 1
ENDMDL
MODEL 2
REMARK VINA RESULT:      -4.5      1.164      1.164
REMARK  1 active torsions:
REMARK  status: ('A' for Active; 'I' for Inactive)
REMARK    1  A    between atoms: C4_4  and  C7_7 
ROOT
HETATM    1  C1  UNL     1     -36.055  13.769  -4.263  1.00 20.00     0.268 C 
HETATM    2  C2  UNL     1     -37.337  14.514  -4.495  1.00 20.00     0.184 C 
HETATM    3  C3  UNL     1     -35.594  16.662  -4.297  1.00 20.00     0.107 C 
HETATM    4  C4  UNL     1     -35.362  15.767  -3.088  1.00 20.00     0.144 C 
HETATM    5  O8  UNL     1     -35.881  12.624  -4.673  1.00 20.00    -0.264 OA
HETATM    6  O9  UNL     1     -35.112  14.415  -3.527  1.00 20.00    -0.314 OA
HETATM    7  S10 UNL     1     -37.037  16.121  -5.261  1.00 20.00    -0.157 SA
ENDROOT
BRANCH   4   8
HETATM    8  C7  UNL     1     -34.130  16.217  -2.311  1.00 20.00     0.008 C 
HETATM    9  C5  UNL     1     -33.087  16.816  -3.254  1.00 20.00     0.012 C 
HETATM   10  C6  UNL     1     -34.512  17.224  -1.228  1.00 20.00     0.012 C 
ENDBRANCH   4   8
TORSDOF 1
ENDMDL
MODEL 3
REMARK VINA RESULT:      -4.3      0.568      1.258
REMARK  1 active torsions:
REMARK  status: ('A' for Active; 'I' for Inactive)
REMARK    1  A    between atoms: C4_4  and  C7_7 
ROOT
HETATM    1  C1  UNL     1     -35.717  13.784  -4.633  1.00 20.00     0.268 C 
HETATM    2  C2  UNL     1     -36.114  14.352  -5.965  1.00 20.00     0.184 C 
HETATM    3  C3  UNL     1     -34.133  16.165  -5.270  1.00 20.00     0.107 C 
HETATM    4  C4  UNL     1     -35.094  16.059  -4.095  1.00 20.00     0.144 C 
HETATM    5  O8  UNL     1     -35.851  12.593  -4.364  1.00 20.00    -0.264 OA
HETATM    6  O9  UNL     1     -35.249  14.674  -3.719  1.00 20.00    -0.314 OA
HETATM    7  S10 UNL     1     -34.753  15.266  -6.724  1.00 20.00    -0.157 SA
ENDROOT
BRANCH   4   8
HETATM    8  C7  UNL     1     -34.541  16.792  -2.877  1.00 20.00     0.008 C 
HETATM    9  C5  UNL     1     -35.170  16.255  -1.593  1.00 20.00     0.012 C 
HETATM   10  C6  UNL     1     -33.019  16.670  -2.819  1.00 20.00     0.012 C 
ENDBRANCH   4   8
TORSDOF 1
ENDMDL
MODEL 4
REMARK VINA RESULT:      -4.3      1.866      2.190
REMARK  1 active torsions:
REMARK  status: ('A' for Active; 'I' for Inactive)
REMARK    1  A    between atoms: C4_4  and  C7_7 
ROOT
HETATM    1  C1  UNL     1     -37.410  14.764  -4.160  1.00 20.00     0.268 C 
HETATM    2  C2  UNL     1     -38.044  16.124  -4.129  1.00 20.00     0.184 C 
HETATM    3  C3  UNL     1     -35.423  16.858  -4.660  1.00 20.00     0.107 C 
HETATM    4  C4  UNL     1     -35.406  15.924  -3.458  1.00 20.00     0.144 C 
HETATM    5  O8  UNL     1     -38.041  13.755  -4.462  1.00 20.00    -0.264 OA
HETATM    6  O9  UNL     1     -36.105  14.704  -3.784  1.00 20.00    -0.314 OA
HETATM    7  S10 UNL     1     -37.120  17.306  -5.134  1.00 20.00    -0.157 SA
ENDROOT
BRANCH   4   8
HETATM    8  C7  UNL     1     -33.976  15.535  -3.097  1.00 20.00     0.008 C 
HETATM    9  C5  UNL     1     -33.321  14.766  -4.242  1.00 20.00     0.012 C 
HETATM   10  C6  UNL     1     -33.153  16.773  -2.744  1.00 20.00     0.012 C 
ENDBRANCH   4   8
TORSDOF 1
ENDMDL
MODEL 5
REMARK VINA RESULT:      -4.0      2.870      4.071
REMARK  1 active torsions:
REMARK  status: ('A' for Active; 'I' for Inactive)
REMARK    1  A    between atoms: C4_4  and  C7_7 
ROOT
HETATM    1  C1  UNL     1     -36.417  13.692  -4.727  1.00 20.00     0.268 C 
HETATM    2  C2  UNL     1     -35.771  14.770  -5.549  1.00 20.00     0.184 C 
HETATM    3  C3  UNL     1     -37.383  16.340  -3.929  1.00 20.00     0.107 C 
HETATM    4  C4  UNL     1     -38.258  15.250  -4.532  1.00 20.00     0.144 C 
HETATM    5  O8  UNL     1     -35.869  12.614  -4.517  1.00 20.00    -0.264 OA
HETATM    6  O9  UNL     1     -37.669  13.958  -4.271  1.00 20.00    -0.314 OA
HETATM    7  S10 UNL     1     -35.716  16.338  -4.656  1.00 20.00    -0.157 SA
ENDROOT
BRANCH   4   8
HETATM    8  C7  UNL     1     -39.639  15.248  -3.887  1.00 20.00     0.008 C 
HETATM    9  C5  UNL     1     -39.944  16.608  -3.262  1.00 20.00     0.012 C 
HETATM   10  C6  UNL     1     -40.711  14.877  -4.910  1.00 20.00     0.012 C 
ENDBRANCH   4   8
TORSDOF 1
ENDMDL
MODEL 6
REMARK VINA RESULT:      -3.9      1.735      2.217
REMARK  1 active torsions:
REMARK  status: ('A' for Active; 'I' for Inactive)
REMARK    1  A    between atoms: C4_4  and  C7_7 
ROOT
HETATM    1  C1  UNL     1     -34.195  14.389  -4.068  1.00 20.00     0.268 C 
HETATM    2  C2  UNL     1     -35.528  13.698  -4.098  1.00 20.00     0.184 C 
HETATM    3  C3  UNL     1     -36.370  16.280  -3.537  1.00 20.00     0.107 C 
HETATM    4  C4  UNL     1     -35.275  15.926  -2.541  1.00 20.00     0.144 C 
HETATM    5  O8  UNL     1     -33.230  13.976  -4.704  1.00 20.00    -0.264 OA
HETATM    6  O9  UNL     1     -34.103  15.472  -3.252  1.00 20.00    -0.314 OA
HETATM    7  S10 UNL     1     -36.855  14.841  -4.537  1.00 20.00    -0.157 SA
ENDROOT
BRANCH   4   8
HETATM    8  C7  UNL     1     -34.860  17.152  -1.735  1.00 20.00     0.008 C 
HETATM    9  C5  UNL     1     -35.316  17.022  -0.283  1.00 20.00     0.012 C 
HETATM   10  C6  UNL     1     -33.348  17.357  -1.805  1.00 20.00     0.012 C 
ENDBRANCH   4   8
TORSDOF 1
ENDMDL
MODEL 7
REMARK VINA RESULT:      -3.9      1.710      1.923
REMARK  1 active torsions:
REMARK  status: ('A' for Active; 'I' for Inactive)
REMARK    1  A    between atoms: C4_4  and  C7_7 
ROOT
HETATM    1  C1  UNL     1     -34.186  14.437  -4.149  1.00 20.00     0.268 C 
HETATM    2  C2  UNL     1     -35.563  13.838  -4.151  1.00 20.00     0.184 C 
HETATM    3  C3  UNL     1     -36.176  16.385  -3.238  1.00 20.00     0.107 C 
HETATM    4  C4  UNL     1     -35.041  15.848  -2.379  1.00 20.00     0.144 C 
HETATM    5  O8  UNL     1     -33.301  14.042  -4.903  1.00 20.00    -0.264 OA
HETATM    6  O9  UNL     1     -33.958  15.408  -3.227  1.00 20.00    -0.314 OA
HETATM    7  S10 UNL     1     -36.834  15.107  -4.352  1.00 20.00    -0.157 SA
ENDROOT
BRANCH   4   8
HETATM    8  C7  UNL     1     -34.483  16.942  -1.475  1.00 20.00     0.008 C 
HETATM    9  C5  UNL     1     -33.115  17.407  -1.974  1.00 20.00     0.012 C 
HETATM   10  C6  UNL     1     -35.451  18.120  -1.394  1.00 20.00     0.012 C 
ENDBRANCH   4   8
TORSDOF 1
ENDMDL
MODEL 8
REMARK VINA RESULT:      -3.9      3.949      5.561
REMARK  1 active torsions:
REMARK  status: ('A' for Active; 'I' for Inactive)
REMARK    1  A    between atoms: C4_4  and  C7_7 
ROOT
HETATM    1  C1  UNL     1     -31.719  18.268  -0.647  1.00 20.00     0.268 C 
HETATM    2  C2  UNL     1     -32.554  19.253   0.118  1.00 20.00     0.184 C 
HETATM    3  C3  UNL     1     -34.498  17.360  -0.455  1.00 20.00     0.107 C 
HETATM    4  C4  UNL     1     -33.794  17.707  -1.758  1.00 20.00     0.144 C 
HETATM    5  O8  UNL     1     -30.511  18.152  -0.462  1.00 20.00    -0.264 OA
HETATM    6  O9  UNL     1     -32.369  17.545  -1.597  1.00 20.00    -0.314 OA
HETATM    7  S10 UNL     1     -33.970  18.451   0.901  1.00 20.00    -0.157 SA
ENDROOT
BRANCH   4   8
HETATM    8  C7  UNL     1     -34.226  16.761  -2.874  1.00 20.00     0.008 C 
HETATM    9  C5  UNL     1     -33.032  15.968  -3.401  1.00 20.00     0.012 C 
HETATM   10  C6  UNL     1     -35.322  15.817  -2.386  1.00 20.00     0.012 C 
ENDBRANCH   4   8
TORSDOF 1
ENDMDL
MODEL 9
REMARK VINA RESULT:      -3.7      3.220      5.002
REMARK  1 active torsions:
REMARK  status: ('A' for Active; 'I' for Inactive)
REMARK    1  A    between atoms: C4_4  and  C7_7 
ROOT
HETATM    1  C1  UNL     1     -32.620  18.278  -1.650  1.00 20.00     0.268 C 
HETATM    2  C2  UNL     1     -33.733  19.263  -1.439  1.00 20.00     0.184 C 
HETATM    3  C3  UNL     1     -35.150  16.901  -1.111  1.00 20.00     0.107 C 
HETATM    4  C4  UNL     1     -34.373  16.795  -2.416  1.00 20.00     0.144 C 
HETATM    5  O8  UNL     1     -31.448  18.555  -1.411  1.00 20.00    -0.264 OA
HETATM    6  O9  UNL     1     -32.978  17.075  -2.172  1.00 20.00    -0.314 OA
HETATM    7  S10 UNL     1     -35.039  18.571  -0.401  1.00 20.00    -0.157 SA
ENDROOT
BRANCH   4   8
HETATM    8  C7  UNL     1     -34.452  15.380  -2.979  1.00 20.00     0.008 C 
HETATM    9  C5  UNL     1     -35.811  15.136  -3.632  1.00 20.00     0.012 C 
HETATM   10  C6  UNL     1     -33.325  15.134  -3.980  1.00 20.00     0.012 C 
ENDBRANCH   4   8
TORSDOF 1
ENDMDL
