MODEL 1
REMARK VINA RESULT:      -4.6      0.000      0.000
REMARK  1 active torsions:
REMARK  status: ('A' for Active; 'I' for Inactive)
REMARK    1  A    between atoms: C3_3  and  C8_8 
ROOT
HETATM    1  C1  UNL     1     -37.201  14.489  -4.409  1.00 20.00     0.145 C 
HETATM    2  C4  UNL     1     -35.955  13.703  -4.761  1.00 20.00     0.080 C 
HETATM    3  C5  UNL     1     -34.789  14.117  -3.873  1.00 20.00     0.016 C 
HETATM    4  C6  UNL     1     -35.845  16.367  -3.458  1.00 20.00     0.036 C 
HETATM    5  C7  UNL     1     -37.029  15.997  -4.348  1.00 20.00     0.152 C 
HETATM    6  C8  UNL     1     -34.567  15.636  -3.897  1.00 20.00     0.009 C 
HETATM    7  O9  UNL     1     -38.286  13.922  -4.288  1.00 20.00    -0.296 OA
HETATM    8 CL10 UNL     1     -38.516  16.751  -3.727  1.00 20.00    -0.117 Cl
ENDROOT
BRANCH   6   9
HETATM    9  C3  UNL     1     -33.416  16.023  -3.021  1.00 20.00    -0.032 C 
HETATM   10  C2  UNL     1     -33.440  17.048  -2.162  1.00 20.00     0.007 C 
ENDBRANCH   6   9
TORSDOF 1
ENDMDL
MODEL 2
REMARK VINA RESULT:      -4.6     11.500     12.252
REMARK  1 active torsions:
REMARK  status: ('A' for Active; 'I' for Inactive)
REMARK    1  A    between atoms: C3_3  and  C8_8 
ROOT
HETATM    1  C1  UNL     1     -34.239   4.775   4.327  1.00 20.00     0.145 C 
HETATM    2  C4  UNL     1     -34.094   4.404   2.867  1.00 20.00     0.080 C 
HETATM    3  C5  UNL     1     -33.040   5.273   2.192  1.00 20.00     0.016 C 
HETATM    4  C6  UNL     1     -33.373   7.088   3.909  1.00 20.00     0.036 C 
HETATM    5  C7  UNL     1     -34.442   6.254   4.611  1.00 20.00     0.152 C 
HETATM    6  C8  UNL     1     -33.314   6.768   2.407  1.00 20.00     0.009 C 
HETATM    7  O9  UNL     1     -34.286   3.904   5.194  1.00 20.00    -0.296 OA
HETATM    8 CL10 UNL     1     -34.388   6.547   6.365  1.00 20.00    -0.117 Cl
ENDROOT
BRANCH   6   9
HETATM    9  C3  UNL     1     -32.270   7.605   1.735  1.00 20.00    -0.032 C 
HETATM   10  C2  UNL     1     -32.521   8.456   0.734  1.00 20.00     0.007 C 
ENDBRANCH   6   9
TORSDOF 1
ENDMDL
MODEL 3
REMARK VINA RESULT:      -4.5      2.499      2.760
REMARK  1 active torsions:
REMARK  status: ('A' for Active; 'I' for Inactive)
REMARK    1  A    between atoms: C3_3  and  C8_8 
ROOT
HETATM    1  C1  UNL     1     -35.651  14.426  -5.968  1.00 20.00     0.145 C 
HETATM    2  C4  UNL     1     -36.130  13.828  -4.663  1.00 20.00     0.080 C 
HETATM    3  C5  UNL     1     -35.864  14.782  -3.504  1.00 20.00     0.016 C 
HETATM    4  C6  UNL     1     -33.998  15.889  -4.786  1.00 20.00     0.036 C 
HETATM    5  C7  UNL     1     -34.224  14.948  -5.966  1.00 20.00     0.152 C 
HETATM    6  C8  UNL     1     -34.395  15.225  -3.458  1.00 20.00     0.009 C 
HETATM    7  O9  UNL     1     -36.358  14.384  -6.974  1.00 20.00    -0.296 OA
HETATM    8 CL10 UNL     1     -33.887  15.796  -7.494  1.00 20.00    -0.117 Cl
ENDROOT
BRANCH   6   9
HETATM    9  C3  UNL     1     -34.153  16.159  -2.313  1.00 20.00    -0.032 C 
HETATM   10  C2  UNL     1     -35.115  16.623  -1.508  1.00 20.00     0.007 C 
ENDBRANCH   6   9
TORSDOF 1
ENDMDL
MODEL 4
REMARK VINA RESULT:      -4.3      1.354      1.707
REMARK  1 active torsions:
REMARK  status: ('A' for Active; 'I' for Inactive)
REMARK    1  A    between atoms: C3_3  and  C8_8 
ROOT
HETATM    1  C1  UNL     1     -35.605  13.953  -4.378  1.00 20.00     0.145 C 
HETATM    2  C4  UNL     1     -34.142  14.339  -4.337  1.00 20.00     0.080 C 
HETATM    3  C5  UNL     1     -33.879  15.333  -3.214  1.00 20.00     0.016 C 
HETATM    4  C6  UNL     1     -36.283  16.087  -3.256  1.00 20.00     0.036 C 
HETATM    5  C7  UNL     1     -36.589  15.111  -4.390  1.00 20.00     0.152 C 
HETATM    6  C8  UNL     1     -34.817  16.545  -3.295  1.00 20.00     0.009 C 
HETATM    7  O9  UNL     1     -35.940  12.775  -4.497  1.00 20.00    -0.296 OA
HETATM    8 CL10 UNL     1     -38.251  14.496  -4.231  1.00 20.00    -0.117 Cl
ENDROOT
BRANCH   6   9
HETATM    9  C3  UNL     1     -34.541  17.512  -2.185  1.00 20.00    -0.032 C 
HETATM   10  C2  UNL     1     -33.358  17.633  -1.573  1.00 20.00     0.007 C 
ENDBRANCH   6   9
TORSDOF 1
ENDMDL
MODEL 5
REMARK VINA RESULT:      -4.3      2.462      3.210
REMARK  1 active torsions:
REMARK  status: ('A' for Active; 'I' for Inactive)
REMARK    1  A    between atoms: C3_3  and  C8_8 
ROOT
HETATM    1  C1  UNL     1     -33.881  14.768  -4.121  1.00 20.00     0.145 C 
HETATM    2  C4  UNL     1     -33.065  15.917  -3.566  1.00 20.00     0.080 C 
HETATM    3  C5  UNL     1     -33.708  16.472  -2.301  1.00 20.00     0.016 C 
HETATM    4  C6  UNL     1     -35.965  15.607  -3.014  1.00 20.00     0.036 C 
HETATM    5  C7  UNL     1     -35.364  15.043  -4.299  1.00 20.00     0.152 C 
HETATM    6  C8  UNL     1     -35.182  16.835  -2.524  1.00 20.00     0.009 C 
HETATM    7  O9  UNL     1     -33.332  13.730  -4.488  1.00 20.00    -0.296 OA
HETATM    8 CL10 UNL     1     -36.207  13.545  -4.759  1.00 20.00    -0.117 Cl
ENDROOT
BRANCH   6   9
HETATM    9  C3  UNL     1     -35.795  17.380  -1.271  1.00 20.00    -0.032 C 
HETATM   10  C2  UNL     1     -35.292  17.190  -0.046  1.00 20.00     0.007 C 
ENDBRANCH   6   9
TORSDOF 1
ENDMDL
MODEL 6
REMARK VINA RESULT:      -4.3      3.862      5.057
REMARK  1 active torsions:
REMARK  status: ('A' for Active; 'I' for Inactive)
REMARK    1  A    between atoms: C3_3  and  C8_8 
ROOT
HETATM    1  C1  UNL     1     -34.034  17.818  -0.345  1.00 20.00     0.145 C 
HETATM    2  C4  UNL     1     -35.341  17.246  -0.851  1.00 20.00     0.080 C 
HETATM    3  C5  UNL     1     -35.087  16.087  -1.807  1.00 20.00     0.016 C 
HETATM    4  C6  UNL     1     -32.796  16.984  -2.356  1.00 20.00     0.036 C 
HETATM    5  C7  UNL     1     -33.013  18.166  -1.414  1.00 20.00     0.152 C 
HETATM    6  C8  UNL     1     -34.128  16.484  -2.938  1.00 20.00     0.009 C 
HETATM    7  O9  UNL     1     -33.879  18.068   0.850  1.00 20.00    -0.296 OA
HETATM    8 CL10 UNL     1     -31.472  18.628  -0.654  1.00 20.00    -0.117 Cl
ENDROOT
BRANCH   6   9
HETATM    9  C3  UNL     1     -33.892  15.334  -3.868  1.00 20.00    -0.032 C 
HETATM   10  C2  UNL     1     -34.647  14.230  -3.902  1.00 20.00     0.007 C 
ENDBRANCH   6   9
TORSDOF 1
ENDMDL
MODEL 7
REMARK VINA RESULT:      -4.0      2.729      4.046
REMARK  1 active torsions:
REMARK  status: ('A' for Active; 'I' for Inactive)
REMARK    1  A    between atoms: C3_3  and  C8_8 
ROOT
HETATM    1  C1  UNL     1     -33.283  16.617  -2.890  1.00 20.00     0.145 C 
HETATM    2  C4  UNL     1     -32.817  15.495  -3.793  1.00 20.00     0.080 C 
HETATM    3  C5  UNL     1     -33.988  14.909  -4.573  1.00 20.00     0.016 C 
HETATM    4  C6  UNL     1     -35.611  15.696  -2.813  1.00 20.00     0.036 C 
HETATM    5  C7  UNL     1     -34.466  16.290  -1.995  1.00 20.00     0.152 C 
HETATM    6  C8  UNL     1     -35.137  14.494  -3.644  1.00 20.00     0.009 C 
HETATM    7  O9  UNL     1     -32.662  17.677  -2.835  1.00 20.00    -0.296 OA
HETATM    8 CL10 UNL     1     -35.017  17.759  -1.156  1.00 20.00    -0.117 Cl
ENDROOT
BRANCH   6   9
HETATM    9  C3  UNL     1     -36.277  13.919  -4.428  1.00 20.00    -0.032 C 
HETATM   10  C2  UNL     1     -37.516  14.423  -4.428  1.00 20.00     0.007 C 
ENDBRANCH   6   9
TORSDOF 1
ENDMDL
MODEL 8
REMARK VINA RESULT:      -4.0      3.149      4.534
REMARK  1 active torsions:
REMARK  status: ('A' for Active; 'I' for Inactive)
REMARK    1  A    between atoms: C3_3  and  C8_8 
ROOT
HETATM    1  C1  UNL     1     -34.039  18.142  -0.800  1.00 20.00     0.145 C 
HETATM    2  C4  UNL     1     -32.748  17.714  -1.466  1.00 20.00     0.080 C 
HETATM    3  C5  UNL     1     -33.030  17.032  -2.798  1.00 20.00     0.016 C 
HETATM    4  C6  UNL     1     -35.349  16.402  -2.036  1.00 20.00     0.036 C 
HETATM    5  C7  UNL     1     -35.105  17.066  -0.683  1.00 20.00     0.152 C 
HETATM    6  C8  UNL     1     -34.037  15.883  -2.647  1.00 20.00     0.009 C 
HETATM    7  O9  UNL     1     -34.147  19.263  -0.306  1.00 20.00    -0.296 OA
HETATM    8 CL10 UNL     1     -36.618  17.775  -0.072  1.00 20.00    -0.117 Cl
ENDROOT
BRANCH   6   9
HETATM    9  C3  UNL     1     -34.300  15.224  -3.967  1.00 20.00    -0.032 C 
HETATM   10  C2  UNL     1     -34.830  14.004  -4.102  1.00 20.00     0.007 C 
ENDBRANCH   6   9
TORSDOF 1
ENDMDL
MODEL 9
REMARK VINA RESULT:      -3.9      2.039      2.339
REMARK  1 active torsions:
REMARK  status: ('A' for Active; 'I' for Inactive)
REMARK    1  A    between atoms: C3_3  and  C8_8 
ROOT
HETATM    1  C1  UNL     1     -36.684  15.024  -5.316  1.00 20.00     0.145 C 
HETATM    2  C4  UNL     1     -36.639  14.857  -3.812  1.00 20.00     0.080 C 
HETATM    3  C5  UNL     1     -35.458  15.615  -3.221  1.00 20.00     0.016 C 
HETATM    4  C6  UNL     1     -34.228  15.501  -5.418  1.00 20.00     0.036 C 
HETATM    5  C7  UNL     1     -35.385  14.731  -6.048  1.00 20.00     0.152 C 
HETATM    6  C8  UNL     1     -34.138  15.235  -3.906  1.00 20.00     0.009 C 
HETATM    7  O9  UNL     1     -37.743  15.283  -5.887  1.00 20.00    -0.296 OA
HETATM    8 CL10 UNL     1     -35.544  15.169  -7.765  1.00 20.00    -0.117 Cl
ENDROOT
BRANCH   6   9
HETATM    9  C3  UNL     1     -32.989  15.989  -3.311  1.00 20.00    -0.032 C 
HETATM   10  C2  UNL     1     -33.119  16.947  -2.387  1.00 20.00     0.007 C 
ENDBRANCH   6   9
TORSDOF 1
ENDMDL
