MODEL 1
REMARK VINA RESULT:      -4.7      0.000      0.000
REMARK  1 active torsions:
REMARK  status: ('A' for Active; 'I' for Inactive)
REMARK    1  A    between atoms: C3_3  and  C8_8 
ROOT
HETATM    1  C1  UNL     1     -33.878  14.754  -4.637  1.00 20.00     0.145 C 
HETATM    2  C4  UNL     1     -32.831  15.428  -3.775  1.00 20.00     0.080 C 
HETATM    3  C5  UNL     1     -33.452  16.539  -2.939  1.00 20.00     0.016 C 
HETATM    4  C6  UNL     1     -35.716  15.442  -3.083  1.00 20.00     0.036 C 
HETATM    5  C7  UNL     1     -35.133  14.301  -3.911  1.00 20.00     0.152 C 
HETATM    6  C8  UNL     1     -34.662  16.040  -2.138  1.00 20.00     0.009 C 
HETATM    7  O9  UNL     1     -33.654  14.517  -5.824  1.00 20.00    -0.296 OA
HETATM    8 CL10 UNL     1     -36.338  13.723  -5.086  1.00 20.00    -0.117 Cl
ENDROOT
BRANCH   6   9
HETATM    9  C3  UNL     1     -35.243  17.153  -1.322  1.00 20.00    -0.032 C 
HETATM   10  C2  UNL     1     -35.345  17.130   0.011  1.00 20.00     0.007 C 
ENDBRANCH   6   9
TORSDOF 1
ENDMDL
MODEL 2
REMARK VINA RESULT:      -4.7     11.400     11.949
REMARK  1 active torsions:
REMARK  status: ('A' for Active; 'I' for Inactive)
REMARK    1  A    between atoms: C3_3  and  C8_8 
ROOT
HETATM    1  C1  UNL     1     -34.268   5.016   4.047  1.00 20.00     0.145 C 
HETATM    2  C4  UNL     1     -33.647   4.583   2.734  1.00 20.00     0.080 C 
HETATM    3  C5  UNL     1     -33.323   5.792   1.866  1.00 20.00     0.016 C 
HETATM    4  C6  UNL     1     -33.202   7.276   3.899  1.00 20.00     0.036 C 
HETATM    5  C7  UNL     1     -33.510   6.090   4.808  1.00 20.00     0.152 C 
HETATM    6  C8  UNL     1     -32.476   6.825   2.621  1.00 20.00     0.009 C 
HETATM    7  O9  UNL     1     -35.266   4.445   4.486  1.00 20.00    -0.296 OA
HETATM    8 CL10 UNL     1     -34.466   6.629   6.209  1.00 20.00    -0.117 Cl
ENDROOT
BRANCH   6   9
HETATM    9  C3  UNL     1     -32.169   7.995   1.738  1.00 20.00    -0.032 C 
HETATM   10  C2  UNL     1     -32.910   8.351   0.683  1.00 20.00     0.007 C 
ENDBRANCH   6   9
TORSDOF 1
ENDMDL
MODEL 3
REMARK VINA RESULT:      -4.3      1.605      1.975
REMARK  1 active torsions:
REMARK  status: ('A' for Active; 'I' for Inactive)
REMARK    1  A    between atoms: C3_3  and  C8_8 
ROOT
HETATM    1  C1  UNL     1     -35.641  14.598  -5.484  1.00 20.00     0.145 C 
HETATM    2  C4  UNL     1     -34.137  14.773  -5.436  1.00 20.00     0.080 C 
HETATM    3  C5  UNL     1     -33.751  15.845  -4.425  1.00 20.00     0.016 C 
HETATM    4  C6  UNL     1     -35.901  15.491  -3.160  1.00 20.00     0.036 C 
HETATM    5  C7  UNL     1     -36.322  14.400  -4.141  1.00 20.00     0.152 C 
HETATM    6  C8  UNL     1     -34.371  15.578  -3.047  1.00 20.00     0.009 C 
HETATM    7  O9  UNL     1     -36.228  14.526  -6.563  1.00 20.00    -0.296 OA
HETATM    8 CL10 UNL     1     -38.089  14.417  -4.349  1.00 20.00    -0.117 Cl
ENDROOT
BRANCH   6   9
HETATM    9  C3  UNL     1     -33.965  16.644  -2.076  1.00 20.00    -0.032 C 
HETATM   10  C2  UNL     1     -32.889  17.424  -2.228  1.00 20.00     0.007 C 
ENDBRANCH   6   9
TORSDOF 1
ENDMDL
MODEL 4
REMARK VINA RESULT:      -4.3      3.054      4.159
REMARK  1 active torsions:
REMARK  status: ('A' for Active; 'I' for Inactive)
REMARK    1  A    between atoms: C3_3  and  C8_8 
ROOT
HETATM    1  C1  UNL     1     -33.478  17.652  -1.433  1.00 20.00     0.145 C 
HETATM    2  C4  UNL     1     -32.820  17.501  -2.789  1.00 20.00     0.080 C 
HETATM    3  C5  UNL     1     -33.052  16.105  -3.350  1.00 20.00     0.016 C 
HETATM    4  C6  UNL     1     -35.123  15.835  -1.940  1.00 20.00     0.036 C 
HETATM    5  C7  UNL     1     -34.937  17.235  -1.362  1.00 20.00     0.152 C 
HETATM    6  C8  UNL     1     -34.542  15.735  -3.359  1.00 20.00     0.009 C 
HETATM    7  O9  UNL     1     -32.872  18.174  -0.498  1.00 20.00    -0.296 OA
HETATM    8 CL10 UNL     1     -35.498  17.277   0.326  1.00 20.00    -0.117 Cl
ENDROOT
BRANCH   6   9
HETATM    9  C3  UNL     1     -34.736  14.362  -3.923  1.00 20.00    -0.032 C 
HETATM   10  C2  UNL     1     -35.905  13.899  -4.380  1.00 20.00     0.007 C 
ENDBRANCH   6   9
TORSDOF 1
ENDMDL
MODEL 5
REMARK VINA RESULT:      -4.3      1.933      2.588
REMARK  1 active torsions:
REMARK  status: ('A' for Active; 'I' for Inactive)
REMARK    1  A    between atoms: C3_3  and  C8_8 
ROOT
HETATM    1  C1  UNL     1     -34.682  14.480  -3.776  1.00 20.00     0.145 C 
HETATM    2  C4  UNL     1     -35.820  15.315  -3.227  1.00 20.00     0.080 C 
HETATM    3  C5  UNL     1     -35.337  16.206  -2.090  1.00 20.00     0.016 C 
HETATM    4  C6  UNL     1     -32.978  16.128  -2.972  1.00 20.00     0.036 C 
HETATM    5  C7  UNL     1     -33.421  15.245  -4.136  1.00 20.00     0.152 C 
HETATM    6  C8  UNL     1     -34.118  17.043  -2.502  1.00 20.00     0.009 C 
HETATM    7  O9  UNL     1     -34.837  13.279  -3.996  1.00 20.00    -0.296 OA
HETATM    8 CL10 UNL     1     -32.122  14.106  -4.565  1.00 20.00    -0.117 Cl
ENDROOT
BRANCH   6   9
HETATM    9  C3  UNL     1     -33.675  17.913  -1.366  1.00 20.00    -0.032 C 
HETATM   10  C2  UNL     1     -32.396  18.196  -1.096  1.00 20.00     0.007 C 
ENDBRANCH   6   9
TORSDOF 1
ENDMDL
MODEL 6
REMARK VINA RESULT:      -4.2      0.965      1.008
REMARK  1 active torsions:
REMARK  status: ('A' for Active; 'I' for Inactive)
REMARK    1  A    between atoms: C3_3  and  C8_8 
ROOT
HETATM    1  C1  UNL     1     -34.207  15.064  -5.167  1.00 20.00     0.145 C 
HETATM    2  C4  UNL     1     -33.113  14.993  -4.122  1.00 20.00     0.080 C 
HETATM    3  C5  UNL     1     -33.367  15.998  -3.006  1.00 20.00     0.016 C 
HETATM    4  C6  UNL     1     -35.834  16.010  -3.517  1.00 20.00     0.036 C 
HETATM    5  C7  UNL     1     -35.628  14.992  -4.636  1.00 20.00     0.152 C 
HETATM    6  C8  UNL     1     -34.776  15.849  -2.415  1.00 20.00     0.009 C 
HETATM    7  O9  UNL     1     -33.928  15.078  -6.366  1.00 20.00    -0.296 OA
HETATM    8 CL10 UNL     1     -36.785  15.294  -5.954  1.00 20.00    -0.117 Cl
ENDROOT
BRANCH   6   9
HETATM    9  C3  UNL     1     -34.989  16.844  -1.317  1.00 20.00    -0.032 C 
HETATM   10  C2  UNL     1     -34.062  17.716  -0.906  1.00 20.00     0.007 C 
ENDBRANCH   6   9
TORSDOF 1
ENDMDL
MODEL 7
REMARK VINA RESULT:      -4.1      1.946      2.716
REMARK  1 active torsions:
REMARK  status: ('A' for Active; 'I' for Inactive)
REMARK    1  A    between atoms: C3_3  and  C8_8 
ROOT
HETATM    1  C1  UNL     1     -36.013  14.547  -5.748  1.00 20.00     0.145 C 
HETATM    2  C4  UNL     1     -35.896  13.689  -4.505  1.00 20.00     0.080 C 
HETATM    3  C5  UNL     1     -34.896  14.289  -3.526  1.00 20.00     0.016 C 
HETATM    4  C6  UNL     1     -35.240  16.582  -4.513  1.00 20.00     0.036 C 
HETATM    5  C7  UNL     1     -36.259  16.025  -5.504  1.00 20.00     0.152 C 
HETATM    6  C8  UNL     1     -35.215  15.759  -3.217  1.00 20.00     0.009 C 
HETATM    7  O9  UNL     1     -36.004  14.033  -6.867  1.00 20.00    -0.296 OA
HETATM    8 CL10 UNL     1     -36.166  16.918  -7.040  1.00 20.00    -0.117 Cl
ENDROOT
BRANCH   6   9
HETATM    9  C3  UNL     1     -34.219  16.315  -2.246  1.00 20.00    -0.032 C 
HETATM   10  C2  UNL     1     -33.072  16.901  -2.605  1.00 20.00     0.007 C 
ENDBRANCH   6   9
TORSDOF 1
ENDMDL
MODEL 8
REMARK VINA RESULT:      -4.0      4.525      5.503
REMARK  1 active torsions:
REMARK  status: ('A' for Active; 'I' for Inactive)
REMARK    1  A    between atoms: C3_3  and  C8_8 
ROOT
HETATM    1  C1  UNL     1     -31.543  18.589  -0.074  1.00 20.00     0.145 C 
HETATM    2  C4  UNL     1     -31.847  18.587  -1.558  1.00 20.00     0.080 C 
HETATM    3  C5  UNL     1     -32.933  17.571  -1.886  1.00 20.00     0.016 C 
HETATM    4  C6  UNL     1     -33.811  17.684   0.474  1.00 20.00     0.036 C 
HETATM    5  C7  UNL     1     -32.747  18.714   0.842  1.00 20.00     0.152 C 
HETATM    6  C8  UNL     1     -34.181  17.772  -1.015  1.00 20.00     0.009 C 
HETATM    7  O9  UNL     1     -30.379  18.588   0.326  1.00 20.00    -0.296 OA
HETATM    8 CL10 UNL     1     -32.247  18.494   2.535  1.00 20.00    -0.117 Cl
ENDROOT
BRANCH   6   9
HETATM    9  C3  UNL     1     -35.232  16.765  -1.367  1.00 20.00    -0.032 C 
HETATM   10  C2  UNL     1     -35.088  15.836  -2.320  1.00 20.00     0.007 C 
ENDBRANCH   6   9
TORSDOF 1
ENDMDL
MODEL 9
REMARK VINA RESULT:      -4.0      3.257      4.668
REMARK  1 active torsions:
REMARK  status: ('A' for Active; 'I' for Inactive)
REMARK    1  A    between atoms: C3_3  and  C8_8 
ROOT
HETATM    1  C1  UNL     1     -34.394  17.608  -1.481  1.00 20.00     0.145 C 
HETATM    2  C4  UNL     1     -35.186  16.317  -1.501  1.00 20.00     0.080 C 
HETATM    3  C5  UNL     1     -35.100  15.651  -2.868  1.00 20.00     0.016 C 
HETATM    4  C6  UNL     1     -32.927  16.831  -3.354  1.00 20.00     0.036 C 
HETATM    5  C7  UNL     1     -32.966  17.510  -1.987  1.00 20.00     0.152 C 
HETATM    6  C8  UNL     1     -33.645  15.473  -3.324  1.00 20.00     0.009 C 
HETATM    7  O9  UNL     1     -34.874  18.629  -0.988  1.00 20.00    -0.296 OA
HETATM    8 CL10 UNL     1     -32.246  19.133  -2.093  1.00 20.00    -0.117 Cl
ENDROOT
BRANCH   6   9
HETATM    9  C3  UNL     1     -33.595  14.810  -4.665  1.00 20.00    -0.032 C 
HETATM   10  C2  UNL     1     -34.469  15.046  -5.650  1.00 20.00     0.007 C 
ENDBRANCH   6   9
TORSDOF 1
ENDMDL
