MODEL 1
REMARK VINA RESULT:      -5.0      0.000      0.000
REMARK  1 active torsions:
REMARK  status: ('A' for Active; 'I' for Inactive)
REMARK    1  A    between atoms: C5_5  and  C10_10 
ROOT
HETATM    1  C1  UNL     1     -34.510  14.071  -4.312  1.00 20.00     0.166 C 
HETATM    2  C2  UNL     1     -33.315  14.986  -4.159  1.00 20.00     0.086 C 
HETATM    3  C3  UNL     1     -34.899  16.967  -4.574  1.00 20.00     0.009 C 
HETATM    4  C4  UNL     1     -35.418  15.998  -5.632  1.00 20.00     0.052 C 
HETATM    5  C5  UNL     1     -33.722  16.406  -3.752  1.00 20.00    -0.004 C 
HETATM    6  C6  UNL     1     -35.717  14.611  -5.064  1.00 20.00     0.159 C 
HETATM    7  C7  UNL     1     -36.942  14.599  -4.157  1.00 20.00     0.060 C 
HETATM    8  O11 UNL     1     -34.478  12.910  -3.902  1.00 20.00    -0.294 OA
HETATM    9  F12 UNL     1     -35.996  13.792  -6.123  1.00 20.00    -0.235 F 
ENDROOT
BRANCH   5  10
HETATM   10  C10 UNL     1     -34.013  16.486  -2.250  1.00 20.00    -0.018 C 
HETATM   11  C8  UNL     1     -33.100  17.509  -1.578  1.00 20.00     0.010 C 
HETATM   12  C9  UNL     1     -35.480  16.834  -2.005  1.00 20.00     0.010 C 
ENDBRANCH   5  10
TORSDOF 1
ENDMDL
MODEL 2
REMARK VINA RESULT:      -4.8      1.450      1.775
REMARK  1 active torsions:
REMARK  status: ('A' for Active; 'I' for Inactive)
REMARK    1  A    between atoms: C5_5  and  C10_10 
ROOT
HETATM    1  C1  UNL     1     -36.213  14.197  -4.657  1.00 20.00     0.166 C 
HETATM    2  C2  UNL     1     -35.203  14.214  -3.530  1.00 20.00     0.086 C 
HETATM    3  C3  UNL     1     -34.151  16.283  -4.632  1.00 20.00     0.009 C 
HETATM    4  C4  UNL     1     -34.404  15.432  -5.874  1.00 20.00     0.052 C 
HETATM    5  C5  UNL     1     -34.594  15.604  -3.321  1.00 20.00    -0.004 C 
HETATM    6  C6  UNL     1     -35.838  14.910  -5.947  1.00 20.00     0.159 C 
HETATM    7  C7  UNL     1     -36.850  16.011  -6.244  1.00 20.00     0.060 C 
HETATM    8  O11 UNL     1     -37.268  13.569  -4.556  1.00 20.00    -0.294 OA
HETATM    9  F12 UNL     1     -35.893  14.025  -6.988  1.00 20.00    -0.235 F 
ENDROOT
BRANCH   5  10
HETATM   10  C10 UNL     1     -35.541  16.508  -2.527  1.00 20.00    -0.018 C 
HETATM   11  C8  UNL     1     -35.010  16.735  -1.114  1.00 20.00     0.010 C 
HETATM   12  C9  UNL     1     -35.741  17.840  -3.246  1.00 20.00     0.010 C 
ENDBRANCH   5  10
TORSDOF 1
ENDMDL
MODEL 3
REMARK VINA RESULT:      -4.7      1.670      2.509
REMARK  1 active torsions:
REMARK  status: ('A' for Active; 'I' for Inactive)
REMARK    1  A    between atoms: C5_5  and  C10_10 
ROOT
HETATM    1  C1  UNL     1     -36.034  15.638  -4.842  1.00 20.00     0.166 C 
HETATM    2  C2  UNL     1     -35.787  15.032  -3.478  1.00 20.00     0.086 C 
HETATM    3  C3  UNL     1     -33.270  15.289  -3.925  1.00 20.00     0.009 C 
HETATM    4  C4  UNL     1     -33.723  14.782  -5.292  1.00 20.00     0.052 C 
HETATM    5  C5  UNL     1     -34.420  15.426  -2.909  1.00 20.00    -0.004 C 
HETATM    6  C6  UNL     1     -34.900  15.578  -5.854  1.00 20.00     0.159 C 
HETATM    7  C7  UNL     1     -34.508  16.988  -6.278  1.00 20.00     0.060 C 
HETATM    8  O11 UNL     1     -37.137  16.099  -5.143  1.00 20.00    -0.294 OA
HETATM    9  F12 UNL     1     -35.328  14.926  -6.978  1.00 20.00    -0.235 F 
ENDROOT
BRANCH   5  10
HETATM   10  C10 UNL     1     -34.459  16.835  -2.309  1.00 20.00    -0.018 C 
HETATM   11  C8  UNL     1     -35.202  16.833  -0.976  1.00 20.00     0.010 C 
HETATM   12  C9  UNL     1     -33.044  17.383  -2.135  1.00 20.00     0.010 C 
ENDBRANCH   5  10
TORSDOF 1
ENDMDL
MODEL 4
REMARK VINA RESULT:      -4.5      1.342      1.514
REMARK  1 active torsions:
REMARK  status: ('A' for Active; 'I' for Inactive)
REMARK    1  A    between atoms: C5_5  and  C10_10 
ROOT
HETATM    1  C1  UNL     1     -34.467  15.168  -5.443  1.00 20.00     0.166 C 
HETATM    2  C2  UNL     1     -34.293  16.600  -4.987  1.00 20.00     0.086 C 
HETATM    3  C3  UNL     1     -36.565  16.399  -3.803  1.00 20.00     0.009 C 
HETATM    4  C4  UNL     1     -36.895  15.691  -5.115  1.00 20.00     0.052 C 
HETATM    5  C5  UNL     1     -35.113  16.910  -3.730  1.00 20.00    -0.004 C 
HETATM    6  C6  UNL     1     -35.880  14.606  -5.470  1.00 20.00     0.159 C 
HETATM    7  C7  UNL     1     -35.973  13.392  -4.553  1.00 20.00     0.060 C 
HETATM    8  O11 UNL     1     -33.508  14.507  -5.844  1.00 20.00    -0.294 OA
HETATM    9  F12 UNL     1     -36.174  14.176  -6.734  1.00 20.00    -0.235 F 
ENDROOT
BRANCH   5  10
HETATM   10  C10 UNL     1     -34.410  16.392  -2.471  1.00 20.00    -0.018 C 
HETATM   11  C8  UNL     1     -33.007  16.981  -2.357  1.00 20.00     0.010 C 
HETATM   12  C9  UNL     1     -35.232  16.716  -1.226  1.00 20.00     0.010 C 
ENDBRANCH   5  10
TORSDOF 1
ENDMDL
MODEL 5
REMARK VINA RESULT:      -4.4      2.261      3.984
REMARK  1 active torsions:
REMARK  status: ('A' for Active; 'I' for Inactive)
REMARK    1  A    between atoms: C5_5  and  C10_10 
ROOT
HETATM    1  C1  UNL     1     -34.490  16.428  -4.775  1.00 20.00     0.166 C 
HETATM    2  C2  UNL     1     -35.310  15.834  -5.899  1.00 20.00     0.086 C 
HETATM    3  C3  UNL     1     -35.960  13.935  -4.293  1.00 20.00     0.009 C 
HETATM    4  C4  UNL     1     -34.476  14.060  -3.956  1.00 20.00     0.052 C 
HETATM    5  C5  UNL     1     -36.428  14.923  -5.380  1.00 20.00    -0.004 C 
HETATM    6  C6  UNL     1     -34.061  15.498  -3.650  1.00 20.00     0.159 C 
HETATM    7  C7  UNL     1     -34.614  15.999  -2.322  1.00 20.00     0.060 C 
HETATM    8  O11 UNL     1     -34.125  17.604  -4.807  1.00 20.00    -0.294 OA
HETATM    9  F12 UNL     1     -32.697  15.511  -3.546  1.00 20.00    -0.235 F 
ENDROOT
BRANCH   5  10
HETATM   10  C10 UNL     1     -37.628  15.743  -4.897  1.00 20.00    -0.018 C 
HETATM   11  C8  UNL     1     -38.236  16.538  -6.049  1.00 20.00     0.010 C 
HETATM   12  C9  UNL     1     -38.677  14.835  -4.258  1.00 20.00     0.010 C 
ENDBRANCH   5  10
TORSDOF 1
ENDMDL
MODEL 6
REMARK VINA RESULT:      -4.3      2.249      3.176
REMARK  1 active torsions:
REMARK  status: ('A' for Active; 'I' for Inactive)
REMARK    1  A    between atoms: C5_5  and  C10_10 
ROOT
HETATM    1  C1  UNL     1     -36.638  16.777  -3.700  1.00 20.00     0.166 C 
HETATM    2  C2  UNL     1     -35.776  16.159  -2.621  1.00 20.00     0.086 C 
HETATM    3  C3  UNL     1     -35.531  14.095  -4.132  1.00 20.00     0.009 C 
HETATM    4  C4  UNL     1     -37.018  14.382  -4.328  1.00 20.00     0.052 C 
HETATM    5  C5  UNL     1     -34.836  15.084  -3.177  1.00 20.00    -0.004 C 
HETATM    6  C6  UNL     1     -37.292  15.838  -4.701  1.00 20.00     0.159 C 
HETATM    7  C7  UNL     1     -36.830  16.180  -6.113  1.00 20.00     0.060 C 
HETATM    8  O11 UNL     1     -36.856  17.990  -3.722  1.00 20.00    -0.294 OA
HETATM    9  F12 UNL     1     -38.648  16.015  -4.670  1.00 20.00    -0.235 F 
ENDROOT
BRANCH   5  10
HETATM   10  C10 UNL     1     -33.607  15.715  -3.838  1.00 20.00    -0.018 C 
HETATM   11  C8  UNL     1     -32.907  16.669  -2.874  1.00 20.00     0.010 C 
HETATM   12  C9  UNL     1     -32.642  14.634  -4.320  1.00 20.00     0.010 C 
ENDBRANCH   5  10
TORSDOF 1
ENDMDL
MODEL 7
REMARK VINA RESULT:      -4.3      1.895      2.760
REMARK  1 active torsions:
REMARK  status: ('A' for Active; 'I' for Inactive)
REMARK    1  A    between atoms: C5_5  and  C10_10 
ROOT
HETATM    1  C1  UNL     1     -37.130  14.725  -4.905  1.00 20.00     0.166 C 
HETATM    2  C2  UNL     1     -35.891  14.333  -5.679  1.00 20.00     0.086 C 
HETATM    3  C3  UNL     1     -35.099  16.768  -5.458  1.00 20.00     0.009 C 
HETATM    4  C4  UNL     1     -36.572  17.005  -5.781  1.00 20.00     0.052 C 
HETATM    5  C5  UNL     1     -34.715  15.276  -5.403  1.00 20.00    -0.004 C 
HETATM    6  C6  UNL     1     -37.509  16.198  -4.883  1.00 20.00     0.159 C 
HETATM    7  C7  UNL     1     -37.530  16.707  -3.447  1.00 20.00     0.060 C 
HETATM    8  O11 UNL     1     -37.844  13.873  -4.373  1.00 20.00    -0.294 OA
HETATM    9  F12 UNL     1     -38.774  16.349  -5.380  1.00 20.00    -0.235 F 
ENDROOT
BRANCH   5  10
HETATM   10  C10 UNL     1     -34.032  14.933  -4.076  1.00 20.00    -0.018 C 
HETATM   11  C8  UNL     1     -32.651  14.330  -4.321  1.00 20.00     0.010 C 
HETATM   12  C9  UNL     1     -33.928  16.172  -3.190  1.00 20.00     0.010 C 
ENDBRANCH   5  10
TORSDOF 1
ENDMDL
MODEL 8
REMARK VINA RESULT:      -4.3      2.984      4.320
REMARK  1 active torsions:
REMARK  status: ('A' for Active; 'I' for Inactive)
REMARK    1  A    between atoms: C5_5  and  C10_10 
ROOT
HETATM    1  C1  UNL     1     -33.190  17.488  -2.698  1.00 20.00     0.166 C 
HETATM    2  C2  UNL     1     -32.914  16.124  -3.292  1.00 20.00     0.086 C 
HETATM    3  C3  UNL     1     -35.393  15.564  -2.913  1.00 20.00     0.009 C 
HETATM    4  C4  UNL     1     -35.088  16.277  -1.599  1.00 20.00     0.052 C 
HETATM    5  C5  UNL     1     -34.180  15.475  -3.860  1.00 20.00    -0.004 C 
HETATM    6  C6  UNL     1     -34.414  17.633  -1.807  1.00 20.00     0.159 C 
HETATM    7  C7  UNL     1     -35.360  18.676  -2.390  1.00 20.00     0.060 C 
HETATM    8  O11 UNL     1     -32.412  18.427  -2.873  1.00 20.00    -0.294 OA
HETATM    9  F12 UNL     1     -34.029  18.086  -0.576  1.00 20.00    -0.235 F 
ENDROOT
BRANCH   5  10
HETATM   10  C10 UNL     1     -34.519  16.042  -5.242  1.00 20.00    -0.018 C 
HETATM   11  C8  UNL     1     -34.123  15.058  -6.340  1.00 20.00     0.010 C 
HETATM   12  C9  UNL     1     -36.005  16.380  -5.334  1.00 20.00     0.010 C 
ENDBRANCH   5  10
TORSDOF 1
ENDMDL
MODEL 9
REMARK VINA RESULT:      -4.3      2.268      3.780
REMARK  1 active torsions:
REMARK  status: ('A' for Active; 'I' for Inactive)
REMARK    1  A    between atoms: C5_5  and  C10_10 
ROOT
HETATM    1  C1  UNL     1     -33.754  15.886  -3.449  1.00 20.00     0.166 C 
HETATM    2  C2  UNL     1     -33.469  14.844  -4.509  1.00 20.00     0.086 C 
HETATM    3  C3  UNL     1     -35.991  14.788  -4.998  1.00 20.00     0.009 C 
HETATM    4  C4  UNL     1     -36.027  14.830  -3.473  1.00 20.00     0.052 C 
HETATM    5  C5  UNL     1     -34.564  14.793  -5.579  1.00 20.00    -0.004 C 
HETATM    6  C6  UNL     1     -35.169  15.955  -2.894  1.00 20.00     0.159 C 
HETATM    7  C7  UNL     1     -35.760  17.336  -3.150  1.00 20.00     0.060 C 
HETATM    8  O11 UNL     1     -32.857  16.603  -3.005  1.00 20.00    -0.294 OA
HETATM    9  F12 UNL     1     -35.134  15.780  -1.538  1.00 20.00    -0.235 F 
ENDROOT
BRANCH   5  10
HETATM   10  C10 UNL     1     -34.390  15.922  -6.600  1.00 20.00    -0.018 C 
HETATM   11  C8  UNL     1     -33.846  15.377  -7.918  1.00 20.00     0.010 C 
HETATM   12  C9  UNL     1     -35.713  16.650  -6.826  1.00 20.00     0.010 C 
ENDBRANCH   5  10
TORSDOF 1
ENDMDL
