MODEL 1
REMARK VINA RESULT:      -5.1      0.000      0.000
REMARK  0 active torsions:
REMARK  status: ('A' for Active; 'I' for Inactive)
ROOT
HETATM    1  C1  UNL     1     -38.326  16.536  -5.219  1.00 20.00    -0.004 C 
HETATM    2  C2  UNL     1     -37.132  17.338  -5.234  1.00 20.00    -0.003 C 
HETATM    3  C3  UNL     1     -38.360  15.358  -4.583  1.00 20.00    -0.025 C 
HETATM    4  C4  UNL     1     -35.956  16.857  -4.801  1.00 20.00    -0.009 C 
HETATM    5  C5  UNL     1     -35.199  14.661  -5.445  1.00 20.00     0.140 C 
HETATM    6  C6  UNL     1     -37.164  14.800  -3.860  1.00 20.00     0.048 C 
HETATM    7  C7  UNL     1     -33.721  14.808  -5.736  1.00 20.00     0.079 C 
HETATM    8  C8  UNL     1     -32.897  14.623  -4.479  1.00 20.00     0.008 C 
HETATM    9  C9  UNL     1     -33.341  15.589  -3.393  1.00 20.00     0.006 C 
HETATM   10  C10 UNL     1     -34.821  15.373  -3.025  1.00 20.00     0.001 C 
HETATM   11  C11 UNL     1     -35.789  15.449  -4.252  1.00 20.00     0.044 C 
HETATM   12  C12 UNL     1     -35.184  16.351  -1.894  1.00 20.00     0.011 C 
HETATM   13  O13 UNL     1     -35.909  14.021  -6.227  1.00 20.00    -0.297 OA
ENDROOT
TORSDOF 0
ENDMDL
MODEL 2
REMARK VINA RESULT:      -5.0      1.825      3.819
REMARK  0 active torsions:
REMARK  status: ('A' for Active; 'I' for Inactive)
ROOT
HETATM    1  C1  UNL     1     -33.013  17.729  -2.117  1.00 20.00    -0.004 C 
HETATM    2  C2  UNL     1     -34.048  16.947  -1.494  1.00 20.00    -0.003 C 
HETATM    3  C3  UNL     1     -32.992  17.920  -3.442  1.00 20.00    -0.025 C 
HETATM    4  C4  UNL     1     -34.903  16.210  -2.219  1.00 20.00    -0.009 C 
HETATM    5  C5  UNL     1     -34.125  14.823  -4.030  1.00 20.00     0.140 C 
HETATM    6  C6  UNL     1     -34.031  17.328  -4.355  1.00 20.00     0.048 C 
HETATM    7  C7  UNL     1     -34.906  13.530  -3.920  1.00 20.00     0.079 C 
HETATM    8  C8  UNL     1     -36.216  13.620  -4.673  1.00 20.00     0.008 C 
HETATM    9  C9  UNL     1     -37.040  14.803  -4.190  1.00 20.00     0.006 C 
HETATM   10  C10 UNL     1     -36.285  16.130  -4.394  1.00 20.00     0.001 C 
HETATM   11  C11 UNL     1     -34.865  16.149  -3.737  1.00 20.00     0.044 C 
HETATM   12  C12 UNL     1     -37.195  17.278  -3.926  1.00 20.00     0.011 C 
HETATM   13  O13 UNL     1     -32.907  14.778  -4.229  1.00 20.00    -0.297 OA
ENDROOT
TORSDOF 0
ENDMDL
MODEL 3
REMARK VINA RESULT:      -4.7      2.032      3.654
REMARK  0 active torsions:
REMARK  status: ('A' for Active; 'I' for Inactive)
ROOT
HETATM    1  C1  UNL     1     -33.926  17.504  -1.464  1.00 20.00    -0.004 C 
HETATM    2  C2  UNL     1     -33.070  17.649  -2.612  1.00 20.00    -0.003 C 
HETATM    3  C3  UNL     1     -34.909  16.595  -1.444  1.00 20.00    -0.025 C 
HETATM    4  C4  UNL     1     -33.345  17.040  -3.775  1.00 20.00    -0.009 C 
HETATM    5  C5  UNL     1     -35.573  17.062  -4.694  1.00 20.00     0.140 C 
HETATM    6  C6  UNL     1     -35.185  15.685  -2.611  1.00 20.00     0.048 C 
HETATM    7  C7  UNL     1     -35.399  17.292  -6.181  1.00 20.00     0.079 C 
HETATM    8  C8  UNL     1     -35.208  15.982  -6.915  1.00 20.00     0.008 C 
HETATM    9  C9  UNL     1     -34.037  15.203  -6.340  1.00 20.00     0.006 C 
HETATM   10  C10 UNL     1     -34.259  14.882  -4.850  1.00 20.00     0.001 C 
HETATM   11  C11 UNL     1     -34.557  16.144  -3.975  1.00 20.00     0.044 C 
HETATM   12  C12 UNL     1     -33.059  14.058  -4.351  1.00 20.00     0.011 C 
HETATM   13  O13 UNL     1     -36.435  17.699  -4.080  1.00 20.00    -0.297 OA
ENDROOT
TORSDOF 0
ENDMDL
MODEL 4
REMARK VINA RESULT:      -4.6      2.234      3.998
REMARK  0 active torsions:
REMARK  status: ('A' for Active; 'I' for Inactive)
ROOT
HETATM    1  C1  UNL     1     -33.150  18.793  -3.253  1.00 20.00    -0.004 C 
HETATM    2  C2  UNL     1     -33.619  18.322  -4.529  1.00 20.00    -0.003 C 
HETATM    3  C3  UNL     1     -33.184  18.007  -2.169  1.00 20.00    -0.025 C 
HETATM    4  C4  UNL     1     -34.295  17.169  -4.647  1.00 20.00    -0.009 C 
HETATM    5  C5  UNL     1     -36.077  16.612  -3.121  1.00 20.00     0.140 C 
HETATM    6  C6  UNL     1     -33.718  16.600  -2.214  1.00 20.00     0.048 C 
HETATM    7  C7  UNL     1     -37.170  16.005  -3.975  1.00 20.00     0.079 C 
HETATM    8  C8  UNL     1     -36.967  14.513  -4.138  1.00 20.00     0.008 C 
HETATM    9  C9  UNL     1     -35.592  14.212  -4.712  1.00 20.00     0.006 C 
HETATM   10  C10 UNL     1     -34.476  14.744  -3.793  1.00 20.00     0.001 C 
HETATM   11  C11 UNL     1     -34.609  16.267  -3.464  1.00 20.00     0.044 C 
HETATM   12  C12 UNL     1     -33.120  14.364  -4.413  1.00 20.00     0.011 C 
HETATM   13  O13 UNL     1     -36.374  17.450  -2.264  1.00 20.00    -0.297 OA
ENDROOT
TORSDOF 0
ENDMDL
MODEL 5
REMARK VINA RESULT:      -4.5      1.644      2.947
REMARK  0 active torsions:
REMARK  status: ('A' for Active; 'I' for Inactive)
ROOT
HETATM    1  C1  UNL     1     -38.659  15.378  -4.634  1.00 20.00    -0.004 C 
HETATM    2  C2  UNL     1     -37.724  14.388  -4.169  1.00 20.00    -0.003 C 
HETATM    3  C3  UNL     1     -38.240  16.564  -5.095  1.00 20.00    -0.025 C 
HETATM    4  C4  UNL     1     -36.428  14.680  -3.979  1.00 20.00    -0.009 C 
HETATM    5  C5  UNL     1     -35.762  16.700  -2.843  1.00 20.00     0.140 C 
HETATM    6  C6  UNL     1     -36.782  16.937  -5.145  1.00 20.00     0.048 C 
HETATM    7  C7  UNL     1     -34.616  16.301  -1.938  1.00 20.00     0.079 C 
HETATM    8  C8  UNL     1     -33.292  16.383  -2.668  1.00 20.00     0.008 C 
HETATM    9  C9  UNL     1     -33.315  15.537  -3.930  1.00 20.00     0.006 C 
HETATM   10  C10 UNL     1     -34.418  16.007  -4.897  1.00 20.00     0.001 C 
HETATM   11  C11 UNL     1     -35.840  16.056  -4.248  1.00 20.00     0.044 C 
HETATM   12  C12 UNL     1     -34.350  15.137  -6.164  1.00 20.00     0.011 C 
HETATM   13  O13 UNL     1     -36.658  17.425  -2.401  1.00 20.00    -0.297 OA
ENDROOT
TORSDOF 0
ENDMDL
MODEL 6
REMARK VINA RESULT:      -4.5      1.645      2.986
REMARK  0 active torsions:
REMARK  status: ('A' for Active; 'I' for Inactive)
ROOT
HETATM    1  C1  UNL     1     -34.629  15.824  -7.887  1.00 20.00    -0.004 C 
HETATM    2  C2  UNL     1     -34.411  16.992  -7.075  1.00 20.00    -0.003 C 
HETATM    3  C3  UNL     1     -35.339  14.785  -7.431  1.00 20.00    -0.025 C 
HETATM    4  C4  UNL     1     -34.723  17.007  -5.770  1.00 20.00    -0.009 C 
HETATM    5  C5  UNL     1     -34.132  15.167  -4.329  1.00 20.00     0.140 C 
HETATM    6  C6  UNL     1     -35.940  14.767  -6.051  1.00 20.00     0.048 C 
HETATM    7  C7  UNL     1     -33.648  15.797  -3.040  1.00 20.00     0.079 C 
HETATM    8  C8  UNL     1     -34.801  16.050  -2.091  1.00 20.00     0.008 C 
HETATM    9  C9  UNL     1     -35.869  16.906  -2.753  1.00 20.00     0.006 C 
HETATM   10  C10 UNL     1     -36.434  16.219  -4.011  1.00 20.00     0.001 C 
HETATM   11  C11 UNL     1     -35.337  15.817  -5.050  1.00 20.00     0.044 C 
HETATM   12  C12 UNL     1     -37.536  17.119  -4.596  1.00 20.00     0.011 C 
HETATM   13  O13 UNL     1     -33.489  14.239  -4.827  1.00 20.00    -0.297 OA
ENDROOT
TORSDOF 0
ENDMDL
MODEL 7
REMARK VINA RESULT:      -4.5      0.952      4.001
REMARK  0 active torsions:
REMARK  status: ('A' for Active; 'I' for Inactive)
ROOT
HETATM    1  C1  UNL     1     -33.577  14.907  -3.816  1.00 20.00    -0.004 C 
HETATM    2  C2  UNL     1     -34.485  15.565  -2.914  1.00 20.00    -0.003 C 
HETATM    3  C3  UNL     1     -33.810  14.877  -5.134  1.00 20.00    -0.025 C 
HETATM    4  C4  UNL     1     -35.692  15.988  -3.318  1.00 20.00    -0.009 C 
HETATM    5  C5  UNL     1     -37.115  14.585  -4.666  1.00 20.00     0.140 C 
HETATM    6  C6  UNL     1     -35.028  15.514  -5.749  1.00 20.00     0.048 C 
HETATM    7  C7  UNL     1     -38.512  14.767  -4.112  1.00 20.00     0.079 C 
HETATM    8  C8  UNL     1     -39.207  15.942  -4.766  1.00 20.00     0.008 C 
HETATM    9  C9  UNL     1     -38.386  17.212  -4.612  1.00 20.00     0.006 C 
HETATM   10  C10 UNL     1     -36.999  17.062  -5.264  1.00 20.00     0.001 C 
HETATM   11  C11 UNL     1     -36.194  15.825  -4.744  1.00 20.00     0.044 C 
HETATM   12  C12 UNL     1     -36.247  18.395  -5.109  1.00 20.00     0.011 C 
HETATM   13  O13 UNL     1     -36.710  13.447  -4.925  1.00 20.00    -0.297 OA
ENDROOT
TORSDOF 0
ENDMDL
MODEL 8
REMARK VINA RESULT:      -4.5      2.462      3.880
REMARK  0 active torsions:
REMARK  status: ('A' for Active; 'I' for Inactive)
ROOT
HETATM    1  C1  UNL     1     -35.293  13.960  -4.012  1.00 20.00    -0.004 C 
HETATM    2  C2  UNL     1     -33.922  14.375  -4.150  1.00 20.00    -0.003 C 
HETATM    3  C3  UNL     1     -36.278  14.857  -3.879  1.00 20.00    -0.025 C 
HETATM    4  C4  UNL     1     -33.549  15.647  -3.944  1.00 20.00    -0.009 C 
HETATM    5  C5  UNL     1     -34.350  16.883  -2.035  1.00 20.00     0.140 C 
HETATM    6  C6  UNL     1     -36.017  16.339  -3.856  1.00 20.00     0.048 C 
HETATM    7  C7  UNL     1     -33.157  17.661  -1.522  1.00 20.00     0.079 C 
HETATM    8  C8  UNL     1     -33.037  18.998  -2.222  1.00 20.00     0.008 C 
HETATM    9  C9  UNL     1     -32.967  18.816  -3.730  1.00 20.00     0.006 C 
HETATM   10  C10 UNL     1     -34.228  18.113  -4.266  1.00 20.00     0.001 C 
HETATM   11  C11 UNL     1     -34.529  16.747  -3.565  1.00 20.00     0.044 C 
HETATM   12  C12 UNL     1     -34.106  18.006  -5.796  1.00 20.00     0.011 C 
HETATM   13  O13 UNL     1     -35.072  16.284  -1.232  1.00 20.00    -0.297 OA
ENDROOT
TORSDOF 0
ENDMDL
MODEL 9
REMARK VINA RESULT:      -4.5      1.706      3.440
REMARK  0 active torsions:
REMARK  status: ('A' for Active; 'I' for Inactive)
ROOT
HETATM    1  C1  UNL     1     -35.082  16.414  -1.867  1.00 20.00    -0.004 C 
HETATM    2  C2  UNL     1     -36.184  16.702  -2.746  1.00 20.00    -0.003 C 
HETATM    3  C3  UNL     1     -33.836  16.276  -2.340  1.00 20.00    -0.025 C 
HETATM    4  C4  UNL     1     -36.054  16.637  -4.080  1.00 20.00    -0.009 C 
HETATM    5  C5  UNL     1     -34.931  14.781  -5.131  1.00 20.00     0.140 C 
HETATM    6  C6  UNL     1     -33.515  16.402  -3.805  1.00 20.00     0.048 C 
HETATM    7  C7  UNL     1     -35.761  14.439  -6.350  1.00 20.00     0.079 C 
HETATM    8  C8  UNL     1     -35.332  15.259  -7.549  1.00 20.00     0.008 C 
HETATM    9  C9  UNL     1     -35.397  16.746  -7.240  1.00 20.00     0.006 C 
HETATM   10  C10 UNL     1     -34.475  17.112  -6.061  1.00 20.00     0.001 C 
HETATM   11  C11 UNL     1     -34.749  16.274  -4.769  1.00 20.00     0.044 C 
HETATM   12  C12 UNL     1     -34.560  18.632  -5.838  1.00 20.00     0.011 C 
HETATM   13  O13 UNL     1     -34.528  13.872  -4.399  1.00 20.00    -0.297 OA
ENDROOT
TORSDOF 0
ENDMDL
