MODEL 1
REMARK VINA RESULT:      -4.0      0.000      0.000
REMARK  1 active torsions:
REMARK  status: ('A' for Active; 'I' for Inactive)
REMARK    1  A    between atoms: C6_6  and  C9_9 
ROOT
HETATM    1  C1  UNL     1     -36.440  16.598  -5.289  1.00 20.00     0.302 C 
HETATM    2  C2  UNL     1     -34.974  17.054  -5.349  1.00 20.00     0.303 C 
HETATM    3  C3  UNL     1     -35.822  14.488  -6.222  1.00 20.00     0.307 C 
HETATM    4  C4  UNL     1     -35.826  14.804  -3.836  1.00 20.00     0.308 C 
HETATM    5  C5  UNL     1     -34.334  14.908  -6.265  1.00 20.00     0.247 C 
HETATM    6  C6  UNL     1     -34.338  15.223  -3.900  1.00 20.00     0.251 C 
HETATM    7  C7  UNL     1     -33.912  15.390  -7.655  1.00 20.00     0.045 C 
HETATM    8  N10 UNL     1     -36.531  15.135  -5.095  1.00 20.00     0.094 N 
HETATM    9  N11 UNL     1     -34.049  15.906  -5.194  1.00 20.00     0.102 N 
ENDROOT
BRANCH   6  10
HETATM   10  C9  UNL     1     -33.921  16.054  -2.683  1.00 20.00     0.033 C 
HETATM   11  C8  UNL     1     -35.063  16.264  -1.746  1.00 20.00     0.007 C 
ENDBRANCH   6  10
TORSDOF 1
ENDMDL
MODEL 2
REMARK VINA RESULT:      -3.8      1.844      3.567
REMARK  1 active torsions:
REMARK  status: ('A' for Active; 'I' for Inactive)
REMARK    1  A    between atoms: C6_6  and  C9_9 
ROOT
HETATM    1  C1  UNL     1     -35.991  17.190  -2.879  1.00 20.00     0.302 C 
HETATM    2  C2  UNL     1     -35.145  16.244  -2.013  1.00 20.00     0.303 C 
HETATM    3  C3  UNL     1     -34.000  18.099  -3.835  1.00 20.00     0.307 C 
HETATM    4  C4  UNL     1     -35.079  16.204  -4.855  1.00 20.00     0.308 C 
HETATM    5  C5  UNL     1     -33.124  17.136  -3.000  1.00 20.00     0.247 C 
HETATM    6  C6  UNL     1     -34.194  15.258  -4.009  1.00 20.00     0.251 C 
HETATM    7  C7  UNL     1     -32.558  17.811  -1.748  1.00 20.00     0.045 C 
HETATM    8  N10 UNL     1     -35.311  17.489  -4.157  1.00 20.00     0.094 N 
HETATM    9  N11 UNL     1     -33.877  15.886  -2.694  1.00 20.00     0.102 N 
ENDROOT
BRANCH   6  10
HETATM   10  C9  UNL     1     -34.812  13.864  -3.869  1.00 20.00     0.033 C 
HETATM   11  C8  UNL     1     -36.129  13.776  -4.565  1.00 20.00     0.007 C 
ENDBRANCH   6  10
TORSDOF 1
ENDMDL
MODEL 3
REMARK VINA RESULT:      -3.8      1.336      1.763
REMARK  1 active torsions:
REMARK  status: ('A' for Active; 'I' for Inactive)
REMARK    1  A    between atoms: C6_6  and  C9_9 
ROOT
HETATM    1  C1  UNL     1     -37.278  14.481  -4.312  1.00 20.00     0.302 C 
HETATM    2  C2  UNL     1     -37.011  15.982  -4.124  1.00 20.00     0.303 C 
HETATM    3  C3  UNL     1     -35.812  14.455  -6.197  1.00 20.00     0.307 C 
HETATM    4  C4  UNL     1     -34.956  14.024  -3.989  1.00 20.00     0.308 C 
HETATM    5  C5  UNL     1     -35.499  15.958  -6.013  1.00 20.00     0.247 C 
HETATM    6  C6  UNL     1     -34.653  15.531  -3.823  1.00 20.00     0.251 C 
HETATM    7  C7  UNL     1     -36.324  16.838  -6.955  1.00 20.00     0.045 C 
HETATM    8  N10 UNL     1     -36.103  13.804  -4.899  1.00 20.00     0.094 N 
HETATM    9  N11 UNL     1     -35.648  16.344  -4.579  1.00 20.00     0.102 N 
ENDROOT
BRANCH   6  10
HETATM   10  C9  UNL     1     -34.548  15.939  -2.351  1.00 20.00     0.033 C 
HETATM   11  C8  UNL     1     -33.507  16.988  -2.146  1.00 20.00     0.007 C 
ENDBRANCH   6  10
TORSDOF 1
ENDMDL
MODEL 4
REMARK VINA RESULT:      -3.8      1.180      1.443
REMARK  1 active torsions:
REMARK  status: ('A' for Active; 'I' for Inactive)
REMARK    1  A    between atoms: C6_6  and  C9_9 
ROOT
HETATM    1  C1  UNL     1     -36.111  16.831  -4.186  1.00 20.00     0.302 C 
HETATM    2  C2  UNL     1     -34.769  17.302  -4.766  1.00 20.00     0.303 C 
HETATM    3  C3  UNL     1     -35.468  14.558  -4.540  1.00 20.00     0.307 C 
HETATM    4  C4  UNL     1     -34.956  15.652  -2.458  1.00 20.00     0.308 C 
HETATM    5  C5  UNL     1     -34.096  15.002  -5.098  1.00 20.00     0.247 C 
HETATM    6  C6  UNL     1     -33.588  16.088  -3.036  1.00 20.00     0.251 C 
HETATM    7  C7  UNL     1     -34.071  15.009  -6.629  1.00 20.00     0.045 C 
HETATM    8  N10 UNL     1     -35.971  15.514  -3.527  1.00 20.00     0.094 N 
HETATM    9  N11 UNL     1     -33.697  16.311  -4.506  1.00 20.00     0.102 N 
ENDROOT
BRANCH   6  10
HETATM   10  C9  UNL     1     -33.008  17.295  -2.293  1.00 20.00     0.033 C 
HETATM   11  C8  UNL     1     -33.858  17.682  -1.129  1.00 20.00     0.007 C 
ENDBRANCH   6  10
TORSDOF 1
ENDMDL
MODEL 5
REMARK VINA RESULT:      -3.7      1.489      3.047
REMARK  1 active torsions:
REMARK  status: ('A' for Active; 'I' for Inactive)
REMARK    1  A    between atoms: C6_6  and  C9_9 
ROOT
HETATM    1  C1  UNL     1     -35.830  14.447  -5.990  1.00 20.00     0.302 C 
HETATM    2  C2  UNL     1     -36.174  13.913  -4.592  1.00 20.00     0.303 C 
HETATM    3  C3  UNL     1     -37.453  16.179  -5.730  1.00 20.00     0.307 C 
HETATM    4  C4  UNL     1     -35.175  16.537  -5.037  1.00 20.00     0.308 C 
HETATM    5  C5  UNL     1     -37.797  15.684  -4.306  1.00 20.00     0.247 C 
HETATM    6  C6  UNL     1     -35.540  16.037  -3.619  1.00 20.00     0.251 C 
HETATM    7  C7  UNL     1     -39.057  14.815  -4.288  1.00 20.00     0.045 C 
HETATM    8  N10 UNL     1     -36.036  15.909  -6.065  1.00 20.00     0.094 N 
HETATM    9  N11 UNL     1     -36.617  15.008  -3.695  1.00 20.00     0.102 N 
ENDROOT
BRANCH   6  10
HETATM   10  C9  UNL     1     -34.310  15.554  -2.845  1.00 20.00     0.033 C 
HETATM   11  C8  UNL     1     -33.133  16.442  -3.077  1.00 20.00     0.007 C 
ENDBRANCH   6  10
TORSDOF 1
ENDMDL
MODEL 6
REMARK VINA RESULT:      -3.6      1.354      3.867
REMARK  1 active torsions:
REMARK  status: ('A' for Active; 'I' for Inactive)
REMARK    1  A    between atoms: C6_6  and  C9_9 
ROOT
HETATM    1  C1  UNL     1     -34.665  17.471  -4.467  1.00 20.00     0.302 C 
HETATM    2  C2  UNL     1     -35.996  17.011  -3.853  1.00 20.00     0.303 C 
HETATM    3  C3  UNL     1     -33.484  16.526  -2.619  1.00 20.00     0.307 C 
HETATM    4  C4  UNL     1     -33.927  15.202  -4.579  1.00 20.00     0.308 C 
HETATM    5  C5  UNL     1     -34.805  16.023  -1.993  1.00 20.00     0.247 C 
HETATM    6  C6  UNL     1     -35.246  14.711  -3.936  1.00 20.00     0.251 C 
HETATM    7  C7  UNL     1     -35.316  16.959  -0.895  1.00 20.00     0.045 C 
HETATM    8  N10 UNL     1     -33.566  16.554  -4.097  1.00 20.00     0.094 N 
HETATM    9  N11 UNL     1     -35.818  15.772  -3.059  1.00 20.00     0.102 N 
ENDROOT
BRANCH   6  10
HETATM   10  C9  UNL     1     -36.242  14.204  -4.983  1.00 20.00     0.033 C 
HETATM   11  C8  UNL     1     -35.752  14.451  -6.371  1.00 20.00     0.007 C 
ENDBRANCH   6  10
TORSDOF 1
ENDMDL
MODEL 7
REMARK VINA RESULT:      -3.6      1.918      2.616
REMARK  1 active torsions:
REMARK  status: ('A' for Active; 'I' for Inactive)
REMARK    1  A    between atoms: C6_6  and  C9_9 
ROOT
HETATM    1  C1  UNL     1     -34.508  17.858  -4.237  1.00 20.00     0.302 C 
HETATM    2  C2  UNL     1     -33.367  17.305  -3.370  1.00 20.00     0.303 C 
HETATM    3  C3  UNL     1     -35.403  15.656  -4.465  1.00 20.00     0.307 C 
HETATM    4  C4  UNL     1     -36.105  17.066  -2.645  1.00 20.00     0.308 C 
HETATM    5  C5  UNL     1     -34.284  15.075  -3.570  1.00 20.00     0.247 C 
HETATM    6  C6  UNL     1     -34.977  16.475  -1.766  1.00 20.00     0.251 C 
HETATM    7  C7  UNL     1     -33.152  14.455  -4.393  1.00 20.00     0.045 C 
HETATM    8  N10 UNL     1     -35.734  17.047  -4.079  1.00 20.00     0.094 N 
HETATM    9  N11 UNL     1     -33.803  16.110  -2.610  1.00 20.00     0.102 N 
ENDROOT
BRANCH   6  10
HETATM   10  C9  UNL     1     -34.610  17.399  -0.603  1.00 20.00     0.033 C 
HETATM   11  C8  UNL     1     -35.543  17.228   0.549  1.00 20.00     0.007 C 
ENDBRANCH   6  10
TORSDOF 1
ENDMDL
MODEL 8
REMARK VINA RESULT:      -3.6      1.344      2.420
REMARK  1 active torsions:
REMARK  status: ('A' for Active; 'I' for Inactive)
REMARK    1  A    between atoms: C6_6  and  C9_9 
ROOT
HETATM    1  C1  UNL     1     -34.884  13.992  -3.937  1.00 20.00     0.302 C 
HETATM    2  C2  UNL     1     -35.840  15.149  -3.611  1.00 20.00     0.303 C 
HETATM    3  C3  UNL     1     -34.164  15.140  -5.903  1.00 20.00     0.307 C 
HETATM    4  C4  UNL     1     -33.025  15.487  -3.811  1.00 20.00     0.308 C 
HETATM    5  C5  UNL     1     -35.093  16.333  -5.584  1.00 20.00     0.247 C 
HETATM    6  C6  UNL     1     -33.966  16.677  -3.509  1.00 20.00     0.251 C 
HETATM    7  C7  UNL     1     -36.402  16.272  -6.375  1.00 20.00     0.045 C 
HETATM    8  N10 UNL     1     -33.693  14.478  -4.665  1.00 20.00     0.094 N 
HETATM    9  N11 UNL     1     -35.309  16.439  -4.112  1.00 20.00     0.102 N 
ENDROOT
BRANCH   6  10
HETATM   10  C9  UNL     1     -34.034  16.992  -2.012  1.00 20.00     0.033 C 
HETATM   11  C8  UNL     1     -32.823  17.734  -1.553  1.00 20.00     0.007 C 
ENDBRANCH   6  10
TORSDOF 1
ENDMDL
MODEL 9
REMARK VINA RESULT:      -3.6      2.340      3.203
REMARK  1 active torsions:
REMARK  status: ('A' for Active; 'I' for Inactive)
REMARK    1  A    between atoms: C6_6  and  C9_9 
ROOT
HETATM    1  C1  UNL     1     -35.343  17.837  -3.429  1.00 20.00     0.302 C 
HETATM    2  C2  UNL     1     -33.959  17.820  -4.096  1.00 20.00     0.303 C 
HETATM    3  C3  UNL     1     -35.066  15.552  -2.791  1.00 20.00     0.307 C 
HETATM    4  C4  UNL     1     -34.340  17.317  -1.324  1.00 20.00     0.308 C 
HETATM    5  C5  UNL     1     -33.656  15.515  -3.426  1.00 20.00     0.247 C 
HETATM    6  C6  UNL     1     -32.937  17.265  -1.973  1.00 20.00     0.251 C 
HETATM    7  C7  UNL     1     -33.669  14.886  -4.821  1.00 20.00     0.045 C 
HETATM    8  N10 UNL     1     -35.391  16.905  -2.283  1.00 20.00     0.094 N 
HETATM    9  N11 UNL     1     -33.046  16.876  -3.408  1.00 20.00     0.102 N 
ENDROOT
BRANCH   6  10
HETATM   10  C9  UNL     1     -32.160  18.568  -1.768  1.00 20.00     0.033 C 
HETATM   11  C8  UNL     1     -31.374  18.544  -0.500  1.00 20.00     0.007 C 
ENDBRANCH   6  10
TORSDOF 1
ENDMDL
