MODEL 1
REMARK VINA RESULT:      -4.3      0.000      0.000
REMARK  1 active torsions:
REMARK  status: ('A' for Active; 'I' for Inactive)
REMARK    1  A    between atoms: C5_5  and  N7_7 
ROOT
HETATM    1  C1  UNL     1     -37.415  14.622  -4.410  1.00 20.00     0.332 C 
HETATM    2  N7  UNL     1     -36.493  15.345  -4.410  1.00 20.00    -0.241 NA
HETATM    3  O8  UNL     1     -38.343  13.900  -4.417  1.00 20.00    -0.260 OA
ENDROOT
BRANCH   2   4
HETATM    4  C5  UNL     1     -35.545  15.110  -3.312  1.00 20.00     0.126 C 
HETATM    5  C3  UNL     1     -34.488  14.102  -3.767  1.00 20.00     0.029 C 
HETATM    6  C2  UNL     1     -33.351  14.961  -4.299  1.00 20.00     0.003 C 
HETATM    7  C4  UNL     1     -33.311  16.119  -3.315  1.00 20.00     0.018 C 
HETATM    8  C6  UNL     1     -34.781  16.406  -3.021  1.00 20.00     0.083 C 
HETATM    9 BR9  UNL     1     -35.004  16.945  -1.164  1.00 20.00    -0.089 Br
ENDBRANCH   2   4
TORSDOF 1
ENDMDL
MODEL 2
REMARK VINA RESULT:      -4.1     17.119     17.990
REMARK  1 active torsions:
REMARK  status: ('A' for Active; 'I' for Inactive)
REMARK    1  A    between atoms: C5_5  and  N7_7 
ROOT
HETATM    1  C1  UNL     1     -24.526  18.853   7.843  1.00 20.00     0.332 C 
HETATM    2  N7  UNL     1     -24.519  18.922   9.013  1.00 20.00    -0.241 NA
HETATM    3  O8  UNL     1     -24.537  18.792   6.668  1.00 20.00    -0.260 OA
ENDROOT
BRANCH   2   4
HETATM    4  C5  UNL     1     -24.173  17.663   9.687  1.00 20.00     0.126 C 
HETATM    5  C3  UNL     1     -22.754  17.253   9.290  1.00 20.00     0.029 C 
HETATM    6  C2  UNL     1     -21.872  17.846  10.379  1.00 20.00     0.003 C 
HETATM    7  C4  UNL     1     -22.692  17.624  11.640  1.00 20.00     0.018 C 
HETATM    8  C6  UNL     1     -24.128  17.899  11.200  1.00 20.00     0.083 C 
HETATM    9 BR9  UNL     1     -25.357  16.709  12.129  1.00 20.00    -0.089 Br
ENDBRANCH   2   4
TORSDOF 1
ENDMDL
MODEL 3
REMARK VINA RESULT:      -4.0     17.714     18.331
REMARK  1 active torsions:
REMARK  status: ('A' for Active; 'I' for Inactive)
REMARK    1  A    between atoms: C5_5  and  N7_7 
ROOT
HETATM    1  C1  UNL     1     -21.941  17.123   7.574  1.00 20.00     0.332 C 
HETATM    2  N7  UNL     1     -22.587  16.878   8.520  1.00 20.00    -0.241 NA
HETATM    3  O8  UNL     1     -21.293  17.360   6.621  1.00 20.00    -0.260 OA
ENDROOT
BRANCH   2   4
HETATM    4  C5  UNL     1     -22.695  17.988   9.477  1.00 20.00     0.126 C 
HETATM    5  C3  UNL     1     -23.532  19.108   8.857  1.00 20.00     0.029 C 
HETATM    6  C2  UNL     1     -24.950  18.826   9.330  1.00 20.00     0.003 C 
HETATM    7  C4  UNL     1     -24.745  18.370  10.766  1.00 20.00     0.018 C 
HETATM    8  C6  UNL     1     -23.479  17.518  10.706  1.00 20.00     0.083 C 
HETATM    9 BR9  UNL     1     -22.433  17.749  12.332  1.00 20.00    -0.089 Br
ENDBRANCH   2   4
TORSDOF 1
ENDMDL
MODEL 4
REMARK VINA RESULT:      -4.0     16.680     17.590
REMARK  1 active torsions:
REMARK  status: ('A' for Active; 'I' for Inactive)
REMARK    1  A    between atoms: C5_5  and  N7_7 
ROOT
HETATM    1  C1  UNL     1     -24.550  18.956   7.329  1.00 20.00     0.332 C 
HETATM    2  N7  UNL     1     -25.073  18.771   8.361  1.00 20.00    -0.241 NA
HETATM    3  O8  UNL     1     -24.031  19.141   6.289  1.00 20.00    -0.260 OA
ENDROOT
BRANCH   2   4
HETATM    4  C5  UNL     1     -24.149  18.717   9.503  1.00 20.00     0.126 C 
HETATM    5  C3  UNL     1     -24.950  18.491  10.787  1.00 20.00     0.029 C 
HETATM    6  C2  UNL     1     -24.948  16.980  10.970  1.00 20.00     0.003 C 
HETATM    7  C4  UNL     1     -23.540  16.588  10.554  1.00 20.00     0.018 C 
HETATM    8  C6  UNL     1     -23.243  17.491   9.359  1.00 20.00     0.083 C 
HETATM    9 BR9  UNL     1     -21.366  18.007   9.354  1.00 20.00    -0.089 Br
ENDBRANCH   2   4
TORSDOF 1
ENDMDL
MODEL 5
REMARK VINA RESULT:      -3.9      1.839      1.983
REMARK  1 active torsions:
REMARK  status: ('A' for Active; 'I' for Inactive)
REMARK    1  A    between atoms: C5_5  and  N7_7 
ROOT
HETATM    1  C1  UNL     1     -36.711  14.149  -4.244  1.00 20.00     0.332 C 
HETATM    2  N7  UNL     1     -35.635  14.514  -3.961  1.00 20.00    -0.241 NA
HETATM    3  O8  UNL     1     -37.789  13.774  -4.531  1.00 20.00    -0.260 OA
ENDROOT
BRANCH   2   4
HETATM    4  C5  UNL     1     -35.580  15.895  -3.460  1.00 20.00     0.126 C 
HETATM    5  C3  UNL     1     -34.593  15.968  -2.294  1.00 20.00     0.029 C 
HETATM    6  C2  UNL     1     -33.274  16.363  -2.941  1.00 20.00     0.003 C 
HETATM    7  C4  UNL     1     -33.700  17.374  -3.994  1.00 20.00     0.018 C 
HETATM    8  C6  UNL     1     -35.001  16.802  -4.550  1.00 20.00     0.083 C 
HETATM    9 BR9  UNL     1     -36.237  18.241  -4.989  1.00 20.00    -0.089 Br
ENDBRANCH   2   4
TORSDOF 1
ENDMDL
MODEL 6
REMARK VINA RESULT:      -3.8      1.942      2.559
REMARK  1 active torsions:
REMARK  status: ('A' for Active; 'I' for Inactive)
REMARK    1  A    between atoms: C5_5  and  N7_7 
ROOT
HETATM    1  C1  UNL     1     -36.395  13.797  -4.395  1.00 20.00     0.332 C 
HETATM    2  N7  UNL     1     -36.774  14.886  -4.190  1.00 20.00    -0.241 NA
HETATM    3  O8  UNL     1     -36.023  12.700  -4.601  1.00 20.00    -0.260 OA
ENDROOT
BRANCH   2   4
HETATM    4  C5  UNL     1     -35.703  15.888  -4.099  1.00 20.00     0.126 C 
HETATM    5  C3  UNL     1     -36.251  17.149  -3.427  1.00 20.00     0.029 C 
HETATM    6  C2  UNL     1     -35.928  16.961  -1.952  1.00 20.00     0.003 C 
HETATM    7  C4  UNL     1     -34.544  16.331  -1.984  1.00 20.00     0.018 C 
HETATM    8  C6  UNL     1     -34.605  15.367  -3.166  1.00 20.00     0.083 C 
HETATM    9 BR9  UNL     1     -32.886  15.309  -4.078  1.00 20.00    -0.089 Br
ENDBRANCH   2   4
TORSDOF 1
ENDMDL
MODEL 7
REMARK VINA RESULT:      -3.8      2.260      2.428
REMARK  1 active torsions:
REMARK  status: ('A' for Active; 'I' for Inactive)
REMARK    1  A    between atoms: C5_5  and  N7_7 
ROOT
HETATM    1  C1  UNL     1     -36.629  13.927  -4.997  1.00 20.00     0.332 C 
HETATM    2  N7  UNL     1     -35.911  14.032  -5.916  1.00 20.00    -0.241 NA
HETATM    3  O8  UNL     1     -37.357  13.818  -4.078  1.00 20.00    -0.260 OA
ENDROOT
BRANCH   2   4
HETATM    4  C5  UNL     1     -34.638  14.700  -5.611  1.00 20.00     0.126 C 
HETATM    5  C3  UNL     1     -33.999  15.185  -6.914  1.00 20.00     0.029 C 
HETATM    6  C2  UNL     1     -34.487  16.619  -7.063  1.00 20.00     0.003 C 
HETATM    7  C4  UNL     1     -34.439  17.143  -5.636  1.00 20.00     0.018 C 
HETATM    8  C6  UNL     1     -34.917  15.965  -4.792  1.00 20.00     0.083 C 
HETATM    9 BR9  UNL     1     -33.964  15.921  -3.095  1.00 20.00    -0.089 Br
ENDBRANCH   2   4
TORSDOF 1
ENDMDL
MODEL 8
REMARK VINA RESULT:      -3.8     17.750     18.457
REMARK  1 active torsions:
REMARK  status: ('A' for Active; 'I' for Inactive)
REMARK    1  A    between atoms: C5_5  and  N7_7 
ROOT
HETATM    1  C1  UNL     1     -24.535  16.565  11.705  1.00 20.00     0.332 C 
HETATM    2  N7  UNL     1     -23.417  16.690  11.378  1.00 20.00    -0.241 NA
HETATM    3  O8  UNL     1     -25.656  16.432  12.037  1.00 20.00    -0.260 OA
ENDROOT
BRANCH   2   4
HETATM    4  C5  UNL     1     -23.154  17.900  10.587  1.00 20.00     0.126 C 
HETATM    5  C3  UNL     1     -21.657  17.989  10.287  1.00 20.00     0.029 C 
HETATM    6  C2  UNL     1     -21.503  17.311   8.933  1.00 20.00     0.003 C 
HETATM    7  C4  UNL     1     -22.734  17.783   8.175  1.00 20.00     0.018 C 
HETATM    8  C6  UNL     1     -23.842  17.769   9.224  1.00 20.00     0.083 C 
HETATM    9 BR9  UNL     1     -25.075  19.245   8.921  1.00 20.00    -0.089 Br
ENDBRANCH   2   4
TORSDOF 1
ENDMDL
MODEL 9
REMARK VINA RESULT:      -3.8      2.125      2.499
REMARK  1 active torsions:
REMARK  status: ('A' for Active; 'I' for Inactive)
REMARK    1  A    between atoms: C5_5  and  N7_7 
ROOT
HETATM    1  C1  UNL     1     -37.266  14.752  -4.159  1.00 20.00     0.332 C 
HETATM    2  N7  UNL     1     -36.960  15.819  -3.786  1.00 20.00    -0.241 NA
HETATM    3  O8  UNL     1     -37.580  13.680  -4.529  1.00 20.00    -0.260 OA
ENDROOT
BRANCH   2   4
HETATM    4  C5  UNL     1     -35.683  16.303  -4.329  1.00 20.00     0.126 C 
HETATM    5  C3  UNL     1     -34.933  17.072  -3.240  1.00 20.00     0.029 C 
HETATM    6  C2  UNL     1     -34.034  16.028  -2.593  1.00 20.00     0.003 C 
HETATM    7  C4  UNL     1     -33.563  15.203  -3.780  1.00 20.00     0.018 C 
HETATM    8  C6  UNL     1     -34.796  15.102  -4.673  1.00 20.00     0.083 C 
HETATM    9 BR9  UNL     1     -34.275  15.135  -6.549  1.00 20.00    -0.089 Br
ENDBRANCH   2   4
TORSDOF 1
ENDMDL
