MODEL 1
REMARK VINA RESULT:      -5.0      0.000      0.000
REMARK  3 active torsions:
REMARK  status: ('A' for Active; 'I' for Inactive)
REMARK    1  A    between atoms: C1_1  and  C2_2 
REMARK    2  A    between atoms: C1_1  and  O11_11 
REMARK    3  A    between atoms: C8_8  and  N9_9 
ROOT
HETATM    1  C2  UNL     1     -35.800  14.954  -4.122  1.00 20.00     0.355 A 
HETATM    2  C3  UNL     1     -34.805  15.613  -5.058  1.00 20.00     0.264 A 
HETATM    3  C4  UNL     1     -34.505  15.060  -6.407  1.00 20.00     0.046 C 
HETATM    4  N9  UNL     1     -34.358  14.882  -3.882  1.00 20.00     0.115 N 
ENDROOT
BRANCH   1   5
HETATM    5  C1  UNL     1     -36.380  13.644  -4.415  1.00 20.00     0.294 C 
HETATM    6  O10 UNL     1     -35.733  12.607  -4.483  1.00 20.00    -0.263 OA
BRANCH   5   7
HETATM    7  O11 UNL     1     -37.726  13.771  -4.592  1.00 20.00    -0.325 OA
HETATM    8  C7  UNL     1     -38.282  15.032  -4.200  1.00 20.00     0.213 C 
ENDBRANCH   5   7
ENDBRANCH   1   5
BRANCH   4   9
HETATM    9  C8  UNL     1     -33.913  15.753  -2.800  1.00 20.00     0.216 C 
HETATM   10  C5  UNL     1     -35.120  16.197  -1.988  1.00 20.00     0.042 C 
HETATM   11  C6  UNL     1     -33.169  16.938  -3.398  1.00 20.00     0.042 C 
ENDBRANCH   4   9
TORSDOF 3
ENDMDL
MODEL 2
REMARK VINA RESULT:      -4.3      1.455      1.864
REMARK  3 active torsions:
REMARK  status: ('A' for Active; 'I' for Inactive)
REMARK    1  A    between atoms: C1_1  and  C2_2 
REMARK    2  A    between atoms: C1_1  and  O11_11 
REMARK    3  A    between atoms: C8_8  and  N9_9 
ROOT
HETATM    1  C2  UNL     1     -35.338  15.111  -4.510  1.00 20.00     0.355 A 
HETATM    2  C3  UNL     1     -33.890  15.342  -4.122  1.00 20.00     0.264 A 
HETATM    3  C4  UNL     1     -32.814  14.376  -4.475  1.00 20.00     0.046 C 
HETATM    4  N9  UNL     1     -34.882  14.960  -3.128  1.00 20.00     0.115 N 
ENDROOT
BRANCH   1   5
HETATM    5  C1  UNL     1     -35.786  13.845  -5.088  1.00 20.00     0.294 C 
HETATM    6  O10 UNL     1     -35.969  12.822  -4.441  1.00 20.00    -0.263 OA
BRANCH   5   7
HETATM    7  O11 UNL     1     -35.963  13.995  -6.432  1.00 20.00    -0.325 OA
HETATM    8  C7  UNL     1     -36.049  15.348  -6.894  1.00 20.00     0.213 C 
ENDBRANCH   5   7
ENDBRANCH   1   5
BRANCH   4   9
HETATM    9  C8  UNL     1     -35.286  16.065  -2.267  1.00 20.00     0.216 C 
HETATM   10  C5  UNL     1     -36.311  16.919  -2.998  1.00 20.00     0.042 C 
HETATM   11  C6  UNL     1     -34.052  16.869  -1.885  1.00 20.00     0.042 C 
ENDBRANCH   4   9
TORSDOF 3
ENDMDL
MODEL 3
REMARK VINA RESULT:      -4.1      1.309      1.469
REMARK  3 active torsions:
REMARK  status: ('A' for Active; 'I' for Inactive)
REMARK    1  A    between atoms: C1_1  and  C2_2 
REMARK    2  A    between atoms: C1_1  and  O11_11 
REMARK    3  A    between atoms: C8_8  and  N9_9 
ROOT
HETATM    1  C2  UNL     1     -35.555  15.460  -4.412  1.00 20.00     0.355 A 
HETATM    2  C3  UNL     1     -34.081  15.424  -4.056  1.00 20.00     0.264 A 
HETATM    3  C4  UNL     1     -33.193  14.307  -4.479  1.00 20.00     0.046 C 
HETATM    4  N9  UNL     1     -35.103  15.170  -3.051  1.00 20.00     0.115 N 
ENDROOT
BRANCH   1   5
HETATM    5  C1  UNL     1     -36.224  14.315  -5.030  1.00 20.00     0.294 C 
HETATM    6  O10 UNL     1     -35.928  13.859  -6.126  1.00 20.00    -0.263 OA
BRANCH   5   7
HETATM    7  O11 UNL     1     -37.204  13.858  -4.201  1.00 20.00    -0.325 OA
HETATM    8  C7  UNL     1     -38.438  14.582  -4.248  1.00 20.00     0.213 C 
ENDBRANCH   5   7
ENDBRANCH   1   5
BRANCH   4   9
HETATM    9  C8  UNL     1     -35.296  16.287  -2.133  1.00 20.00     0.216 C 
HETATM   10  C5  UNL     1     -36.306  17.254  -2.730  1.00 20.00     0.042 C 
HETATM   11  C6  UNL     1     -33.952  16.957  -1.884  1.00 20.00     0.042 C 
ENDBRANCH   4   9
TORSDOF 3
ENDMDL
MODEL 4
REMARK VINA RESULT:      -4.0      1.449      2.776
REMARK  3 active torsions:
REMARK  status: ('A' for Active; 'I' for Inactive)
REMARK    1  A    between atoms: C1_1  and  C2_2 
REMARK    2  A    between atoms: C1_1  and  O11_11 
REMARK    3  A    between atoms: C8_8  and  N9_9 
ROOT
HETATM    1  C2  UNL     1     -34.922  14.649  -5.447  1.00 20.00     0.355 A 
HETATM    2  C3  UNL     1     -34.171  15.535  -4.471  1.00 20.00     0.264 A 
HETATM    3  C4  UNL     1     -34.459  15.522  -3.011  1.00 20.00     0.046 C 
HETATM    4  N9  UNL     1     -35.163  16.091  -5.380  1.00 20.00     0.115 N 
ENDROOT
BRANCH   1   5
HETATM    5  C1  UNL     1     -36.091  13.871  -5.036  1.00 20.00     0.294 C 
HETATM    6  O10 UNL     1     -36.031  12.759  -4.531  1.00 20.00    -0.263 OA
BRANCH   5   7
HETATM    7  O11 UNL     1     -37.226  14.578  -5.305  1.00 20.00    -0.325 OA
HETATM    8  C7  UNL     1     -38.186  14.628  -4.243  1.00 20.00     0.213 C 
ENDBRANCH   5   7
ENDBRANCH   1   5
BRANCH   4   9
HETATM    9  C8  UNL     1     -34.573  16.822  -6.495  1.00 20.00     0.216 C 
HETATM   10  C5  UNL     1     -35.596  17.804  -7.045  1.00 20.00     0.042 C 
HETATM   11  C6  UNL     1     -34.122  15.826  -7.554  1.00 20.00     0.042 C 
ENDBRANCH   4   9
TORSDOF 3
ENDMDL
MODEL 5
REMARK VINA RESULT:      -3.9      1.528      2.013
REMARK  3 active torsions:
REMARK  status: ('A' for Active; 'I' for Inactive)
REMARK    1  A    between atoms: C1_1  and  C2_2 
REMARK    2  A    between atoms: C1_1  and  O11_11 
REMARK    3  A    between atoms: C8_8  and  N9_9 
ROOT
HETATM    1  C2  UNL     1     -36.031  15.220  -4.014  1.00 20.00     0.355 A 
HETATM    2  C3  UNL     1     -36.016  16.736  -4.051  1.00 20.00     0.264 A 
HETATM    3  C4  UNL     1     -36.960  17.515  -4.898  1.00 20.00     0.046 C 
HETATM    4  N9  UNL     1     -34.968  15.959  -4.696  1.00 20.00     0.115 N 
ENDROOT
BRANCH   1   5
HETATM    5  C1  UNL     1     -36.846  14.436  -4.943  1.00 20.00     0.294 C 
HETATM    6  O10 UNL     1     -36.578  14.281  -6.126  1.00 20.00    -0.263 OA
BRANCH   5   7
HETATM    7  O11 UNL     1     -37.923  13.923  -4.282  1.00 20.00    -0.325 OA
HETATM    8  C7  UNL     1     -39.091  14.751  -4.274  1.00 20.00     0.213 C 
ENDBRANCH   5   7
ENDBRANCH   1   5
BRANCH   4   9
HETATM    9  C8  UNL     1     -33.711  15.966  -3.957  1.00 20.00     0.216 C 
HETATM   10  C5  UNL     1     -32.939  14.694  -4.271  1.00 20.00     0.042 C 
HETATM   11  C6  UNL     1     -34.015  16.088  -2.470  1.00 20.00     0.042 C 
ENDBRANCH   4   9
TORSDOF 3
ENDMDL
MODEL 6
REMARK VINA RESULT:      -3.9      1.326      2.078
REMARK  3 active torsions:
REMARK  status: ('A' for Active; 'I' for Inactive)
REMARK    1  A    between atoms: C1_1  and  C2_2 
REMARK    2  A    between atoms: C1_1  and  O11_11 
REMARK    3  A    between atoms: C8_8  and  N9_9 
ROOT
HETATM    1  C2  UNL     1     -36.189  15.124  -3.353  1.00 20.00     0.355 A 
HETATM    2  C3  UNL     1     -36.313  16.630  -3.473  1.00 20.00     0.264 A 
HETATM    3  C4  UNL     1     -36.961  17.279  -4.646  1.00 20.00     0.046 C 
HETATM    4  N9  UNL     1     -35.031  15.965  -3.654  1.00 20.00     0.115 N 
ENDROOT
BRANCH   1   5
HETATM    5  C1  UNL     1     -36.532  14.233  -4.463  1.00 20.00     0.294 C 
HETATM    6  O10 UNL     1     -37.623  13.695  -4.597  1.00 20.00    -0.263 OA
BRANCH   5   7
HETATM    7  O11 UNL     1     -35.461  14.111  -5.297  1.00 20.00    -0.325 OA
HETATM    8  C7  UNL     1     -35.690  14.504  -6.655  1.00 20.00     0.213 C 
ENDBRANCH   5   7
ENDBRANCH   1   5
BRANCH   4   9
HETATM    9  C8  UNL     1     -34.133  16.131  -2.518  1.00 20.00     0.216 C 
HETATM   10  C5  UNL     1     -34.912  16.705  -1.345  1.00 20.00     0.042 C 
HETATM   11  C6  UNL     1     -32.983  17.040  -2.929  1.00 20.00     0.042 C 
ENDBRANCH   4   9
TORSDOF 3
ENDMDL
MODEL 7
REMARK VINA RESULT:      -3.9      2.026      2.663
REMARK  3 active torsions:
REMARK  status: ('A' for Active; 'I' for Inactive)
REMARK    1  A    between atoms: C1_1  and  C2_2 
REMARK    2  A    between atoms: C1_1  and  O11_11 
REMARK    3  A    between atoms: C8_8  and  N9_9 
ROOT
HETATM    1  C2  UNL     1     -33.882  14.911  -4.629  1.00 20.00     0.355 A 
HETATM    2  C3  UNL     1     -34.945  14.142  -3.869  1.00 20.00     0.264 A 
HETATM    3  C4  UNL     1     -36.167  13.614  -4.535  1.00 20.00     0.046 C 
HETATM    4  N9  UNL     1     -34.797  15.581  -3.705  1.00 20.00     0.115 N 
ENDROOT
BRANCH   1   5
HETATM    5  C1  UNL     1     -34.083  15.334  -6.015  1.00 20.00     0.294 C 
HETATM    6  O10 UNL     1     -33.715  14.690  -6.989  1.00 20.00    -0.263 OA
BRANCH   5   7
HETATM    7  O11 UNL     1     -34.731  16.533  -6.036  1.00 20.00    -0.325 OA
HETATM    8  C7  UNL     1     -35.815  16.631  -6.967  1.00 20.00     0.213 C 
ENDBRANCH   5   7
ENDBRANCH   1   5
BRANCH   4   9
HETATM    9  C8  UNL     1     -34.167  15.954  -2.444  1.00 20.00     0.216 C 
HETATM   10  C5  UNL     1     -35.212  16.572  -1.528  1.00 20.00     0.042 C 
HETATM   11  C6  UNL     1     -33.026  16.920  -2.731  1.00 20.00     0.042 C 
ENDBRANCH   4   9
TORSDOF 3
ENDMDL
MODEL 8
REMARK VINA RESULT:      -3.9      1.654      2.607
REMARK  3 active torsions:
REMARK  status: ('A' for Active; 'I' for Inactive)
REMARK    1  A    between atoms: C1_1  and  C2_2 
REMARK    2  A    between atoms: C1_1  and  O11_11 
REMARK    3  A    between atoms: C8_8  and  N9_9 
ROOT
HETATM    1  C2  UNL     1     -35.425  15.323  -4.527  1.00 20.00     0.355 A 
HETATM    2  C3  UNL     1     -35.533  16.829  -4.393  1.00 20.00     0.264 A 
HETATM    3  C4  UNL     1     -35.726  17.716  -5.573  1.00 20.00     0.046 C 
HETATM    4  N9  UNL     1     -34.257  16.149  -4.223  1.00 20.00     0.115 N 
ENDROOT
BRANCH   1   5
HETATM    5  C1  UNL     1     -35.321  14.672  -5.834  1.00 20.00     0.294 C 
HETATM    6  O10 UNL     1     -36.278  14.234  -6.459  1.00 20.00    -0.263 OA
BRANCH   5   7
HETATM    7  O11 UNL     1     -34.016  14.641  -6.224  1.00 20.00    -0.325 OA
HETATM    8  C7  UNL     1     -33.753  15.146  -7.538  1.00 20.00     0.213 C 
ENDBRANCH   5   7
ENDBRANCH   1   5
BRANCH   4   9
HETATM    9  C8  UNL     1     -33.837  16.057  -2.830  1.00 20.00     0.216 C 
HETATM   10  C5  UNL     1     -35.066  16.089  -1.935  1.00 20.00     0.042 C 
HETATM   11  C6  UNL     1     -32.888  17.207  -2.526  1.00 20.00     0.042 C 
ENDBRANCH   4   9
TORSDOF 3
ENDMDL
MODEL 9
REMARK VINA RESULT:      -3.8      1.344      1.638
REMARK  3 active torsions:
REMARK  status: ('A' for Active; 'I' for Inactive)
REMARK    1  A    between atoms: C1_1  and  C2_2 
REMARK    2  A    between atoms: C1_1  and  O11_11 
REMARK    3  A    between atoms: C8_8  and  N9_9 
ROOT
HETATM    1  C2  UNL     1     -36.770  15.740  -3.788  1.00 20.00     0.355 A 
HETATM    2  C3  UNL     1     -35.785  16.256  -4.819  1.00 20.00     0.264 A 
HETATM    3  C4  UNL     1     -36.028  16.121  -6.281  1.00 20.00     0.046 C 
HETATM    4  N9  UNL     1     -35.499  15.061  -4.039  1.00 20.00     0.115 N 
ENDROOT
BRANCH   1   5
HETATM    5  C1  UNL     1     -37.922  14.921  -4.167  1.00 20.00     0.294 C 
HETATM    6  O10 UNL     1     -37.850  13.739  -4.476  1.00 20.00    -0.263 OA
BRANCH   5   7
HETATM    7  O11 UNL     1     -39.054  15.678  -4.117  1.00 20.00    -0.325 OA
HETATM    8  C7  UNL     1     -39.559  16.115  -5.384  1.00 20.00     0.213 C 
ENDBRANCH   5   7
ENDBRANCH   1   5
BRANCH   4   9
HETATM    9  C8  UNL     1     -34.513  15.284  -2.988  1.00 20.00     0.216 C 
HETATM   10  C5  UNL     1     -35.083  16.255  -1.966  1.00 20.00     0.042 C 
HETATM   11  C6  UNL     1     -33.233  15.816  -3.618  1.00 20.00     0.042 C 
ENDBRANCH   4   9
TORSDOF 3
ENDMDL
