MODEL 1
REMARK VINA RESULT:      -4.3      0.000      0.000
REMARK  1 active torsions:
REMARK  status: ('A' for Active; 'I' for Inactive)
REMARK    1  A    between atoms: C7_7  and  C10_10 
ROOT
HETATM    1  C1  UNL     1     -33.322  16.218  -3.015  1.00 20.00    -0.018 C 
HETATM    2  C2  UNL     1     -34.457  16.120  -2.301  1.00 20.00    -0.024 C 
HETATM    3  C3  UNL     1     -34.557  16.238  -5.058  1.00 20.00     0.139 C 
HETATM    4  C4  UNL     1     -34.431  14.326  -3.760  1.00 20.00     0.025 C 
HETATM    5  C5  UNL     1     -33.518  15.435  -4.285  1.00 20.00     0.078 C 
HETATM    6  C6  UNL     1     -35.436  15.294  -3.115  1.00 20.00     0.020 C 
HETATM    7  C7  UNL     1     -35.900  16.165  -4.318  1.00 20.00     0.067 C 
HETATM    8  O11 UNL     1     -34.345  16.873  -6.080  1.00 20.00    -0.297 OA
ENDROOT
BRANCH   7   9
HETATM    9  C10 UNL     1     -36.982  15.526  -5.168  1.00 20.00    -0.011 C 
HETATM   10  C8  UNL     1     -37.943  14.705  -4.305  1.00 20.00     0.010 C 
HETATM   11  C9  UNL     1     -37.755  16.588  -5.957  1.00 20.00     0.010 C 
ENDBRANCH   7   9
TORSDOF 1
ENDMDL
MODEL 2
REMARK VINA RESULT:      -4.3      1.759      3.689
REMARK  1 active torsions:
REMARK  status: ('A' for Active; 'I' for Inactive)
REMARK    1  A    between atoms: C7_7  and  C10_10 
ROOT
HETATM    1  C1  UNL     1     -34.037  15.274  -4.800  1.00 20.00    -0.018 C 
HETATM    2  C2  UNL     1     -34.316  14.636  -3.650  1.00 20.00    -0.024 C 
HETATM    3  C3  UNL     1     -33.605  17.304  -3.621  1.00 20.00     0.139 C 
HETATM    4  C4  UNL     1     -35.750  16.446  -3.772  1.00 20.00     0.025 C 
HETATM    5  C5  UNL     1     -34.530  16.689  -4.663  1.00 20.00     0.078 C 
HETATM    6  C6  UNL     1     -34.970  15.641  -2.720  1.00 20.00     0.020 C 
HETATM    7  C7  UNL     1     -33.870  16.642  -2.261  1.00 20.00     0.067 C 
HETATM    8  O11 UNL     1     -32.758  18.157  -3.840  1.00 20.00    -0.297 OA
ENDROOT
BRANCH   7   9
HETATM    9  C10 UNL     1     -34.336  17.645  -1.223  1.00 20.00    -0.011 C 
HETATM   10  C8  UNL     1     -35.355  17.015  -0.270  1.00 20.00     0.010 C 
HETATM   11  C9  UNL     1     -33.149  18.205  -0.433  1.00 20.00     0.010 C 
ENDBRANCH   7   9
TORSDOF 1
ENDMDL
MODEL 3
REMARK VINA RESULT:      -4.3      1.789      3.714
REMARK  1 active torsions:
REMARK  status: ('A' for Active; 'I' for Inactive)
REMARK    1  A    between atoms: C7_7  and  C10_10 
ROOT
HETATM    1  C1  UNL     1     -36.190  15.643  -6.857  1.00 20.00    -0.018 C 
HETATM    2  C2  UNL     1     -35.508  16.746  -6.502  1.00 20.00    -0.024 C 
HETATM    3  C3  UNL     1     -36.077  14.801  -4.626  1.00 20.00     0.139 C 
HETATM    4  C4  UNL     1     -34.181  14.935  -5.947  1.00 20.00     0.025 C 
HETATM    5  C5  UNL     1     -35.642  14.494  -6.054  1.00 20.00     0.078 C 
HETATM    6  C6  UNL     1     -34.517  16.341  -5.425  1.00 20.00     0.020 C 
HETATM    7  C7  UNL     1     -35.327  16.046  -4.129  1.00 20.00     0.067 C 
HETATM    8  O11 UNL     1     -36.918  14.181  -3.993  1.00 20.00    -0.297 OA
ENDROOT
BRANCH   7   9
HETATM    9  C10 UNL     1     -34.469  15.744  -2.915  1.00 20.00    -0.011 C 
HETATM   10  C8  UNL     1     -33.079  16.369  -3.058  1.00 20.00     0.010 C 
HETATM   11  C9  UNL     1     -35.144  16.241  -1.632  1.00 20.00     0.010 C 
ENDBRANCH   7   9
TORSDOF 1
ENDMDL
MODEL 4
REMARK VINA RESULT:      -4.2      1.549      1.749
REMARK  1 active torsions:
REMARK  status: ('A' for Active; 'I' for Inactive)
REMARK    1  A    between atoms: C7_7  and  C10_10 
ROOT
HETATM    1  C1  UNL     1     -33.980  16.735  -2.068  1.00 20.00    -0.018 C 
HETATM    2  C2  UNL     1     -34.967  15.851  -2.293  1.00 20.00    -0.024 C 
HETATM    3  C3  UNL     1     -34.016  17.424  -4.353  1.00 20.00     0.139 C 
HETATM    4  C4  UNL     1     -33.254  15.322  -3.753  1.00 20.00     0.025 C 
HETATM    5  C5  UNL     1     -33.121  16.778  -3.302  1.00 20.00     0.078 C 
HETATM    6  C6  UNL     1     -34.791  15.322  -3.704  1.00 20.00     0.020 C 
HETATM    7  C7  UNL     1     -35.170  16.467  -4.687  1.00 20.00     0.067 C 
HETATM    8  O11 UNL     1     -33.863  18.541  -4.823  1.00 20.00    -0.297 OA
ENDROOT
BRANCH   7   9
HETATM    9  C10 UNL     1     -35.164  16.061  -6.148  1.00 20.00    -0.011 C 
HETATM   10  C8  UNL     1     -35.654  14.621  -6.318  1.00 20.00     0.010 C 
HETATM   11  C9  UNL     1     -36.024  17.014  -6.984  1.00 20.00     0.010 C 
ENDBRANCH   7   9
TORSDOF 1
ENDMDL
MODEL 5
REMARK VINA RESULT:      -4.2     16.209     18.134
REMARK  1 active torsions:
REMARK  status: ('A' for Active; 'I' for Inactive)
REMARK    1  A    between atoms: C7_7  and  C10_10 
ROOT
HETATM    1  C1  UNL     1     -23.021  18.076  11.765  1.00 20.00    -0.018 C 
HETATM    2  C2  UNL     1     -24.330  18.375  11.822  1.00 20.00    -0.024 C 
HETATM    3  C3  UNL     1     -22.978  18.508   9.418  1.00 20.00     0.139 C 
HETATM    4  C4  UNL     1     -24.103  16.674  10.273  1.00 20.00     0.025 C 
HETATM    5  C5  UNL     1     -22.768  17.401  10.445  1.00 20.00     0.078 C 
HETATM    6  C6  UNL     1     -24.956  17.930  10.512  1.00 20.00     0.020 C 
HETATM    7  C7  UNL     1     -24.462  18.902   9.402  1.00 20.00     0.067 C 
HETATM    8  O11 UNL     1     -22.099  19.027   8.746  1.00 20.00    -0.297 OA
ENDROOT
BRANCH   7   9
HETATM    9  C10 UNL     1     -25.096  18.668   8.044  1.00 20.00    -0.011 C 
HETATM   10  C8  UNL     1     -26.508  19.257   7.990  1.00 20.00     0.010 C 
HETATM   11  C9  UNL     1     -24.232  19.263   6.927  1.00 20.00     0.010 C 
ENDBRANCH   7   9
TORSDOF 1
ENDMDL
MODEL 6
REMARK VINA RESULT:      -4.2      1.539      3.538
REMARK  1 active torsions:
REMARK  status: ('A' for Active; 'I' for Inactive)
REMARK    1  A    between atoms: C7_7  and  C10_10 
ROOT
HETATM    1  C1  UNL     1     -36.251  13.983  -5.321  1.00 20.00    -0.018 C 
HETATM    2  C2  UNL     1     -36.886  14.422  -4.220  1.00 20.00    -0.024 C 
HETATM    3  C3  UNL     1     -34.135  14.589  -4.395  1.00 20.00     0.139 C 
HETATM    4  C4  UNL     1     -35.663  16.206  -5.038  1.00 20.00     0.025 C 
HETATM    5  C5  UNL     1     -35.075  14.892  -5.556  1.00 20.00     0.078 C 
HETATM    6  C6  UNL     1     -36.109  15.614  -3.691  1.00 20.00     0.020 C 
HETATM    7  C7  UNL     1     -34.778  15.077  -3.089  1.00 20.00     0.067 C 
HETATM    8  O11 UNL     1     -33.062  14.013  -4.485  1.00 20.00    -0.297 OA
ENDROOT
BRANCH   7   9
HETATM    9  C10 UNL     1     -33.935  16.135  -2.403  1.00 20.00    -0.011 C 
HETATM   10  C8  UNL     1     -33.226  17.021  -3.430  1.00 20.00     0.010 C 
HETATM   11  C9  UNL     1     -34.791  16.993  -1.465  1.00 20.00     0.010 C 
ENDBRANCH   7   9
TORSDOF 1
ENDMDL
MODEL 7
REMARK VINA RESULT:      -4.1      1.742      2.599
REMARK  1 active torsions:
REMARK  status: ('A' for Active; 'I' for Inactive)
REMARK    1  A    between atoms: C7_7  and  C10_10 
ROOT
HETATM    1  C1  UNL     1     -34.036  16.275  -2.435  1.00 20.00    -0.018 C 
HETATM    2  C2  UNL     1     -34.299  17.338  -3.215  1.00 20.00    -0.024 C 
HETATM    3  C3  UNL     1     -33.997  14.833  -4.337  1.00 20.00     0.139 C 
HETATM    4  C4  UNL     1     -35.974  15.794  -3.609  1.00 20.00     0.025 C 
HETATM    5  C5  UNL     1     -34.743  15.090  -3.033  1.00 20.00     0.078 C 
HETATM    6  C6  UNL     1     -35.160  16.855  -4.368  1.00 20.00     0.020 C 
HETATM    7  C7  UNL     1     -34.258  15.998  -5.302  1.00 20.00     0.067 C 
HETATM    8  O11 UNL     1     -33.274  13.875  -4.562  1.00 20.00    -0.297 OA
ENDROOT
BRANCH   7   9
HETATM    9  C10 UNL     1     -34.941  15.538  -6.576  1.00 20.00    -0.011 C 
HETATM   10  C8  UNL     1     -35.981  16.561  -7.040  1.00 20.00     0.010 C 
HETATM   11  C9  UNL     1     -33.916  15.285  -7.685  1.00 20.00     0.010 C 
ENDBRANCH   7   9
TORSDOF 1
ENDMDL
MODEL 8
REMARK VINA RESULT:      -4.1      1.675      3.275
REMARK  1 active torsions:
REMARK  status: ('A' for Active; 'I' for Inactive)
REMARK    1  A    between atoms: C7_7  and  C10_10 
ROOT
HETATM    1  C1  UNL     1     -34.585  14.149  -4.011  1.00 20.00    -0.018 C 
HETATM    2  C2  UNL     1     -33.341  14.638  -4.159  1.00 20.00    -0.024 C 
HETATM    3  C3  UNL     1     -35.529  16.304  -4.416  1.00 20.00     0.139 C 
HETATM    4  C4  UNL     1     -34.344  15.866  -2.475  1.00 20.00     0.025 C 
HETATM    5  C5  UNL     1     -35.416  15.217  -3.354  1.00 20.00     0.078 C 
HETATM    6  C6  UNL     1     -33.346  16.060  -3.628  1.00 20.00     0.020 C 
HETATM    7  C7  UNL     1     -34.146  16.935  -4.637  1.00 20.00     0.067 C 
HETATM    8  O11 UNL     1     -36.546  16.598  -5.024  1.00 20.00    -0.297 OA
ENDROOT
BRANCH   7   9
HETATM    9  C10 UNL     1     -34.141  18.418  -4.314  1.00 20.00    -0.011 C 
HETATM   10  C8  UNL     1     -32.804  18.840  -3.701  1.00 20.00     0.010 C 
HETATM   11  C9  UNL     1     -34.436  19.250  -5.566  1.00 20.00     0.010 C 
ENDBRANCH   7   9
TORSDOF 1
ENDMDL
MODEL 9
REMARK VINA RESULT:      -4.0      2.161      3.307
REMARK  1 active torsions:
REMARK  status: ('A' for Active; 'I' for Inactive)
REMARK    1  A    between atoms: C7_7  and  C10_10 
ROOT
HETATM    1  C1  UNL     1     -34.526  18.351  -1.490  1.00 20.00    -0.018 C 
HETATM    2  C2  UNL     1     -33.516  17.478  -1.326  1.00 20.00    -0.024 C 
HETATM    3  C3  UNL     1     -35.593  16.892  -3.049  1.00 20.00     0.139 C 
HETATM    4  C4  UNL     1     -33.614  17.967  -3.584  1.00 20.00     0.025 C 
HETATM    5  C5  UNL     1     -34.962  18.273  -2.928  1.00 20.00     0.078 C 
HETATM    6  C6  UNL     1     -33.296  16.782  -2.657  1.00 20.00     0.020 C 
HETATM    7  C7  UNL     1     -34.500  15.825  -2.892  1.00 20.00     0.067 C 
HETATM    8  O11 UNL     1     -36.784  16.669  -3.204  1.00 20.00    -0.297 OA
ENDROOT
BRANCH   7   9
HETATM    9  C10 UNL     1     -34.373  14.957  -4.129  1.00 20.00    -0.011 C 
HETATM   10  C8  UNL     1     -32.922  14.521  -4.345  1.00 20.00     0.010 C 
HETATM   11  C9  UNL     1     -35.285  13.731  -4.033  1.00 20.00     0.010 C 
ENDBRANCH   7   9
TORSDOF 1
ENDMDL
