MODEL 1
REMARK VINA RESULT:      -3.5      0.000      0.000
REMARK  3 active torsions:
REMARK  status: ('A' for Active; 'I' for Inactive)
REMARK    1  A    between atoms: C1_1  and  C7_7 
REMARK    2  A    between atoms: C1_1  and  N9_9 
REMARK    3  A    between atoms: C7_7  and  C8_8 
ROOT
HETATM    1  C1  UNL     1     -35.301  14.744  -5.034  1.00 20.00     0.075 C 
HETATM    2  S10 UNL     1     -36.775  14.106  -4.477  1.00 20.00    -0.066 SA
ENDROOT
BRANCH   1   3
HETATM    3  C7  UNL     1     -34.215  15.010  -3.971  1.00 20.00     0.077 C 
BRANCH   3   4
HETATM    4  C8  UNL     1     -34.336  16.333  -3.158  1.00 20.00    -0.045 C 
HETATM    5  C2  UNL     1     -32.906  16.831  -2.858  1.00 20.00     0.015 C 
HETATM    6  C3  UNL     1     -35.064  16.147  -1.819  1.00 20.00     0.015 C 
HETATM    7  C4  UNL     1     -35.060  17.427  -3.964  1.00 20.00     0.015 C 
ENDBRANCH   3   4
ENDBRANCH   1   3
BRANCH   1   8
HETATM    8  N9  UNL     1     -35.034  15.052  -6.374  1.00 20.00    -0.384 N 
HETATM    9  C5  UNL     1     -33.701  15.033  -6.975  1.00 20.00     0.149 C 
HETATM   10  C6  UNL     1     -36.065  15.573  -7.278  1.00 20.00     0.149 C 
ENDBRANCH   1   8
TORSDOF 3
ENDMDL
MODEL 2
REMARK VINA RESULT:      -3.4      1.476      2.217
REMARK  3 active torsions:
REMARK  status: ('A' for Active; 'I' for Inactive)
REMARK    1  A    between atoms: C1_1  and  C7_7 
REMARK    2  A    between atoms: C1_1  and  N9_9 
REMARK    3  A    between atoms: C7_7  and  C8_8 
ROOT
HETATM    1  C1  UNL     1     -36.077  16.333  -4.935  1.00 20.00     0.075 C 
HETATM    2  S10 UNL     1     -37.481  17.218  -4.564  1.00 20.00    -0.066 SA
ENDROOT
BRANCH   1   3
HETATM    3  C7  UNL     1     -34.727  17.000  -4.599  1.00 20.00     0.077 C 
BRANCH   3   4
HETATM    4  C8  UNL     1     -33.905  16.374  -3.434  1.00 20.00    -0.045 C 
HETATM    5  C2  UNL     1     -32.968  17.469  -2.881  1.00 20.00     0.015 C 
HETATM    6  C3  UNL     1     -33.037  15.190  -3.884  1.00 20.00     0.015 C 
HETATM    7  C4  UNL     1     -34.818  15.907  -2.286  1.00 20.00     0.015 C 
ENDBRANCH   3   4
ENDBRANCH   1   3
BRANCH   1   8
HETATM    8  N9  UNL     1     -36.082  15.067  -5.535  1.00 20.00    -0.384 N 
HETATM    9  C5  UNL     1     -36.411  13.824  -4.836  1.00 20.00     0.149 C 
HETATM   10  C6  UNL     1     -35.609  14.848  -6.906  1.00 20.00     0.149 C 
ENDBRANCH   1   8
TORSDOF 3
ENDMDL
MODEL 3
REMARK VINA RESULT:      -3.4      1.785      2.634
REMARK  3 active torsions:
REMARK  status: ('A' for Active; 'I' for Inactive)
REMARK    1  A    between atoms: C1_1  and  C7_7 
REMARK    2  A    between atoms: C1_1  and  N9_9 
REMARK    3  A    between atoms: C7_7  and  C8_8 
ROOT
HETATM    1  C1  UNL     1     -35.316  15.834  -5.614  1.00 20.00     0.075 C 
HETATM    2  S10 UNL     1     -34.556  15.617  -7.118  1.00 20.00    -0.066 SA
ENDROOT
BRANCH   1   3
HETATM    3  C7  UNL     1     -34.702  16.892  -4.673  1.00 20.00     0.077 C 
BRANCH   3   4
HETATM    4  C8  UNL     1     -33.860  16.362  -3.475  1.00 20.00    -0.045 C 
HETATM    5  C2  UNL     1     -32.928  17.505  -3.017  1.00 20.00     0.015 C 
HETATM    6  C3  UNL     1     -32.984  15.158  -3.847  1.00 20.00     0.015 C 
HETATM    7  C4  UNL     1     -34.753  15.973  -2.284  1.00 20.00     0.015 C 
ENDBRANCH   3   4
ENDBRANCH   1   3
BRANCH   1   8
HETATM    8  N9  UNL     1     -36.433  15.106  -5.185  1.00 20.00    -0.384 N 
HETATM    9  C5  UNL     1     -37.757  15.685  -4.955  1.00 20.00     0.149 C 
HETATM   10  C6  UNL     1     -36.343  13.699  -4.781  1.00 20.00     0.149 C 
ENDBRANCH   1   8
TORSDOF 3
ENDMDL
MODEL 4
REMARK VINA RESULT:      -3.4      1.444      2.333
REMARK  3 active torsions:
REMARK  status: ('A' for Active; 'I' for Inactive)
REMARK    1  A    between atoms: C1_1  and  C7_7 
REMARK    2  A    between atoms: C1_1  and  N9_9 
REMARK    3  A    between atoms: C7_7  and  C8_8 
ROOT
HETATM    1  C1  UNL     1     -36.117  16.206  -4.757  1.00 20.00     0.075 C 
HETATM    2  S10 UNL     1     -37.558  16.968  -4.275  1.00 20.00    -0.066 SA
ENDROOT
BRANCH   1   3
HETATM    3  C7  UNL     1     -34.805  16.973  -4.488  1.00 20.00     0.077 C 
BRANCH   3   4
HETATM    4  C8  UNL     1     -33.888  16.419  -3.357  1.00 20.00    -0.045 C 
HETATM    5  C2  UNL     1     -34.801  15.917  -2.218  1.00 20.00     0.015 C 
HETATM    6  C3  UNL     1     -32.947  17.484  -2.776  1.00 20.00     0.015 C 
HETATM    7  C4  UNL     1     -33.043  15.229  -3.846  1.00 20.00     0.015 C 
ENDBRANCH   3   4
ENDBRANCH   1   3
BRANCH   1   8
HETATM    8  N9  UNL     1     -36.061  14.957  -5.387  1.00 20.00    -0.384 N 
HETATM    9  C5  UNL     1     -36.344  13.684  -4.724  1.00 20.00     0.149 C 
HETATM   10  C6  UNL     1     -35.563  14.794  -6.757  1.00 20.00     0.149 C 
ENDBRANCH   1   8
TORSDOF 3
ENDMDL
MODEL 5
REMARK VINA RESULT:      -3.4      1.768      2.525
REMARK  3 active torsions:
REMARK  status: ('A' for Active; 'I' for Inactive)
REMARK    1  A    between atoms: C1_1  and  C7_7 
REMARK    2  A    between atoms: C1_1  and  N9_9 
REMARK    3  A    between atoms: C7_7  and  C8_8 
ROOT
HETATM    1  C1  UNL     1     -35.267  15.831  -5.579  1.00 20.00     0.075 C 
HETATM    2  S10 UNL     1     -34.465  15.573  -7.055  1.00 20.00    -0.066 SA
ENDROOT
BRANCH   1   3
HETATM    3  C7  UNL     1     -34.670  16.905  -4.644  1.00 20.00     0.077 C 
BRANCH   3   4
HETATM    4  C8  UNL     1     -33.893  16.394  -3.395  1.00 20.00    -0.045 C 
HETATM    5  C2  UNL     1     -33.048  15.179  -3.834  1.00 20.00     0.015 C 
HETATM    6  C3  UNL     1     -34.821  15.940  -2.259  1.00 20.00     0.015 C 
HETATM    7  C4  UNL     1     -32.934  17.466  -2.848  1.00 20.00     0.015 C 
ENDBRANCH   3   4
ENDBRANCH   1   3
BRANCH   1   8
HETATM    8  N9  UNL     1     -36.404  15.124  -5.167  1.00 20.00    -0.384 N 
HETATM    9  C5  UNL     1     -37.716  15.730  -4.940  1.00 20.00     0.149 C 
HETATM   10  C6  UNL     1     -36.348  13.711  -4.778  1.00 20.00     0.149 C 
ENDBRANCH   1   8
TORSDOF 3
ENDMDL
MODEL 6
REMARK VINA RESULT:      -3.4      1.206      2.260
REMARK  3 active torsions:
REMARK  status: ('A' for Active; 'I' for Inactive)
REMARK    1  A    between atoms: C1_1  and  C7_7 
REMARK    2  A    between atoms: C1_1  and  N9_9 
REMARK    3  A    between atoms: C7_7  and  C8_8 
ROOT
HETATM    1  C1  UNL     1     -35.235  15.096  -3.916  1.00 20.00     0.075 C 
HETATM    2  S10 UNL     1     -36.879  14.846  -4.268  1.00 20.00    -0.066 SA
ENDROOT
BRANCH   1   3
HETATM    3  C7  UNL     1     -34.891  15.519  -2.472  1.00 20.00     0.077 C 
BRANCH   3   4
HETATM    4  C8  UNL     1     -34.545  17.020  -2.244  1.00 20.00    -0.045 C 
HETATM    5  C2  UNL     1     -35.084  17.419  -0.853  1.00 20.00     0.015 C 
HETATM    6  C3  UNL     1     -35.189  17.947  -3.285  1.00 20.00     0.015 C 
HETATM    7  C4  UNL     1     -33.024  17.256  -2.248  1.00 20.00     0.015 C 
ENDBRANCH   3   4
ENDBRANCH   1   3
BRANCH   1   8
HETATM    8  N9  UNL     1     -34.201  14.960  -4.851  1.00 20.00    -0.384 N 
HETATM    9  C5  UNL     1     -34.354  15.186  -6.288  1.00 20.00     0.149 C 
HETATM   10  C6  UNL     1     -32.883  14.429  -4.489  1.00 20.00     0.149 C 
ENDBRANCH   1   8
TORSDOF 3
ENDMDL
MODEL 7
REMARK VINA RESULT:      -3.3      1.772      2.755
REMARK  3 active torsions:
REMARK  status: ('A' for Active; 'I' for Inactive)
REMARK    1  A    between atoms: C1_1  and  C7_7 
REMARK    2  A    between atoms: C1_1  and  N9_9 
REMARK    3  A    between atoms: C7_7  and  C8_8 
ROOT
HETATM    1  C1  UNL     1     -35.306  15.839  -5.558  1.00 20.00     0.075 C 
HETATM    2  S10 UNL     1     -34.506  15.622  -7.042  1.00 20.00    -0.066 SA
ENDROOT
BRANCH   1   3
HETATM    3  C7  UNL     1     -34.730  16.911  -4.609  1.00 20.00     0.077 C 
BRANCH   3   4
HETATM    4  C8  UNL     1     -33.850  16.404  -3.429  1.00 20.00    -0.045 C 
HETATM    5  C2  UNL     1     -34.799  15.978  -2.287  1.00 20.00     0.015 C 
HETATM    6  C3  UNL     1     -32.905  17.484  -2.881  1.00 20.00     0.015 C 
HETATM    7  C4  UNL     1     -33.014  15.177  -3.833  1.00 20.00     0.015 C 
ENDBRANCH   3   4
ENDBRANCH   1   3
BRANCH   1   8
HETATM    8  N9  UNL     1     -36.424  15.098  -5.152  1.00 20.00    -0.384 N 
HETATM    9  C5  UNL     1     -37.749  15.670  -4.913  1.00 20.00     0.149 C 
HETATM   10  C6  UNL     1     -36.333  13.682  -4.782  1.00 20.00     0.149 C 
ENDBRANCH   1   8
TORSDOF 3
ENDMDL
MODEL 8
REMARK VINA RESULT:      -3.3      1.822      2.463
REMARK  3 active torsions:
REMARK  status: ('A' for Active; 'I' for Inactive)
REMARK    1  A    between atoms: C1_1  and  C7_7 
REMARK    2  A    between atoms: C1_1  and  N9_9 
REMARK    3  A    between atoms: C7_7  and  C8_8 
ROOT
HETATM    1  C1  UNL     1     -35.314  16.093  -5.559  1.00 20.00     0.075 C 
HETATM    2  S10 UNL     1     -34.588  16.045  -7.095  1.00 20.00    -0.066 SA
ENDROOT
BRANCH   1   3
HETATM    3  C7  UNL     1     -34.692  17.059  -4.528  1.00 20.00     0.077 C 
BRANCH   3   4
HETATM    4  C8  UNL     1     -33.881  16.416  -3.365  1.00 20.00    -0.045 C 
HETATM    5  C2  UNL     1     -32.926  17.495  -2.809  1.00 20.00     0.015 C 
HETATM    6  C3  UNL     1     -33.031  15.220  -3.818  1.00 20.00     0.015 C 
HETATM    7  C4  UNL     1     -34.800  15.961  -2.218  1.00 20.00     0.015 C 
ENDBRANCH   3   4
ENDBRANCH   1   3
BRANCH   1   8
HETATM    8  N9  UNL     1     -36.410  15.306  -5.182  1.00 20.00    -0.384 N 
HETATM    9  C5  UNL     1     -36.346  13.865  -4.939  1.00 20.00     0.149 C 
HETATM   10  C6  UNL     1     -37.776  15.838  -5.136  1.00 20.00     0.149 C 
ENDBRANCH   1   8
TORSDOF 3
ENDMDL
MODEL 9
REMARK VINA RESULT:      -3.3      1.928      2.743
REMARK  3 active torsions:
REMARK  status: ('A' for Active; 'I' for Inactive)
REMARK    1  A    between atoms: C1_1  and  C7_7 
REMARK    2  A    between atoms: C1_1  and  N9_9 
REMARK    3  A    between atoms: C7_7  and  C8_8 
ROOT
HETATM    1  C1  UNL     1     -34.835  16.969  -5.773  1.00 20.00     0.075 C 
HETATM    2  S10 UNL     1     -34.099  18.486  -5.994  1.00 20.00    -0.066 SA
ENDROOT
BRANCH   1   3
HETATM    3  C7  UNL     1     -35.428  16.683  -4.377  1.00 20.00     0.077 C 
BRANCH   3   4
HETATM    4  C8  UNL     1     -34.612  15.738  -3.447  1.00 20.00    -0.045 C 
HETATM    5  C2  UNL     1     -35.012  16.056  -1.990  1.00 20.00     0.015 C 
HETATM    6  C3  UNL     1     -33.095  15.937  -3.576  1.00 20.00     0.015 C 
HETATM    7  C4  UNL     1     -34.939  14.259  -3.716  1.00 20.00     0.015 C 
ENDBRANCH   3   4
ENDBRANCH   1   3
BRANCH   1   8
HETATM    8  N9  UNL     1     -34.912  15.981  -6.762  1.00 20.00    -0.384 N 
HETATM    9  C5  UNL     1     -36.149  15.576  -7.430  1.00 20.00     0.149 C 
HETATM   10  C6  UNL     1     -33.762  15.145  -7.124  1.00 20.00     0.149 C 
ENDBRANCH   1   8
TORSDOF 3
ENDMDL
