MODEL 1
REMARK VINA RESULT:      -4.8      0.000      0.000
REMARK  1 active torsions:
REMARK  status: ('A' for Active; 'I' for Inactive)
REMARK    1  A    between atoms: C6_6  and  C7_7 
ROOT
HETATM    1  C1  UNL     1     -35.676  13.857  -4.390  1.00 20.00     0.146 C 
HETATM    2  C2  UNL     1     -36.524  14.958  -3.733  1.00 20.00     0.091 C 
HETATM    3  C5  UNL     1     -34.532  14.839  -4.709  1.00 20.00     0.160 C 
HETATM    4  C7  UNL     1     -35.216  15.835  -3.682  1.00 20.00    -0.010 C 
HETATM    5  C8  UNL     1     -35.443  17.213  -4.320  1.00 20.00     0.018 C 
HETATM    6  O9  UNL     1     -35.851  12.671  -4.580  1.00 20.00    -0.296 OA
HETATM    7 CL10 UNL     1     -32.898  14.196  -4.395  1.00 20.00    -0.116 Cl
ENDROOT
BRANCH   4   8
HETATM    8  C6  UNL     1     -34.581  15.973  -2.292  1.00 20.00    -0.004 A 
HETATM    9  C3  UNL     1     -33.923  17.236  -1.812  1.00 20.00     0.006 A 
HETATM   10  C4  UNL     1     -35.205  16.770  -1.180  1.00 20.00     0.006 A 
ENDBRANCH   4   8
TORSDOF 1
ENDMDL
MODEL 2
REMARK VINA RESULT:      -4.4      1.382      1.509
REMARK  1 active torsions:
REMARK  status: ('A' for Active; 'I' for Inactive)
REMARK    1  A    between atoms: C6_6  and  C7_7 
ROOT
HETATM    1  C1  UNL     1     -37.313  14.688  -4.291  1.00 20.00     0.146 C 
HETATM    2  C2  UNL     1     -37.091  16.165  -3.927  1.00 20.00     0.091 C 
HETATM    3  C5  UNL     1     -35.831  14.493  -4.666  1.00 20.00     0.160 C 
HETATM    4  C7  UNL     1     -35.548  15.854  -3.905  1.00 20.00    -0.010 C 
HETATM    5  C8  UNL     1     -34.768  16.831  -4.797  1.00 20.00     0.018 C 
HETATM    6  O9  UNL     1     -38.286  13.964  -4.285  1.00 20.00    -0.296 OA
HETATM    7 CL10 UNL     1     -35.118  12.964  -4.084  1.00 20.00    -0.116 Cl
ENDROOT
BRANCH   4   8
HETATM    8  C6  UNL     1     -34.922  15.772  -2.506  1.00 20.00    -0.004 A 
HETATM    9  C3  UNL     1     -33.887  16.743  -2.011  1.00 20.00     0.006 A 
HETATM   10  C4  UNL     1     -35.260  16.732  -1.398  1.00 20.00     0.006 A 
ENDBRANCH   4   8
TORSDOF 1
ENDMDL
MODEL 3
REMARK VINA RESULT:      -4.3     10.792     12.083
REMARK  1 active torsions:
REMARK  status: ('A' for Active; 'I' for Inactive)
REMARK    1  A    between atoms: C6_6  and  C7_7 
ROOT
HETATM    1  C1  UNL     1     -41.501   8.736   0.088  1.00 20.00     0.146 C 
HETATM    2  C2  UNL     1     -41.059   7.491   0.874  1.00 20.00     0.091 C 
HETATM    3  C5  UNL     1     -41.884   7.897  -1.147  1.00 20.00     0.160 C 
HETATM    4  C7  UNL     1     -41.827   6.629  -0.197  1.00 20.00    -0.010 C 
HETATM    5  C8  UNL     1     -40.922   5.539  -0.790  1.00 20.00     0.018 C 
HETATM    6  O9  UNL     1     -41.531   9.920   0.349  1.00 20.00    -0.296 OA
HETATM    7 CL10 UNL     1     -43.417   8.381  -1.921  1.00 20.00    -0.116 Cl
ENDROOT
BRANCH   4   8
HETATM    8  C6  UNL     1     -43.159   6.034   0.279  1.00 20.00    -0.004 A 
HETATM    9  C3  UNL     1     -43.330   4.584   0.634  1.00 20.00     0.006 A 
HETATM   10  C4  UNL     1     -43.415   5.634   1.706  1.00 20.00     0.006 A 
ENDBRANCH   4   8
TORSDOF 1
ENDMDL
MODEL 4
REMARK VINA RESULT:      -4.2     17.879     18.567
REMARK  1 active torsions:
REMARK  status: ('A' for Active; 'I' for Inactive)
REMARK    1  A    between atoms: C6_6  and  C7_7 
ROOT
HETATM    1  C1  UNL     1     -25.654  16.737  12.137  1.00 20.00     0.146 C 
HETATM    2  C2  UNL     1     -24.306  16.021  11.961  1.00 20.00     0.091 C 
HETATM    3  C5  UNL     1     -25.008  18.128  11.977  1.00 20.00     0.160 C 
HETATM    4  C7  UNL     1     -23.741  17.376  11.392  1.00 20.00    -0.010 C 
HETATM    5  C8  UNL     1     -22.462  17.801  12.129  1.00 20.00     0.018 C 
HETATM    6  O9  UNL     1     -26.787  16.348  12.329  1.00 20.00    -0.296 OA
HETATM    7 CL10 UNL     1     -25.938  19.261  10.961  1.00 20.00    -0.116 Cl
ENDROOT
BRANCH   4   8
HETATM    8  C6  UNL     1     -23.532  17.407   9.872  1.00 20.00    -0.004 A 
HETATM    9  C3  UNL     1     -22.696  18.445   9.179  1.00 20.00     0.006 A 
HETATM   10  C4  UNL     1     -22.239  17.013   9.213  1.00 20.00     0.006 A 
ENDBRANCH   4   8
TORSDOF 1
ENDMDL
MODEL 5
REMARK VINA RESULT:      -3.9      2.132      2.848
REMARK  1 active torsions:
REMARK  status: ('A' for Active; 'I' for Inactive)
REMARK    1  A    between atoms: C6_6  and  C7_7 
ROOT
HETATM    1  C1  UNL     1     -35.654  14.803  -6.520  1.00 20.00     0.146 C 
HETATM    2  C2  UNL     1     -34.206  15.274  -6.305  1.00 20.00     0.091 C 
HETATM    3  C5  UNL     1     -35.690  14.087  -5.155  1.00 20.00     0.160 C 
HETATM    4  C7  UNL     1     -34.391  14.916  -4.783  1.00 20.00    -0.010 C 
HETATM    5  C8  UNL     1     -33.271  13.989  -4.287  1.00 20.00     0.018 C 
HETATM    6  O9  UNL     1     -36.452  14.945  -7.422  1.00 20.00    -0.296 OA
HETATM    7 CL10 UNL     1     -37.204  14.318  -4.241  1.00 20.00    -0.116 Cl
ENDROOT
BRANCH   4   8
HETATM    8  C6  UNL     1     -34.557  16.121  -3.847  1.00 20.00    -0.004 A 
HETATM    9  C3  UNL     1     -34.478  16.016  -2.350  1.00 20.00     0.006 A 
HETATM   10  C4  UNL     1     -33.409  16.752  -3.108  1.00 20.00     0.006 A 
ENDBRANCH   4   8
TORSDOF 1
ENDMDL
MODEL 6
REMARK VINA RESULT:      -3.9      2.549      3.745
REMARK  1 active torsions:
REMARK  status: ('A' for Active; 'I' for Inactive)
REMARK    1  A    between atoms: C6_6  and  C7_7 
ROOT
HETATM    1  C1  UNL     1     -37.306  14.352  -4.292  1.00 20.00     0.146 C 
HETATM    2  C2  UNL     1     -35.981  13.647  -4.620  1.00 20.00     0.091 C 
HETATM    3  C5  UNL     1     -36.585  15.642  -3.853  1.00 20.00     0.160 C 
HETATM    4  C7  UNL     1     -35.297  15.065  -4.577  1.00 20.00    -0.010 C 
HETATM    5  C8  UNL     1     -34.086  15.073  -3.633  1.00 20.00     0.018 C 
HETATM    6  O9  UNL     1     -38.470  14.014  -4.356  1.00 20.00    -0.296 OA
HETATM    7 CL10 UNL     1     -37.349  17.147  -4.427  1.00 20.00    -0.116 Cl
ENDROOT
BRANCH   4   8
HETATM    8  C6  UNL     1     -34.927  15.650  -5.946  1.00 20.00    -0.004 A 
HETATM    9  C3  UNL     1     -33.858  15.067  -6.826  1.00 20.00     0.006 A 
HETATM   10  C4  UNL     1     -35.299  14.994  -7.247  1.00 20.00     0.006 A 
ENDBRANCH   4   8
TORSDOF 1
ENDMDL
MODEL 7
REMARK VINA RESULT:      -3.9      2.234      2.657
REMARK  1 active torsions:
REMARK  status: ('A' for Active; 'I' for Inactive)
REMARK    1  A    between atoms: C6_6  and  C7_7 
ROOT
HETATM    1  C1  UNL     1     -33.959  15.076  -5.432  1.00 20.00     0.146 C 
HETATM    2  C2  UNL     1     -33.387  14.797  -4.033  1.00 20.00     0.091 C 
HETATM    3  C5  UNL     1     -34.995  16.075  -4.877  1.00 20.00     0.160 C 
HETATM    4  C7  UNL     1     -34.136  16.093  -3.545  1.00 20.00    -0.010 C 
HETATM    5  C8  UNL     1     -35.016  15.802  -2.320  1.00 20.00     0.018 C 
HETATM    6  O9  UNL     1     -33.692  14.663  -6.540  1.00 20.00    -0.296 OA
HETATM    7 CL10 UNL     1     -35.186  17.556  -5.852  1.00 20.00    -0.116 Cl
ENDROOT
BRANCH   4   8
HETATM    8  C6  UNL     1     -33.234  17.309  -3.294  1.00 20.00    -0.004 A 
HETATM    9  C3  UNL     1     -33.673  18.506  -2.498  1.00 20.00     0.006 A 
HETATM   10  C4  UNL     1     -32.600  17.600  -1.962  1.00 20.00     0.006 A 
ENDBRANCH   4   8
TORSDOF 1
ENDMDL
MODEL 8
REMARK VINA RESULT:      -3.9      2.565      3.789
REMARK  1 active torsions:
REMARK  status: ('A' for Active; 'I' for Inactive)
REMARK    1  A    between atoms: C6_6  and  C7_7 
ROOT
HETATM    1  C1  UNL     1     -34.551  16.242  -2.085  1.00 20.00     0.146 C 
HETATM    2  C2  UNL     1     -35.008  15.112  -3.023  1.00 20.00     0.091 C 
HETATM    3  C5  UNL     1     -33.241  16.449  -2.871  1.00 20.00     0.160 C 
HETATM    4  C7  UNL     1     -33.906  15.602  -4.035  1.00 20.00    -0.010 C 
HETATM    5  C8  UNL     1     -32.990  14.447  -4.466  1.00 20.00     0.018 C 
HETATM    6  O9  UNL     1     -35.041  16.762  -1.105  1.00 20.00    -0.296 OA
HETATM    7 CL10 UNL     1     -32.799  18.157  -3.131  1.00 20.00    -0.116 Cl
ENDROOT
BRANCH   4   8
HETATM    8  C6  UNL     1     -34.437  16.364  -5.256  1.00 20.00    -0.004 A 
HETATM    9  C3  UNL     1     -34.369  15.821  -6.656  1.00 20.00     0.006 A 
HETATM   10  C4  UNL     1     -35.701  15.981  -5.977  1.00 20.00     0.006 A 
ENDBRANCH   4   8
TORSDOF 1
ENDMDL
MODEL 9
REMARK VINA RESULT:      -3.9      1.819      2.636
REMARK  1 active torsions:
REMARK  status: ('A' for Active; 'I' for Inactive)
REMARK    1  A    between atoms: C6_6  and  C7_7 
ROOT
HETATM    1  C1  UNL     1     -35.712  13.787  -4.284  1.00 20.00     0.146 C 
HETATM    2  C2  UNL     1     -34.413  14.379  -3.715  1.00 20.00     0.091 C 
HETATM    3  C5  UNL     1     -36.565  14.925  -3.689  1.00 20.00     0.160 C 
HETATM    4  C7  UNL     1     -35.208  15.718  -3.482  1.00 20.00    -0.010 C 
HETATM    5  C8  UNL     1     -35.071  16.204  -2.032  1.00 20.00     0.018 C 
HETATM    6  O9  UNL     1     -35.960  12.801  -4.945  1.00 20.00    -0.296 OA
HETATM    7 CL10 UNL     1     -37.824  15.554  -4.785  1.00 20.00    -0.116 Cl
ENDROOT
BRANCH   4   8
HETATM    8  C6  UNL     1     -34.884  16.847  -4.470  1.00 20.00    -0.004 A 
HETATM    9  C3  UNL     1     -35.142  18.297  -4.173  1.00 20.00     0.006 A 
HETATM   10  C4  UNL     1     -33.731  17.794  -4.285  1.00 20.00     0.006 A 
ENDBRANCH   4   8
TORSDOF 1
ENDMDL
