MODEL 1
REMARK VINA RESULT:      -4.9      0.000      0.000
REMARK  1 active torsions:
REMARK  status: ('A' for Active; 'I' for Inactive)
REMARK    1  A    between atoms: C4_4  and  C10_10 
ROOT
HETATM    1  C1  UNL     1     -33.918   6.945   5.951  1.00 20.00    -0.003 C 
HETATM    2  C2  UNL     1     -33.266   7.256   4.699  1.00 20.00     0.011 C 
HETATM    3  C3  UNL     1     -34.610   5.857   6.308  1.00 20.00    -0.026 C 
HETATM    4  C4  UNL     1     -33.192   6.577   3.542  1.00 20.00    -0.009 C 
HETATM    5  C5  UNL     1     -33.906   5.291   3.280  1.00 20.00     0.156 C 
HETATM    6  C6  UNL     1     -34.985   4.682   5.464  1.00 20.00     0.035 C 
HETATM    7  C7  UNL     1     -35.203   5.014   4.000  1.00 20.00     0.087 C 
HETATM    8  O11 UNL     1     -33.466   4.495   2.450  1.00 20.00    -0.293 OA
ENDROOT
BRANCH   4   9
HETATM    9  C10 UNL     1     -32.348   7.075   2.401  1.00 20.00     0.014 C 
HETATM   10  C8  UNL     1     -33.198   7.894   1.439  1.00 20.00     0.015 C 
HETATM   11  C9  UNL     1     -31.169   7.890   2.922  1.00 20.00     0.015 C 
ENDBRANCH   4   9
TORSDOF 1
ENDMDL
MODEL 2
REMARK VINA RESULT:      -4.5     11.647     13.169
REMARK  1 active torsions:
REMARK  status: ('A' for Active; 'I' for Inactive)
REMARK    1  A    between atoms: C4_4  and  C10_10 
ROOT
HETATM    1  C1  UNL     1     -36.557  16.625  -5.587  1.00 20.00    -0.003 C 
HETATM    2  C2  UNL     1     -35.746  16.591  -4.392  1.00 20.00     0.011 C 
HETATM    3  C3  UNL     1     -36.492  15.868  -6.689  1.00 20.00    -0.026 C 
HETATM    4  C4  UNL     1     -34.691  15.831  -4.055  1.00 20.00    -0.009 C 
HETATM    5  C5  UNL     1     -34.046  14.841  -4.971  1.00 20.00     0.156 C 
HETATM    6  C6  UNL     1     -35.483  14.819  -7.030  1.00 20.00     0.035 C 
HETATM    7  C7  UNL     1     -34.102  15.079  -6.460  1.00 20.00     0.087 C 
HETATM    8  O11 UNL     1     -33.435  13.877  -4.511  1.00 20.00    -0.293 OA
ENDROOT
BRANCH   4   9
HETATM    9  C10 UNL     1     -34.077  15.916  -2.685  1.00 20.00     0.014 C 
HETATM   10  C8  UNL     1     -32.922  16.911  -2.690  1.00 20.00     0.015 C 
HETATM   11  C9  UNL     1     -35.128  16.300  -1.649  1.00 20.00     0.015 C 
ENDBRANCH   4   9
TORSDOF 1
ENDMDL
MODEL 3
REMARK VINA RESULT:      -4.3     11.717     12.668
REMARK  1 active torsions:
REMARK  status: ('A' for Active; 'I' for Inactive)
REMARK    1  A    between atoms: C4_4  and  C10_10 
ROOT
HETATM    1  C1  UNL     1     -31.909  18.210  -1.254  1.00 20.00    -0.003 C 
HETATM    2  C2  UNL     1     -33.043  17.518  -1.822  1.00 20.00     0.011 C 
HETATM    3  C3  UNL     1     -31.734  18.698  -0.019  1.00 20.00    -0.026 C 
HETATM    4  C4  UNL     1     -34.240  17.197  -1.303  1.00 20.00    -0.009 C 
HETATM    5  C5  UNL     1     -34.698  17.606   0.059  1.00 20.00     0.156 C 
HETATM    6  C6  UNL     1     -32.719  18.744   1.104  1.00 20.00     0.035 C 
HETATM    7  C7  UNL     1     -34.162  18.883   0.658  1.00 20.00     0.087 C 
HETATM    8  O11 UNL     1     -35.541  16.937   0.657  1.00 20.00    -0.293 OA
ENDROOT
BRANCH   4   9
HETATM    9  C10 UNL     1     -35.226  16.365  -2.078  1.00 20.00     0.014 C 
HETATM   10  C8  UNL     1     -36.181  17.268  -2.848  1.00 20.00     0.015 C 
HETATM   11  C9  UNL     1     -34.499  15.408  -3.015  1.00 20.00     0.015 C 
ENDBRANCH   4   9
TORSDOF 1
ENDMDL
MODEL 4
REMARK VINA RESULT:      -4.3     15.475     16.315
REMARK  1 active torsions:
REMARK  status: ('A' for Active; 'I' for Inactive)
REMARK    1  A    between atoms: C4_4  and  C10_10 
ROOT
HETATM    1  C1  UNL     1     -24.197  15.787  11.873  1.00 20.00    -0.003 C 
HETATM    2  C2  UNL     1     -23.455  16.633  10.967  1.00 20.00     0.011 C 
HETATM    3  C3  UNL     1     -25.448  15.913  12.332  1.00 20.00    -0.026 C 
HETATM    4  C4  UNL     1     -23.781  17.786  10.358  1.00 20.00    -0.009 C 
HETATM    5  C5  UNL     1     -25.061  18.521  10.589  1.00 20.00     0.156 C 
HETATM    6  C6  UNL     1     -26.408  17.036  12.101  1.00 20.00     0.035 C 
HETATM    7  C7  UNL     1     -25.748  18.390  11.926  1.00 20.00     0.087 C 
HETATM    8  O11 UNL     1     -25.516  19.263   9.719  1.00 20.00    -0.293 OA
ENDROOT
BRANCH   4   9
HETATM    9  C10 UNL     1     -22.856  18.426   9.359  1.00 20.00     0.014 C 
HETATM   10  C8  UNL     1     -21.406  18.216   9.779  1.00 20.00     0.015 C 
HETATM   11  C9  UNL     1     -23.108  17.871   7.962  1.00 20.00     0.015 C 
ENDBRANCH   4   9
TORSDOF 1
ENDMDL
MODEL 5
REMARK VINA RESULT:      -4.3     11.863     12.612
REMARK  1 active torsions:
REMARK  status: ('A' for Active; 'I' for Inactive)
REMARK    1  A    between atoms: C4_4  and  C10_10 
ROOT
HETATM    1  C1  UNL     1     -35.228  16.927  -0.434  1.00 20.00    -0.003 C 
HETATM    2  C2  UNL     1     -35.079  16.223  -1.687  1.00 20.00     0.011 C 
HETATM    3  C3  UNL     1     -34.598  18.020   0.014  1.00 20.00    -0.026 C 
HETATM    4  C4  UNL     1     -34.261  16.432  -2.732  1.00 20.00    -0.009 C 
HETATM    5  C5  UNL     1     -33.195  17.478  -2.765  1.00 20.00     0.156 C 
HETATM    6  C6  UNL     1     -33.480  18.773  -0.633  1.00 20.00     0.035 C 
HETATM    7  C7  UNL     1     -32.554  17.910  -1.469  1.00 20.00     0.087 C 
HETATM    8  O11 UNL     1     -32.812  17.940  -3.840  1.00 20.00    -0.293 OA
ENDROOT
BRANCH   4   9
HETATM    9  C10 UNL     1     -34.377  15.608  -3.986  1.00 20.00     0.014 C 
HETATM   10  C8  UNL     1     -33.134  14.746  -4.162  1.00 20.00     0.015 C 
HETATM   11  C9  UNL     1     -35.638  14.753  -3.951  1.00 20.00     0.015 C 
ENDBRANCH   4   9
TORSDOF 1
ENDMDL
MODEL 6
REMARK VINA RESULT:      -4.2     11.826     12.562
REMARK  1 active torsions:
REMARK  status: ('A' for Active; 'I' for Inactive)
REMARK    1  A    between atoms: C4_4  and  C10_10 
ROOT
HETATM    1  C1  UNL     1     -33.015  15.339  -3.861  1.00 20.00    -0.003 C 
HETATM    2  C2  UNL     1     -33.424  16.216  -2.787  1.00 20.00     0.011 C 
HETATM    3  C3  UNL     1     -33.746  14.773  -4.829  1.00 20.00    -0.026 C 
HETATM    4  C4  UNL     1     -34.632  16.683  -2.431  1.00 20.00    -0.009 C 
HETATM    5  C5  UNL     1     -35.912  16.280  -3.090  1.00 20.00     0.156 C 
HETATM    6  C6  UNL     1     -35.229  14.818  -5.013  1.00 20.00     0.035 C 
HETATM    7  C7  UNL     1     -36.013  14.912  -3.718  1.00 20.00     0.087 C 
HETATM    8  O11 UNL     1     -36.883  17.036  -3.072  1.00 20.00    -0.293 OA
ENDROOT
BRANCH   4   9
HETATM    9  C10 UNL     1     -34.782  17.685  -1.320  1.00 20.00     0.014 C 
HETATM   10  C8  UNL     1     -35.370  17.014  -0.085  1.00 20.00     0.015 C 
HETATM   11  C9  UNL     1     -33.441  18.338  -1.002  1.00 20.00     0.015 C 
ENDBRANCH   4   9
TORSDOF 1
ENDMDL
MODEL 7
REMARK VINA RESULT:      -4.2     12.059     12.791
REMARK  1 active torsions:
REMARK  status: ('A' for Active; 'I' for Inactive)
REMARK    1  A    between atoms: C4_4  and  C10_10 
ROOT
HETATM    1  C1  UNL     1     -31.107  18.443   0.017  1.00 20.00    -0.003 C 
HETATM    2  C2  UNL     1     -31.826  18.165  -1.205  1.00 20.00     0.011 C 
HETATM    3  C3  UNL     1     -31.536  18.426   1.285  1.00 20.00    -0.026 C 
HETATM    4  C4  UNL     1     -33.113  17.848  -1.428  1.00 20.00    -0.009 C 
HETATM    5  C5  UNL     1     -34.158  17.799  -0.362  1.00 20.00     0.156 C 
HETATM    6  C6  UNL     1     -32.926  18.200   1.788  1.00 20.00     0.035 C 
HETATM    7  C7  UNL     1     -34.012  18.688   0.848  1.00 20.00     0.087 C 
HETATM    8  O11 UNL     1     -35.150  17.083  -0.498  1.00 20.00    -0.293 OA
ENDROOT
BRANCH   4   9
HETATM    9  C10 UNL     1     -33.599  17.494  -2.807  1.00 20.00     0.014 C 
HETATM   10  C8  UNL     1     -33.062  18.494  -3.823  1.00 20.00     0.015 C 
HETATM   11  C9  UNL     1     -33.192  16.071  -3.171  1.00 20.00     0.015 C 
ENDBRANCH   4   9
TORSDOF 1
ENDMDL
MODEL 8
REMARK VINA RESULT:      -4.1     11.708     13.456
REMARK  1 active torsions:
REMARK  status: ('A' for Active; 'I' for Inactive)
REMARK    1  A    between atoms: C4_4  and  C10_10 
ROOT
HETATM    1  C1  UNL     1     -33.996  18.165  -4.528  1.00 20.00    -0.003 C 
HETATM    2  C2  UNL     1     -34.432  17.213  -5.523  1.00 20.00     0.011 C 
HETATM    3  C3  UNL     1     -33.416  17.957  -3.339  1.00 20.00    -0.026 C 
HETATM    4  C4  UNL     1     -34.415  15.869  -5.536  1.00 20.00    -0.009 C 
HETATM    5  C5  UNL     1     -33.978  15.027  -4.382  1.00 20.00     0.156 C 
HETATM    6  C6  UNL     1     -33.140  16.653  -2.662  1.00 20.00     0.035 C 
HETATM    7  C7  UNL     1     -34.144  15.563  -2.981  1.00 20.00     0.087 C 
HETATM    8  O11 UNL     1     -33.539  13.893  -4.573  1.00 20.00    -0.293 OA
ENDROOT
BRANCH   4   9
HETATM    9  C10 UNL     1     -34.834  15.098  -6.758  1.00 20.00     0.014 C 
HETATM   10  C8  UNL     1     -36.226  15.533  -7.199  1.00 20.00     0.015 C 
HETATM   11  C9  UNL     1     -33.820  15.280  -7.882  1.00 20.00     0.015 C 
ENDBRANCH   4   9
TORSDOF 1
ENDMDL
MODEL 9
REMARK VINA RESULT:      -4.1     11.791     12.258
REMARK  1 active torsions:
REMARK  status: ('A' for Active; 'I' for Inactive)
REMARK    1  A    between atoms: C4_4  and  C10_10 
ROOT
HETATM    1  C1  UNL     1     -33.241  17.332  -1.842  1.00 20.00    -0.003 C 
HETATM    2  C2  UNL     1     -33.176  16.380  -2.926  1.00 20.00     0.011 C 
HETATM    3  C3  UNL     1     -34.289  17.724  -1.108  1.00 20.00    -0.026 C 
HETATM    4  C4  UNL     1     -34.131  15.649  -3.527  1.00 20.00    -0.009 C 
HETATM    5  C5  UNL     1     -35.587  15.756  -3.212  1.00 20.00     0.156 C 
HETATM    6  C6  UNL     1     -35.726  17.346  -1.274  1.00 20.00     0.035 C 
HETATM    7  C7  UNL     1     -36.133  17.069  -2.709  1.00 20.00     0.087 C 
HETATM    8  O11 UNL     1     -36.337  14.800  -3.412  1.00 20.00    -0.293 OA
ENDROOT
BRANCH   4   9
HETATM    9  C10 UNL     1     -33.784  14.633  -4.580  1.00 20.00     0.014 C 
HETATM   10  C8  UNL     1     -34.076  15.194  -5.966  1.00 20.00     0.015 C 
HETATM   11  C9  UNL     1     -32.326  14.207  -4.456  1.00 20.00     0.015 C 
ENDBRANCH   4   9
TORSDOF 1
ENDMDL
