MODEL 1
REMARK VINA RESULT:      -4.5      0.000      0.000
REMARK  1 active torsions:
REMARK  status: ('A' for Active; 'I' for Inactive)
REMARK    1  A    between atoms: C8_8  and  C11_11 
ROOT
HETATM    1  C1  UNL     1     -36.121  16.077  -4.040  1.00 20.00    -0.081 C 
HETATM    2  C2  UNL     1     -37.420  16.304  -3.796  1.00 20.00     0.015 C 
HETATM    3  C3  UNL     1     -35.392  16.741  -5.188  1.00 20.00     0.061 C 
HETATM    4  C4  UNL     1     -34.586  14.079  -4.004  1.00 20.00     0.039 C 
HETATM    5  C5  UNL     1     -33.949  17.140  -4.846  1.00 20.00     0.239 C 
HETATM    6  C6  UNL     1     -33.295  14.727  -4.524  1.00 20.00     0.236 C 
HETATM    7  C7  UNL     1     -35.281  15.165  -3.161  1.00 20.00     0.046 C 
HETATM    8  C8  UNL     1     -34.077  15.931  -2.621  1.00 20.00     0.199 C 
HETATM    9  N12 UNL     1     -33.306  16.127  -3.915  1.00 20.00    -0.066 N 
HETATM   10  H32 UNL     1     -32.343  16.426  -3.713  1.00 20.00     0.280 HD
ENDROOT
BRANCH   8  11
HETATM   11  C11 UNL     1     -34.325  17.223  -1.862  1.00 20.00     0.009 C 
HETATM   12  C9  UNL     1     -35.259  16.986  -0.673  1.00 20.00     0.011 C 
HETATM   13  C10 UNL     1     -33.008  17.838  -1.386  1.00 20.00     0.011 C 
ENDBRANCH   8  11
TORSDOF 1
ENDMDL
MODEL 2
REMARK VINA RESULT:      -4.3      1.510      3.767
REMARK  1 active torsions:
REMARK  status: ('A' for Active; 'I' for Inactive)
REMARK    1  A    between atoms: C8_8  and  C11_11 
ROOT
HETATM    1  C1  UNL     1     -33.948  18.120  -3.345  1.00 20.00    -0.081 C 
HETATM    2  C2  UNL     1     -33.067  18.678  -4.190  1.00 20.00     0.015 C 
HETATM    3  C3  UNL     1     -35.417  18.482  -3.361  1.00 20.00     0.061 C 
HETATM    4  C4  UNL     1     -33.967  17.468  -0.910  1.00 20.00     0.039 C 
HETATM    5  C5  UNL     1     -36.343  17.286  -3.102  1.00 20.00     0.239 C 
HETATM    6  C6  UNL     1     -35.423  17.001  -0.773  1.00 20.00     0.236 C 
HETATM    7  C7  UNL     1     -33.537  17.062  -2.333  1.00 20.00     0.046 C 
HETATM    8  C8  UNL     1     -34.367  15.799  -2.541  1.00 20.00     0.199 C 
HETATM    9  N12 UNL     1     -35.727  16.320  -2.105  1.00 20.00    -0.066 N 
HETATM   10  H32 UNL     1     -36.376  15.536  -1.956  1.00 20.00     0.280 HD
ENDROOT
BRANCH   8  11
HETATM   11  C11 UNL     1     -34.377  15.159  -3.918  1.00 20.00     0.009 C 
HETATM   12  C9  UNL     1     -32.967  14.725  -4.326  1.00 20.00     0.011 C 
HETATM   13  C10 UNL     1     -35.332  13.966  -3.959  1.00 20.00     0.011 C 
ENDBRANCH   8  11
TORSDOF 1
ENDMDL
MODEL 3
REMARK VINA RESULT:      -4.1     15.447     17.853
REMARK  1 active torsions:
REMARK  status: ('A' for Active; 'I' for Inactive)
REMARK    1  A    between atoms: C8_8  and  C11_11 
ROOT
HETATM    1  C1  UNL     1     -22.730  17.562  11.072  1.00 20.00    -0.081 C 
HETATM    2  C2  UNL     1     -21.487  17.771  10.610  1.00 20.00     0.015 C 
HETATM    3  C3  UNL     1     -23.241  18.227  12.332  1.00 20.00     0.061 C 
HETATM    4  C4  UNL     1     -24.280  15.586  11.288  1.00 20.00     0.039 C 
HETATM    5  C5  UNL     1     -24.714  18.649  12.245  1.00 20.00     0.239 C 
HETATM    6  C6  UNL     1     -25.452  16.249  12.025  1.00 20.00     0.236 C 
HETATM    7  C7  UNL     1     -23.722  16.669  10.344  1.00 20.00     0.046 C 
HETATM    8  C8  UNL     1     -24.988  17.457  10.023  1.00 20.00     0.199 C 
HETATM    9  N12 UNL     1     -25.523  17.654  11.432  1.00 20.00    -0.066 N 
HETATM   10  H32 UNL     1     -26.502  17.969  11.399  1.00 20.00     0.280 HD
ENDROOT
BRANCH   8  11
HETATM   11  C11 UNL     1     -24.853  18.752   9.240  1.00 20.00     0.009 C 
HETATM   12  C9  UNL     1     -23.932  18.564   8.033  1.00 20.00     0.011 C 
HETATM   13  C10 UNL     1     -26.223  19.262   8.788  1.00 20.00     0.011 C 
ENDBRANCH   8  11
TORSDOF 1
ENDMDL
MODEL 4
REMARK VINA RESULT:      -4.0      1.160      3.188
REMARK  1 active torsions:
REMARK  status: ('A' for Active; 'I' for Inactive)
REMARK    1  A    between atoms: C8_8  and  C11_11 
ROOT
HETATM    1  C1  UNL     1     -35.879  14.838  -3.921  1.00 20.00    -0.081 C 
HETATM    2  C2  UNL     1     -37.088  14.308  -4.159  1.00 20.00     0.015 C 
HETATM    3  C3  UNL     1     -34.604  14.040  -4.091  1.00 20.00     0.061 C 
HETATM    4  C4  UNL     1     -34.877  16.379  -2.196  1.00 20.00     0.039 C 
HETATM    5  C5  UNL     1     -33.443  14.860  -4.670  1.00 20.00     0.239 C 
HETATM    6  C6  UNL     1     -33.408  16.354  -2.640  1.00 20.00     0.236 C 
HETATM    7  C7  UNL     1     -35.701  16.286  -3.495  1.00 20.00     0.046 C 
HETATM    8  C8  UNL     1     -34.782  17.005  -4.477  1.00 20.00     0.199 C 
HETATM    9  N12 UNL     1     -33.477  16.292  -4.164  1.00 20.00    -0.066 N 
HETATM   10  H32 UNL     1     -32.684  16.807  -4.570  1.00 20.00     0.280 HD
ENDROOT
BRANCH   8  11
HETATM   11  C11 UNL     1     -35.144  16.986  -5.952  1.00 20.00     0.009 C 
HETATM   12  C9  UNL     1     -36.577  17.478  -6.166  1.00 20.00     0.011 C 
HETATM   13  C10 UNL     1     -34.164  17.833  -6.766  1.00 20.00     0.011 C 
ENDBRANCH   8  11
TORSDOF 1
ENDMDL
MODEL 5
REMARK VINA RESULT:      -4.0      1.320      3.474
REMARK  1 active torsions:
REMARK  status: ('A' for Active; 'I' for Inactive)
REMARK    1  A    between atoms: C8_8  and  C11_11 
ROOT
HETATM    1  C1  UNL     1     -33.675  16.646  -2.573  1.00 20.00    -0.081 C 
HETATM    2  C2  UNL     1     -32.841  17.439  -1.883  1.00 20.00     0.015 C 
HETATM    3  C3  UNL     1     -34.997  16.181  -2.002  1.00 20.00     0.061 C 
HETATM    4  C4  UNL     1     -33.443  14.652  -4.096  1.00 20.00     0.039 C 
HETATM    5  C5  UNL     1     -36.125  16.126  -3.041  1.00 20.00     0.239 C 
HETATM    6  C6  UNL     1     -34.924  14.331  -4.340  1.00 20.00     0.236 C 
HETATM    7  C7  UNL     1     -33.366  16.187  -3.989  1.00 20.00     0.046 C 
HETATM    8  C8  UNL     1     -34.496  16.602  -4.925  1.00 20.00     0.199 C 
HETATM    9  N12 UNL     1     -35.600  15.698  -4.400  1.00 20.00    -0.066 N 
HETATM   10  H32 UNL     1     -36.383  15.671  -5.067  1.00 20.00     0.280 HD
ENDROOT
BRANCH   8  11
HETATM   11  C11 UNL     1     -34.888  18.069  -4.978  1.00 20.00     0.009 C 
HETATM   12  C9  UNL     1     -33.689  18.939  -5.360  1.00 20.00     0.011 C 
HETATM   13  C10 UNL     1     -36.039  18.292  -5.960  1.00 20.00     0.011 C 
ENDBRANCH   8  11
TORSDOF 1
ENDMDL
MODEL 6
REMARK VINA RESULT:      -4.0      1.496      3.768
REMARK  1 active torsions:
REMARK  status: ('A' for Active; 'I' for Inactive)
REMARK    1  A    between atoms: C8_8  and  C11_11 
ROOT
HETATM    1  C1  UNL     1     -33.808  15.896  -3.711  1.00 20.00    -0.081 C 
HETATM    2  C2  UNL     1     -32.957  14.945  -4.126  1.00 20.00     0.015 C 
HETATM    3  C3  UNL     1     -33.734  17.319  -4.221  1.00 20.00     0.061 C 
HETATM    4  C4  UNL     1     -34.862  16.561  -1.520  1.00 20.00     0.039 C 
HETATM    5  C5  UNL     1     -35.111  17.966  -4.427  1.00 20.00     0.239 C 
HETATM    6  C6  UNL     1     -35.612  17.825  -1.960  1.00 20.00     0.236 C 
HETATM    7  C7  UNL     1     -34.927  15.602  -2.725  1.00 20.00     0.046 C 
HETATM    8  C8  UNL     1     -36.270  15.992  -3.336  1.00 20.00     0.199 C 
HETATM    9  N12 UNL     1     -36.099  17.502  -3.371  1.00 20.00    -0.066 N 
HETATM   10  H32 UNL     1     -37.005  17.958  -3.540  1.00 20.00     0.280 HD
ENDROOT
BRANCH   8  11
HETATM   11  C11 UNL     1     -36.653  15.394  -4.678  1.00 20.00     0.009 C 
HETATM   12  C9  UNL     1     -36.583  13.867  -4.634  1.00 20.00     0.011 C 
HETATM   13  C10 UNL     1     -38.051  15.849  -5.100  1.00 20.00     0.011 C 
ENDBRANCH   8  11
TORSDOF 1
ENDMDL
MODEL 7
REMARK VINA RESULT:      -4.0      1.909      3.953
REMARK  1 active torsions:
REMARK  status: ('A' for Active; 'I' for Inactive)
REMARK    1  A    between atoms: C8_8  and  C11_11 
ROOT
HETATM    1  C1  UNL     1     -34.200  14.894  -4.161  1.00 20.00    -0.081 C 
HETATM    2  C2  UNL     1     -32.887  14.659  -4.309  1.00 20.00     0.015 C 
HETATM    3  C3  UNL     1     -34.772  15.482  -2.889  1.00 20.00     0.061 C 
HETATM    4  C4  UNL     1     -36.339  13.709  -4.771  1.00 20.00     0.039 C 
HETATM    5  C5  UNL     1     -35.919  16.473  -3.137  1.00 20.00     0.239 C 
HETATM    6  C6  UNL     1     -37.359  14.652  -4.119  1.00 20.00     0.236 C 
HETATM    7  C7  UNL     1     -35.200  14.618  -5.272  1.00 20.00     0.046 C 
HETATM    8  C8  UNL     1     -35.968  15.893  -5.605  1.00 20.00     0.199 C 
HETATM    9  N12 UNL     1     -36.768  16.044  -4.321  1.00 20.00    -0.066 N 
HETATM   10  H32 UNL     1     -37.524  16.729  -4.453  1.00 20.00     0.280 HD
ENDROOT
BRANCH   8  11
HETATM   11  C11 UNL     1     -35.178  17.136  -5.977  1.00 20.00     0.009 C 
HETATM   12  C9  UNL     1     -34.334  16.889  -7.229  1.00 20.00     0.011 C 
HETATM   13  C10 UNL     1     -36.109  18.330  -6.192  1.00 20.00     0.011 C 
ENDBRANCH   8  11
TORSDOF 1
ENDMDL
MODEL 8
REMARK VINA RESULT:      -4.0      1.689      3.326
REMARK  1 active torsions:
REMARK  status: ('A' for Active; 'I' for Inactive)
REMARK    1  A    between atoms: C8_8  and  C11_11 
ROOT
HETATM    1  C1  UNL     1     -34.953  15.249  -5.759  1.00 20.00    -0.081 C 
HETATM    2  C2  UNL     1     -33.794  14.868  -6.318  1.00 20.00     0.015 C 
HETATM    3  C3  UNL     1     -36.073  14.268  -5.486  1.00 20.00     0.061 C 
HETATM    4  C4  UNL     1     -36.509  17.221  -5.964  1.00 20.00     0.039 C 
HETATM    5  C5  UNL     1     -36.818  14.541  -4.172  1.00 20.00     0.239 C 
HETATM    6  C6  UNL     1     -37.639  16.764  -5.031  1.00 20.00     0.236 C 
HETATM    7  C7  UNL     1     -35.210  16.684  -5.331  1.00 20.00     0.046 C 
HETATM    8  C8  UNL     1     -35.569  16.725  -3.848  1.00 20.00     0.199 C 
HETATM    9  N12 UNL     1     -36.921  16.032  -3.900  1.00 20.00    -0.066 N 
HETATM   10  H32 UNL     1     -37.427  16.174  -3.016  1.00 20.00     0.280 HD
ENDROOT
BRANCH   8  11
HETATM   11  C11 UNL     1     -34.606  16.099  -2.855  1.00 20.00     0.009 C 
HETATM   12  C9  UNL     1     -33.185  16.625  -3.070  1.00 20.00     0.011 C 
HETATM   13  C10 UNL     1     -35.057  16.362  -1.417  1.00 20.00     0.011 C 
ENDBRANCH   8  11
TORSDOF 1
ENDMDL
MODEL 9
REMARK VINA RESULT:      -4.0      1.459      3.374
REMARK  1 active torsions:
REMARK  status: ('A' for Active; 'I' for Inactive)
REMARK    1  A    between atoms: C8_8  and  C11_11 
ROOT
HETATM    1  C1  UNL     1     -34.433  15.359  -3.326  1.00 20.00    -0.081 C 
HETATM    2  C2  UNL     1     -34.659  14.158  -3.879  1.00 20.00     0.015 C 
HETATM    3  C3  UNL     1     -33.068  16.013  -3.357  1.00 20.00     0.061 C 
HETATM    4  C4  UNL     1     -35.140  16.555  -1.223  1.00 20.00     0.039 C 
HETATM    5  C5  UNL     1     -33.124  17.533  -3.561  1.00 20.00     0.239 C 
HETATM    6  C6  UNL     1     -34.318  17.844  -1.363  1.00 20.00     0.236 C 
HETATM    7  C7  UNL     1     -35.537  16.163  -2.659  1.00 20.00     0.046 C 
HETATM    8  C8  UNL     1     -35.648  17.535  -3.317  1.00 20.00     0.199 C 
HETATM    9  N12 UNL     1     -34.329  18.137  -2.861  1.00 20.00    -0.066 N 
HETATM   10  H32 UNL     1     -34.330  19.154  -3.018  1.00 20.00     0.280 HD
ENDROOT
BRANCH   8  11
HETATM   11  C11 UNL     1     -35.856  17.600  -4.821  1.00 20.00     0.009 C 
HETATM   12  C9  UNL     1     -37.121  16.842  -5.228  1.00 20.00     0.011 C 
HETATM   13  C10 UNL     1     -35.930  19.051  -5.299  1.00 20.00     0.011 C 
ENDBRANCH   8  11
TORSDOF 1
ENDMDL
