MODEL 1
REMARK VINA RESULT:      -4.6      0.000      0.000
REMARK  1 active torsions:
REMARK  status: ('A' for Active; 'I' for Inactive)
REMARK    1  A    between atoms: C4_4  and  C9_9 
ROOT
HETATM    1  C1  UNL     1     -24.633  18.851   8.241  1.00 20.00     0.007 A 
HETATM    2  C2  UNL     1     -23.327  18.590   8.134  1.00 20.00     0.074 A 
HETATM    3  C3  UNL     1     -25.305  18.757   9.506  1.00 20.00     0.026 A 
HETATM    4  C4  UNL     1     -24.636  18.404  10.616  1.00 20.00     0.018 A 
HETATM    5  C5  UNL     1     -22.549  18.195   9.342  1.00 20.00     0.247 A 
HETATM    6  C8  UNL     1     -22.558  17.743  11.772  1.00 20.00     0.159 C 
HETATM    7  N10 UNL     1     -23.265  18.123  10.550  1.00 20.00    -0.322 N 
HETATM    8  O11 UNL     1     -21.348  17.961   9.209  1.00 20.00    -0.268 OA
ENDROOT
BRANCH   4   9
HETATM    9  C9  UNL     1     -25.351  18.309  11.937  1.00 20.00     0.028 C 
HETATM   10  C6  UNL     1     -26.539  19.263  11.959  1.00 20.00     0.016 C 
HETATM   11  C7  UNL     1     -25.793  16.875  12.205  1.00 20.00     0.016 C 
ENDBRANCH   4   9
TORSDOF 1
ENDMDL
MODEL 2
REMARK VINA RESULT:      -4.4     17.773     18.870
REMARK  1 active torsions:
REMARK  status: ('A' for Active; 'I' for Inactive)
REMARK    1  A    between atoms: C4_4  and  C9_9 
ROOT
HETATM    1  C1  UNL     1     -33.929  15.394  -3.445  1.00 20.00     0.007 A 
HETATM    2  C2  UNL     1     -34.271  14.184  -3.897  1.00 20.00     0.074 A 
HETATM    3  C3  UNL     1     -34.918  16.415  -3.246  1.00 20.00     0.026 A 
HETATM    4  C4  UNL     1     -36.214  16.180  -3.509  1.00 20.00     0.018 A 
HETATM    5  C5  UNL     1     -35.699  13.882  -4.201  1.00 20.00     0.247 A 
HETATM    6  C8  UNL     1     -38.033  14.691  -4.260  1.00 20.00     0.159 C 
HETATM    7  N10 UNL     1     -36.617  14.925  -3.983  1.00 20.00    -0.322 N 
HETATM    8  O11 UNL     1     -35.979  12.758  -4.615  1.00 20.00    -0.268 OA
ENDROOT
BRANCH   4   9
HETATM    9  C9  UNL     1     -37.241  17.258  -3.296  1.00 20.00     0.028 C 
HETATM   10  C6  UNL     1     -37.070  17.879  -1.915  1.00 20.00     0.016 C 
HETATM   11  C7  UNL     1     -37.143  18.316  -4.390  1.00 20.00     0.016 C 
ENDBRANCH   4   9
TORSDOF 1
ENDMDL
MODEL 3
REMARK VINA RESULT:      -4.3     17.068     18.486
REMARK  1 active torsions:
REMARK  status: ('A' for Active; 'I' for Inactive)
REMARK    1  A    between atoms: C4_4  and  C9_9 
ROOT
HETATM    1  C1  UNL     1     -37.276  15.838  -3.949  1.00 20.00     0.007 A 
HETATM    2  C2  UNL     1     -37.206  14.538  -4.246  1.00 20.00     0.074 A 
HETATM    3  C3  UNL     1     -36.086  16.616  -3.749  1.00 20.00     0.026 A 
HETATM    4  C4  UNL     1     -34.870  16.055  -3.858  1.00 20.00     0.018 A 
HETATM    5  C5  UNL     1     -35.876  13.877  -4.376  1.00 20.00     0.247 A 
HETATM    6  C8  UNL     1     -33.418  14.107  -4.285  1.00 20.00     0.159 C 
HETATM    7  N10 UNL     1     -34.751  14.695  -4.171  1.00 20.00    -0.322 N 
HETATM    8  O11 UNL     1     -35.847  12.678  -4.651  1.00 20.00    -0.268 OA
ENDROOT
BRANCH   4   9
HETATM    9  C9  UNL     1     -33.631  16.880  -3.648  1.00 20.00     0.028 C 
HETATM   10  C6  UNL     1     -33.740  18.194  -4.413  1.00 20.00     0.016 C 
HETATM   11  C7  UNL     1     -33.398  17.129  -2.161  1.00 20.00     0.016 C 
ENDBRANCH   4   9
TORSDOF 1
ENDMDL
MODEL 4
REMARK VINA RESULT:      -4.3     17.197     18.557
REMARK  1 active torsions:
REMARK  status: ('A' for Active; 'I' for Inactive)
REMARK    1  A    between atoms: C4_4  and  C9_9 
ROOT
HETATM    1  C1  UNL     1     -35.058  13.663  -4.138  1.00 20.00     0.007 A 
HETATM    2  C2  UNL     1     -36.300  13.660  -4.631  1.00 20.00     0.074 A 
HETATM    3  C3  UNL     1     -34.564  14.780  -3.385  1.00 20.00     0.026 A 
HETATM    4  C4  UNL     1     -35.339  15.853  -3.156  1.00 20.00     0.018 A 
HETATM    5  C5  UNL     1     -37.192  14.831  -4.399  1.00 20.00     0.247 A 
HETATM    6  C8  UNL     1     -37.473  17.069  -3.390  1.00 20.00     0.159 C 
HETATM    7  N10 UNL     1     -36.648  15.892  -3.653  1.00 20.00    -0.322 N 
HETATM    8  O11 UNL     1     -38.330  14.797  -4.867  1.00 20.00    -0.268 OA
ENDROOT
BRANCH   4   9
HETATM    9  C9  UNL     1     -34.810  17.019  -2.366  1.00 20.00     0.028 C 
HETATM   10  C6  UNL     1     -35.163  16.856  -0.892  1.00 20.00     0.016 C 
HETATM   11  C7  UNL     1     -33.303  17.157  -2.557  1.00 20.00     0.016 C 
ENDBRANCH   4   9
TORSDOF 1
ENDMDL
MODEL 5
REMARK VINA RESULT:      -4.2     17.305     18.650
REMARK  1 active torsions:
REMARK  status: ('A' for Active; 'I' for Inactive)
REMARK    1  A    between atoms: C4_4  and  C9_9 
ROOT
HETATM    1  C1  UNL     1     -35.495  17.402  -5.916  1.00 20.00     0.007 A 
HETATM    2  C2  UNL     1     -35.843  16.287  -6.564  1.00 20.00     0.074 A 
HETATM    3  C3  UNL     1     -34.930  17.346  -4.598  1.00 20.00     0.026 A 
HETATM    4  C4  UNL     1     -34.735  16.168  -3.982  1.00 20.00     0.018 A 
HETATM    5  C5  UNL     1     -35.643  14.960  -5.916  1.00 20.00     0.247 A 
HETATM    6  C8  UNL     1     -34.862  13.704  -3.936  1.00 20.00     0.159 C 
HETATM    7  N10 UNL     1     -35.084  14.974  -4.626  1.00 20.00    -0.322 N 
HETATM    8  O11 UNL     1     -35.975  13.952  -6.540  1.00 20.00    -0.268 OA
ENDROOT
BRANCH   4   9
HETATM    9  C9  UNL     1     -34.142  16.121  -2.601  1.00 20.00     0.028 C 
HETATM   10  C6  UNL     1     -32.925  17.036  -2.522  1.00 20.00     0.016 C 
HETATM   11  C7  UNL     1     -35.185  16.503  -1.556  1.00 20.00     0.016 C 
ENDBRANCH   4   9
TORSDOF 1
ENDMDL
MODEL 6
REMARK VINA RESULT:      -4.1     17.277     18.657
REMARK  1 active torsions:
REMARK  status: ('A' for Active; 'I' for Inactive)
REMARK    1  A    between atoms: C4_4  and  C9_9 
ROOT
HETATM    1  C1  UNL     1     -37.833  17.084  -3.575  1.00 20.00     0.007 A 
HETATM    2  C2  UNL     1     -38.263  15.910  -4.046  1.00 20.00     0.074 A 
HETATM    3  C3  UNL     1     -36.472  17.258  -3.153  1.00 20.00     0.026 A 
HETATM    4  C4  UNL     1     -35.595  16.244  -3.222  1.00 20.00     0.018 A 
HETATM    5  C5  UNL     1     -37.320  14.759  -4.138  1.00 20.00     0.247 A 
HETATM    6  C8  UNL     1     -35.029  13.908  -3.778  1.00 20.00     0.159 C 
HETATM    7  N10 UNL     1     -36.002  14.996  -3.711  1.00 20.00    -0.322 N 
HETATM    8  O11 UNL     1     -37.748  13.691  -4.576  1.00 20.00    -0.268 OA
ENDROOT
BRANCH   4   9
HETATM    9  C9  UNL     1     -34.171  16.439  -2.777  1.00 20.00     0.028 C 
HETATM   10  C6  UNL     1     -33.398  17.228  -3.827  1.00 20.00     0.016 C 
HETATM   11  C7  UNL     1     -34.123  17.135  -1.421  1.00 20.00     0.016 C 
ENDBRANCH   4   9
TORSDOF 1
ENDMDL
MODEL 7
REMARK VINA RESULT:      -4.0     13.661     15.257
REMARK  1 active torsions:
REMARK  status: ('A' for Active; 'I' for Inactive)
REMARK    1  A    between atoms: C4_4  and  C9_9 
ROOT
HETATM    1  C1  UNL     1     -35.549  17.163   0.036  1.00 20.00     0.007 A 
HETATM    2  C2  UNL     1     -34.881  17.803   1.000  1.00 20.00     0.074 A 
HETATM    3  C3  UNL     1     -34.959  16.950  -1.255  1.00 20.00     0.026 A 
HETATM    4  C4  UNL     1     -33.718  17.388  -1.527  1.00 20.00     0.018 A 
HETATM    5  C5  UNL     1     -33.502  18.306   0.739  1.00 20.00     0.247 A 
HETATM    6  C8  UNL     1     -31.633  18.528  -0.862  1.00 20.00     0.159 C 
HETATM    7  N10 UNL     1     -32.982  18.062  -0.544  1.00 20.00    -0.322 N 
HETATM    8  O11 UNL     1     -32.915  18.891   1.649  1.00 20.00    -0.268 OA
ENDROOT
BRANCH   4   9
HETATM    9  C9  UNL     1     -33.110  17.157  -2.883  1.00 20.00     0.028 C 
HETATM   10  C6  UNL     1     -33.397  15.735  -3.351  1.00 20.00     0.016 C 
HETATM   11  C7  UNL     1     -33.632  18.181  -3.886  1.00 20.00     0.016 C 
ENDBRANCH   4   9
TORSDOF 1
ENDMDL
MODEL 8
REMARK VINA RESULT:      -4.0     13.766     15.222
REMARK  1 active torsions:
REMARK  status: ('A' for Active; 'I' for Inactive)
REMARK    1  A    between atoms: C4_4  and  C9_9 
ROOT
HETATM    1  C1  UNL     1     -31.912  18.307  -1.147  1.00 20.00     0.007 A 
HETATM    2  C2  UNL     1     -32.112  18.665   0.124  1.00 20.00     0.074 A 
HETATM    3  C3  UNL     1     -32.928  17.618  -1.890  1.00 20.00     0.026 A 
HETATM    4  C4  UNL     1     -34.109  17.317  -1.325  1.00 20.00     0.018 A 
HETATM    5  C5  UNL     1     -33.409  18.349   0.788  1.00 20.00     0.247 A 
HETATM    6  C8  UNL     1     -35.655  17.337   0.597  1.00 20.00     0.159 C 
HETATM    7  N10 UNL     1     -34.363  17.675   0.005  1.00 20.00    -0.322 N 
HETATM    8  O11 UNL     1     -33.561  18.693   1.960  1.00 20.00    -0.268 OA
ENDROOT
BRANCH   4   9
HETATM    9  C9  UNL     1     -35.167  16.595  -2.115  1.00 20.00     0.028 C 
HETATM   10  C6  UNL     1     -35.871  17.565  -3.056  1.00 20.00     0.016 C 
HETATM   11  C7  UNL     1     -34.559  15.427  -2.884  1.00 20.00     0.016 C 
ENDBRANCH   4   9
TORSDOF 1
ENDMDL
MODEL 9
REMARK VINA RESULT:      -4.0     18.644     19.794
REMARK  1 active torsions:
REMARK  status: ('A' for Active; 'I' for Inactive)
REMARK    1  A    between atoms: C4_4  and  C9_9 
ROOT
HETATM    1  C1  UNL     1     -34.185  14.329  -4.111  1.00 20.00     0.007 A 
HETATM    2  C2  UNL     1     -35.363  13.710  -3.995  1.00 20.00     0.074 A 
HETATM    3  C3  UNL     1     -34.075  15.588  -4.791  1.00 20.00     0.026 A 
HETATM    4  C4  UNL     1     -35.156  16.178  -5.328  1.00 20.00     0.018 A 
HETATM    5  C5  UNL     1     -36.587  14.330  -4.577  1.00 20.00     0.247 A 
HETATM    6  C8  UNL     1     -37.574  16.225  -5.818  1.00 20.00     0.159 C 
HETATM    7  N10 UNL     1     -36.412  15.564  -5.228  1.00 20.00    -0.322 N 
HETATM    8  O11 UNL     1     -37.656  13.734  -4.453  1.00 20.00    -0.268 OA
ENDROOT
BRANCH   4   9
HETATM    9  C9  UNL     1     -35.029  17.498  -6.037  1.00 20.00     0.028 C 
HETATM   10  C6  UNL     1     -34.308  18.503  -5.148  1.00 20.00     0.016 C 
HETATM   11  C7  UNL     1     -34.305  17.324  -7.368  1.00 20.00     0.016 C 
ENDBRANCH   4   9
TORSDOF 1
ENDMDL
