MODEL 1
REMARK VINA RESULT:      -5.0      0.000      0.000
REMARK  1 active torsions:
REMARK  status: ('A' for Active; 'I' for Inactive)
REMARK    1  A    between atoms: C3_3  and  C6_6 
ROOT
HETATM    1  C1  UNL     1     -36.319  15.733  -5.741  1.00 20.00    -0.009 C 
HETATM    2  C2  UNL     1     -35.953  16.959  -5.325  1.00 20.00    -0.086 C 
HETATM    3  C4  UNL     1     -34.666  17.195  -4.574  1.00 20.00     0.037 C 
HETATM    4  C5  UNL     1     -34.112  14.751  -4.925  1.00 20.00     0.023 C 
HETATM    5  C6  UNL     1     -35.488  14.501  -5.544  1.00 20.00     0.110 C 
HETATM    6  C7  UNL     1     -34.072  15.927  -3.935  1.00 20.00    -0.014 C 
HETATM    7  C8  UNL     1     -36.791  18.172  -5.598  1.00 20.00     0.043 C 
HETATM    8  C9  UNL     1     -34.764  15.599  -2.608  1.00 20.00     0.010 C 
ENDROOT
BRANCH   5   9
HETATM    9  C3  UNL     1     -36.314  13.537  -4.713  1.00 20.00     0.180 C 
HETATM   10  O10 UNL     1     -37.502  13.899  -4.489  1.00 20.00    -0.647 OA
HETATM   11  O11 UNL     1     -35.702  12.494  -4.350  1.00 20.00    -0.647 OA
ENDBRANCH   5   9
TORSDOF 1
ENDMDL
MODEL 2
REMARK VINA RESULT:      -4.9      1.078      1.121
REMARK  1 active torsions:
REMARK  status: ('A' for Active; 'I' for Inactive)
REMARK    1  A    between atoms: C3_3  and  C6_6 
ROOT
HETATM    1  C1  UNL     1     -34.971  15.995  -5.853  1.00 20.00    -0.009 C 
HETATM    2  C2  UNL     1     -34.514  17.111  -5.257  1.00 20.00    -0.086 C 
HETATM    3  C4  UNL     1     -33.691  17.060  -3.994  1.00 20.00     0.037 C 
HETATM    4  C5  UNL     1     -33.722  14.536  -4.175  1.00 20.00     0.023 C 
HETATM    5  C6  UNL     1     -34.684  14.607  -5.361  1.00 20.00     0.110 C 
HETATM    6  C7  UNL     1     -33.815  15.737  -3.218  1.00 20.00    -0.014 C 
HETATM    7  C8  UNL     1     -34.778  18.475  -5.820  1.00 20.00     0.043 C 
HETATM    8  C9  UNL     1     -35.088  15.710  -2.367  1.00 20.00     0.010 C 
ENDROOT
BRANCH   5   9
HETATM    9  C3  UNL     1     -36.021  13.965  -5.043  1.00 20.00     0.180 C 
HETATM   10  O10 UNL     1     -37.036  14.653  -5.341  1.00 20.00    -0.647 OA
HETATM   11  O11 UNL     1     -35.945  12.819  -4.517  1.00 20.00    -0.647 OA
ENDBRANCH   5   9
TORSDOF 1
ENDMDL
MODEL 3
REMARK VINA RESULT:      -4.8      1.340      2.849
REMARK  1 active torsions:
REMARK  status: ('A' for Active; 'I' for Inactive)
REMARK    1  A    between atoms: C3_3  and  C6_6 
ROOT
HETATM    1  C1  UNL     1     -34.513  15.462  -2.913  1.00 20.00    -0.009 C 
HETATM    2  C2  UNL     1     -33.964  16.643  -3.251  1.00 20.00    -0.086 C 
HETATM    3  C4  UNL     1     -34.460  17.444  -4.428  1.00 20.00     0.037 C 
HETATM    4  C5  UNL     1     -36.289  15.721  -4.724  1.00 20.00     0.023 C 
HETATM    5  C6  UNL     1     -35.677  14.846  -3.628  1.00 20.00     0.110 C 
HETATM    6  C7  UNL     1     -35.275  16.625  -5.444  1.00 20.00    -0.014 C 
HETATM    7  C8  UNL     1     -32.837  17.247  -2.467  1.00 20.00     0.043 C 
HETATM    8  C9  UNL     1     -34.358  15.841  -6.388  1.00 20.00     0.010 C 
ENDROOT
BRANCH   5   9
HETATM    9  C3  UNL     1     -35.207  13.509  -4.170  1.00 20.00     0.180 C 
HETATM   10  O10 UNL     1     -33.970  13.286  -4.061  1.00 20.00    -0.647 OA
HETATM   11  O11 UNL     1     -36.120  12.789  -4.664  1.00 20.00    -0.647 OA
ENDBRANCH   5   9
TORSDOF 1
ENDMDL
MODEL 4
REMARK VINA RESULT:      -4.7      1.387      2.385
REMARK  1 active torsions:
REMARK  status: ('A' for Active; 'I' for Inactive)
REMARK    1  A    between atoms: C3_3  and  C6_6 
ROOT
HETATM    1  C1  UNL     1     -36.026  15.927  -3.376  1.00 20.00    -0.009 C 
HETATM    2  C2  UNL     1     -34.997  16.231  -2.565  1.00 20.00    -0.086 C 
HETATM    3  C4  UNL     1     -33.580  16.315  -3.073  1.00 20.00     0.037 C 
HETATM    4  C5  UNL     1     -34.480  15.920  -5.404  1.00 20.00     0.023 C 
HETATM    5  C6  UNL     1     -35.886  15.683  -4.849  1.00 20.00     0.110 C 
HETATM    6  C7  UNL     1     -33.350  15.594  -4.413  1.00 20.00    -0.014 C 
HETATM    7  C8  UNL     1     -35.197  16.525  -1.108  1.00 20.00     0.043 C 
HETATM    8  C9  UNL     1     -33.168  14.087  -4.207  1.00 20.00     0.010 C 
ENDROOT
BRANCH   5   9
HETATM    9  C3  UNL     1     -36.366  14.269  -5.112  1.00 20.00     0.180 C 
HETATM   10  O10 UNL     1     -37.079  13.763  -4.203  1.00 20.00    -0.647 OA
HETATM   11  O11 UNL     1     -35.987  13.777  -6.212  1.00 20.00    -0.647 OA
ENDBRANCH   5   9
TORSDOF 1
ENDMDL
MODEL 5
REMARK VINA RESULT:      -4.5     18.401     19.341
REMARK  1 active torsions:
REMARK  status: ('A' for Active; 'I' for Inactive)
REMARK    1  A    between atoms: C3_3  and  C6_6 
ROOT
HETATM    1  C1  UNL     1     -24.661  18.966  10.128  1.00 20.00    -0.009 C 
HETATM    2  C2  UNL     1     -25.499  18.692  11.145  1.00 20.00    -0.086 C 
HETATM    3  C4  UNL     1     -25.091  17.809  12.297  1.00 20.00     0.037 C 
HETATM    4  C5  UNL     1     -22.773  17.703  11.286  1.00 20.00     0.023 C 
HETATM    5  C6  UNL     1     -23.249  18.468  10.050  1.00 20.00     0.110 C 
HETATM    6  C7  UNL     1     -23.881  16.907  11.997  1.00 20.00    -0.014 C 
HETATM    7  C8  UNL     1     -26.884  19.263  11.206  1.00 20.00     0.043 C 
HETATM    8  C9  UNL     1     -24.300  15.659  11.214  1.00 20.00     0.010 C 
ENDROOT
BRANCH   5   9
HETATM    9  C3  UNL     1     -23.144  17.628   8.792  1.00 20.00     0.180 C 
HETATM   10  O10 UNL     1     -22.370  16.634   8.868  1.00 20.00    -0.647 OA
HETATM   11  O11 UNL     1     -23.847  18.035   7.824  1.00 20.00    -0.647 OA
ENDBRANCH   5   9
TORSDOF 1
ENDMDL
MODEL 6
REMARK VINA RESULT:      -4.5      1.782      2.994
REMARK  1 active torsions:
REMARK  status: ('A' for Active; 'I' for Inactive)
REMARK    1  A    between atoms: C3_3  and  C6_6 
ROOT
HETATM    1  C1  UNL     1     -34.016  15.122  -3.625  1.00 20.00    -0.009 C 
HETATM    2  C2  UNL     1     -34.192  16.234  -2.889  1.00 20.00    -0.086 C 
HETATM    3  C4  UNL     1     -35.563  16.796  -2.612  1.00 20.00     0.037 C 
HETATM    4  C5  UNL     1     -36.537  14.784  -3.798  1.00 20.00     0.023 C 
HETATM    5  C6  UNL     1     -35.139  14.315  -4.203  1.00 20.00     0.110 C 
HETATM    6  C7  UNL     1     -36.651  16.303  -3.582  1.00 20.00    -0.014 C 
HETATM    7  C8  UNL     1     -33.038  16.974  -2.283  1.00 20.00     0.043 C 
HETATM    8  C9  UNL     1     -36.617  17.085  -4.898  1.00 20.00     0.010 C 
ENDROOT
BRANCH   5   9
HETATM    9  C3  UNL     1     -34.957  14.316  -5.709  1.00 20.00     0.180 C 
HETATM   10  O10 UNL     1     -35.974  13.980  -6.376  1.00 20.00    -0.647 OA
HETATM   11  O11 UNL     1     -33.806  14.655  -6.102  1.00 20.00    -0.647 OA
ENDBRANCH   5   9
TORSDOF 1
ENDMDL
MODEL 7
REMARK VINA RESULT:      -4.4      1.121      2.903
REMARK  1 active torsions:
REMARK  status: ('A' for Active; 'I' for Inactive)
REMARK    1  A    between atoms: C3_3  and  C6_6 
ROOT
HETATM    1  C1  UNL     1     -35.214  15.231  -3.413  1.00 20.00    -0.009 C 
HETATM    2  C2  UNL     1     -34.221  15.972  -3.936  1.00 20.00    -0.086 C 
HETATM    3  C4  UNL     1     -34.468  16.970  -5.039  1.00 20.00     0.037 C 
HETATM    4  C5  UNL     1     -36.938  16.459  -4.835  1.00 20.00     0.023 C 
HETATM    5  C6  UNL     1     -36.649  15.342  -3.830  1.00 20.00     0.110 C 
HETATM    6  C7  UNL     1     -35.781  16.742  -5.808  1.00 20.00    -0.014 C 
HETATM    7  C8  UNL     1     -32.809  15.866  -3.443  1.00 20.00     0.043 C 
HETATM    8  C9  UNL     1     -35.622  15.643  -6.863  1.00 20.00     0.010 C 
ENDROOT
BRANCH   5   9
HETATM    9  C3  UNL     1     -37.063  13.984  -4.363  1.00 20.00     0.180 C 
HETATM   10  O10 UNL     1     -36.116  13.182  -4.592  1.00 20.00    -0.647 OA
HETATM   11  O11 UNL     1     -38.308  13.830  -4.511  1.00 20.00    -0.647 OA
ENDBRANCH   5   9
TORSDOF 1
ENDMDL
MODEL 8
REMARK VINA RESULT:      -4.4     16.772     18.595
REMARK  1 active torsions:
REMARK  status: ('A' for Active; 'I' for Inactive)
REMARK    1  A    between atoms: C3_3  and  C6_6 
ROOT
HETATM    1  C1  UNL     1     -24.893  18.300   9.746  1.00 20.00    -0.009 C 
HETATM    2  C2  UNL     1     -24.271  17.435  10.567  1.00 20.00    -0.086 C 
HETATM    3  C4  UNL     1     -22.768  17.324  10.618  1.00 20.00     0.037 C 
HETATM    4  C5  UNL     1     -22.653  19.263   8.997  1.00 20.00     0.023 C 
HETATM    5  C6  UNL     1     -24.175  19.255   8.840  1.00 20.00     0.110 C 
HETATM    6  C7  UNL     1     -22.055  17.899   9.382  1.00 20.00    -0.014 C 
HETATM    7  C8  UNL     1     -25.034  16.540  11.498  1.00 20.00     0.043 C 
HETATM    8  C9  UNL     1     -22.071  16.904   8.219  1.00 20.00     0.010 C 
ENDROOT
BRANCH   5   9
HETATM    9  C3  UNL     1     -24.594  18.922   7.421  1.00 20.00     0.180 C 
HETATM   10  O10 UNL     1     -23.689  19.034   6.550  1.00 20.00    -0.647 OA
HETATM   11  O11 UNL     1     -25.802  18.575   7.295  1.00 20.00    -0.647 OA
ENDBRANCH   5   9
TORSDOF 1
ENDMDL
MODEL 9
REMARK VINA RESULT:      -4.4      2.988      4.483
REMARK  1 active torsions:
REMARK  status: ('A' for Active; 'I' for Inactive)
REMARK    1  A    between atoms: C3_3  and  C6_6 
ROOT
HETATM    1  C1  UNL     1     -35.198  15.864  -2.159  1.00 20.00    -0.009 C 
HETATM    2  C2  UNL     1     -34.387  15.389  -3.121  1.00 20.00    -0.086 C 
HETATM    3  C4  UNL     1     -33.052  16.022  -3.423  1.00 20.00     0.037 C 
HETATM    4  C5  UNL     1     -33.441  17.577  -1.466  1.00 20.00     0.023 C 
HETATM    5  C6  UNL     1     -34.855  17.026  -1.275  1.00 20.00     0.110 C 
HETATM    6  C7  UNL     1     -32.912  17.464  -2.905  1.00 20.00    -0.014 C 
HETATM    7  C8  UNL     1     -34.749  14.186  -3.940  1.00 20.00     0.043 C 
HETATM    8  C9  UNL     1     -33.580  18.463  -3.855  1.00 20.00     0.010 C 
ENDROOT
BRANCH   5   9
HETATM    9  C3  UNL     1     -35.912  18.088  -1.509  1.00 20.00     0.180 C 
HETATM   10  O10 UNL     1     -36.920  17.712  -2.168  1.00 20.00    -0.647 OA
HETATM   11  O11 UNL     1     -35.644  19.219  -1.013  1.00 20.00    -0.647 OA
ENDBRANCH   5   9
TORSDOF 1
ENDMDL
