MODEL 1
REMARK VINA RESULT:      -4.1      0.000      0.000
REMARK  1 active torsions:
REMARK  status: ('A' for Active; 'I' for Inactive)
REMARK    1  A    between atoms: C3_3  and  C7_7 
ROOT
HETATM    1  C1  UNL     1     -24.273  18.802   7.975  1.00 20.00     0.255 C 
HETATM    2  C2  UNL     1     -22.204  18.271   8.570  1.00 20.00     0.157 C 
HETATM    3  C3  UNL     1     -23.019  18.599   9.807  1.00 20.00     0.164 C 
HETATM    4  C4  UNL     1     -21.293  17.064   8.657  1.00 20.00     0.043 C 
HETATM    5  O8  UNL     1     -23.202  18.073   7.570  1.00 20.00    -0.314 OA
HETATM    6  O9  UNL     1     -24.155  19.262   9.248  1.00 20.00    -0.313 OA
HETATM    7  S10 UNL     1     -25.581  19.094   7.024  1.00 20.00    -0.025 SA
ENDROOT
BRANCH   3   8
HETATM    8  C7  UNL     1     -23.508  17.412  10.628  1.00 20.00     0.010 C 
HETATM    9  C5  UNL     1     -22.737  17.306  11.948  1.00 20.00     0.012 C 
HETATM   10  C6  UNL     1     -25.011  17.518  10.902  1.00 20.00     0.012 C 
ENDBRANCH   3   8
TORSDOF 1
ENDMDL
MODEL 2
REMARK VINA RESULT:      -3.8     17.064     18.548
REMARK  1 active torsions:
REMARK  status: ('A' for Active; 'I' for Inactive)
REMARK    1  A    between atoms: C3_3  and  C7_7 
ROOT
HETATM    1  C1  UNL     1     -34.552  14.918  -6.448  1.00 20.00     0.255 C 
HETATM    2  C2  UNL     1     -35.992  14.239  -4.906  1.00 20.00     0.157 C 
HETATM    3  C3  UNL     1     -34.669  14.579  -4.247  1.00 20.00     0.164 C 
HETATM    4  C4  UNL     1     -37.245  14.712  -4.195  1.00 20.00     0.043 C 
HETATM    5  O8  UNL     1     -35.882  14.855  -6.188  1.00 20.00    -0.314 OA
HETATM    6  O9  UNL     1     -33.782  14.622  -5.368  1.00 20.00    -0.313 OA
HETATM    7  S10 UNL     1     -33.934  15.316  -7.918  1.00 20.00    -0.025 SA
ENDROOT
BRANCH   3   8
HETATM    8  C7  UNL     1     -34.597  15.918  -3.523  1.00 20.00     0.010 C 
HETATM    9  C5  UNL     1     -35.074  15.781  -2.074  1.00 20.00     0.012 C 
HETATM   10  C6  UNL     1     -33.176  16.485  -3.559  1.00 20.00     0.012 C 
ENDBRANCH   3   8
TORSDOF 1
ENDMDL
MODEL 3
REMARK VINA RESULT:      -3.7     17.571     18.931
REMARK  1 active torsions:
REMARK  status: ('A' for Active; 'I' for Inactive)
REMARK    1  A    between atoms: C3_3  and  C7_7 
ROOT
HETATM    1  C1  UNL     1     -38.229  15.149  -4.301  1.00 20.00     0.255 C 
HETATM    2  C2  UNL     1     -36.353  14.092  -4.832  1.00 20.00     0.157 C 
HETATM    3  C3  UNL     1     -36.033  15.516  -4.418  1.00 20.00     0.164 C 
HETATM    4  C4  UNL     1     -35.438  13.008  -4.299  1.00 20.00     0.043 C 
HETATM    5  O8  UNL     1     -37.682  13.907  -4.348  1.00 20.00    -0.314 OA
HETATM    6  O9  UNL     1     -37.317  16.140  -4.481  1.00 20.00    -0.313 OA
HETATM    7  S10 UNL     1     -39.829  15.425  -4.048  1.00 20.00    -0.025 SA
ENDROOT
BRANCH   3   8
HETATM    8  C7  UNL     1     -35.473  15.702  -3.012  1.00 20.00     0.010 C 
HETATM    9  C5  UNL     1     -33.944  15.767  -3.037  1.00 20.00     0.012 C 
HETATM   10  C6  UNL     1     -36.045  16.963  -2.358  1.00 20.00     0.012 C 
ENDBRANCH   3   8
TORSDOF 1
ENDMDL
MODEL 4
REMARK VINA RESULT:      -3.7     16.147     17.475
REMARK  1 active torsions:
REMARK  status: ('A' for Active; 'I' for Inactive)
REMARK    1  A    between atoms: C3_3  and  C7_7 
ROOT
HETATM    1  C1  UNL     1     -36.326  15.213  -4.292  1.00 20.00     0.255 C 
HETATM    2  C2  UNL     1     -34.165  15.193  -4.791  1.00 20.00     0.157 C 
HETATM    3  C3  UNL     1     -34.474  16.399  -3.924  1.00 20.00     0.164 C 
HETATM    4  C4  UNL     1     -32.902  14.425  -4.460  1.00 20.00     0.043 C 
HETATM    5  O8  UNL     1     -35.314  14.367  -4.614  1.00 20.00    -0.314 OA
HETATM    6  O9  UNL     1     -35.899  16.472  -4.013  1.00 20.00    -0.313 OA
HETATM    7  S10 UNL     1     -37.904  14.759  -4.241  1.00 20.00    -0.025 SA
ENDROOT
BRANCH   3   8
HETATM    8  C7  UNL     1     -34.086  16.293  -2.455  1.00 20.00     0.010 C 
HETATM    9  C5  UNL     1     -32.934  17.246  -2.123  1.00 20.00     0.012 C 
HETATM   10  C6  UNL     1     -35.287  16.580  -1.549  1.00 20.00     0.012 C 
ENDBRANCH   3   8
TORSDOF 1
ENDMDL
MODEL 5
REMARK VINA RESULT:      -3.7      1.983      3.038
REMARK  1 active torsions:
REMARK  status: ('A' for Active; 'I' for Inactive)
REMARK    1  A    between atoms: C3_3  and  C7_7 
ROOT
HETATM    1  C1  UNL     1     -22.121  17.620   8.247  1.00 20.00     0.255 C 
HETATM    2  C2  UNL     1     -22.840  17.888  10.328  1.00 20.00     0.157 C 
HETATM    3  C3  UNL     1     -23.506  18.910   9.427  1.00 20.00     0.164 C 
HETATM    4  C4  UNL     1     -23.725  17.204  11.350  1.00 20.00     0.043 C 
HETATM    5  O8  UNL     1     -22.316  16.936   9.404  1.00 20.00    -0.314 OA
HETATM    6  O9  UNL     1     -22.684  18.857   8.258  1.00 20.00    -0.313 OA
HETATM    7  S10 UNL     1     -21.294  17.013   6.964  1.00 20.00    -0.025 SA
ENDROOT
BRANCH   3   8
HETATM    8  C7  UNL     1     -24.945  18.616   9.019  1.00 20.00     0.010 C 
HETATM    9  C5  UNL     1     -25.932  19.263   9.994  1.00 20.00     0.012 C 
HETATM   10  C6  UNL     1     -25.219  19.099   7.592  1.00 20.00     0.012 C 
ENDBRANCH   3   8
TORSDOF 1
ENDMDL
MODEL 6
REMARK VINA RESULT:      -3.6      1.994      2.888
REMARK  1 active torsions:
REMARK  status: ('A' for Active; 'I' for Inactive)
REMARK    1  A    between atoms: C3_3  and  C7_7 
ROOT
HETATM    1  C1  UNL     1     -22.687  17.369   8.456  1.00 20.00     0.255 C 
HETATM    2  C2  UNL     1     -24.753  18.007   8.947  1.00 20.00     0.157 C 
HETATM    3  C3  UNL     1     -24.165  17.247  10.121  1.00 20.00     0.164 C 
HETATM    4  C4  UNL     1     -25.535  19.263   9.275  1.00 20.00     0.043 C 
HETATM    5  O8  UNL     1     -23.605  18.324   8.162  1.00 20.00    -0.314 OA
HETATM    6  O9  UNL     1     -23.036  16.604   9.524  1.00 20.00    -0.313 OA
HETATM    7  S10 UNL     1     -21.293  17.162   7.612  1.00 20.00    -0.025 SA
ENDROOT
BRANCH   3   8
HETATM    8  C7  UNL     1     -23.678  18.086  11.296  1.00 20.00     0.010 C 
HETATM    9  C5  UNL     1     -24.819  18.361  12.280  1.00 20.00     0.012 C 
HETATM   10  C6  UNL     1     -22.514  17.399  12.014  1.00 20.00     0.012 C 
ENDBRANCH   3   8
TORSDOF 1
ENDMDL
MODEL 7
REMARK VINA RESULT:      -3.6     17.218     18.602
REMARK  1 active torsions:
REMARK  status: ('A' for Active; 'I' for Inactive)
REMARK    1  A    between atoms: C3_3  and  C7_7 
ROOT
HETATM    1  C1  UNL     1     -37.399  15.504  -4.640  1.00 20.00     0.255 C 
HETATM    2  C2  UNL     1     -35.523  15.711  -5.804  1.00 20.00     0.157 C 
HETATM    3  C3  UNL     1     -35.380  16.436  -4.479  1.00 20.00     0.164 C 
HETATM    4  C4  UNL     1     -34.337  14.883  -6.256  1.00 20.00     0.043 C 
HETATM    5  O8  UNL     1     -36.663  14.880  -5.595  1.00 20.00    -0.314 OA
HETATM    6  O9  UNL     1     -36.739  16.530  -4.043  1.00 20.00    -0.313 OA
HETATM    7  S10 UNL     1     -38.931  15.061  -4.244  1.00 20.00    -0.025 SA
ENDROOT
BRANCH   3   8
HETATM    8  C7  UNL     1     -34.575  15.721  -3.400  1.00 20.00     0.010 C 
HETATM    9  C5  UNL     1     -33.102  16.134  -3.454  1.00 20.00     0.012 C 
HETATM   10  C6  UNL     1     -35.152  16.002  -2.010  1.00 20.00     0.012 C 
ENDBRANCH   3   8
TORSDOF 1
ENDMDL
MODEL 8
REMARK VINA RESULT:      -3.5     17.976     19.502
REMARK  1 active torsions:
REMARK  status: ('A' for Active; 'I' for Inactive)
REMARK    1  A    between atoms: C3_3  and  C7_7 
ROOT
HETATM    1  C1  UNL     1     -37.391  14.781  -4.375  1.00 20.00     0.255 C 
HETATM    2  C2  UNL     1     -35.241  14.525  -3.899  1.00 20.00     0.157 C 
HETATM    3  C3  UNL     1     -35.462  14.291  -5.381  1.00 20.00     0.164 C 
HETATM    4  C4  UNL     1     -34.029  15.349  -3.515  1.00 20.00     0.043 C 
HETATM    5  O8  UNL     1     -36.440  15.182  -3.493  1.00 20.00    -0.314 OA
HETATM    6  O9  UNL     1     -36.881  14.119  -5.446  1.00 20.00    -0.313 OA
HETATM    7  S10 UNL     1     -38.996  15.070  -4.171  1.00 20.00    -0.025 SA
ENDROOT
BRANCH   3   8
HETATM    8  C7  UNL     1     -35.071  15.432  -6.312  1.00 20.00     0.010 C 
HETATM    9  C5  UNL     1     -33.804  15.085  -7.100  1.00 20.00     0.012 C 
HETATM   10  C6  UNL     1     -36.214  15.772  -7.272  1.00 20.00     0.012 C 
ENDBRANCH   3   8
TORSDOF 1
ENDMDL
MODEL 9
REMARK VINA RESULT:      -3.5     16.662     18.132
REMARK  1 active torsions:
REMARK  status: ('A' for Active; 'I' for Inactive)
REMARK    1  A    between atoms: C3_3  and  C7_7 
ROOT
HETATM    1  C1  UNL     1     -36.754  16.940  -3.480  1.00 20.00     0.255 C 
HETATM    2  C2  UNL     1     -36.394  15.197  -4.802  1.00 20.00     0.157 C 
HETATM    3  C3  UNL     1     -35.093  15.947  -4.588  1.00 20.00     0.164 C 
HETATM    4  C4  UNL     1     -36.323  13.684  -4.738  1.00 20.00     0.043 C 
HETATM    5  O8  UNL     1     -37.232  15.702  -3.764  1.00 20.00    -0.314 OA
HETATM    6  O9  UNL     1     -35.552  17.195  -4.062  1.00 20.00    -0.313 OA
HETATM    7  S10 UNL     1     -37.545  18.020  -2.527  1.00 20.00    -0.025 SA
ENDROOT
BRANCH   3   8
HETATM    8  C7  UNL     1     -34.114  15.334  -3.593  1.00 20.00     0.010 C 
HETATM    9  C5  UNL     1     -32.962  14.635  -4.320  1.00 20.00     0.012 C 
HETATM   10  C6  UNL     1     -33.568  16.398  -2.637  1.00 20.00     0.012 C 
ENDBRANCH   3   8
TORSDOF 1
ENDMDL
