MODEL 1
REMARK VINA RESULT:      -4.5      0.000      0.000
REMARK  1 active torsions:
REMARK  status: ('A' for Active; 'I' for Inactive)
REMARK    1  A    between atoms: C4_4  and  C10_10 
ROOT
HETATM    1  C1  UNL     1     -36.631  14.238  -4.559  1.00 20.00     0.132 C 
HETATM    2  C2  UNL     1     -35.310  13.704  -4.071  1.00 20.00     0.087 C 
HETATM    3  C3  UNL     1     -34.986  15.824  -5.206  1.00 20.00     0.021 C 
HETATM    4  C4  UNL     1     -36.493  15.553  -5.286  1.00 20.00     0.059 C 
HETATM    5  C5  UNL     1     -34.427  14.961  -4.055  1.00 20.00    -0.041 C 
HETATM    6  C6  UNL     1     -34.531  15.681  -2.701  1.00 20.00     0.015 C 
HETATM    7  C7  UNL     1     -32.957  14.604  -4.309  1.00 20.00     0.015 C 
HETATM    8  O11 UNL     1     -37.696  13.652  -4.403  1.00 20.00    -0.298 OA
ENDROOT
BRANCH   4   9
HETATM    9  C10 UNL     1     -37.320  16.682  -4.693  1.00 20.00    -0.011 C 
HETATM   10  C8  UNL     1     -36.552  18.006  -4.743  1.00 20.00     0.010 C 
HETATM   11  C9  UNL     1     -38.659  16.822  -5.422  1.00 20.00     0.010 C 
ENDBRANCH   4   9
TORSDOF 1
ENDMDL
MODEL 2
REMARK VINA RESULT:      -4.2      1.307      3.606
REMARK  1 active torsions:
REMARK  status: ('A' for Active; 'I' for Inactive)
REMARK    1  A    between atoms: C4_4  and  C10_10 
ROOT
HETATM    1  C1  UNL     1     -36.077  13.882  -4.240  1.00 20.00     0.132 C 
HETATM    2  C2  UNL     1     -37.344  14.664  -4.467  1.00 20.00     0.087 C 
HETATM    3  C3  UNL     1     -35.820  15.931  -3.067  1.00 20.00     0.021 C 
HETATM    4  C4  UNL     1     -35.091  14.615  -3.363  1.00 20.00     0.059 C 
HETATM    5  C5  UNL     1     -36.911  16.102  -4.145  1.00 20.00    -0.041 C 
HETATM    6  C6  UNL     1     -36.365  16.799  -5.402  1.00 20.00     0.015 C 
HETATM    7  C7  UNL     1     -38.087  16.922  -3.602  1.00 20.00     0.015 C 
HETATM    8  O11 UNL     1     -35.882  12.762  -4.697  1.00 20.00    -0.298 OA
ENDROOT
BRANCH   4   9
HETATM    9  C10 UNL     1     -33.730  14.836  -4.005  1.00 20.00    -0.011 C 
HETATM   10  C8  UNL     1     -33.841  14.845  -5.532  1.00 20.00     0.010 C 
HETATM   11  C9  UNL     1     -33.099  16.141  -3.513  1.00 20.00     0.010 C 
ENDBRANCH   4   9
TORSDOF 1
ENDMDL
MODEL 3
REMARK VINA RESULT:      -4.1      1.789      2.439
REMARK  1 active torsions:
REMARK  status: ('A' for Active; 'I' for Inactive)
REMARK    1  A    between atoms: C4_4  and  C10_10 
ROOT
HETATM    1  C1  UNL     1     -34.013  15.336  -5.015  1.00 20.00     0.132 C 
HETATM    2  C2  UNL     1     -33.189  15.447  -3.759  1.00 20.00     0.087 C 
HETATM    3  C3  UNL     1     -34.463  17.483  -4.104  1.00 20.00     0.021 C 
HETATM    4  C4  UNL     1     -34.821  16.581  -5.292  1.00 20.00     0.059 C 
HETATM    5  C5  UNL     1     -33.898  16.574  -2.993  1.00 20.00    -0.041 C 
HETATM    6  C6  UNL     1     -35.014  16.005  -2.100  1.00 20.00     0.015 C 
HETATM    7  C7  UNL     1     -32.910  17.345  -2.110  1.00 20.00     0.015 C 
HETATM    8  O11 UNL     1     -34.005  14.351  -5.745  1.00 20.00    -0.298 OA
ENDROOT
BRANCH   4   9
HETATM    9  C10 UNL     1     -36.317  16.340  -5.408  1.00 20.00    -0.011 C 
HETATM   10  C8  UNL     1     -37.107  17.483  -4.764  1.00 20.00     0.010 C 
HETATM   11  C9  UNL     1     -36.732  16.170  -6.872  1.00 20.00     0.010 C 
ENDBRANCH   4   9
TORSDOF 1
ENDMDL
MODEL 4
REMARK VINA RESULT:      -4.1      3.120      4.342
REMARK  1 active torsions:
REMARK  status: ('A' for Active; 'I' for Inactive)
REMARK    1  A    between atoms: C4_4  and  C10_10 
ROOT
HETATM    1  C1  UNL     1     -33.105  17.189  -2.258  1.00 20.00     0.132 C 
HETATM    2  C2  UNL     1     -33.025  16.118  -3.315  1.00 20.00     0.087 C 
HETATM    3  C3  UNL     1     -35.109  15.925  -2.087  1.00 20.00     0.021 C 
HETATM    4  C4  UNL     1     -34.377  17.113  -1.450  1.00 20.00     0.059 C 
HETATM    5  C5  UNL     1     -34.494  15.707  -3.486  1.00 20.00    -0.041 C 
HETATM    6  C6  UNL     1     -35.182  16.576  -4.551  1.00 20.00     0.015 C 
HETATM    7  C7  UNL     1     -34.609  14.236  -3.905  1.00 20.00     0.015 C 
HETATM    8  O11 UNL     1     -32.220  18.013  -2.062  1.00 20.00    -0.298 OA
ENDROOT
BRANCH   4   9
HETATM    9  C10 UNL     1     -35.207  18.386  -1.474  1.00 20.00    -0.011 C 
HETATM   10  C8  UNL     1     -36.703  18.063  -1.530  1.00 20.00     0.010 C 
HETATM   11  C9  UNL     1     -34.902  19.261  -0.255  1.00 20.00     0.010 C 
ENDBRANCH   4   9
TORSDOF 1
ENDMDL
MODEL 5
REMARK VINA RESULT:      -4.0     11.279     12.907
REMARK  1 active torsions:
REMARK  status: ('A' for Active; 'I' for Inactive)
REMARK    1  A    between atoms: C4_4  and  C10_10 
ROOT
HETATM    1  C1  UNL     1     -33.702   4.955   3.166  1.00 20.00     0.132 C 
HETATM    2  C2  UNL     1     -32.956   5.622   2.041  1.00 20.00     0.087 C 
HETATM    3  C3  UNL     1     -34.054   7.290   3.418  1.00 20.00     0.021 C 
HETATM    4  C4  UNL     1     -34.419   5.943   4.054  1.00 20.00     0.059 C 
HETATM    5  C5  UNL     1     -32.797   7.061   2.552  1.00 20.00    -0.041 C 
HETATM    6  C6  UNL     1     -31.506   7.208   3.373  1.00 20.00     0.015 C 
HETATM    7  C7  UNL     1     -32.753   8.057   1.386  1.00 20.00     0.015 C 
HETATM    8  O11 UNL     1     -33.743   3.740   3.325  1.00 20.00    -0.298 OA
ENDROOT
BRANCH   4   9
HETATM    9  C10 UNL     1     -34.024   5.866   5.519  1.00 20.00    -0.011 C 
HETATM   10  C8  UNL     1     -33.899   7.266   6.127  1.00 20.00     0.010 C 
HETATM   11  C9  UNL     1     -35.032   5.034   6.315  1.00 20.00     0.010 C 
ENDBRANCH   4   9
TORSDOF 1
ENDMDL
MODEL 6
REMARK VINA RESULT:      -4.0      2.239      3.811
REMARK  1 active torsions:
REMARK  status: ('A' for Active; 'I' for Inactive)
REMARK    1  A    between atoms: C4_4  and  C10_10 
ROOT
HETATM    1  C1  UNL     1     -35.528  17.329  -4.252  1.00 20.00     0.132 C 
HETATM    2  C2  UNL     1     -35.573  17.928  -2.871  1.00 20.00     0.087 C 
HETATM    3  C3  UNL     1     -34.982  15.578  -2.742  1.00 20.00     0.021 C 
HETATM    4  C4  UNL     1     -35.177  15.861  -4.237  1.00 20.00     0.059 C 
HETATM    5  C5  UNL     1     -34.739  16.935  -2.048  1.00 20.00    -0.041 C 
HETATM    6  C6  UNL     1     -33.252  17.327  -2.069  1.00 20.00     0.015 C 
HETATM    7  C7  UNL     1     -35.214  16.892  -0.591  1.00 20.00     0.015 C 
HETATM    8  O11 UNL     1     -35.776  17.961  -5.272  1.00 20.00    -0.298 OA
ENDROOT
BRANCH   4   9
HETATM    9  C10 UNL     1     -33.949  15.506  -5.060  1.00 20.00    -0.011 C 
HETATM   10  C8  UNL     1     -33.108  14.437  -4.355  1.00 20.00     0.010 C 
HETATM   11  C9  UNL     1     -34.348  15.026  -6.458  1.00 20.00     0.010 C 
ENDBRANCH   4   9
TORSDOF 1
ENDMDL
MODEL 7
REMARK VINA RESULT:      -4.0     18.475     19.576
REMARK  1 active torsions:
REMARK  status: ('A' for Active; 'I' for Inactive)
REMARK    1  A    between atoms: C4_4  and  C10_10 
ROOT
HETATM    1  C1  UNL     1     -24.138  18.386   9.253  1.00 20.00     0.132 C 
HETATM    2  C2  UNL     1     -25.019  18.510  10.469  1.00 20.00     0.087 C 
HETATM    3  C3  UNL     1     -23.914  16.350  10.455  1.00 20.00     0.021 C 
HETATM    4  C4  UNL     1     -23.431  17.055   9.182  1.00 20.00     0.059 C 
HETATM    5  C5  UNL     1     -24.442  17.442  11.409  1.00 20.00    -0.041 C 
HETATM    6  C6  UNL     1     -23.319  18.032  12.278  1.00 20.00     0.015 C 
HETATM    7  C7  UNL     1     -25.529  16.876  12.332  1.00 20.00     0.015 C 
HETATM    8  O11 UNL     1     -24.031  19.263   8.403  1.00 20.00    -0.298 OA
ENDROOT
BRANCH   4   9
HETATM    9  C10 UNL     1     -21.916  17.157   9.113  1.00 20.00    -0.011 C 
HETATM   10  C8  UNL     1     -21.423  17.014   7.670  1.00 20.00     0.010 C 
HETATM   11  C9  UNL     1     -21.429  18.482   9.707  1.00 20.00     0.010 C 
ENDBRANCH   4   9
TORSDOF 1
ENDMDL
MODEL 8
REMARK VINA RESULT:      -4.0      2.730      4.418
REMARK  1 active torsions:
REMARK  status: ('A' for Active; 'I' for Inactive)
REMARK    1  A    between atoms: C4_4  and  C10_10 
ROOT
HETATM    1  C1  UNL     1     -33.666  17.235  -3.696  1.00 20.00     0.132 C 
HETATM    2  C2  UNL     1     -34.490  16.488  -4.713  1.00 20.00     0.087 C 
HETATM    3  C3  UNL     1     -34.819  15.533  -2.507  1.00 20.00     0.021 C 
HETATM    4  C4  UNL     1     -33.819  16.678  -2.302  1.00 20.00     0.059 C 
HETATM    5  C5  UNL     1     -35.548  15.796  -3.841  1.00 20.00    -0.041 C 
HETATM    6  C6  UNL     1     -36.774  16.704  -3.651  1.00 20.00     0.015 C 
HETATM    7  C7  UNL     1     -36.008  14.479  -4.477  1.00 20.00     0.015 C 
HETATM    8  O11 UNL     1     -32.932  18.175  -3.979  1.00 20.00    -0.298 OA
ENDROOT
BRANCH   4   9
HETATM    9  C10 UNL     1     -34.298  17.691  -1.275  1.00 20.00    -0.011 C 
HETATM   10  C8  UNL     1     -35.318  17.063  -0.321  1.00 20.00     0.010 C 
HETATM   11  C9  UNL     1     -33.120  18.267  -0.484  1.00 20.00     0.010 C 
ENDBRANCH   4   9
TORSDOF 1
ENDMDL
MODEL 9
REMARK VINA RESULT:      -3.9      2.062      3.644
REMARK  1 active torsions:
REMARK  status: ('A' for Active; 'I' for Inactive)
REMARK    1  A    between atoms: C4_4  and  C10_10 
ROOT
HETATM    1  C1  UNL     1     -36.199  16.821  -3.051  1.00 20.00     0.132 C 
HETATM    2  C2  UNL     1     -35.529  18.052  -2.502  1.00 20.00     0.087 C 
HETATM    3  C3  UNL     1     -34.053  16.137  -2.299  1.00 20.00     0.021 C 
HETATM    4  C4  UNL     1     -35.333  15.590  -2.941  1.00 20.00     0.059 C 
HETATM    5  C5  UNL     1     -34.043  17.663  -2.527  1.00 20.00    -0.041 C 
HETATM    6  C6  UNL     1     -33.408  18.033  -3.878  1.00 20.00     0.015 C 
HETATM    7  C7  UNL     1     -33.269  18.375  -1.411  1.00 20.00     0.015 C 
HETATM    8  O11 UNL     1     -37.335  16.818  -3.512  1.00 20.00    -0.298 OA
ENDROOT
BRANCH   4   9
HETATM    9  C10 UNL     1     -35.067  14.895  -4.266  1.00 20.00    -0.011 C 
HETATM   10  C8  UNL     1     -33.615  14.415  -4.351  1.00 20.00     0.010 C 
HETATM   11  C9  UNL     1     -36.024  13.718  -4.469  1.00 20.00     0.010 C 
ENDBRANCH   4   9
TORSDOF 1
ENDMDL
