MODEL 1
REMARK VINA RESULT:      -4.8      0.000      0.000
REMARK  2 active torsions:
REMARK  status: ('A' for Active; 'I' for Inactive)
REMARK    1  A    between atoms: C1_1  and  C3_3 
REMARK    2  A    between atoms: C3_3  and  C5_5 
ROOT
HETATM    1  C1  UNL     1     -34.107   4.560   3.630  1.00 20.00     0.212 C 
HETATM    2  C2  UNL     1     -33.246   5.099   2.765  1.00 20.00     0.228 C 
HETATM    3  F7  UNL     1     -34.188   3.224   3.798  1.00 20.00    -0.198 F 
HETATM    4  F8  UNL     1     -32.427   4.312   2.031  1.00 20.00    -0.189 F 
HETATM    5 CL9  UNL     1     -33.144   6.808   2.554  1.00 20.00    -0.048 Cl
ENDROOT
BRANCH   1   6
HETATM    6  C3  UNL     1     -35.040   5.355   4.475  1.00 20.00     0.191 C 
HETATM    7  O6  UNL     1     -36.107   5.774   4.031  1.00 20.00    -0.290 OA
BRANCH   6   8
HETATM    8  C5  UNL     1     -34.592   5.611   5.902  1.00 20.00     0.082 C 
HETATM    9  C4  UNL     1     -33.831   6.918   6.048  1.00 20.00     0.013 C 
ENDBRANCH   6   8
ENDBRANCH   1   6
TORSDOF 2
ENDMDL
MODEL 2
REMARK VINA RESULT:      -4.5      2.678      3.691
REMARK  2 active torsions:
REMARK  status: ('A' for Active; 'I' for Inactive)
REMARK    1  A    between atoms: C1_1  and  C3_3 
REMARK    2  A    between atoms: C3_3  and  C5_5 
ROOT
HETATM    1  C1  UNL     1     -33.370   5.766   2.958  1.00 20.00     0.212 C 
HETATM    2  C2  UNL     1     -34.096   5.619   4.068  1.00 20.00     0.228 C 
HETATM    3  F7  UNL     1     -33.368   4.824   1.992  1.00 20.00    -0.198 F 
HETATM    4  F8  UNL     1     -34.853   4.515   4.253  1.00 20.00    -0.189 F 
HETATM    5 CL9  UNL     1     -34.096   6.827   5.299  1.00 20.00    -0.048 Cl
ENDROOT
BRANCH   1   6
HETATM    6  C3  UNL     1     -32.512   6.950   2.678  1.00 20.00     0.191 C 
HETATM    7  O6  UNL     1     -31.841   7.478   3.563  1.00 20.00    -0.290 OA
BRANCH   6   8
HETATM    8  C5  UNL     1     -32.521   7.456   1.248  1.00 20.00     0.082 C 
HETATM    9  C4  UNL     1     -32.907   8.922   1.151  1.00 20.00     0.013 C 
ENDBRANCH   6   8
ENDBRANCH   1   6
TORSDOF 2
ENDMDL
MODEL 3
REMARK VINA RESULT:      -4.5      3.051      3.992
REMARK  2 active torsions:
REMARK  status: ('A' for Active; 'I' for Inactive)
REMARK    1  A    between atoms: C1_1  and  C3_3 
REMARK    2  A    between atoms: C3_3  and  C5_5 
ROOT
HETATM    1  C1  UNL     1     -33.322   6.734   4.436  1.00 20.00     0.212 C 
HETATM    2  C2  UNL     1     -34.370   6.204   5.071  1.00 20.00     0.228 C 
HETATM    3  F7  UNL     1     -32.485   7.589   5.059  1.00 20.00    -0.198 F 
HETATM    4  F8  UNL     1     -34.619   6.513   6.363  1.00 20.00    -0.189 F 
HETATM    5 CL9  UNL     1     -35.436   5.109   4.271  1.00 20.00    -0.048 Cl
ENDROOT
BRANCH   1   6
HETATM    6  C3  UNL     1     -32.978   6.444   3.017  1.00 20.00     0.191 C 
HETATM    7  O6  UNL     1     -33.361   5.417   2.463  1.00 20.00    -0.290 OA
BRANCH   6   8
HETATM    8  C5  UNL     1     -32.135   7.489   2.310  1.00 20.00     0.082 C 
HETATM    9  C4  UNL     1     -32.866   8.140   1.148  1.00 20.00     0.013 C 
ENDBRANCH   6   8
ENDBRANCH   1   6
TORSDOF 2
ENDMDL
MODEL 4
REMARK VINA RESULT:      -4.3      1.744      2.120
REMARK  2 active torsions:
REMARK  status: ('A' for Active; 'I' for Inactive)
REMARK    1  A    between atoms: C1_1  and  C3_3 
REMARK    2  A    between atoms: C3_3  and  C5_5 
ROOT
HETATM    1  C1  UNL     1     -33.547   5.463   2.680  1.00 20.00     0.212 C 
HETATM    2  C2  UNL     1     -32.817   6.570   2.833  1.00 20.00     0.228 C 
HETATM    3  F7  UNL     1     -33.708   4.891   1.469  1.00 20.00    -0.198 F 
HETATM    4  F8  UNL     1     -32.217   7.148   1.769  1.00 20.00    -0.189 F 
HETATM    5 CL9  UNL     1     -32.613   7.297   4.383  1.00 20.00    -0.048 Cl
ENDROOT
BRANCH   1   6
HETATM    6  C3  UNL     1     -34.239   4.765   3.799  1.00 20.00     0.191 C 
HETATM    7  O6  UNL     1     -34.049   3.572   4.024  1.00 20.00    -0.290 OA
BRANCH   6   8
HETATM    8  C5  UNL     1     -35.181   5.614   4.631  1.00 20.00     0.082 C 
HETATM    9  C4  UNL     1     -34.897   5.511   6.121  1.00 20.00     0.013 C 
ENDBRANCH   6   8
ENDBRANCH   1   6
TORSDOF 2
ENDMDL
MODEL 5
REMARK VINA RESULT:      -4.2      2.393      3.362
REMARK  2 active torsions:
REMARK  status: ('A' for Active; 'I' for Inactive)
REMARK    1  A    between atoms: C1_1  and  C3_3 
REMARK    2  A    between atoms: C3_3  and  C5_5 
ROOT
HETATM    1  C1  UNL     1     -34.457   5.218   4.326  1.00 20.00     0.212 C 
HETATM    2  C2  UNL     1     -34.495   5.828   5.513  1.00 20.00     0.228 C 
HETATM    3  F7  UNL     1     -35.322   4.231   4.018  1.00 20.00    -0.198 F 
HETATM    4  F8  UNL     1     -35.409   5.468   6.441  1.00 20.00    -0.189 F 
HETATM    5 CL9  UNL     1     -33.387   7.091   5.902  1.00 20.00    -0.048 Cl
ENDROOT
BRANCH   1   6
HETATM    6  C3  UNL     1     -33.483   5.555   3.252  1.00 20.00     0.191 C 
HETATM    7  O6  UNL     1     -33.120   4.716   2.430  1.00 20.00    -0.290 OA
BRANCH   6   8
HETATM    8  C5  UNL     1     -32.975   6.985   3.239  1.00 20.00     0.082 C 
HETATM    9  C4  UNL     1     -32.515   7.428   1.860  1.00 20.00     0.013 C 
ENDBRANCH   6   8
ENDBRANCH   1   6
TORSDOF 2
ENDMDL
MODEL 6
REMARK VINA RESULT:      -4.1      8.786      9.162
REMARK  2 active torsions:
REMARK  status: ('A' for Active; 'I' for Inactive)
REMARK    1  A    between atoms: C1_1  and  C3_3 
REMARK    2  A    between atoms: C3_3  and  C5_5 
ROOT
HETATM    1  C1  UNL     1     -41.518   6.376   0.117  1.00 20.00     0.212 C 
HETATM    2  C2  UNL     1     -41.634   5.538  -0.915  1.00 20.00     0.228 C 
HETATM    3  F7  UNL     1     -40.341   6.543   0.754  1.00 20.00    -0.198 F 
HETATM    4  F8  UNL     1     -40.567   4.831  -1.350  1.00 20.00    -0.189 F 
HETATM    5 CL9  UNL     1     -43.141   5.328  -1.728  1.00 20.00    -0.048 Cl
ENDROOT
BRANCH   1   6
HETATM    6  C3  UNL     1     -42.642   7.190   0.655  1.00 20.00     0.191 C 
HETATM    7  O6  UNL     1     -43.415   6.737   1.497  1.00 20.00    -0.290 OA
BRANCH   6   8
HETATM    8  C5  UNL     1     -42.769   8.597   0.101  1.00 20.00     0.082 C 
HETATM    9  C4  UNL     1     -41.494   9.407   0.270  1.00 20.00     0.013 C 
ENDBRANCH   6   8
ENDBRANCH   1   6
TORSDOF 2
ENDMDL
MODEL 7
REMARK VINA RESULT:      -4.0     16.909     17.427
REMARK  2 active torsions:
REMARK  status: ('A' for Active; 'I' for Inactive)
REMARK    1  A    between atoms: C1_1  and  C3_3 
REMARK    2  A    between atoms: C3_3  and  C5_5 
ROOT
HETATM    1  C1  UNL     1     -24.624  16.514  11.669  1.00 20.00     0.212 C 
HETATM    2  C2  UNL     1     -25.674  17.242  12.055  1.00 20.00     0.228 C 
HETATM    3  F7  UNL     1     -24.709  15.173  11.543  1.00 20.00    -0.198 F 
HETATM    4  F8  UNL     1     -26.857  16.649  12.329  1.00 20.00    -0.189 F 
HETATM    5 CL9  UNL     1     -25.560  18.956  12.213  1.00 20.00    -0.048 Cl
ENDROOT
BRANCH   1   6
HETATM    6  C3  UNL     1     -23.289  17.089  11.348  1.00 20.00     0.191 C 
HETATM    7  O6  UNL     1     -22.517  17.449  12.234  1.00 20.00    -0.290 OA
BRANCH   6   8
HETATM    8  C5  UNL     1     -22.949  17.200   9.873  1.00 20.00     0.082 C 
HETATM    9  C4  UNL     1     -22.928  18.640   9.388  1.00 20.00     0.013 C 
ENDBRANCH   6   8
ENDBRANCH   1   6
TORSDOF 2
ENDMDL
MODEL 8
REMARK VINA RESULT:      -4.0     12.441     12.759
REMARK  2 active torsions:
REMARK  status: ('A' for Active; 'I' for Inactive)
REMARK    1  A    between atoms: C1_1  and  C3_3 
REMARK    2  A    between atoms: C3_3  and  C5_5 
ROOT
HETATM    1  C1  UNL     1     -34.276  14.634  -4.426  1.00 20.00     0.212 C 
HETATM    2  C2  UNL     1     -33.954  15.412  -3.390  1.00 20.00     0.228 C 
HETATM    3  F7  UNL     1     -33.384  14.358  -5.399  1.00 20.00    -0.198 F 
HETATM    4  F8  UNL     1     -32.716  15.945  -3.292  1.00 20.00    -0.189 F 
HETATM    5 CL9  UNL     1     -35.098  15.760  -2.148  1.00 20.00    -0.048 Cl
ENDROOT
BRANCH   1   6
HETATM    6  C3  UNL     1     -35.615  14.008  -4.609  1.00 20.00     0.191 C 
HETATM    7  O6  UNL     1     -35.792  12.808  -4.414  1.00 20.00    -0.290 OA
BRANCH   6   8
HETATM    8  C5  UNL     1     -36.730  14.940  -5.046  1.00 20.00     0.082 C 
HETATM    9  C4  UNL     1     -38.025  14.692  -4.291  1.00 20.00     0.013 C 
ENDBRANCH   6   8
ENDBRANCH   1   6
TORSDOF 2
ENDMDL
MODEL 9
REMARK VINA RESULT:      -3.9     12.268     12.861
REMARK  2 active torsions:
REMARK  status: ('A' for Active; 'I' for Inactive)
REMARK    1  A    between atoms: C1_1  and  C3_3 
REMARK    2  A    between atoms: C3_3  and  C5_5 
ROOT
HETATM    1  C1  UNL     1     -34.888  14.737  -3.723  1.00 20.00     0.212 C 
HETATM    2  C2  UNL     1     -33.862  15.167  -4.461  1.00 20.00     0.228 C 
HETATM    3  F7  UNL     1     -34.979  15.032  -2.410  1.00 20.00    -0.198 F 
HETATM    4  F8  UNL     1     -32.883  15.916  -3.905  1.00 20.00    -0.189 F 
HETATM    5 CL9  UNL     1     -33.750  14.789  -6.139  1.00 20.00    -0.048 Cl
ENDROOT
BRANCH   1   6
HETATM    6  C3  UNL     1     -36.005  13.910  -4.258  1.00 20.00     0.191 C 
HETATM    7  O6  UNL     1     -35.839  12.732  -4.567  1.00 20.00    -0.290 OA
BRANCH   6   8
HETATM    8  C5  UNL     1     -37.344  14.611  -4.395  1.00 20.00     0.082 C 
HETATM    9  C4  UNL     1     -37.292  15.782  -5.362  1.00 20.00     0.013 C 
ENDBRANCH   6   8
ENDBRANCH   1   6
TORSDOF 2
ENDMDL
