MODEL 1
REMARK VINA RESULT:      -4.8      0.000      0.000
REMARK  0 active torsions:
REMARK  status: ('A' for Active; 'I' for Inactive)
ROOT
HETATM    1  C1  UNL     1     -33.514  16.302  -2.628  1.00 20.00    -0.021 C 
HETATM    2  C2  UNL     1     -34.785  16.196  -2.202  1.00 20.00    -0.087 C 
HETATM    3  C3  UNL     1     -33.016  15.664  -3.895  1.00 20.00     0.068 C 
HETATM    4  C4  UNL     1     -35.816  15.382  -2.955  1.00 20.00     0.036 C 
HETATM    5  C5  UNL     1     -35.202  14.390  -3.949  1.00 20.00     0.045 C 
HETATM    6  C6  UNL     1     -34.302  15.524  -6.168  1.00 20.00     0.153 A 
HETATM    7  C7  UNL     1     -34.112  15.061  -4.732  1.00 20.00     0.090 A 
HETATM    8  C8  UNL     1     -35.267  16.885  -0.960  1.00 20.00     0.043 C 
HETATM    9  C9  UNL     1     -35.575  15.363  -6.919  1.00 20.00     0.042 C 
HETATM   10  O10 UNL     1     -33.635  14.298  -5.852  1.00 20.00    -0.369 OA
ENDROOT
TORSDOF 0
ENDMDL
MODEL 2
REMARK VINA RESULT:      -4.5      1.089      1.254
REMARK  0 active torsions:
REMARK  status: ('A' for Active; 'I' for Inactive)
ROOT
HETATM    1  C1  UNL     1     -33.052  15.815  -3.349  1.00 20.00    -0.021 C 
HETATM    2  C2  UNL     1     -33.937  16.473  -2.578  1.00 20.00    -0.087 C 
HETATM    3  C3  UNL     1     -33.461  14.896  -4.466  1.00 20.00     0.068 C 
HETATM    4  C4  UNL     1     -35.431  16.307  -2.754  1.00 20.00     0.036 C 
HETATM    5  C5  UNL     1     -35.815  15.056  -3.552  1.00 20.00     0.045 C 
HETATM    6  C6  UNL     1     -35.414  15.291  -6.160  1.00 20.00     0.153 A 
HETATM    7  C7  UNL     1     -34.937  14.932  -4.762  1.00 20.00     0.090 A 
HETATM    8  C8  UNL     1     -33.501  17.423  -1.502  1.00 20.00     0.043 C 
HETATM    9  C9  UNL     1     -36.780  15.798  -6.454  1.00 20.00     0.042 C 
HETATM   10  O10 UNL     1     -35.365  13.935  -5.703  1.00 20.00    -0.369 OA
ENDROOT
TORSDOF 0
ENDMDL
MODEL 3
REMARK VINA RESULT:      -4.2      2.792      4.843
REMARK  0 active torsions:
REMARK  status: ('A' for Active; 'I' for Inactive)
ROOT
HETATM    1  C1  UNL     1     -33.078  16.369  -3.105  1.00 20.00    -0.021 C 
HETATM    2  C2  UNL     1     -34.233  15.691  -2.972  1.00 20.00    -0.087 C 
HETATM    3  C3  UNL     1     -32.780  17.638  -2.355  1.00 20.00     0.068 C 
HETATM    4  C4  UNL     1     -35.349  16.181  -2.075  1.00 20.00     0.036 C 
HETATM    5  C5  UNL     1     -35.223  17.661  -1.697  1.00 20.00     0.045 C 
HETATM    6  C6  UNL     1     -33.377  18.138   0.142  1.00 20.00     0.153 A 
HETATM    7  C7  UNL     1     -33.808  17.969  -1.307  1.00 20.00     0.090 A 
HETATM    8  C8  UNL     1     -34.484  14.401  -3.694  1.00 20.00     0.043 C 
HETATM    9  C9  UNL     1     -34.307  18.008   1.294  1.00 20.00     0.042 C 
HETATM   10  O10 UNL     1     -33.630  19.263  -0.707  1.00 20.00    -0.369 OA
ENDROOT
TORSDOF 0
ENDMDL
MODEL 4
REMARK VINA RESULT:      -4.1      1.382      1.608
REMARK  0 active torsions:
REMARK  status: ('A' for Active; 'I' for Inactive)
ROOT
HETATM    1  C1  UNL     1     -32.976  17.378  -2.050  1.00 20.00    -0.021 C 
HETATM    2  C2  UNL     1     -34.053  17.357  -1.245  1.00 20.00    -0.087 C 
HETATM    3  C3  UNL     1     -32.914  16.641  -3.359  1.00 20.00     0.068 C 
HETATM    4  C4  UNL     1     -35.287  16.549  -1.581  1.00 20.00     0.036 C 
HETATM    5  C5  UNL     1     -35.040  15.470  -2.641  1.00 20.00     0.045 C 
HETATM    6  C6  UNL     1     -34.849  16.423  -5.106  1.00 20.00     0.153 A 
HETATM    7  C7  UNL     1     -34.232  16.040  -3.770  1.00 20.00     0.090 A 
HETATM    8  C8  UNL     1     -34.106  18.143   0.032  1.00 20.00     0.043 C 
HETATM    9  C9  UNL     1     -36.296  16.275  -5.412  1.00 20.00     0.042 C 
HETATM   10  O10 UNL     1     -34.148  15.188  -4.924  1.00 20.00    -0.369 OA
ENDROOT
TORSDOF 0
ENDMDL
MODEL 5
REMARK VINA RESULT:      -4.0      1.760      2.355
REMARK  0 active torsions:
REMARK  status: ('A' for Active; 'I' for Inactive)
ROOT
HETATM    1  C1  UNL     1     -33.898  17.053  -4.508  1.00 20.00    -0.021 C 
HETATM    2  C2  UNL     1     -33.820  16.642  -3.230  1.00 20.00    -0.087 C 
HETATM    3  C3  UNL     1     -34.775  16.388  -5.532  1.00 20.00     0.068 C 
HETATM    4  C4  UNL     1     -34.590  15.440  -2.727  1.00 20.00     0.036 C 
HETATM    5  C5  UNL     1     -35.092  14.525  -3.850  1.00 20.00     0.045 C 
HETATM    6  C6  UNL     1     -37.197  15.482  -5.142  1.00 20.00     0.153 A 
HETATM    7  C7  UNL     1     -35.695  15.349  -4.948  1.00 20.00     0.090 A 
HETATM    8  C8  UNL     1     -32.974  17.354  -2.216  1.00 20.00     0.043 C 
HETATM    9  C9  UNL     1     -38.198  14.818  -4.266  1.00 20.00     0.042 C 
HETATM   10  O10 UNL     1     -36.410  14.586  -5.934  1.00 20.00    -0.369 OA
ENDROOT
TORSDOF 0
ENDMDL
MODEL 6
REMARK VINA RESULT:      -4.0      1.567      2.224
REMARK  0 active torsions:
REMARK  status: ('A' for Active; 'I' for Inactive)
ROOT
HETATM    1  C1  UNL     1     -34.191  16.084  -2.300  1.00 20.00    -0.021 C 
HETATM    2  C2  UNL     1     -33.472  17.166  -2.651  1.00 20.00    -0.087 C 
HETATM    3  C3  UNL     1     -35.091  15.351  -3.256  1.00 20.00     0.068 C 
HETATM    4  C4  UNL     1     -33.545  17.758  -4.042  1.00 20.00     0.036 C 
HETATM    5  C5  UNL     1     -34.775  17.303  -4.835  1.00 20.00     0.045 C 
HETATM    6  C6  UNL     1     -34.586  14.831  -5.769  1.00 20.00     0.153 A 
HETATM    7  C7  UNL     1     -34.963  15.823  -4.680  1.00 20.00     0.090 A 
HETATM    8  C8  UNL     1     -32.544  17.848  -1.691  1.00 20.00     0.043 C 
HETATM    9  C9  UNL     1     -33.996  15.232  -7.073  1.00 20.00     0.042 C 
HETATM   10  O10 UNL     1     -35.939  15.255  -5.570  1.00 20.00    -0.369 OA
ENDROOT
TORSDOF 0
ENDMDL
MODEL 7
REMARK VINA RESULT:      -4.0      3.189      4.696
REMARK  0 active torsions:
REMARK  status: ('A' for Active; 'I' for Inactive)
ROOT
HETATM    1  C1  UNL     1     -33.193  18.280   0.825  1.00 20.00    -0.021 C 
HETATM    2  C2  UNL     1     -31.901  18.411   0.476  1.00 20.00    -0.087 C 
HETATM    3  C3  UNL     1     -34.289  18.010  -0.169  1.00 20.00     0.068 C 
HETATM    4  C4  UNL     1     -31.450  18.334  -0.967  1.00 20.00     0.036 C 
HETATM    5  C5  UNL     1     -32.590  18.523  -1.973  1.00 20.00     0.045 C 
HETATM    6  C6  UNL     1     -34.153  16.399  -2.225  1.00 20.00     0.153 A 
HETATM    7  C7  UNL     1     -33.780  17.712  -1.554  1.00 20.00     0.090 A 
HETATM    8  C8  UNL     1     -30.821  18.630   1.494  1.00 20.00     0.043 C 
HETATM    9  C9  UNL     1     -33.376  15.801  -3.342  1.00 20.00     0.042 C 
HETATM   10  O10 UNL     1     -34.815  17.626  -2.547  1.00 20.00    -0.369 OA
ENDROOT
TORSDOF 0
ENDMDL
MODEL 8
REMARK VINA RESULT:      -4.0     10.695     11.346
REMARK  0 active torsions:
REMARK  status: ('A' for Active; 'I' for Inactive)
ROOT
HETATM    1  C1  UNL     1     -33.388   6.884   4.788  1.00 20.00    -0.021 C 
HETATM    2  C2  UNL     1     -34.166   5.875   4.359  1.00 20.00    -0.087 C 
HETATM    3  C3  UNL     1     -32.420   7.611   3.896  1.00 20.00     0.068 C 
HETATM    4  C4  UNL     1     -34.099   5.361   2.937  1.00 20.00     0.036 C 
HETATM    5  C5  UNL     1     -32.823   5.780   2.198  1.00 20.00     0.045 C 
HETATM    6  C6  UNL     1     -32.830   8.309   1.409  1.00 20.00     0.153 A 
HETATM    7  C7  UNL     1     -32.544   7.232   2.444  1.00 20.00     0.090 A 
HETATM    8  C8  UNL     1     -35.160   5.200   5.258  1.00 20.00     0.043 C 
HETATM    9  C9  UNL     1     -33.414   8.024   0.072  1.00 20.00     0.042 C 
HETATM   10  O10 UNL     1     -31.513   7.785   1.610  1.00 20.00    -0.369 OA
ENDROOT
TORSDOF 0
ENDMDL
MODEL 9
REMARK VINA RESULT:      -4.0      1.650      2.269
REMARK  0 active torsions:
REMARK  status: ('A' for Active; 'I' for Inactive)
ROOT
HETATM    1  C1  UNL     1     -33.899  17.798  -4.601  1.00 20.00    -0.021 C 
HETATM    2  C2  UNL     1     -33.457  17.366  -3.406  1.00 20.00    -0.087 C 
HETATM    3  C3  UNL     1     -34.387  16.872  -5.680  1.00 20.00     0.068 C 
HETATM    4  C4  UNL     1     -33.380  15.893  -3.067  1.00 20.00     0.036 C 
HETATM    5  C5  UNL     1     -33.433  14.980  -4.297  1.00 20.00     0.045 C 
HETATM    6  C6  UNL     1     -35.856  14.735  -5.339  1.00 20.00     0.153 A 
HETATM    7  C7  UNL     1     -34.514  15.442  -5.229  1.00 20.00     0.090 A 
HETATM    8  C8  UNL     1     -33.022  18.315  -2.329  1.00 20.00     0.043 C 
HETATM    9  C9  UNL     1     -36.220  13.538  -4.537  1.00 20.00     0.042 C 
HETATM   10  O10 UNL     1     -34.810  14.522  -6.292  1.00 20.00    -0.369 OA
ENDROOT
TORSDOF 0
ENDMDL
