MODEL 1
REMARK VINA RESULT:      -4.4      0.000      0.000
REMARK  2 active torsions:
REMARK  status: ('A' for Active; 'I' for Inactive)
REMARK    1  A    between atoms: C3_3  and  C4_4 
REMARK    2  A    between atoms: C4_4  and  C5_5 
ROOT
HETATM    1  C1  UNL     1     -34.173  16.140  -2.441  1.00 20.00    -0.151 C 
HETATM    2  C2  UNL     1     -35.066  16.468  -1.556  1.00 20.00     0.096 C 
HETATM    3  C3  UNL     1     -33.279  15.813  -3.325  1.00 20.00     0.103 C 
ENDROOT
BRANCH   3   4
HETATM    4  C4  UNL     1     -33.609  14.873  -4.420  1.00 20.00     0.188 C 
HETATM    5  O9  UNL     1     -33.161  13.737  -4.498  1.00 20.00    -0.290 OA
BRANCH   4   6
HETATM    6  C5  UNL     1     -34.526  15.387  -5.437  1.00 20.00     0.230 A 
HETATM    7  C6  UNL     1     -35.997  15.022  -5.444  1.00 20.00     0.088 A 
HETATM    8  C7  UNL     1     -36.956  15.911  -6.171  1.00 20.00     0.049 C 
HETATM    9  C8  UNL     1     -36.577  14.130  -4.392  1.00 20.00     0.049 C 
HETATM   10  O10 UNL     1     -35.054  14.366  -6.301  1.00 20.00    -0.362 OA
ENDBRANCH   4   6
ENDBRANCH   3   4
TORSDOF 2
ENDMDL
MODEL 2
REMARK VINA RESULT:      -4.3      1.557      2.443
REMARK  2 active torsions:
REMARK  status: ('A' for Active; 'I' for Inactive)
REMARK    1  A    between atoms: C3_3  and  C4_4 
REMARK    2  A    between atoms: C4_4  and  C5_5 
ROOT
HETATM    1  C1  UNL     1     -34.398  15.694  -3.093  1.00 20.00    -0.151 C 
HETATM    2  C2  UNL     1     -33.188  16.165  -3.137  1.00 20.00     0.096 C 
HETATM    3  C3  UNL     1     -35.608  15.225  -3.047  1.00 20.00     0.103 C 
ENDROOT
BRANCH   3   4
HETATM    4  C4  UNL     1     -36.151  14.427  -4.168  1.00 20.00     0.188 C 
HETATM    5  O9  UNL     1     -37.254  13.898  -4.154  1.00 20.00    -0.290 OA
BRANCH   4   6
HETATM    6  C5  UNL     1     -35.275  14.297  -5.332  1.00 20.00     0.230 A 
HETATM    7  C6  UNL     1     -35.384  15.228  -6.522  1.00 20.00     0.088 A 
HETATM    8  C7  UNL     1     -34.208  15.369  -7.437  1.00 20.00     0.049 C 
HETATM    9  C8  UNL     1     -36.388  16.338  -6.547  1.00 20.00     0.049 C 
HETATM   10  O10 UNL     1     -35.969  13.920  -6.534  1.00 20.00    -0.362 OA
ENDBRANCH   4   6
ENDBRANCH   3   4
TORSDOF 2
ENDMDL
MODEL 3
REMARK VINA RESULT:      -4.2     15.656     17.708
REMARK  2 active torsions:
REMARK  status: ('A' for Active; 'I' for Inactive)
REMARK    1  A    between atoms: C3_3  and  C4_4 
REMARK    2  A    between atoms: C4_4  and  C5_5 
ROOT
HETATM    1  C1  UNL     1     -25.607  19.073   6.638  1.00 20.00    -0.151 C 
HETATM    2  C2  UNL     1     -26.010  19.223   5.412  1.00 20.00     0.096 C 
HETATM    3  C3  UNL     1     -25.206  18.924   7.864  1.00 20.00     0.103 C 
ENDROOT
BRANCH   3   4
HETATM    4  C4  UNL     1     -23.798  18.580   8.161  1.00 20.00     0.188 C 
HETATM    5  O9  UNL     1     -23.011  18.156   7.326  1.00 20.00    -0.290 OA
BRANCH   4   6
HETATM    6  C5  UNL     1     -23.380  18.778   9.549  1.00 20.00     0.230 A 
HETATM    7  C6  UNL     1     -23.470  17.670  10.577  1.00 20.00     0.088 A 
HETATM    8  C7  UNL     1     -22.618  17.754  11.805  1.00 20.00     0.049 C 
HETATM    9  C8  UNL     1     -23.977  16.311  10.207  1.00 20.00     0.049 C 
HETATM   10  O10 UNL     1     -24.463  18.699  10.492  1.00 20.00    -0.362 OA
ENDBRANCH   4   6
ENDBRANCH   3   4
TORSDOF 2
ENDMDL
MODEL 4
REMARK VINA RESULT:      -4.2      1.473      1.968
REMARK  2 active torsions:
REMARK  status: ('A' for Active; 'I' for Inactive)
REMARK    1  A    between atoms: C3_3  and  C4_4 
REMARK    2  A    between atoms: C4_4  and  C5_5 
ROOT
HETATM    1  C1  UNL     1     -34.190  15.504  -3.194  1.00 20.00    -0.151 C 
HETATM    2  C2  UNL     1     -33.160  16.291  -3.123  1.00 20.00     0.096 C 
HETATM    3  C3  UNL     1     -35.221  14.716  -3.261  1.00 20.00     0.103 C 
ENDROOT
BRANCH   3   4
HETATM    4  C4  UNL     1     -35.534  13.988  -4.510  1.00 20.00     0.188 C 
HETATM    5  O9  UNL     1     -36.000  12.857  -4.540  1.00 20.00    -0.290 OA
BRANCH   4   6
HETATM    6  C5  UNL     1     -35.248  14.711  -5.750  1.00 20.00     0.230 A 
HETATM    7  C6  UNL     1     -36.229  15.704  -6.339  1.00 20.00     0.088 A 
HETATM    8  C7  UNL     1     -35.721  16.737  -7.296  1.00 20.00     0.049 C 
HETATM    9  C8  UNL     1     -37.530  16.002  -5.662  1.00 20.00     0.049 C 
HETATM   10  O10 UNL     1     -36.129  14.363  -6.833  1.00 20.00    -0.362 OA
ENDBRANCH   4   6
ENDBRANCH   3   4
TORSDOF 2
ENDMDL
MODEL 5
REMARK VINA RESULT:      -4.0     17.653     18.816
REMARK  2 active torsions:
REMARK  status: ('A' for Active; 'I' for Inactive)
REMARK    1  A    between atoms: C3_3  and  C4_4 
REMARK    2  A    between atoms: C4_4  and  C5_5 
ROOT
HETATM    1  C1  UNL     1     -26.107  18.711  11.953  1.00 20.00    -0.151 C 
HETATM    2  C2  UNL     1     -27.229  19.263  11.600  1.00 20.00     0.096 C 
HETATM    3  C3  UNL     1     -24.985  18.161  12.308  1.00 20.00     0.103 C 
ENDROOT
BRANCH   3   4
HETATM    4  C4  UNL     1     -24.445  17.002  11.565  1.00 20.00     0.188 C 
HETATM    5  O9  UNL     1     -25.013  15.921  11.484  1.00 20.00    -0.290 OA
BRANCH   4   6
HETATM    6  C5  UNL     1     -23.155  17.219  10.909  1.00 20.00     0.230 A 
HETATM    7  C6  UNL     1     -23.043  17.956   9.591  1.00 20.00     0.088 A 
HETATM    8  C7  UNL     1     -21.727  18.559   9.212  1.00 20.00     0.049 C 
HETATM    9  C8  UNL     1     -24.254  18.513   8.910  1.00 20.00     0.049 C 
HETATM   10  O10 UNL     1     -23.025  16.525   9.656  1.00 20.00    -0.362 OA
ENDBRANCH   4   6
ENDBRANCH   3   4
TORSDOF 2
ENDMDL
MODEL 6
REMARK VINA RESULT:      -4.0     11.397     12.270
REMARK  2 active torsions:
REMARK  status: ('A' for Active; 'I' for Inactive)
REMARK    1  A    between atoms: C3_3  and  C4_4 
REMARK    2  A    between atoms: C4_4  and  C5_5 
ROOT
HETATM    1  C1  UNL     1     -32.618   8.083   1.378  1.00 20.00    -0.151 C 
HETATM    2  C2  UNL     1     -32.917   8.856   0.379  1.00 20.00     0.096 C 
HETATM    3  C3  UNL     1     -32.316   7.311   2.378  1.00 20.00     0.103 C 
ENDROOT
BRANCH   3   4
HETATM    4  C4  UNL     1     -33.186   6.171   2.741  1.00 20.00     0.188 C 
HETATM    5  O9  UNL     1     -33.229   5.122   2.114  1.00 20.00    -0.290 OA
BRANCH   4   6
HETATM    6  C5  UNL     1     -34.019   6.367   3.928  1.00 20.00     0.230 A 
HETATM    7  C6  UNL     1     -34.468   5.204   4.790  1.00 20.00     0.088 A 
HETATM    8  C7  UNL     1     -34.888   5.473   6.201  1.00 20.00     0.049 C 
HETATM    9  C8  UNL     1     -34.058   3.801   4.470  1.00 20.00     0.049 C 
HETATM   10  O10 UNL     1     -35.331   5.791   3.809  1.00 20.00    -0.362 OA
ENDBRANCH   4   6
ENDBRANCH   3   4
TORSDOF 2
ENDMDL
MODEL 7
REMARK VINA RESULT:      -3.9      1.346      1.786
REMARK  2 active torsions:
REMARK  status: ('A' for Active; 'I' for Inactive)
REMARK    1  A    between atoms: C3_3  and  C4_4 
REMARK    2  A    between atoms: C4_4  and  C5_5 
ROOT
HETATM    1  C1  UNL     1     -34.635  15.990  -2.311  1.00 20.00    -0.151 C 
HETATM    2  C2  UNL     1     -35.226  16.615  -1.337  1.00 20.00     0.096 C 
HETATM    3  C3  UNL     1     -34.042  15.366  -3.283  1.00 20.00     0.103 C 
ENDROOT
BRANCH   3   4
HETATM    4  C4  UNL     1     -34.789  14.419  -4.139  1.00 20.00     0.188 C 
HETATM    5  O9  UNL     1     -34.709  13.202  -4.037  1.00 20.00    -0.290 OA
BRANCH   4   6
HETATM    6  C5  UNL     1     -35.657  15.028  -5.146  1.00 20.00     0.230 A 
HETATM    7  C6  UNL     1     -35.169  15.323  -6.550  1.00 20.00     0.088 A 
HETATM    8  C7  UNL     1     -36.177  15.485  -7.644  1.00 20.00     0.049 C 
HETATM    9  C8  UNL     1     -33.774  14.982  -6.971  1.00 20.00     0.049 C 
HETATM   10  O10 UNL     1     -35.236  16.344  -5.547  1.00 20.00    -0.362 OA
ENDBRANCH   4   6
ENDBRANCH   3   4
TORSDOF 2
ENDMDL
MODEL 8
REMARK VINA RESULT:      -3.9      1.685      3.933
REMARK  2 active torsions:
REMARK  status: ('A' for Active; 'I' for Inactive)
REMARK    1  A    between atoms: C3_3  and  C4_4 
REMARK    2  A    between atoms: C4_4  and  C5_5 
ROOT
HETATM    1  C1  UNL     1     -34.987  15.077  -7.192  1.00 20.00    -0.151 C 
HETATM    2  C2  UNL     1     -34.030  15.676  -7.834  1.00 20.00     0.096 C 
HETATM    3  C3  UNL     1     -35.946  14.478  -6.552  1.00 20.00     0.103 C 
ENDROOT
BRANCH   3   4
HETATM    4  C4  UNL     1     -35.793  14.125  -5.123  1.00 20.00     0.188 C 
HETATM    5  O9  UNL     1     -36.013  13.010  -4.671  1.00 20.00    -0.290 OA
BRANCH   4   6
HETATM    6  C5  UNL     1     -35.352  15.212  -4.249  1.00 20.00     0.230 A 
HETATM    7  C6  UNL     1     -33.902  15.370  -3.840  1.00 20.00     0.088 A 
HETATM    8  C7  UNL     1     -33.428  16.709  -3.368  1.00 20.00     0.049 C 
HETATM    9  C8  UNL     1     -32.852  14.425  -4.334  1.00 20.00     0.049 C 
HETATM   10  O10 UNL     1     -34.866  14.760  -2.973  1.00 20.00    -0.362 OA
ENDBRANCH   4   6
ENDBRANCH   3   4
TORSDOF 2
ENDMDL
MODEL 9
REMARK VINA RESULT:      -3.8      1.649      2.166
REMARK  2 active torsions:
REMARK  status: ('A' for Active; 'I' for Inactive)
REMARK    1  A    between atoms: C3_3  and  C4_4 
REMARK    2  A    between atoms: C4_4  and  C5_5 
ROOT
HETATM    1  C1  UNL     1     -35.106  16.218  -1.768  1.00 20.00    -0.151 C 
HETATM    2  C2  UNL     1     -35.257  16.970  -0.720  1.00 20.00     0.096 C 
HETATM    3  C3  UNL     1     -34.958  15.465  -2.816  1.00 20.00     0.103 C 
ENDROOT
BRANCH   3   4
HETATM    4  C4  UNL     1     -33.741  15.565  -3.651  1.00 20.00     0.188 C 
HETATM    5  O9  UNL     1     -32.718  16.135  -3.297  1.00 20.00    -0.290 OA
BRANCH   4   6
HETATM    6  C5  UNL     1     -33.823  14.925  -4.964  1.00 20.00     0.230 A 
HETATM    7  C6  UNL     1     -34.295  15.678  -6.192  1.00 20.00     0.088 A 
HETATM    8  C7  UNL     1     -33.918  15.159  -7.544  1.00 20.00     0.049 C 
HETATM    9  C8  UNL     1     -34.681  17.122  -6.113  1.00 20.00     0.049 C 
HETATM   10  O10 UNL     1     -35.167  14.806  -5.462  1.00 20.00    -0.362 OA
ENDBRANCH   4   6
ENDBRANCH   3   4
TORSDOF 2
ENDMDL
