MODEL 1
REMARK VINA RESULT:      -4.3      0.000      0.000
REMARK  0 active torsions:
REMARK  status: ('A' for Active; 'I' for Inactive)
ROOT
HETATM    1  C1  UNL     1     -33.114  16.409  -3.459  1.00 20.00     0.024 A 
HETATM    2  C2  UNL     1     -34.113  15.612  -4.095  1.00 20.00    -0.016 A 
HETATM    3  C3  UNL     1     -35.266  15.563  -3.337  1.00 20.00    -0.007 A 
HETATM    4  C4  UNL     1     -33.550  16.929  -2.259  1.00 20.00    -0.020 A 
HETATM    5  C5  UNL     1     -33.979  14.877  -5.395  1.00 20.00     0.311 C 
HETATM    6  C6  UNL     1     -36.503  14.835  -3.753  1.00 20.00     0.077 C 
HETATM    7  C7  UNL     1     -36.185  13.910  -4.946  1.00 20.00     0.277 C 
HETATM    8  C8  UNL     1     -32.818  17.798  -1.312  1.00 20.00     0.056 C 
HETATM    9  C9  UNL     1     -35.923  15.611  -6.680  1.00 20.00     0.310 C 
HETATM   10  N10 UNL     1     -35.293  14.504  -5.962  1.00 20.00     0.088 N 
HETATM   11  S11 UNL     1     -35.159  16.459  -1.899  1.00 20.00    -0.099 SA
ENDROOT
TORSDOF 0
ENDMDL
MODEL 2
REMARK VINA RESULT:      -4.3      1.114      1.362
REMARK  0 active torsions:
REMARK  status: ('A' for Active; 'I' for Inactive)
ROOT
HETATM    1  C1  UNL     1     -32.907  17.098  -2.175  1.00 20.00     0.024 A 
HETATM    2  C2  UNL     1     -33.571  16.126  -2.982  1.00 20.00    -0.016 A 
HETATM    3  C3  UNL     1     -34.901  16.012  -2.631  1.00 20.00    -0.007 A 
HETATM    4  C4  UNL     1     -33.756  17.678  -1.256  1.00 20.00    -0.020 A 
HETATM    5  C5  UNL     1     -32.954  15.286  -4.062  1.00 20.00     0.311 C 
HETATM    6  C6  UNL     1     -35.866  15.101  -3.317  1.00 20.00     0.077 C 
HETATM    7  C7  UNL     1     -35.098  14.108  -4.212  1.00 20.00     0.277 C 
HETATM    8  C8  UNL     1     -33.452  18.719  -0.251  1.00 20.00     0.056 C 
HETATM    9  C9  UNL     1     -34.420  15.647  -5.983  1.00 20.00     0.310 C 
HETATM   10  N10 UNL     1     -33.973  14.702  -4.961  1.00 20.00     0.088 N 
HETATM   11  S11 UNL     1     -35.348  17.053  -1.366  1.00 20.00    -0.099 SA
ENDROOT
TORSDOF 0
ENDMDL
MODEL 3
REMARK VINA RESULT:      -4.1      1.144      1.199
REMARK  0 active torsions:
REMARK  status: ('A' for Active; 'I' for Inactive)
ROOT
HETATM    1  C1  UNL     1     -33.374  15.959  -2.940  1.00 20.00     0.024 A 
HETATM    2  C2  UNL     1     -34.587  15.430  -3.475  1.00 20.00    -0.016 A 
HETATM    3  C3  UNL     1     -35.609  16.356  -3.399  1.00 20.00    -0.007 A 
HETATM    4  C4  UNL     1     -33.525  17.252  -2.489  1.00 20.00    -0.020 A 
HETATM    5  C5  UNL     1     -34.796  14.053  -4.032  1.00 20.00     0.311 C 
HETATM    6  C6  UNL     1     -36.991  16.111  -3.909  1.00 20.00     0.077 C 
HETATM    7  C7  UNL     1     -37.176  14.610  -4.211  1.00 20.00     0.277 C 
HETATM    8  C8  UNL     1     -32.511  18.137  -1.874  1.00 20.00     0.056 C 
HETATM    9  C9  UNL     1     -35.799  14.460  -6.223  1.00 20.00     0.310 C 
HETATM   10  N10 UNL     1     -36.016  13.969  -4.864  1.00 20.00     0.088 N 
HETATM   11  S11 UNL     1     -35.124  17.830  -2.709  1.00 20.00    -0.099 SA
ENDROOT
TORSDOF 0
ENDMDL
MODEL 4
REMARK VINA RESULT:      -4.0     17.764     18.625
REMARK  0 active torsions:
REMARK  status: ('A' for Active; 'I' for Inactive)
ROOT
HETATM    1  C1  UNL     1     -26.410  17.406  12.290  1.00 20.00     0.024 A 
HETATM    2  C2  UNL     1     -25.128  17.401  11.661  1.00 20.00    -0.016 A 
HETATM    3  C3  UNL     1     -25.054  18.364  10.674  1.00 20.00    -0.007 A 
HETATM    4  C4  UNL     1     -27.244  18.368  11.761  1.00 20.00    -0.020 A 
HETATM    5  C5  UNL     1     -23.985  16.478  11.965  1.00 20.00     0.311 C 
HETATM    6  C6  UNL     1     -23.829  18.626   9.860  1.00 20.00     0.077 C 
HETATM    7  C7  UNL     1     -22.819  17.477  10.055  1.00 20.00     0.277 C 
HETATM    8  C8  UNL     1     -28.637  18.687  12.141  1.00 20.00     0.056 C 
HETATM    9  C9  UNL     1     -22.101  17.991  12.332  1.00 20.00     0.310 C 
HETATM   10  N10 UNL     1     -22.700  16.995  11.445  1.00 20.00     0.088 N 
HETATM   11  S11 UNL     1     -26.486  19.262  10.510  1.00 20.00    -0.099 SA
ENDROOT
TORSDOF 0
ENDMDL
MODEL 5
REMARK VINA RESULT:      -3.9      3.179      5.218
REMARK  0 active torsions:
REMARK  status: ('A' for Active; 'I' for Inactive)
ROOT
HETATM    1  C1  UNL     1     -32.917  17.028  -2.354  1.00 20.00     0.024 A 
HETATM    2  C2  UNL     1     -33.689  17.677  -1.344  1.00 20.00    -0.016 A 
HETATM    3  C3  UNL     1     -34.955  17.133  -1.259  1.00 20.00    -0.007 A 
HETATM    4  C4  UNL     1     -33.623  16.026  -2.983  1.00 20.00    -0.020 A 
HETATM    5  C5  UNL     1     -33.252  18.822  -0.478  1.00 20.00     0.311 C 
HETATM    6  C6  UNL     1     -35.986  17.577  -0.273  1.00 20.00     0.077 C 
HETATM    7  C7  UNL     1     -35.547  18.905   0.375  1.00 20.00     0.277 C 
HETATM    8  C8  UNL     1     -33.176  15.129  -4.072  1.00 20.00     0.056 C 
HETATM    9  C9  UNL     1     -33.745  18.056   1.789  1.00 20.00     0.310 C 
HETATM   10  N10 UNL     1     -34.112  18.977   0.714  1.00 20.00     0.088 N 
HETATM   11  S11 UNL     1     -35.211  15.865  -2.360  1.00 20.00    -0.099 SA
ENDROOT
TORSDOF 0
ENDMDL
MODEL 6
REMARK VINA RESULT:      -3.7      1.445      1.686
REMARK  0 active torsions:
REMARK  status: ('A' for Active; 'I' for Inactive)
ROOT
HETATM    1  C1  UNL     1     -33.035  16.271  -3.005  1.00 20.00     0.024 A 
HETATM    2  C2  UNL     1     -33.969  16.002  -4.050  1.00 20.00    -0.016 A 
HETATM    3  C3  UNL     1     -34.682  17.137  -4.384  1.00 20.00    -0.007 A 
HETATM    4  C4  UNL     1     -33.076  17.587  -2.597  1.00 20.00    -0.020 A 
HETATM    5  C5  UNL     1     -34.213  14.680  -4.716  1.00 20.00     0.311 C 
HETATM    6  C6  UNL     1     -35.711  17.183  -5.466  1.00 20.00     0.077 C 
HETATM    7  C7  UNL     1     -36.074  15.748  -5.900  1.00 20.00     0.277 C 
HETATM    8  C8  UNL     1     -32.270  18.252  -1.550  1.00 20.00     0.056 C 
HETATM    9  C9  UNL     1     -34.021  15.188  -7.099  1.00 20.00     0.310 C 
HETATM   10  N10 UNL     1     -34.922  14.830  -6.005  1.00 20.00     0.088 N 
HETATM   11  S11 UNL     1     -34.236  18.497  -3.471  1.00 20.00    -0.099 SA
ENDROOT
TORSDOF 0
ENDMDL
MODEL 7
REMARK VINA RESULT:      -3.7      2.495      4.460
REMARK  0 active torsions:
REMARK  status: ('A' for Active; 'I' for Inactive)
ROOT
HETATM    1  C1  UNL     1     -34.520  15.111  -3.260  1.00 20.00     0.024 A 
HETATM    2  C2  UNL     1     -33.946  16.414  -3.350  1.00 20.00    -0.016 A 
HETATM    3  C3  UNL     1     -34.423  17.094  -4.453  1.00 20.00    -0.007 A 
HETATM    4  C4  UNL     1     -35.405  14.861  -4.288  1.00 20.00    -0.020 A 
HETATM    5  C5  UNL     1     -32.932  17.013  -2.420  1.00 20.00     0.311 C 
HETATM    6  C6  UNL     1     -34.035  18.494  -4.799  1.00 20.00     0.077 C 
HETATM    7  C7  UNL     1     -32.814  18.918  -3.957  1.00 20.00     0.277 C 
HETATM    8  C8  UNL     1     -36.198  13.639  -4.543  1.00 20.00     0.056 C 
HETATM    9  C9  UNL     1     -33.917  19.158  -1.791  1.00 20.00     0.310 C 
HETATM   10  N10 UNL     1     -32.862  18.484  -2.546  1.00 20.00     0.088 N 
HETATM   11  S11 UNL     1     -35.543  16.193  -5.358  1.00 20.00    -0.099 SA
ENDROOT
TORSDOF 0
ENDMDL
MODEL 8
REMARK VINA RESULT:      -3.7      2.067      3.050
REMARK  0 active torsions:
REMARK  status: ('A' for Active; 'I' for Inactive)
ROOT
HETATM    1  C1  UNL     1     -33.231  18.267  -0.500  1.00 20.00     0.024 A 
HETATM    2  C2  UNL     1     -33.573  17.416  -1.594  1.00 20.00    -0.016 A 
HETATM    3  C3  UNL     1     -34.795  16.806  -1.387  1.00 20.00    -0.007 A 
HETATM    4  C4  UNL     1     -34.201  18.270   0.479  1.00 20.00    -0.020 A 
HETATM    5  C5  UNL     1     -32.747  17.153  -2.818  1.00 20.00     0.311 C 
HETATM    6  C6  UNL     1     -35.440  15.883  -2.368  1.00 20.00     0.077 C 
HETATM    7  C7  UNL     1     -34.417  15.473  -3.447  1.00 20.00     0.277 C 
HETATM    8  C8  UNL     1     -34.219  19.018   1.755  1.00 20.00     0.056 C 
HETATM    9  C9  UNL     1     -34.288  17.588  -4.663  1.00 20.00     0.310 C 
HETATM   10  N10 UNL     1     -33.548  16.572  -3.916  1.00 20.00     0.088 N 
HETATM   11  S11 UNL     1     -35.521  17.251   0.083  1.00 20.00    -0.099 SA
ENDROOT
TORSDOF 0
ENDMDL
MODEL 9
REMARK VINA RESULT:      -3.6      1.927      3.162
REMARK  0 active torsions:
REMARK  status: ('A' for Active; 'I' for Inactive)
ROOT
HETATM    1  C1  UNL     1     -35.278  17.015  -0.547  1.00 20.00     0.024 A 
HETATM    2  C2  UNL     1     -34.972  16.818  -1.928  1.00 20.00    -0.016 A 
HETATM    3  C3  UNL     1     -33.770  17.410  -2.261  1.00 20.00    -0.007 A 
HETATM    4  C4  UNL     1     -34.301  17.739   0.103  1.00 20.00    -0.020 A 
HETATM    5  C5  UNL     1     -35.816  16.100  -2.939  1.00 20.00     0.311 C 
HETATM    6  C6  UNL     1     -33.163  17.348  -3.624  1.00 20.00     0.077 C 
HETATM    7  C7  UNL     1     -34.207  16.833  -4.635  1.00 20.00     0.277 C 
HETATM    8  C8  UNL     1     -34.250  18.146   1.524  1.00 20.00     0.056 C 
HETATM    9  C9  UNL     1     -34.275  14.492  -3.943  1.00 20.00     0.310 C 
HETATM   10  N10 UNL     1     -35.042  15.720  -4.140  1.00 20.00     0.088 N 
HETATM   11  S11 UNL     1     -33.019  18.179  -0.946  1.00 20.00    -0.099 SA
ENDROOT
TORSDOF 0
ENDMDL
