MODEL 1
REMARK VINA RESULT:      -3.8      0.000      0.000
REMARK  0 active torsions:
REMARK  status: ('A' for Active; 'I' for Inactive)
ROOT
HETATM    1  C1  UNL     1     -23.560  17.232   9.659  1.00 20.00     0.161 C 
HETATM    2  C2  UNL     1     -24.394  18.129   8.774  1.00 20.00     0.091 C 
HETATM    3  C3  UNL     1     -24.937  19.232   9.659  1.00 20.00     0.084 C 
HETATM    4  C4  UNL     1     -23.968  17.228  11.121  1.00 20.00     0.141 C 
HETATM    5  C5  UNL     1     -22.811  17.650  12.014  1.00 20.00     0.053 C 
HETATM    6  O6  UNL     1     -22.660  16.528   9.208  1.00 20.00    -0.295 OA
HETATM    7  S7  UNL     1     -25.338  18.419  11.219  1.00 20.00    -0.135 SA
HETATM    8 CL8  UNL     1     -24.527  15.594  11.527  1.00 20.00    -0.099 Cl
ENDROOT
TORSDOF 0
ENDMDL
MODEL 2
REMARK VINA RESULT:      -3.7     19.003     19.540
REMARK  0 active torsions:
REMARK  status: ('A' for Active; 'I' for Inactive)
ROOT
HETATM    1  C1  UNL     1     -36.222  13.958  -4.581  1.00 20.00     0.161 C 
HETATM    2  C2  UNL     1     -37.634  14.434  -4.331  1.00 20.00     0.091 C 
HETATM    3  C3  UNL     1     -37.764  15.786  -5.004  1.00 20.00     0.084 C 
HETATM    4  C4  UNL     1     -35.208  15.066  -4.797  1.00 20.00     0.141 C 
HETATM    5  C5  UNL     1     -34.519  14.924  -6.146  1.00 20.00     0.053 C 
HETATM    6  O6  UNL     1     -35.924  12.766  -4.557  1.00 20.00    -0.295 OA
HETATM    7  S7  UNL     1     -36.179  16.601  -4.717  1.00 20.00    -0.135 SA
HETATM    8 CL8  UNL     1     -34.033  14.997  -3.469  1.00 20.00    -0.099 Cl
ENDROOT
TORSDOF 0
ENDMDL
MODEL 3
REMARK VINA RESULT:      -3.5     17.635     18.520
REMARK  0 active torsions:
REMARK  status: ('A' for Active; 'I' for Inactive)
ROOT
HETATM    1  C1  UNL     1     -34.082  14.770  -4.100  1.00 20.00     0.161 C 
HETATM    2  C2  UNL     1     -33.772  15.742  -2.986  1.00 20.00     0.091 C 
HETATM    3  C3  UNL     1     -35.091  16.074  -2.317  1.00 20.00     0.084 C 
HETATM    4  C4  UNL     1     -35.486  14.880  -4.665  1.00 20.00     0.141 C 
HETATM    5  C5  UNL     1     -36.232  13.560  -4.542  1.00 20.00     0.053 C 
HETATM    6  O6  UNL     1     -33.237  13.994  -4.539  1.00 20.00    -0.295 OA
HETATM    7  S7  UNL     1     -36.282  16.176  -3.669  1.00 20.00    -0.135 SA
HETATM    8 CL8  UNL     1     -35.354  15.385  -6.362  1.00 20.00    -0.099 Cl
ENDROOT
TORSDOF 0
ENDMDL
MODEL 4
REMARK VINA RESULT:      -3.5     17.730     18.583
REMARK  0 active torsions:
REMARK  status: ('A' for Active; 'I' for Inactive)
ROOT
HETATM    1  C1  UNL     1     -35.060  14.241  -4.422  1.00 20.00     0.161 C 
HETATM    2  C2  UNL     1     -35.941  14.434  -5.633  1.00 20.00     0.091 C 
HETATM    3  C3  UNL     1     -35.475  15.704  -6.315  1.00 20.00     0.084 C 
HETATM    4  C4  UNL     1     -34.476  15.522  -3.854  1.00 20.00     0.141 C 
HETATM    5  C5  UNL     1     -32.955  15.469  -3.832  1.00 20.00     0.053 C 
HETATM    6  O6  UNL     1     -34.880  13.136  -3.917  1.00 20.00    -0.295 OA
HETATM    7  S7  UNL     1     -35.069  16.832  -4.966  1.00 20.00    -0.135 SA
HETATM    8 CL8  UNL     1     -35.131  15.743  -2.219  1.00 20.00    -0.099 Cl
ENDROOT
TORSDOF 0
ENDMDL
MODEL 5
REMARK VINA RESULT:      -3.4     18.579     19.478
REMARK  0 active torsions:
REMARK  status: ('A' for Active; 'I' for Inactive)
ROOT
HETATM    1  C1  UNL     1     -35.509  13.946  -4.555  1.00 20.00     0.161 C 
HETATM    2  C2  UNL     1     -34.279  14.210  -3.718  1.00 20.00     0.091 C 
HETATM    3  C3  UNL     1     -34.291  15.687  -3.380  1.00 20.00     0.084 C 
HETATM    4  C4  UNL     1     -36.011  15.145  -5.339  1.00 20.00     0.141 C 
HETATM    5  C5  UNL     1     -37.450  15.475  -4.974  1.00 20.00     0.053 C 
HETATM    6  O6  UNL     1     -36.020  12.831  -4.626  1.00 20.00    -0.295 OA
HETATM    7  S7  UNL     1     -34.892  16.500  -4.875  1.00 20.00    -0.135 SA
HETATM    8 CL8  UNL     1     -35.859  14.770  -7.067  1.00 20.00    -0.099 Cl
ENDROOT
TORSDOF 0
ENDMDL
MODEL 6
REMARK VINA RESULT:      -3.3     17.973     18.540
REMARK  0 active torsions:
REMARK  status: ('A' for Active; 'I' for Inactive)
ROOT
HETATM    1  C1  UNL     1     -34.700  14.412  -4.297  1.00 20.00     0.161 C 
HETATM    2  C2  UNL     1     -35.991  13.631  -4.366  1.00 20.00     0.091 C 
HETATM    3  C3  UNL     1     -37.090  14.630  -4.667  1.00 20.00     0.084 C 
HETATM    4  C4  UNL     1     -34.861  15.868  -3.899  1.00 20.00     0.141 C 
HETATM    5  C5  UNL     1     -34.297  16.793  -4.967  1.00 20.00     0.053 C 
HETATM    6  O6  UNL     1     -33.609  13.884  -4.499  1.00 20.00    -0.295 OA
HETATM    7  S7  UNL     1     -36.654  16.099  -3.714  1.00 20.00    -0.135 SA
HETATM    8 CL8  UNL     1     -34.034  16.104  -2.347  1.00 20.00    -0.099 Cl
ENDROOT
TORSDOF 0
ENDMDL
MODEL 7
REMARK VINA RESULT:      -3.3     23.230     23.620
REMARK  0 active torsions:
REMARK  status: ('A' for Active; 'I' for Inactive)
ROOT
HETATM    1  C1  UNL     1     -41.494   6.722  -0.638  1.00 20.00     0.161 C 
HETATM    2  C2  UNL     1     -41.549   5.473   0.210  1.00 20.00     0.091 C 
HETATM    3  C3  UNL     1     -42.958   5.381   0.761  1.00 20.00     0.084 C 
HETATM    4  C4  UNL     1     -42.482   7.803  -0.238  1.00 20.00     0.141 C 
HETATM    5  C5  UNL     1     -43.403   8.160  -1.395  1.00 20.00     0.053 C 
HETATM    6  O6  UNL     1     -40.675   6.858  -1.543  1.00 20.00    -0.295 OA
HETATM    7  S7  UNL     1     -43.417   7.083   1.144  1.00 20.00    -0.135 SA
HETATM    8 CL8  UNL     1     -41.554   9.217   0.301  1.00 20.00    -0.099 Cl
ENDROOT
TORSDOF 0
ENDMDL
MODEL 8
REMARK VINA RESULT:      -3.2     17.539     18.482
REMARK  0 active torsions:
REMARK  status: ('A' for Active; 'I' for Inactive)
ROOT
HETATM    1  C1  UNL     1     -35.579  15.886  -3.441  1.00 20.00     0.161 C 
HETATM    2  C2  UNL     1     -34.456  16.137  -2.462  1.00 20.00     0.091 C 
HETATM    3  C3  UNL     1     -33.163  16.032  -3.244  1.00 20.00     0.084 C 
HETATM    4  C4  UNL     1     -35.200  15.023  -4.631  1.00 20.00     0.141 C 
HETATM    5  C5  UNL     1     -35.448  15.757  -5.941  1.00 20.00     0.053 C 
HETATM    6  O6  UNL     1     -36.716  16.309  -3.249  1.00 20.00    -0.295 OA
HETATM    7  S7  UNL     1     -33.431  14.675  -4.402  1.00 20.00    -0.135 SA
HETATM    8 CL8  UNL     1     -36.151  13.527  -4.546  1.00 20.00    -0.099 Cl
ENDROOT
TORSDOF 0
ENDMDL
MODEL 9
REMARK VINA RESULT:      -3.1     24.268     24.508
REMARK  0 active torsions:
REMARK  status: ('A' for Active; 'I' for Inactive)
ROOT
HETATM    1  C1  UNL     1     -42.715   7.185  -0.970  1.00 20.00     0.161 C 
HETATM    2  C2  UNL     1     -43.417   7.726   0.253  1.00 20.00     0.091 C 
HETATM    3  C3  UNL     1     -43.101   6.780   1.393  1.00 20.00     0.084 C 
HETATM    4  C4  UNL     1     -42.480   5.685  -0.954  1.00 20.00     0.141 C 
HETATM    5  C5  UNL     1     -41.000   5.360  -1.085  1.00 20.00     0.053 C 
HETATM    6  O6  UNL     1     -42.409   7.906  -1.916  1.00 20.00    -0.295 OA
HETATM    7  S7  UNL     1     -43.132   5.135   0.651  1.00 20.00    -0.135 SA
HETATM    8 CL8  UNL     1     -43.412   4.973  -2.286  1.00 20.00    -0.099 Cl
ENDROOT
TORSDOF 0
ENDMDL
