MODEL 1
REMARK VINA RESULT:      -4.7      0.000      0.000
REMARK  0 active torsions:
REMARK  status: ('A' for Active; 'I' for Inactive)
ROOT
HETATM    1  C1  UNL     1     -35.254  13.780  -4.305  1.00 20.00     0.136 C 
HETATM    2  C2  UNL     1     -36.503  14.112  -5.080  1.00 20.00     0.080 C 
HETATM    3  C3  UNL     1     -36.564  15.629  -4.956  1.00 20.00     0.017 C 
HETATM    4  C4  UNL     1     -34.445  17.017  -2.708  1.00 20.00     0.002 C 
HETATM    5  C5  UNL     1     -34.596  15.507  -2.605  1.00 20.00     0.018 C 
HETATM    6  C6  UNL     1     -34.946  17.406  -4.101  1.00 20.00     0.010 C 
HETATM    7  C7  UNL     1     -34.396  15.008  -4.039  1.00 20.00     0.024 C 
HETATM    8  C8  UNL     1     -35.090  16.096  -4.902  1.00 20.00    -0.029 C 
HETATM    9  C9  UNL     1     -32.928  14.743  -4.358  1.00 20.00     0.024 C 
HETATM   10  C10 UNL     1     -34.542  16.258  -6.326  1.00 20.00     0.016 C 
HETATM   11  O11 UNL     1     -34.968  12.646  -3.942  1.00 20.00    -0.297 OA
ENDROOT
TORSDOF 0
ENDMDL
MODEL 2
REMARK VINA RESULT:      -4.7      1.408      1.668
REMARK  0 active torsions:
REMARK  status: ('A' for Active; 'I' for Inactive)
ROOT
HETATM    1  C1  UNL     1     -36.838  14.743  -4.492  1.00 20.00     0.136 C 
HETATM    2  C2  UNL     1     -37.091  15.802  -5.532  1.00 20.00     0.080 C 
HETATM    3  C3  UNL     1     -35.861  16.690  -5.391  1.00 20.00     0.017 C 
HETATM    4  C4  UNL     1     -33.925  16.116  -2.672  1.00 20.00     0.002 C 
HETATM    5  C5  UNL     1     -35.291  15.448  -2.644  1.00 20.00     0.018 C 
HETATM    6  C6  UNL     1     -33.651  16.474  -4.134  1.00 20.00     0.010 C 
HETATM    7  C7  UNL     1     -35.398  14.746  -4.001  1.00 20.00     0.024 C 
HETATM    8  C8  UNL     1     -34.713  15.739  -4.978  1.00 20.00    -0.029 C 
HETATM    9  C9  UNL     1     -34.815  13.337  -3.968  1.00 20.00     0.024 C 
HETATM   10  C10 UNL     1     -34.084  15.108  -6.226  1.00 20.00     0.016 C 
HETATM   11  O11 UNL     1     -37.700  13.966  -4.098  1.00 20.00    -0.297 OA
ENDROOT
TORSDOF 0
ENDMDL
MODEL 3
REMARK VINA RESULT:      -4.7      1.049      1.067
REMARK  0 active torsions:
REMARK  status: ('A' for Active; 'I' for Inactive)
ROOT
HETATM    1  C1  UNL     1     -36.106  13.919  -4.466  1.00 20.00     0.136 C 
HETATM    2  C2  UNL     1     -37.511  14.459  -4.414  1.00 20.00     0.080 C 
HETATM    3  C3  UNL     1     -37.282  15.907  -3.998  1.00 20.00     0.017 C 
HETATM    4  C4  UNL     1     -34.156  16.667  -2.940  1.00 20.00     0.002 C 
HETATM    5  C5  UNL     1     -34.454  15.180  -3.057  1.00 20.00     0.018 C 
HETATM    6  C6  UNL     1     -35.215  17.385  -3.778  1.00 20.00     0.010 C 
HETATM    7  C7  UNL     1     -35.061  15.025  -4.455  1.00 20.00     0.024 C 
HETATM    8  C8  UNL     1     -35.924  16.305  -4.620  1.00 20.00    -0.029 C 
HETATM    9  C9  UNL     1     -33.996  14.798  -5.523  1.00 20.00     0.024 C 
HETATM   10  C10 UNL     1     -36.130  16.779  -6.064  1.00 20.00     0.016 C 
HETATM   11  O11 UNL     1     -35.846  12.723  -4.520  1.00 20.00    -0.297 OA
ENDROOT
TORSDOF 0
ENDMDL
MODEL 4
REMARK VINA RESULT:      -4.6      1.278      2.829
REMARK  0 active torsions:
REMARK  status: ('A' for Active; 'I' for Inactive)
ROOT
HETATM    1  C1  UNL     1     -36.373  14.213  -4.313  1.00 20.00     0.136 C 
HETATM    2  C2  UNL     1     -35.117  13.466  -3.949  1.00 20.00     0.080 C 
HETATM    3  C3  UNL     1     -34.046  14.537  -4.119  1.00 20.00     0.017 C 
HETATM    4  C4  UNL     1     -35.031  17.380  -5.673  1.00 20.00     0.002 C 
HETATM    5  C5  UNL     1     -36.004  16.216  -5.781  1.00 20.00     0.018 C 
HETATM    6  C6  UNL     1     -34.104  17.059  -4.499  1.00 20.00     0.010 C 
HETATM    7  C7  UNL     1     -36.162  15.719  -4.341  1.00 20.00     0.024 C 
HETATM    8  C8  UNL     1     -34.736  15.870  -3.746  1.00 20.00    -0.029 C 
HETATM    9  C9  UNL     1     -37.274  16.453  -3.598  1.00 20.00     0.024 C 
HETATM   10  C10 UNL     1     -34.673  16.083  -2.229  1.00 20.00     0.016 C 
HETATM   11  O11 UNL     1     -37.440  13.660  -4.550  1.00 20.00    -0.297 OA
ENDROOT
TORSDOF 0
ENDMDL
MODEL 5
REMARK VINA RESULT:      -4.5     17.586     19.024
REMARK  0 active torsions:
REMARK  status: ('A' for Active; 'I' for Inactive)
ROOT
HETATM    1  C1  UNL     1     -25.129  18.462  10.477  1.00 20.00     0.136 C 
HETATM    2  C2  UNL     1     -24.669  19.227   9.264  1.00 20.00     0.080 C 
HETATM    3  C3  UNL     1     -23.155  19.084   9.350  1.00 20.00     0.017 C 
HETATM    4  C4  UNL     1     -21.949  17.842  12.260  1.00 20.00     0.002 C 
HETATM    5  C5  UNL     1     -23.410  18.265  12.296  1.00 20.00     0.018 C 
HETATM    6  C6  UNL     1     -21.584  17.676  10.784  1.00 20.00     0.010 C 
HETATM    7  C7  UNL     1     -24.027  17.594  11.065  1.00 20.00     0.024 C 
HETATM    8  C8  UNL     1     -22.909  17.700   9.994  1.00 20.00    -0.029 C 
HETATM    9  C9  UNL     1     -24.527  16.185  11.367  1.00 20.00     0.024 C 
HETATM   10  C10 UNL     1     -22.925  16.612   8.913  1.00 20.00     0.016 C 
HETATM   11  O11 UNL     1     -26.267  18.533  10.926  1.00 20.00    -0.297 OA
ENDROOT
TORSDOF 0
ENDMDL
MODEL 6
REMARK VINA RESULT:      -4.4      1.554      2.152
REMARK  0 active torsions:
REMARK  status: ('A' for Active; 'I' for Inactive)
ROOT
HETATM    1  C1  UNL     1     -34.791  14.905  -5.674  1.00 20.00     0.136 C 
HETATM    2  C2  UNL     1     -35.979  14.044  -5.331  1.00 20.00     0.080 C 
HETATM    3  C3  UNL     1     -36.248  14.432  -3.883  1.00 20.00     0.017 C 
HETATM    4  C4  UNL     1     -33.843  16.277  -2.372  1.00 20.00     0.002 C 
HETATM    5  C5  UNL     1     -33.435  15.643  -3.694  1.00 20.00     0.018 C 
HETATM    6  C6  UNL     1     -35.373  16.270  -2.346  1.00 20.00     0.010 C 
HETATM    7  C7  UNL     1     -34.567  16.013  -4.657  1.00 20.00     0.024 C 
HETATM    8  C8  UNL     1     -35.840  15.920  -3.773  1.00 20.00    -0.029 C 
HETATM    9  C9  UNL     1     -34.328  17.357  -5.338  1.00 20.00     0.024 C 
HETATM   10  C10 UNL     1     -37.010  16.814  -4.204  1.00 20.00     0.016 C 
HETATM   11  O11 UNL     1     -34.095  14.727  -6.667  1.00 20.00    -0.297 OA
ENDROOT
TORSDOF 0
ENDMDL
MODEL 7
REMARK VINA RESULT:      -4.4      1.858      3.535
REMARK  0 active torsions:
REMARK  status: ('A' for Active; 'I' for Inactive)
ROOT
HETATM    1  C1  UNL     1     -34.393  17.014  -5.009  1.00 20.00     0.136 C 
HETATM    2  C2  UNL     1     -33.823  17.158  -3.622  1.00 20.00     0.080 C 
HETATM    3  C3  UNL     1     -34.143  15.804  -3.002  1.00 20.00     0.017 C 
HETATM    4  C4  UNL     1     -36.276  13.841  -4.753  1.00 20.00     0.002 C 
HETATM    5  C5  UNL     1     -36.205  15.289  -5.215  1.00 20.00     0.018 C 
HETATM    6  C6  UNL     1     -35.015  13.591  -3.925  1.00 20.00     0.010 C 
HETATM    7  C7  UNL     1     -34.706  15.567  -5.358  1.00 20.00     0.024 C 
HETATM    8  C8  UNL     1     -34.077  14.791  -4.169  1.00 20.00    -0.029 C 
HETATM    9  C9  UNL     1     -34.182  15.200  -6.743  1.00 20.00     0.024 C 
HETATM   10  C10 UNL     1     -32.630  14.327  -4.376  1.00 20.00     0.016 C 
HETATM   11  O11 UNL     1     -34.573  17.962  -5.765  1.00 20.00    -0.297 OA
ENDROOT
TORSDOF 0
ENDMDL
MODEL 8
REMARK VINA RESULT:      -4.3     17.621     18.934
REMARK  0 active torsions:
REMARK  status: ('A' for Active; 'I' for Inactive)
ROOT
HETATM    1  C1  UNL     1     -25.510  16.884  11.748  1.00 20.00     0.136 C 
HETATM    2  C2  UNL     1     -24.668  15.664  11.480  1.00 20.00     0.080 C 
HETATM    3  C3  UNL     1     -23.637  16.196  10.493  1.00 20.00     0.017 C 
HETATM    4  C4  UNL     1     -24.269  19.261   9.199  1.00 20.00     0.002 C 
HETATM    5  C5  UNL     1     -25.437  18.617   9.932  1.00 20.00     0.018 C 
HETATM    6  C6  UNL     1     -23.011  18.526   9.664  1.00 20.00     0.010 C 
HETATM    7  C7  UNL     1     -24.841  18.164  11.268  1.00 20.00     0.024 C 
HETATM    8  C8  UNL     1     -23.418  17.676  10.885  1.00 20.00    -0.029 C 
HETATM    9  C9  UNL     1     -24.906  19.259  12.328  1.00 20.00     0.024 C 
HETATM   10  C10 UNL     1     -22.366  17.771  11.998  1.00 20.00     0.016 C 
HETATM   11  O11 UNL     1     -26.604  16.840  12.297  1.00 20.00    -0.297 OA
ENDROOT
TORSDOF 0
ENDMDL
MODEL 9
REMARK VINA RESULT:      -4.2      1.218      2.542
REMARK  0 active torsions:
REMARK  status: ('A' for Active; 'I' for Inactive)
ROOT
HETATM    1  C1  UNL     1     -33.918  14.565  -5.055  1.00 20.00     0.136 C 
HETATM    2  C2  UNL     1     -33.878  15.096  -6.464  1.00 20.00     0.080 C 
HETATM    3  C3  UNL     1     -35.322  15.529  -6.685  1.00 20.00     0.017 C 
HETATM    4  C4  UNL     1     -37.549  14.502  -4.349  1.00 20.00     0.002 C 
HETATM    5  C5  UNL     1     -36.190  13.819  -4.289  1.00 20.00     0.018 C 
HETATM    6  C6  UNL     1     -37.351  15.784  -5.159  1.00 20.00     0.010 C 
HETATM    7  C7  UNL     1     -35.185  14.974  -4.318  1.00 20.00     0.024 C 
HETATM    8  C8  UNL     1     -35.829  15.992  -5.298  1.00 20.00    -0.029 C 
HETATM    9  C9  UNL     1     -34.873  15.502  -2.922  1.00 20.00     0.024 C 
HETATM   10  C10 UNL     1     -35.450  17.460  -5.068  1.00 20.00     0.016 C 
HETATM   11  O11 UNL     1     -33.023  13.887  -4.565  1.00 20.00    -0.297 OA
ENDROOT
TORSDOF 0
ENDMDL
