MODEL 1
REMARK VINA RESULT:      -4.3      0.000      0.000
REMARK  1 active torsions:
REMARK  status: ('A' for Active; 'I' for Inactive)
REMARK    1  A    between atoms: C7_7  and  N8_8 
ROOT
HETATM    1  C1  UNL     1     -25.380  16.637  11.660  1.00 20.00     0.005 C 
HETATM    2  C2  UNL     1     -24.027  16.134  11.136  1.00 20.00     0.007 C 
HETATM    3  C3  UNL     1     -23.670  18.153  12.328  1.00 20.00     0.011 C 
HETATM    4  C4  UNL     1     -25.043  18.824  10.493  1.00 20.00     0.027 C 
HETATM    5  C5  UNL     1     -25.129  18.139  11.870  1.00 20.00    -0.013 C 
HETATM    6  C6  UNL     1     -23.176  17.419  11.079  1.00 20.00     0.006 C 
HETATM    7  C7  UNL     1     -23.669  18.370   9.969  1.00 20.00     0.097 C 
ENDROOT
BRANCH   7   8
HETATM    8  N8  UNL     1     -23.716  17.809   8.629  1.00 20.00    -0.131 NA
HETATM    9 CL9  UNL     1     -24.528  18.881   7.485  1.00 20.00    -0.005 Cl
HETATM   10 CL10 UNL     1     -22.111  17.388   8.026  1.00 20.00    -0.005 Cl
ENDBRANCH   7   8
TORSDOF 1
ENDMDL
MODEL 2
REMARK VINA RESULT:      -4.2     23.429     24.326
REMARK  1 active torsions:
REMARK  status: ('A' for Active; 'I' for Inactive)
REMARK    1  A    between atoms: C7_7  and  N8_8 
ROOT
HETATM    1  C1  UNL     1     -41.190   8.203  -0.384  1.00 20.00     0.005 C 
HETATM    2  C2  UNL     1     -42.188   8.025  -1.537  1.00 20.00     0.007 C 
HETATM    3  C3  UNL     1     -43.382   7.953   0.511  1.00 20.00     0.011 C 
HETATM    4  C4  UNL     1     -41.949   6.047   0.633  1.00 20.00     0.027 C 
HETATM    5  C5  UNL     1     -41.930   7.578   0.809  1.00 20.00    -0.013 C 
HETATM    6  C6  UNL     1     -43.366   7.288  -0.868  1.00 20.00     0.006 C 
HETATM    7  C7  UNL     1     -42.981   5.843  -0.489  1.00 20.00     0.097 C 
ENDROOT
BRANCH   7   8
HETATM    8  N8  UNL     1     -42.498   5.011  -1.578  1.00 20.00    -0.131 NA
HETATM    9 CL9  UNL     1     -40.776   4.649  -1.425  1.00 20.00    -0.005 Cl
HETATM   10 CL10 UNL     1     -43.417   3.512  -1.731  1.00 20.00    -0.005 Cl
ENDBRANCH   7   8
TORSDOF 1
ENDMDL
MODEL 3
REMARK VINA RESULT:      -4.1     17.408     18.246
REMARK  1 active torsions:
REMARK  status: ('A' for Active; 'I' for Inactive)
REMARK    1  A    between atoms: C7_7  and  N8_8 
ROOT
HETATM    1  C1  UNL     1     -34.218  17.351  -4.317  1.00 20.00     0.005 C 
HETATM    2  C2  UNL     1     -35.608  16.844  -3.907  1.00 20.00     0.007 C 
HETATM    3  C3  UNL     1     -34.057  16.238  -2.217  1.00 20.00     0.011 C 
HETATM    4  C4  UNL     1     -33.296  15.033  -4.133  1.00 20.00     0.027 C 
HETATM    5  C5  UNL     1     -33.272  16.443  -3.514  1.00 20.00    -0.013 C 
HETATM    6  C6  UNL     1     -35.286  15.684  -2.943  1.00 20.00     0.006 C 
HETATM    7  C7  UNL     1     -34.665  14.487  -3.693  1.00 20.00     0.097 C 
ENDROOT
BRANCH   7   8
HETATM    8  N8  UNL     1     -35.455  13.949  -4.788  1.00 20.00    -0.131 NA
HETATM    9 CL9  UNL     1     -37.190  14.105  -4.497  1.00 20.00    -0.005 Cl
HETATM   10 CL10 UNL     1     -35.035  14.684  -6.337  1.00 20.00    -0.005 Cl
ENDBRANCH   7   8
TORSDOF 1
ENDMDL
MODEL 4
REMARK VINA RESULT:      -4.0     16.230     17.055
REMARK  1 active torsions:
REMARK  status: ('A' for Active; 'I' for Inactive)
REMARK    1  A    between atoms: C7_7  and  N8_8 
ROOT
HETATM    1  C1  UNL     1     -35.759  16.172  -4.488  1.00 20.00     0.005 C 
HETATM    2  C2  UNL     1     -34.328  16.491  -4.944  1.00 20.00     0.007 C 
HETATM    3  C3  UNL     1     -34.291  14.462  -3.716  1.00 20.00     0.011 C 
HETATM    4  C4  UNL     1     -35.000  16.077  -2.106  1.00 20.00     0.027 C 
HETATM    5  C5  UNL     1     -35.535  15.242  -3.284  1.00 20.00    -0.013 C 
HETATM    6  C6  UNL     1     -33.458  15.730  -3.923  1.00 20.00     0.006 C 
HETATM    7  C7  UNL     1     -33.548  16.369  -2.522  1.00 20.00     0.097 C 
ENDROOT
BRANCH   7   8
HETATM    8  N8  UNL     1     -33.194  17.776  -2.445  1.00 20.00    -0.131 NA
HETATM    9 CL9  UNL     1     -34.591  18.796  -2.091  1.00 20.00    -0.005 Cl
HETATM   10 CL10 UNL     1     -31.913  18.079  -1.268  1.00 20.00    -0.005 Cl
ENDBRANCH   7   8
TORSDOF 1
ENDMDL
MODEL 5
REMARK VINA RESULT:      -3.9     16.685     17.571
REMARK  1 active torsions:
REMARK  status: ('A' for Active; 'I' for Inactive)
REMARK    1  A    between atoms: C7_7  and  N8_8 
ROOT
HETATM    1  C1  UNL     1     -34.163  18.251  -3.306  1.00 20.00     0.005 C 
HETATM    2  C2  UNL     1     -35.594  17.695  -3.287  1.00 20.00     0.007 C 
HETATM    3  C3  UNL     1     -34.431  16.849  -1.401  1.00 20.00     0.011 C 
HETATM    4  C4  UNL     1     -33.237  15.928  -3.252  1.00 20.00     0.027 C 
HETATM    5  C5  UNL     1     -33.388  17.235  -2.452  1.00 20.00    -0.013 C 
HETATM    6  C6  UNL     1     -35.456  16.408  -2.448  1.00 20.00     0.006 C 
HETATM    7  C7  UNL     1     -34.653  15.329  -3.204  1.00 20.00     0.097 C 
ENDROOT
BRANCH   7   8
HETATM    8  N8  UNL     1     -35.170  14.956  -4.510  1.00 20.00    -0.131 NA
HETATM    9 CL9  UNL     1     -33.899  14.889  -5.735  1.00 20.00    -0.005 Cl
HETATM   10 CL10 UNL     1     -36.046  13.423  -4.467  1.00 20.00    -0.005 Cl
ENDBRANCH   7   8
TORSDOF 1
ENDMDL
MODEL 6
REMARK VINA RESULT:      -3.9     18.023     18.831
REMARK  1 active torsions:
REMARK  status: ('A' for Active; 'I' for Inactive)
REMARK    1  A    between atoms: C7_7  and  N8_8 
ROOT
HETATM    1  C1  UNL     1     -37.348  14.504  -4.294  1.00 20.00     0.005 C 
HETATM    2  C2  UNL     1     -37.090  15.925  -4.816  1.00 20.00     0.007 C 
HETATM    3  C3  UNL     1     -35.781  14.406  -6.084  1.00 20.00     0.011 C 
HETATM    4  C4  UNL     1     -34.902  14.191  -3.874  1.00 20.00     0.027 C 
HETATM    5  C5  UNL     1     -36.092  13.740  -4.742  1.00 20.00    -0.013 C 
HETATM    6  C6  UNL     1     -35.699  15.807  -5.473  1.00 20.00     0.006 C 
HETATM    7  C7  UNL     1     -34.595  15.598  -4.416  1.00 20.00     0.097 C 
ENDROOT
BRANCH   7   8
HETATM    8  N8  UNL     1     -34.513  16.613  -3.378  1.00 20.00    -0.131 NA
HETATM    9 CL9  UNL     1     -35.111  16.027  -1.824  1.00 20.00    -0.005 Cl
HETATM   10 CL10 UNL     1     -32.875  17.247  -3.194  1.00 20.00    -0.005 Cl
ENDBRANCH   7   8
TORSDOF 1
ENDMDL
MODEL 7
REMARK VINA RESULT:      -3.9     17.619     18.367
REMARK  1 active torsions:
REMARK  status: ('A' for Active; 'I' for Inactive)
REMARK    1  A    between atoms: C7_7  and  N8_8 
ROOT
HETATM    1  C1  UNL     1     -34.804  14.083  -3.815  1.00 20.00     0.005 C 
HETATM    2  C2  UNL     1     -33.455  14.628  -4.306  1.00 20.00     0.007 C 
HETATM    3  C3  UNL     1     -34.190  15.964  -2.489  1.00 20.00     0.011 C 
HETATM    4  C4  UNL     1     -35.858  16.326  -4.159  1.00 20.00     0.027 C 
HETATM    5  C5  UNL     1     -35.423  15.296  -3.100  1.00 20.00    -0.013 C 
HETATM    6  C6  UNL     1     -33.481  16.097  -3.840  1.00 20.00     0.006 C 
HETATM    7  C7  UNL     1     -34.519  16.919  -4.632  1.00 20.00     0.097 C 
ENDROOT
BRANCH   7   8
HETATM    8  N8  UNL     1     -34.360  16.914  -6.076  1.00 20.00    -0.131 NA
HETATM    9 CL9  UNL     1     -35.681  16.068  -6.889  1.00 20.00    -0.005 Cl
HETATM   10 CL10 UNL     1     -34.193  18.544  -6.735  1.00 20.00    -0.005 Cl
ENDBRANCH   7   8
TORSDOF 1
ENDMDL
MODEL 8
REMARK VINA RESULT:      -3.9     16.632     17.522
REMARK  1 active torsions:
REMARK  status: ('A' for Active; 'I' for Inactive)
REMARK    1  A    between atoms: C7_7  and  N8_8 
ROOT
HETATM    1  C1  UNL     1     -32.976  17.264  -2.175  1.00 20.00     0.005 C 
HETATM    2  C2  UNL     1     -33.133  17.881  -3.572  1.00 20.00     0.007 C 
HETATM    3  C3  UNL     1     -35.245  17.912  -2.492  1.00 20.00     0.011 C 
HETATM    4  C4  UNL     1     -34.755  15.584  -2.694  1.00 20.00     0.027 C 
HETATM    5  C5  UNL     1     -34.406  16.814  -1.835  1.00 20.00    -0.013 C 
HETATM    6  C6  UNL     1     -34.632  17.679  -3.875  1.00 20.00     0.006 C 
HETATM    7  C7  UNL     1     -34.965  16.189  -4.093  1.00 20.00     0.097 C 
ENDROOT
BRANCH   7   8
HETATM    8  N8  UNL     1     -34.206  15.517  -5.135  1.00 20.00    -0.131 NA
HETATM    9 CL9  UNL     1     -33.026  14.383  -4.473  1.00 20.00    -0.005 Cl
HETATM   10 CL10 UNL     1     -35.252  14.691  -6.293  1.00 20.00    -0.005 Cl
ENDBRANCH   7   8
TORSDOF 1
ENDMDL
MODEL 9
REMARK VINA RESULT:      -3.9     23.187     24.051
REMARK  1 active torsions:
REMARK  status: ('A' for Active; 'I' for Inactive)
REMARK    1  A    between atoms: C7_7  and  N8_8 
ROOT
HETATM    1  C1  UNL     1     -42.975   8.770  -0.470  1.00 20.00     0.005 C 
HETATM    2  C2  UNL     1     -43.416   7.898   0.714  1.00 20.00     0.007 C 
HETATM    3  C3  UNL     1     -41.047   8.030   0.715  1.00 20.00     0.011 C 
HETATM    4  C4  UNL     1     -41.544   6.910  -1.335  1.00 20.00     0.027 C 
HETATM    5  C5  UNL     1     -41.526   8.317  -0.709  1.00 20.00    -0.013 C 
HETATM    6  C6  UNL     1     -42.172   7.027   0.987  1.00 20.00     0.006 C 
HETATM    7  C7  UNL     1     -41.937   6.012  -0.150  1.00 20.00     0.097 C 
ENDROOT
BRANCH   7   8
HETATM    8  N8  UNL     1     -43.049   5.121  -0.441  1.00 20.00    -0.131 NA
HETATM    9 CL9  UNL     1     -42.792   4.200  -1.927  1.00 20.00    -0.005 Cl
HETATM   10 CL10 UNL     1     -43.391   4.022   0.898  1.00 20.00    -0.005 Cl
ENDBRANCH   7   8
TORSDOF 1
ENDMDL
