MODEL 1
REMARK VINA RESULT:      -3.7      0.000      0.000
REMARK  0 active torsions:
REMARK  status: ('A' for Active; 'I' for Inactive)
ROOT
HETATM    1  C1  UNL     1     -33.998  15.868  -3.884  1.00 20.00     0.013 C 
HETATM    2  C2  UNL     1     -33.875  14.359  -4.195  1.00 20.00     0.035 C 
HETATM    3  C3  UNL     1     -35.194  16.607  -4.529  1.00 20.00     0.074 C 
HETATM    4  C4  UNL     1     -37.367  14.664  -4.383  1.00 20.00     0.108 C 
HETATM    5  C5  UNL     1     -35.150  13.704  -3.841  1.00 20.00     0.152 A 
HETATM    6  C6  UNL     1     -36.183  13.967  -4.904  1.00 20.00     0.160 A 
HETATM    7  O7  UNL     1     -35.777  12.648  -4.556  1.00 20.00    -0.375 OA
HETATM    8  S8  UNL     1     -36.859  16.331  -3.754  1.00 20.00    -0.166 SA
ENDROOT
TORSDOF 0
ENDMDL
MODEL 2
REMARK VINA RESULT:      -3.7      1.878      2.264
REMARK  0 active torsions:
REMARK  status: ('A' for Active; 'I' for Inactive)
ROOT
HETATM    1  C1  UNL     1     -33.782  15.677  -3.359  1.00 20.00     0.013 C 
HETATM    2  C2  UNL     1     -35.139  15.328  -2.705  1.00 20.00     0.035 C 
HETATM    3  C3  UNL     1     -33.343  14.789  -4.547  1.00 20.00     0.074 C 
HETATM    4  C4  UNL     1     -35.832  14.273  -5.980  1.00 20.00     0.108 C 
HETATM    5  C5  UNL     1     -36.173  15.310  -3.759  1.00 20.00     0.152 A 
HETATM    6  C6  UNL     1     -36.086  14.034  -4.553  1.00 20.00     0.160 A 
HETATM    7  O7  UNL     1     -37.265  14.404  -3.847  1.00 20.00    -0.375 OA
HETATM    8  S8  UNL     1     -34.185  15.098  -6.173  1.00 20.00    -0.166 SA
ENDROOT
TORSDOF 0
ENDMDL
MODEL 3
REMARK VINA RESULT:      -3.7      1.745      1.985
REMARK  0 active torsions:
REMARK  status: ('A' for Active; 'I' for Inactive)
ROOT
HETATM    1  C1  UNL     1     -34.877  15.781  -2.578  1.00 20.00     0.013 C 
HETATM    2  C2  UNL     1     -33.594  15.574  -3.416  1.00 20.00     0.035 C 
HETATM    3  C3  UNL     1     -36.172  16.084  -3.368  1.00 20.00     0.074 C 
HETATM    4  C4  UNL     1     -35.949  14.392  -5.736  1.00 20.00     0.108 C 
HETATM    5  C5  UNL     1     -33.857  14.522  -4.419  1.00 20.00     0.152 A 
HETATM    6  C6  UNL     1     -34.663  15.081  -5.561  1.00 20.00     0.160 A 
HETATM    7  O7  UNL     1     -33.377  14.502  -5.757  1.00 20.00    -0.375 OA
HETATM    8  S8  UNL     1     -36.982  14.647  -4.220  1.00 20.00    -0.166 SA
ENDROOT
TORSDOF 0
ENDMDL
MODEL 4
REMARK VINA RESULT:      -3.6     18.370     18.986
REMARK  0 active torsions:
REMARK  status: ('A' for Active; 'I' for Inactive)
ROOT
HETATM    1  C1  UNL     1     -25.586  16.958  12.223  1.00 20.00     0.013 C 
HETATM    2  C2  UNL     1     -24.358  16.179  11.697  1.00 20.00     0.035 C 
HETATM    3  C3  UNL     1     -25.538  18.497  12.077  1.00 20.00     0.074 C 
HETATM    4  C4  UNL     1     -24.254  18.907   9.489  1.00 20.00     0.108 C 
HETATM    5  C5  UNL     1     -24.127  16.568  10.291  1.00 20.00     0.152 A 
HETATM    6  C6  UNL     1     -23.458  17.915  10.226  1.00 20.00     0.160 A 
HETATM    7  O7  UNL     1     -22.862  16.749   9.668  1.00 20.00    -0.375 OA
HETATM    8  S8  UNL     1     -25.853  19.183  10.381  1.00 20.00    -0.166 SA
ENDROOT
TORSDOF 0
ENDMDL
MODEL 5
REMARK VINA RESULT:      -3.5     17.822     18.654
REMARK  0 active torsions:
REMARK  status: ('A' for Active; 'I' for Inactive)
ROOT
HETATM    1  C1  UNL     1     -25.342  18.879  10.432  1.00 20.00     0.013 C 
HETATM    2  C2  UNL     1     -25.192  19.072   8.905  1.00 20.00     0.035 C 
HETATM    3  C3  UNL     1     -24.643  17.641  11.040  1.00 20.00     0.074 C 
HETATM    4  C4  UNL     1     -22.144  17.452   9.546  1.00 20.00     0.108 C 
HETATM    5  C5  UNL     1     -23.753  19.063   8.573  1.00 20.00     0.152 A 
HETATM    6  C6  UNL     1     -23.227  17.652   8.574  1.00 20.00     0.160 A 
HETATM    7  O7  UNL     1     -23.163  18.481   7.418  1.00 20.00    -0.375 OA
HETATM    8  S8  UNL     1     -22.802  17.743  11.253  1.00 20.00    -0.166 SA
ENDROOT
TORSDOF 0
ENDMDL
MODEL 6
REMARK VINA RESULT:      -3.5      1.173      2.449
REMARK  0 active torsions:
REMARK  status: ('A' for Active; 'I' for Inactive)
ROOT
HETATM    1  C1  UNL     1     -37.160  16.077  -4.171  1.00 20.00     0.013 C 
HETATM    2  C2  UNL     1     -37.453  14.561  -4.258  1.00 20.00     0.035 C 
HETATM    3  C3  UNL     1     -35.849  16.483  -3.458  1.00 20.00     0.074 C 
HETATM    4  C4  UNL     1     -33.945  14.434  -4.291  1.00 20.00     0.108 C 
HETATM    5  C5  UNL     1     -36.289  13.896  -4.878  1.00 20.00     0.152 A 
HETATM    6  C6  UNL     1     -35.177  13.751  -3.874  1.00 20.00     0.160 A 
HETATM    7  O7  UNL     1     -35.762  12.625  -4.521  1.00 20.00    -0.375 OA
HETATM    8  S8  UNL     1     -34.274  16.252  -4.414  1.00 20.00    -0.166 SA
ENDROOT
TORSDOF 0
ENDMDL
MODEL 7
REMARK VINA RESULT:      -3.5     18.260     19.157
REMARK  0 active torsions:
REMARK  status: ('A' for Active; 'I' for Inactive)
ROOT
HETATM    1  C1  UNL     1     -23.193  18.933   9.061  1.00 20.00     0.013 C 
HETATM    2  C2  UNL     1     -22.377  17.931   9.910  1.00 20.00     0.035 C 
HETATM    3  C3  UNL     1     -24.715  18.678   8.971  1.00 20.00     0.074 C 
HETATM    4  C4  UNL     1     -25.422  17.759  11.650  1.00 20.00     0.108 C 
HETATM    5  C5  UNL     1     -22.980  17.864  11.257  1.00 20.00     0.152 A 
HETATM    6  C6  UNL     1     -24.225  17.018  11.228  1.00 20.00     0.160 A 
HETATM    7  O7  UNL     1     -23.113  16.697  12.058  1.00 20.00    -0.375 OA
HETATM    8  S8  UNL     1     -25.727  19.143  10.457  1.00 20.00    -0.166 SA
ENDROOT
TORSDOF 0
ENDMDL
MODEL 8
REMARK VINA RESULT:      -3.5     10.570     11.462
REMARK  0 active torsions:
REMARK  status: ('A' for Active; 'I' for Inactive)
ROOT
HETATM    1  C1  UNL     1     -41.889   8.394  -0.058  1.00 20.00     0.013 C 
HETATM    2  C2  UNL     1     -41.167   7.554  -1.137  1.00 20.00     0.035 C 
HETATM    3  C3  UNL     1     -43.309   7.928   0.339  1.00 20.00     0.074 C 
HETATM    4  C4  UNL     1     -43.114   5.016   0.310  1.00 20.00     0.108 C 
HETATM    5  C5  UNL     1     -41.154   6.144  -0.698  1.00 20.00     0.152 A 
HETATM    6  C6  UNL     1     -42.502   5.514  -0.930  1.00 20.00     0.160 A 
HETATM    7  O7  UNL     1     -41.317   5.004  -1.532  1.00 20.00    -0.375 OA
HETATM    8  S8  UNL     1     -43.417   6.444   1.450  1.00 20.00    -0.166 SA
ENDROOT
TORSDOF 0
ENDMDL
MODEL 9
REMARK VINA RESULT:      -3.4     18.179     19.076
REMARK  0 active torsions:
REMARK  status: ('A' for Active; 'I' for Inactive)
ROOT
HETATM    1  C1  UNL     1     -22.219  17.932   9.891  1.00 20.00     0.013 C 
HETATM    2  C2  UNL     1     -23.185  18.873   9.134  1.00 20.00     0.035 C 
HETATM    3  C3  UNL     1     -22.519  17.701  11.390  1.00 20.00     0.074 C 
HETATM    4  C4  UNL     1     -25.432  17.583  11.502  1.00 20.00     0.108 C 
HETATM    5  C5  UNL     1     -24.563  18.376   9.325  1.00 20.00     0.152 A 
HETATM    6  C6  UNL     1     -25.067  18.753  10.692  1.00 20.00     0.160 A 
HETATM    7  O7  UNL     1     -25.725  19.176   9.502  1.00 20.00    -0.375 OA
HETATM    8  S8  UNL     1     -23.921  16.552  11.791  1.00 20.00    -0.166 SA
ENDROOT
TORSDOF 0
ENDMDL
