MODEL 1
REMARK VINA RESULT:      -4.9      0.000      0.000
REMARK  1 active torsions:
REMARK  status: ('A' for Active; 'I' for Inactive)
REMARK    1  A    between atoms: C8_8  and  C11_11 
ROOT
HETATM    1  C1  UNL     1     -33.666  16.243  -3.858  1.00 20.00    -0.079 C 
HETATM    2  C2  UNL     1     -35.862  13.696  -4.264  1.00 20.00     0.132 C 
HETATM    3  C3  UNL     1     -33.055  17.290  -3.308  1.00 20.00     0.015 C 
HETATM    4  C4  UNL     1     -33.241  14.780  -4.189  1.00 20.00     0.047 C 
HETATM    5  C5  UNL     1     -37.074  14.630  -4.194  1.00 20.00     0.080 C 
HETATM    6  C6  UNL     1     -36.435  16.011  -3.801  1.00 20.00     0.022 C 
HETATM    7  C7  UNL     1     -34.694  14.550  -3.798  1.00 20.00     0.072 C 
HETATM    8  C8  UNL     1     -35.043  15.977  -4.438  1.00 20.00    -0.004 C 
HETATM    9  O12 UNL     1     -35.896  12.528  -4.620  1.00 20.00    -0.298 OA
ENDROOT
BRANCH   8  10
HETATM   10  C11 UNL     1     -35.110  16.245  -5.948  1.00 20.00    -0.009 C 
HETATM   11  C9  UNL     1     -36.561  16.272  -6.417  1.00 20.00     0.011 C 
HETATM   12  C10 UNL     1     -34.406  17.555  -6.284  1.00 20.00     0.011 C 
ENDBRANCH   8  10
TORSDOF 1
ENDMDL
MODEL 2
REMARK VINA RESULT:      -4.8      1.476      1.817
REMARK  1 active torsions:
REMARK  status: ('A' for Active; 'I' for Inactive)
REMARK    1  A    between atoms: C8_8  and  C11_11 
ROOT
HETATM    1  C1  UNL     1     -34.246  15.103  -4.119  1.00 20.00    -0.079 C 
HETATM    2  C2  UNL     1     -37.604  14.754  -4.398  1.00 20.00     0.132 C 
HETATM    3  C3  UNL     1     -33.068  15.604  -3.753  1.00 20.00     0.015 C 
HETATM    4  C4  UNL     1     -35.004  13.770  -3.833  1.00 20.00     0.047 C 
HETATM    5  C5  UNL     1     -37.775  16.150  -5.005  1.00 20.00     0.080 C 
HETATM    6  C6  UNL     1     -36.337  16.771  -4.873  1.00 20.00     0.022 C 
HETATM    7  C7  UNL     1     -36.178  14.737  -3.871  1.00 20.00     0.072 C 
HETATM    8  C8  UNL     1     -35.395  15.570  -4.994  1.00 20.00    -0.004 C 
HETATM    9  O12 UNL     1     -38.468  13.891  -4.369  1.00 20.00    -0.298 OA
ENDROOT
BRANCH   8  10
HETATM   10  C11 UNL     1     -35.250  15.115  -6.453  1.00 20.00    -0.009 C 
HETATM   11  C9  UNL     1     -36.006  16.060  -7.380  1.00 20.00     0.011 C 
HETATM   12  C10 UNL     1     -33.777  15.038  -6.839  1.00 20.00     0.011 C 
ENDBRANCH   8  10
TORSDOF 1
ENDMDL
MODEL 3
REMARK VINA RESULT:      -4.7      2.430      3.740
REMARK  1 active torsions:
REMARK  status: ('A' for Active; 'I' for Inactive)
REMARK    1  A    between atoms: C8_8  and  C11_11 
ROOT
HETATM    1  C1  UNL     1     -33.875  15.331  -3.719  1.00 20.00    -0.079 C 
HETATM    2  C2  UNL     1     -35.092  17.192  -1.164  1.00 20.00     0.132 C 
HETATM    3  C3  UNL     1     -33.072  14.515  -4.398  1.00 20.00     0.015 C 
HETATM    4  C4  UNL     1     -35.346  15.243  -3.209  1.00 20.00     0.047 C 
HETATM    5  C5  UNL     1     -33.813  18.029  -1.064  1.00 20.00     0.080 C 
HETATM    6  C6  UNL     1     -32.836  17.301  -2.058  1.00 20.00     0.022 C 
HETATM    7  C7  UNL     1     -34.719  16.028  -2.067  1.00 20.00     0.072 C 
HETATM    8  C8  UNL     1     -33.756  16.729  -3.139  1.00 20.00    -0.004 C 
HETATM    9  O12 UNL     1     -36.148  17.455  -0.608  1.00 20.00    -0.298 OA
ENDROOT
BRANCH   8  10
HETATM   10  C11 UNL     1     -34.215  17.817  -4.120  1.00 20.00    -0.009 C 
HETATM   11  C9  UNL     1     -33.183  18.937  -4.188  1.00 20.00     0.011 C 
HETATM   12  C10 UNL     1     -34.457  17.216  -5.500  1.00 20.00     0.011 C 
ENDBRANCH   8  10
TORSDOF 1
ENDMDL
MODEL 4
REMARK VINA RESULT:      -4.6      1.371      2.827
REMARK  1 active torsions:
REMARK  status: ('A' for Active; 'I' for Inactive)
REMARK    1  A    between atoms: C8_8  and  C11_11 
ROOT
HETATM    1  C1  UNL     1     -35.542  17.580  -3.879  1.00 20.00    -0.079 C 
HETATM    2  C2  UNL     1     -36.894  14.604  -4.772  1.00 20.00     0.132 C 
HETATM    3  C3  UNL     1     -35.092  18.828  -3.982  1.00 20.00     0.015 C 
HETATM    4  C4  UNL     1     -36.720  16.902  -3.116  1.00 20.00     0.047 C 
HETATM    5  C5  UNL     1     -35.824  14.352  -5.839  1.00 20.00     0.080 C 
HETATM    6  C6  UNL     1     -35.027  15.707  -5.867  1.00 20.00     0.022 C 
HETATM    7  C7  UNL     1     -36.713  16.064  -4.386  1.00 20.00     0.072 C 
HETATM    8  C8  UNL     1     -35.120  16.230  -4.431  1.00 20.00    -0.004 C 
HETATM    9  O12 UNL     1     -37.692  13.773  -4.368  1.00 20.00    -0.298 OA
ENDROOT
BRANCH   8  10
HETATM   10  C11 UNL     1     -34.155  15.485  -3.499  1.00 20.00    -0.009 C 
HETATM   11  C9  UNL     1     -33.207  14.608  -4.310  1.00 20.00     0.011 C 
HETATM   12  C10 UNL     1     -33.377  16.477  -2.641  1.00 20.00     0.011 C 
ENDBRANCH   8  10
TORSDOF 1
ENDMDL
MODEL 5
REMARK VINA RESULT:      -4.6      1.919      2.225
REMARK  1 active torsions:
REMARK  status: ('A' for Active; 'I' for Inactive)
REMARK    1  A    between atoms: C8_8  and  C11_11 
ROOT
HETATM    1  C1  UNL     1     -34.835  16.464  -2.080  1.00 20.00    -0.079 C 
HETATM    2  C2  UNL     1     -34.351  14.654  -4.903  1.00 20.00     0.132 C 
HETATM    3  C3  UNL     1     -35.215  16.769  -0.841  1.00 20.00     0.015 C 
HETATM    4  C4  UNL     1     -33.458  16.338  -2.801  1.00 20.00     0.047 C 
HETATM    5  C5  UNL     1     -35.848  14.374  -5.070  1.00 20.00     0.080 C 
HETATM    6  C6  UNL     1     -36.466  14.949  -3.744  1.00 20.00     0.022 C 
HETATM    7  C7  UNL     1     -34.223  15.223  -3.498  1.00 20.00     0.072 C 
HETATM    8  C8  UNL     1     -35.547  16.117  -3.375  1.00 20.00    -0.004 C 
HETATM    9  O12 UNL     1     -33.498  14.438  -5.749  1.00 20.00    -0.298 OA
ENDROOT
BRANCH   8  10
HETATM   10  C11 UNL     1     -35.831  17.351  -4.243  1.00 20.00    -0.009 C 
HETATM   11  C9  UNL     1     -37.070  17.119  -5.101  1.00 20.00     0.011 C 
HETATM   12  C10 UNL     1     -36.001  18.586  -3.366  1.00 20.00     0.011 C 
ENDBRANCH   8  10
TORSDOF 1
ENDMDL
MODEL 6
REMARK VINA RESULT:      -4.4      1.220      2.828
REMARK  1 active torsions:
REMARK  status: ('A' for Active; 'I' for Inactive)
REMARK    1  A    between atoms: C8_8  and  C11_11 
ROOT
HETATM    1  C1  UNL     1     -34.878  16.277  -6.761  1.00 20.00    -0.079 C 
HETATM    2  C2  UNL     1     -36.356  13.987  -4.749  1.00 20.00     0.132 C 
HETATM    3  C3  UNL     1     -34.029  16.805  -7.640  1.00 20.00     0.015 C 
HETATM    4  C4  UNL     1     -36.411  15.989  -6.759  1.00 20.00     0.047 C 
HETATM    5  C5  UNL     1     -35.063  13.723  -3.972  1.00 20.00     0.080 C 
HETATM    6  C6  UNL     1     -33.991  14.539  -4.783  1.00 20.00     0.022 C 
HETATM    7  C7  UNL     1     -35.917  14.790  -5.963  1.00 20.00     0.072 C 
HETATM    8  C8  UNL     1     -34.771  15.728  -5.350  1.00 20.00    -0.004 C 
HETATM    9  O12 UNL     1     -37.467  13.602  -4.416  1.00 20.00    -0.298 OA
ENDROOT
BRANCH   8  10
HETATM   10  C11 UNL     1     -35.023  16.797  -4.278  1.00 20.00    -0.009 C 
HETATM   11  C9  UNL     1     -34.377  16.387  -2.960  1.00 20.00     0.011 C 
HETATM   12  C10 UNL     1     -34.494  18.148  -4.746  1.00 20.00     0.011 C 
ENDBRANCH   8  10
TORSDOF 1
ENDMDL
MODEL 7
REMARK VINA RESULT:      -4.3      1.554      3.340
REMARK  1 active torsions:
REMARK  status: ('A' for Active; 'I' for Inactive)
REMARK    1  A    between atoms: C8_8  and  C11_11 
ROOT
HETATM    1  C1  UNL     1     -36.689  17.210  -3.694  1.00 20.00    -0.079 C 
HETATM    2  C2  UNL     1     -35.698  14.880  -5.945  1.00 20.00     0.132 C 
HETATM    3  C3  UNL     1     -37.001  18.397  -3.180  1.00 20.00     0.015 C 
HETATM    4  C4  UNL     1     -37.487  15.905  -3.996  1.00 20.00     0.047 C 
HETATM    5  C5  UNL     1     -34.350  15.568  -6.177  1.00 20.00     0.080 C 
HETATM    6  C6  UNL     1     -34.494  16.911  -5.372  1.00 20.00     0.022 C 
HETATM    7  C7  UNL     1     -36.519  15.898  -5.170  1.00 20.00     0.072 C 
HETATM    8  C8  UNL     1     -35.419  16.554  -4.206  1.00 20.00    -0.004 C 
HETATM    9  O12 UNL     1     -35.990  13.759  -6.332  1.00 20.00    -0.298 OA
ENDROOT
BRANCH   8  10
HETATM   10  C11 UNL     1     -34.670  15.780  -3.112  1.00 20.00    -0.009 C 
HETATM   11  C9  UNL     1     -33.166  15.841  -3.356  1.00 20.00     0.011 C 
HETATM   12  C10 UNL     1     -35.020  16.338  -1.737  1.00 20.00     0.011 C 
ENDBRANCH   8  10
TORSDOF 1
ENDMDL
MODEL 8
REMARK VINA RESULT:      -4.3      1.401      3.163
REMARK  1 active torsions:
REMARK  status: ('A' for Active; 'I' for Inactive)
REMARK    1  A    between atoms: C8_8  and  C11_11 
ROOT
HETATM    1  C1  UNL     1     -36.439  17.044  -5.265  1.00 20.00    -0.079 C 
HETATM    2  C2  UNL     1     -35.620  13.838  -4.535  1.00 20.00     0.132 C 
HETATM    3  C3  UNL     1     -36.379  18.254  -5.817  1.00 20.00     0.015 C 
HETATM    4  C4  UNL     1     -37.445  15.855  -5.342  1.00 20.00     0.047 C 
HETATM    5  C5  UNL     1     -34.228  14.230  -4.029  1.00 20.00     0.080 C 
HETATM    6  C6  UNL     1     -34.136  15.756  -4.392  1.00 20.00     0.022 C 
HETATM    7  C7  UNL     1     -36.137  15.085  -5.235  1.00 20.00     0.072 C 
HETATM    8  C8  UNL     1     -35.580  16.256  -4.293  1.00 20.00    -0.004 C 
HETATM    9  O12 UNL     1     -36.140  12.744  -4.384  1.00 20.00    -0.298 OA
ENDROOT
BRANCH   8  10
HETATM   10  C11 UNL     1     -36.006  16.455  -2.831  1.00 20.00    -0.009 C 
HETATM   11  C9  UNL     1     -34.817  16.244  -1.901  1.00 20.00     0.011 C 
HETATM   12  C10 UNL     1     -36.606  17.843  -2.641  1.00 20.00     0.011 C 
ENDBRANCH   8  10
TORSDOF 1
ENDMDL
MODEL 9
REMARK VINA RESULT:      -4.2      3.347      4.605
REMARK  1 active torsions:
REMARK  status: ('A' for Active; 'I' for Inactive)
REMARK    1  A    between atoms: C8_8  and  C11_11 
ROOT
HETATM    1  C1  UNL     1     -32.847  18.524  -2.567  1.00 20.00    -0.079 C 
HETATM    2  C2  UNL     1     -34.513  17.917   0.320  1.00 20.00     0.132 C 
HETATM    3  C3  UNL     1     -32.495  19.119  -3.704  1.00 20.00     0.015 C 
HETATM    4  C4  UNL     1     -32.143  18.281  -1.197  1.00 20.00     0.047 C 
HETATM    5  C5  UNL     1     -35.865  17.819  -0.393  1.00 20.00     0.080 C 
HETATM    6  C6  UNL     1     -35.522  18.253  -1.864  1.00 20.00     0.022 C 
HETATM    7  C7  UNL     1     -33.572  18.500  -0.723  1.00 20.00     0.072 C 
HETATM    8  C8  UNL     1     -34.077  17.789  -2.067  1.00 20.00    -0.004 C 
HETATM    9  O12 UNL     1     -34.304  17.588   1.477  1.00 20.00    -0.298 OA
ENDROOT
BRANCH   8  10
HETATM   10  C11 UNL     1     -34.003  16.276  -2.316  1.00 20.00    -0.009 C 
HETATM   11  C9  UNL     1     -35.394  15.718  -2.599  1.00 20.00     0.011 C 
HETATM   12  C10 UNL     1     -33.052  15.976  -3.469  1.00 20.00     0.011 C 
ENDBRANCH   8  10
TORSDOF 1
ENDMDL
