MODEL 1
REMARK VINA RESULT:      -4.8      0.000      0.000
REMARK  1 active torsions:
REMARK  status: ('A' for Active; 'I' for Inactive)
REMARK    1  A    between atoms: C7_7  and  C11_11 
ROOT
HETATM    1  C1  UNL     1     -23.362  19.130   8.923  1.00 20.00    -0.023 C 
HETATM    2  C2  UNL     1     -24.424  19.072   9.742  1.00 20.00     0.007 C 
HETATM    3  C3  UNL     1     -23.887  16.688  10.275  1.00 20.00     0.050 C 
HETATM    4  C4  UNL     1     -22.326  17.833  11.574  1.00 20.00     0.174 C 
HETATM    5  C5  UNL     1     -22.229  18.129   9.033  1.00 20.00     0.010 C 
HETATM    6  C6  UNL     1     -22.434  17.131  10.213  1.00 20.00     0.020 C 
HETATM    7  C7  UNL     1     -24.511  17.986  10.790  1.00 20.00     0.082 C 
HETATM    8  C8  UNL     1     -22.070  17.382   7.705  1.00 20.00     0.015 C 
HETATM    9  O12 UNL     1     -23.630  18.384  11.865  1.00 20.00    -0.375 OA
ENDROOT
BRANCH   7  10
HETATM   10  C11 UNL     1     -25.923  17.794  11.320  1.00 20.00     0.016 C 
HETATM   11  C9  UNL     1     -25.974  16.648  12.332  1.00 20.00     0.013 C 
HETATM   12  C10 UNL     1     -26.447  19.084  11.953  1.00 20.00     0.013 C 
ENDBRANCH   7  10
TORSDOF 1
ENDMDL
MODEL 2
REMARK VINA RESULT:      -4.7     18.385     19.223
REMARK  1 active torsions:
REMARK  status: ('A' for Active; 'I' for Inactive)
REMARK    1  A    between atoms: C7_7  and  C11_11 
ROOT
HETATM    1  C1  UNL     1     -34.206  15.022  -6.545  1.00 20.00    -0.023 C 
HETATM    2  C2  UNL     1     -33.702  15.146  -5.306  1.00 20.00     0.007 C 
HETATM    3  C3  UNL     1     -35.977  15.709  -4.434  1.00 20.00     0.050 C 
HETATM    4  C4  UNL     1     -36.117  13.395  -4.678  1.00 20.00     0.174 C 
HETATM    5  C5  UNL     1     -35.689  14.804  -6.772  1.00 20.00     0.010 C 
HETATM    6  C6  UNL     1     -36.480  14.681  -5.434  1.00 20.00     0.020 C 
HETATM    7  C7  UNL     1     -34.621  15.083  -4.108  1.00 20.00     0.082 C 
HETATM    8  C8  UNL     1     -36.250  15.937  -7.637  1.00 20.00     0.015 C 
HETATM    9  O12 UNL     1     -34.931  13.686  -3.904  1.00 20.00    -0.375 OA
ENDROOT
BRANCH   7  10
HETATM   10  C11 UNL     1     -33.988  15.663  -2.853  1.00 20.00     0.016 C 
HETATM   11  C9  UNL     1     -32.990  16.768  -3.208  1.00 20.00     0.013 C 
HETATM   12  C10 UNL     1     -35.058  16.200  -1.903  1.00 20.00     0.013 C 
ENDBRANCH   7  10
TORSDOF 1
ENDMDL
MODEL 3
REMARK VINA RESULT:      -4.7     18.199     19.189
REMARK  1 active torsions:
REMARK  status: ('A' for Active; 'I' for Inactive)
REMARK    1  A    between atoms: C7_7  and  C11_11 
ROOT
HETATM    1  C1  UNL     1     -35.940  15.097  -3.491  1.00 20.00    -0.023 C 
HETATM    2  C2  UNL     1     -35.896  15.193  -4.829  1.00 20.00     0.007 C 
HETATM    3  C3  UNL     1     -33.931  16.731  -4.657  1.00 20.00     0.050 C 
HETATM    4  C4  UNL     1     -32.946  14.651  -4.280  1.00 20.00     0.174 C 
HETATM    5  C5  UNL     1     -34.739  15.452  -2.636  1.00 20.00     0.010 C 
HETATM    6  C6  UNL     1     -33.500  15.850  -3.495  1.00 20.00     0.020 C 
HETATM    7  C7  UNL     1     -34.635  15.675  -5.510  1.00 20.00     0.082 C 
HETATM    8  C8  UNL     1     -35.112  16.573  -1.662  1.00 20.00     0.015 C 
HETATM    9  O12 UNL     1     -33.714  14.561  -5.501  1.00 20.00    -0.375 OA
ENDROOT
BRANCH   7  10
HETATM   10  C11 UNL     1     -34.880  16.135  -6.938  1.00 20.00     0.016 C 
HETATM   11  C9  UNL     1     -33.971  15.387  -7.915  1.00 20.00     0.013 C 
HETATM   12  C10 UNL     1     -36.347  15.944  -7.327  1.00 20.00     0.013 C 
ENDBRANCH   7  10
TORSDOF 1
ENDMDL
MODEL 4
REMARK VINA RESULT:      -4.7     18.192     19.182
REMARK  1 active torsions:
REMARK  status: ('A' for Active; 'I' for Inactive)
REMARK    1  A    between atoms: C7_7  and  C11_11 
ROOT
HETATM    1  C1  UNL     1     -35.700  14.893  -3.174  1.00 20.00    -0.023 C 
HETATM    2  C2  UNL     1     -35.818  14.609  -4.481  1.00 20.00     0.007 C 
HETATM    3  C3  UNL     1     -34.176  16.416  -5.024  1.00 20.00     0.050 C 
HETATM    4  C4  UNL     1     -32.778  14.707  -4.274  1.00 20.00     0.174 C 
HETATM    5  C5  UNL     1     -34.504  15.657  -2.639  1.00 20.00     0.010 C 
HETATM    6  C6  UNL     1     -33.463  15.979  -3.754  1.00 20.00     0.020 C 
HETATM    7  C7  UNL     1     -34.753  15.065  -5.451  1.00 20.00     0.082 C 
HETATM    8  C8  UNL     1     -34.979  16.938  -1.946  1.00 20.00     0.015 C 
HETATM    9  O12 UNL     1     -33.640  14.155  -5.294  1.00 20.00    -0.375 OA
ENDROOT
BRANCH   7  10
HETATM   10  C11 UNL     1     -35.232  15.057  -6.894  1.00 20.00     0.016 C 
HETATM   11  C9  UNL     1     -36.447  15.970  -7.068  1.00 20.00     0.013 C 
HETATM   12  C10 UNL     1     -34.110  15.480  -7.842  1.00 20.00     0.013 C 
ENDBRANCH   7  10
TORSDOF 1
ENDMDL
MODEL 5
REMARK VINA RESULT:      -4.6     17.933     18.783
REMARK  1 active torsions:
REMARK  status: ('A' for Active; 'I' for Inactive)
REMARK    1  A    between atoms: C7_7  and  C11_11 
ROOT
HETATM    1  C1  UNL     1     -35.097  15.763  -2.332  1.00 20.00    -0.023 C 
HETATM    2  C2  UNL     1     -35.830  15.300  -3.357  1.00 20.00     0.007 C 
HETATM    3  C3  UNL     1     -34.280  16.418  -4.972  1.00 20.00     0.050 C 
HETATM    4  C4  UNL     1     -33.052  14.534  -4.354  1.00 20.00     0.174 C 
HETATM    5  C5  UNL     1     -33.666  16.224  -2.531  1.00 20.00     0.010 C 
HETATM    6  C6  UNL     1     -33.180  16.023  -3.999  1.00 20.00     0.020 C 
HETATM    7  C7  UNL     1     -35.233  15.244  -4.746  1.00 20.00     0.082 C 
HETATM    8  C8  UNL     1     -33.532  17.689  -2.106  1.00 20.00     0.015 C 
HETATM    9  O12 UNL     1     -34.363  14.090  -4.770  1.00 20.00    -0.375 OA
ENDROOT
BRANCH   7  10
HETATM   10  C11 UNL     1     -36.289  15.122  -5.832  1.00 20.00     0.016 C 
HETATM   11  C9  UNL     1     -37.253  16.310  -5.790  1.00 20.00     0.013 C 
HETATM   12  C10 UNL     1     -35.640  15.014  -7.212  1.00 20.00     0.013 C 
ENDBRANCH   7  10
TORSDOF 1
ENDMDL
MODEL 6
REMARK VINA RESULT:      -4.6     18.941     19.894
REMARK  1 active torsions:
REMARK  status: ('A' for Active; 'I' for Inactive)
REMARK    1  A    between atoms: C7_7  and  C11_11 
ROOT
HETATM    1  C1  UNL     1     -36.083  16.289  -3.911  1.00 20.00    -0.023 C 
HETATM    2  C2  UNL     1     -36.222  16.092  -5.232  1.00 20.00     0.007 C 
HETATM    3  C3  UNL     1     -34.096  14.774  -5.262  1.00 20.00     0.050 C 
HETATM    4  C4  UNL     1     -35.603  13.233  -4.373  1.00 20.00     0.174 C 
HETATM    5  C5  UNL     1     -35.186  15.399  -3.073  1.00 20.00     0.010 C 
HETATM    6  C6  UNL     1     -34.548  14.248  -3.909  1.00 20.00     0.020 C 
HETATM    7  C7  UNL     1     -35.467  14.973  -5.912  1.00 20.00     0.082 C 
HETATM    8  C8  UNL     1     -34.106  16.246  -2.395  1.00 20.00     0.015 C 
HETATM    9  O12 UNL     1     -36.173  13.752  -5.596  1.00 20.00    -0.375 OA
ENDROOT
BRANCH   7  10
HETATM   10  C11 UNL     1     -35.386  15.152  -7.419  1.00 20.00     0.016 C 
HETATM   11  C9  UNL     1     -36.302  16.287  -7.882  1.00 20.00     0.013 C 
HETATM   12  C10 UNL     1     -33.946  15.420  -7.859  1.00 20.00     0.013 C 
ENDBRANCH   7  10
TORSDOF 1
ENDMDL
MODEL 7
REMARK VINA RESULT:      -4.6     16.178     17.067
REMARK  1 active torsions:
REMARK  status: ('A' for Active; 'I' for Inactive)
REMARK    1  A    between atoms: C7_7  and  C11_11 
ROOT
HETATM    1  C1  UNL     1     -32.758  17.730  -1.874  1.00 20.00    -0.023 C 
HETATM    2  C2  UNL     1     -32.988  16.695  -2.698  1.00 20.00     0.007 C 
HETATM    3  C3  UNL     1     -35.167  16.263  -1.549  1.00 20.00     0.050 C 
HETATM    4  C4  UNL     1     -35.691  18.092  -2.897  1.00 20.00     0.174 C 
HETATM    5  C5  UNL     1     -33.886  18.392  -1.107  1.00 20.00     0.010 C 
HETATM    6  C6  UNL     1     -35.276  17.776  -1.453  1.00 20.00     0.020 C 
HETATM    7  C7  UNL     1     -34.393  16.161  -2.864  1.00 20.00     0.082 C 
HETATM    8  C8  UNL     1     -33.607  18.305   0.396  1.00 20.00     0.015 C 
HETATM    9  O12 UNL     1     -35.081  17.085  -3.737  1.00 20.00    -0.375 OA
ENDROOT
BRANCH   7  10
HETATM   10  C11 UNL     1     -34.421  14.763  -3.460  1.00 20.00     0.016 C 
HETATM   11  C9  UNL     1     -35.775  14.478  -4.115  1.00 20.00     0.013 C 
HETATM   12  C10 UNL     1     -33.293  14.582  -4.476  1.00 20.00     0.013 C 
ENDBRANCH   7  10
TORSDOF 1
ENDMDL
MODEL 8
REMARK VINA RESULT:      -4.5     15.732     16.457
REMARK  1 active torsions:
REMARK  status: ('A' for Active; 'I' for Inactive)
REMARK    1  A    between atoms: C7_7  and  C11_11 
ROOT
HETATM    1  C1  UNL     1     -34.922  15.501  -2.834  1.00 20.00    -0.023 C 
HETATM    2  C2  UNL     1     -35.107  16.305  -1.774  1.00 20.00     0.007 C 
HETATM    3  C3  UNL     1     -32.959  17.480  -2.288  1.00 20.00     0.050 C 
HETATM    4  C4  UNL     1     -34.402  18.407  -3.867  1.00 20.00     0.174 C 
HETATM    5  C5  UNL     1     -33.978  15.883  -3.957  1.00 20.00     0.010 C 
HETATM    6  C6  UNL     1     -33.350  17.295  -3.745  1.00 20.00     0.020 C 
HETATM    7  C7  UNL     1     -34.356  17.614  -1.680  1.00 20.00     0.082 C 
HETATM    8  C8  UNL     1     -32.889  14.816  -4.101  1.00 20.00     0.015 C 
HETATM    9  O12 UNL     1     -35.027  18.534  -2.570  1.00 20.00    -0.375 OA
ENDROOT
BRANCH   7  10
HETATM   10  C11 UNL     1     -34.335  18.177  -0.269  1.00 20.00     0.016 C 
HETATM   11  C9  UNL     1     -35.180  17.316   0.673  1.00 20.00     0.013 C 
HETATM   12  C10 UNL     1     -32.902  18.285   0.253  1.00 20.00     0.013 C 
ENDBRANCH   7  10
TORSDOF 1
ENDMDL
MODEL 9
REMARK VINA RESULT:      -4.4     17.406     18.211
REMARK  1 active torsions:
REMARK  status: ('A' for Active; 'I' for Inactive)
REMARK    1  A    between atoms: C7_7  and  C11_11 
ROOT
HETATM    1  C1  UNL     1     -33.316  14.754  -4.850  1.00 20.00    -0.023 C 
HETATM    2  C2  UNL     1     -33.361  15.451  -3.703  1.00 20.00     0.007 C 
HETATM    3  C3  UNL     1     -35.253  16.816  -4.605  1.00 20.00     0.050 C 
HETATM    4  C4  UNL     1     -36.330  14.832  -4.018  1.00 20.00     0.174 C 
HETATM    5  C5  UNL     1     -34.496  14.727  -5.802  1.00 20.00     0.010 C 
HETATM    6  C6  UNL     1     -35.719  15.520  -5.248  1.00 20.00     0.020 C 
HETATM    7  C7  UNL     1     -34.601  16.238  -3.347  1.00 20.00     0.082 C 
HETATM    8  C8  UNL     1     -34.068  15.266  -7.170  1.00 20.00     0.015 C 
HETATM    9  O12 UNL     1     -35.572  15.279  -2.871  1.00 20.00    -0.375 OA
ENDROOT
BRANCH   7  10
HETATM   10  C11 UNL     1     -34.342  17.289  -2.280  1.00 20.00     0.016 C 
HETATM   11  C9  UNL     1     -35.066  16.934  -0.980  1.00 20.00     0.013 C 
HETATM   12  C10 UNL     1     -32.842  17.447  -2.026  1.00 20.00     0.013 C 
ENDBRANCH   7  10
TORSDOF 1
ENDMDL
