MODEL 1
REMARK VINA RESULT:      -4.7      0.000      0.000
REMARK  3 active torsions:
REMARK  status: ('A' for Active; 'I' for Inactive)
REMARK    1  A    between atoms: C4_4  and  C8_8 
REMARK    2  A    between atoms: C7_7  and  C11_11 
REMARK    3  A    between atoms: C8_8  and  O12_12 
ROOT
HETATM    1  C1  UNL     1     -34.804  17.087  -4.278  1.00 20.00    -0.022 C 
HETATM    2  C2  UNL     1     -34.375  16.477  -5.392  1.00 20.00     0.011 C 
HETATM    3  C5  UNL     1     -35.859  14.931  -3.482  1.00 20.00     0.012 C 
HETATM    4  C6  UNL     1     -34.793  14.225  -4.320  1.00 20.00     0.047 C 
HETATM    5  C7  UNL     1     -35.451  16.371  -3.122  1.00 20.00     0.011 C 
HETATM    6  C8  UNL     1     -34.469  14.991  -5.620  1.00 20.00     0.092 C 
ENDROOT
BRANCH   6   7
HETATM    7  C4  UNL     1     -35.468  14.696  -6.702  1.00 20.00     0.004 C 
HETATM    8  C3  UNL     1     -35.945  15.614  -7.550  1.00 20.00     0.010 C 
ENDBRANCH   6   7
BRANCH   6   9
HETATM    9  O12 UNL     1     -33.186  14.545  -6.077  1.00 20.00    -0.382 OA
HETATM   10  H30 UNL     1     -33.199  13.579  -6.017  1.00 20.00     0.211 HD
ENDBRANCH   6   9
BRANCH   5  11
HETATM   11  C11 UNL     1     -34.519  16.401  -1.909  1.00 20.00    -0.015 C 
HETATM   12  C9  UNL     1     -33.270  17.223  -2.214  1.00 20.00     0.010 C 
HETATM   13  C10 UNL     1     -35.248  16.960  -0.690  1.00 20.00     0.010 C 
ENDBRANCH   5  11
TORSDOF 3
ENDMDL
MODEL 2
REMARK VINA RESULT:      -4.7      1.392      1.740
REMARK  3 active torsions:
REMARK  status: ('A' for Active; 'I' for Inactive)
REMARK    1  A    between atoms: C4_4  and  C8_8 
REMARK    2  A    between atoms: C7_7  and  C11_11 
REMARK    3  A    between atoms: C8_8  and  O12_12 
ROOT
HETATM    1  C1  UNL     1     -33.181  16.324  -3.316  1.00 20.00    -0.022 C 
HETATM    2  C2  UNL     1     -33.298  15.182  -4.009  1.00 20.00     0.011 C 
HETATM    3  C5  UNL     1     -35.693  16.624  -3.354  1.00 20.00     0.012 C 
HETATM    4  C6  UNL     1     -35.765  15.100  -3.459  1.00 20.00     0.047 C 
HETATM    5  C7  UNL     1     -34.351  17.099  -2.768  1.00 20.00     0.011 C 
HETATM    6  C8  UNL     1     -34.616  14.517  -4.308  1.00 20.00     0.092 C 
ENDROOT
BRANCH   6   7
HETATM    7  C4  UNL     1     -34.915  14.600  -5.778  1.00 20.00     0.004 C 
HETATM    8  C3  UNL     1     -34.041  15.027  -6.696  1.00 20.00     0.010 C 
ENDBRANCH   6   7
BRANCH   6   9
HETATM    9  O12 UNL     1     -34.486  13.132  -3.966  1.00 20.00    -0.382 OA
HETATM   10  H30 UNL     1     -33.741  13.074  -3.351  1.00 20.00     0.211 HD
ENDBRANCH   6   9
BRANCH   5  11
HETATM   11  C11 UNL     1     -34.349  17.023  -1.240  1.00 20.00    -0.015 C 
HETATM   12  C9  UNL     1     -33.292  17.957  -0.659  1.00 20.00     0.010 C 
HETATM   13  C10 UNL     1     -35.731  17.362  -0.688  1.00 20.00     0.010 C 
ENDBRANCH   5  11
TORSDOF 3
ENDMDL
MODEL 3
REMARK VINA RESULT:      -4.6      1.338      1.747
REMARK  3 active torsions:
REMARK  status: ('A' for Active; 'I' for Inactive)
REMARK    1  A    between atoms: C4_4  and  C8_8 
REMARK    2  A    between atoms: C7_7  and  C11_11 
REMARK    3  A    between atoms: C8_8  and  O12_12 
ROOT
HETATM    1  C1  UNL     1     -34.387  17.553  -4.458  1.00 20.00    -0.022 C 
HETATM    2  C2  UNL     1     -34.392  16.615  -5.416  1.00 20.00     0.011 C 
HETATM    3  C5  UNL     1     -34.548  15.762  -2.679  1.00 20.00     0.012 C 
HETATM    4  C6  UNL     1     -33.854  14.848  -3.689  1.00 20.00     0.047 C 
HETATM    5  C7  UNL     1     -34.303  17.251  -2.985  1.00 20.00     0.011 C 
HETATM    6  C8  UNL     1     -34.294  15.138  -5.140  1.00 20.00     0.092 C 
ENDROOT
BRANCH   6   7
HETATM    7  C4  UNL     1     -35.595  14.463  -5.471  1.00 20.00     0.004 C 
HETATM    8  C3  UNL     1     -36.232  13.622  -4.650  1.00 20.00     0.010 C 
ENDBRANCH   6   7
BRANCH   6   9
HETATM    9  O12 UNL     1     -33.291  14.604  -6.012  1.00 20.00    -0.382 OA
HETATM   10  H30 UNL     1     -33.748  13.992  -6.606  1.00 20.00     0.211 HD
ENDBRANCH   6   9
BRANCH   5  11
HETATM   11  C11 UNL     1     -32.953  17.719  -2.438  1.00 20.00    -0.015 C 
HETATM   12  C9  UNL     1     -32.490  18.980  -3.162  1.00 20.00     0.010 C 
HETATM   13  C10 UNL     1     -33.042  17.963  -0.934  1.00 20.00     0.010 C 
ENDBRANCH   5  11
TORSDOF 3
ENDMDL
MODEL 4
REMARK VINA RESULT:      -4.5      2.137      4.644
REMARK  3 active torsions:
REMARK  status: ('A' for Active; 'I' for Inactive)
REMARK    1  A    between atoms: C4_4  and  C8_8 
REMARK    2  A    between atoms: C7_7  and  C11_11 
REMARK    3  A    between atoms: C8_8  and  O12_12 
ROOT
HETATM    1  C1  UNL     1     -33.164  15.871  -3.594  1.00 20.00    -0.022 C 
HETATM    2  C2  UNL     1     -32.855  17.106  -3.172  1.00 20.00     0.011 C 
HETATM    3  C5  UNL     1     -35.229  15.868  -2.135  1.00 20.00     0.012 C 
HETATM    4  C6  UNL     1     -35.206  17.389  -2.285  1.00 20.00     0.047 C 
HETATM    5  C7  UNL     1     -34.452  15.165  -3.262  1.00 20.00     0.011 C 
HETATM    6  C8  UNL     1     -33.770  17.952  -2.326  1.00 20.00     0.092 C 
ENDROOT
BRANCH   6   7
HETATM    7  C4  UNL     1     -33.197  18.112  -0.946  1.00 20.00     0.004 C 
HETATM    8  C3  UNL     1     -31.898  18.301  -0.693  1.00 20.00     0.010 C 
ENDBRANCH   6   7
BRANCH   6   9
HETATM    9  O12 UNL     1     -33.831  19.251  -2.926  1.00 20.00    -0.382 OA
HETATM   10  H30 UNL     1     -33.118  19.768  -2.524  1.00 20.00     0.211 HD
ENDBRANCH   6   9
BRANCH   5  11
HETATM   11  C11 UNL     1     -35.303  15.024  -4.525  1.00 20.00    -0.015 C 
HETATM   12  C9  UNL     1     -34.422  15.048  -5.771  1.00 20.00     0.010 C 
HETATM   13  C10 UNL     1     -36.128  13.741  -4.473  1.00 20.00     0.010 C 
ENDBRANCH   5  11
TORSDOF 3
ENDMDL
MODEL 5
REMARK VINA RESULT:      -4.3      1.469      2.384
REMARK  3 active torsions:
REMARK  status: ('A' for Active; 'I' for Inactive)
REMARK    1  A    between atoms: C4_4  and  C8_8 
REMARK    2  A    between atoms: C7_7  and  C11_11 
REMARK    3  A    between atoms: C8_8  and  O12_12 
ROOT
HETATM    1  C1  UNL     1     -35.174  15.432  -2.662  1.00 20.00    -0.022 C 
HETATM    2  C2  UNL     1     -35.649  15.315  -3.911  1.00 20.00     0.011 C 
HETATM    3  C5  UNL     1     -33.158  16.691  -3.528  1.00 20.00     0.012 C 
HETATM    4  C6  UNL     1     -34.060  17.124  -4.685  1.00 20.00     0.047 C 
HETATM    5  C7  UNL     1     -33.970  16.259  -2.294  1.00 20.00     0.011 C 
HETATM    6  C8  UNL     1     -35.049  16.015  -5.102  1.00 20.00     0.092 C 
ENDROOT
BRANCH   6   7
HETATM    7  C4  UNL     1     -34.406  15.015  -6.020  1.00 20.00     0.004 C 
HETATM    8  C3  UNL     1     -34.033  15.283  -7.276  1.00 20.00     0.010 C 
ENDBRANCH   6   7
BRANCH   6   9
HETATM    9  O12 UNL     1     -36.121  16.639  -5.819  1.00 20.00    -0.382 OA
HETATM   10  H30 UNL     1     -35.944  17.590  -5.795  1.00 20.00     0.211 HD
ENDBRANCH   6   9
BRANCH   5  11
HETATM   11  C11 UNL     1     -34.409  17.466  -1.463  1.00 20.00    -0.015 C 
HETATM   12  C9  UNL     1     -35.374  17.035  -0.361  1.00 20.00     0.010 C 
HETATM   13  C10 UNL     1     -33.194  18.175  -0.869  1.00 20.00     0.010 C 
ENDBRANCH   5  11
TORSDOF 3
ENDMDL
MODEL 6
REMARK VINA RESULT:      -4.3      1.833      4.276
REMARK  3 active torsions:
REMARK  status: ('A' for Active; 'I' for Inactive)
REMARK    1  A    between atoms: C4_4  and  C8_8 
REMARK    2  A    between atoms: C7_7  and  C11_11 
REMARK    3  A    between atoms: C8_8  and  O12_12 
ROOT
HETATM    1  C1  UNL     1     -34.101  14.927  -3.709  1.00 20.00    -0.022 C 
HETATM    2  C2  UNL     1     -33.132  15.851  -3.637  1.00 20.00     0.011 C 
HETATM    3  C5  UNL     1     -35.713  16.500  -2.558  1.00 20.00     0.012 C 
HETATM    4  C6  UNL     1     -34.864  17.627  -3.146  1.00 20.00     0.047 C 
HETATM    5  C7  UNL     1     -35.537  15.181  -3.332  1.00 20.00     0.011 C 
HETATM    6  C8  UNL     1     -33.364  17.270  -3.187  1.00 20.00     0.092 C 
ENDROOT
BRANCH   6   7
HETATM    7  C4  UNL     1     -32.700  17.506  -1.860  1.00 20.00     0.004 C 
HETATM    8  C3  UNL     1     -33.076  18.453  -0.993  1.00 20.00     0.010 C 
ENDBRANCH   6   7
BRANCH   6   9
HETATM    9  O12 UNL     1     -32.740  18.131  -4.146  1.00 20.00    -0.382 OA
HETATM   10  H30 UNL     1     -33.133  19.007  -4.020  1.00 20.00     0.211 HD
ENDBRANCH   6   9
BRANCH   5  11
HETATM   11  C11 UNL     1     -36.413  15.148  -4.586  1.00 20.00    -0.015 C 
HETATM   12  C9  UNL     1     -35.757  14.304  -5.675  1.00 20.00     0.010 C 
HETATM   13  C10 UNL     1     -37.803  14.611  -4.252  1.00 20.00     0.010 C 
ENDBRANCH   5  11
TORSDOF 3
ENDMDL
MODEL 7
REMARK VINA RESULT:      -4.1      2.450      3.279
REMARK  3 active torsions:
REMARK  status: ('A' for Active; 'I' for Inactive)
REMARK    1  A    between atoms: C4_4  and  C8_8 
REMARK    2  A    between atoms: C7_7  and  C11_11 
REMARK    3  A    between atoms: C8_8  and  O12_12 
ROOT
HETATM    1  C1  UNL     1     -36.027  16.461  -3.125  1.00 20.00    -0.022 C 
HETATM    2  C2  UNL     1     -37.156  16.499  -3.848  1.00 20.00     0.011 C 
HETATM    3  C5  UNL     1     -35.596  14.090  -3.891  1.00 20.00     0.012 C 
HETATM    4  C6  UNL     1     -36.398  14.461  -5.138  1.00 20.00     0.047 C 
HETATM    5  C7  UNL     1     -35.033  15.332  -3.177  1.00 20.00     0.011 C 
HETATM    6  C8  UNL     1     -37.562  15.423  -4.820  1.00 20.00     0.092 C 
ENDROOT
BRANCH   6   7
HETATM    7  C4  UNL     1     -38.766  14.688  -4.304  1.00 20.00     0.004 C 
HETATM    8  C3  UNL     1     -39.904  15.283  -3.932  1.00 20.00     0.010 C 
ENDBRANCH   6   7
BRANCH   6   9
HETATM    9  O12 UNL     1     -37.937  16.068  -6.043  1.00 20.00    -0.382 OA
HETATM   10  H30 UNL     1     -38.882  15.896  -6.161  1.00 20.00     0.211 HD
ENDBRANCH   6   9
BRANCH   5  11
HETATM   11  C11 UNL     1     -33.737  15.814  -3.832  1.00 20.00    -0.015 C 
HETATM   12  C9  UNL     1     -32.948  16.698  -2.870  1.00 20.00     0.010 C 
HETATM   13  C10 UNL     1     -32.894  14.626  -4.287  1.00 20.00     0.010 C 
ENDBRANCH   5  11
TORSDOF 3
ENDMDL
MODEL 8
REMARK VINA RESULT:      -3.9      2.008      4.455
REMARK  3 active torsions:
REMARK  status: ('A' for Active; 'I' for Inactive)
REMARK    1  A    between atoms: C4_4  and  C8_8 
REMARK    2  A    between atoms: C7_7  and  C11_11 
REMARK    3  A    between atoms: C8_8  and  O12_12 
ROOT
HETATM    1  C1  UNL     1     -34.250  16.855  -5.033  1.00 20.00    -0.022 C 
HETATM    2  C2  UNL     1     -34.179  17.733  -4.021  1.00 20.00     0.011 C 
HETATM    3  C5  UNL     1     -34.233  14.932  -3.390  1.00 20.00     0.012 C 
HETATM    4  C6  UNL     1     -34.855  15.915  -2.398  1.00 20.00     0.047 C 
HETATM    5  C7  UNL     1     -34.446  15.373  -4.849  1.00 20.00     0.011 C 
HETATM    6  C8  UNL     1     -34.306  17.347  -2.571  1.00 20.00     0.092 C 
ENDROOT
BRANCH   6   7
HETATM    7  C4  UNL     1     -32.988  17.525  -1.871  1.00 20.00     0.004 C 
HETATM    8  C3  UNL     1     -32.271  18.653  -1.902  1.00 20.00     0.010 C 
ENDBRANCH   6   7
BRANCH   6   9
HETATM    9  O12 UNL     1     -35.244  18.246  -1.968  1.00 20.00    -0.382 OA
HETATM   10  H30 UNL     1     -34.844  18.537  -1.136  1.00 20.00     0.211 HD
ENDBRANCH   6   9
BRANCH   5  11
HETATM   11  C11 UNL     1     -35.830  14.969  -5.360  1.00 20.00    -0.015 C 
HETATM   12  C9  UNL     1     -35.825  14.844  -6.881  1.00 20.00     0.010 C 
HETATM   13  C10 UNL     1     -36.276  13.659  -4.714  1.00 20.00     0.010 C 
ENDBRANCH   5  11
TORSDOF 3
ENDMDL
MODEL 9
REMARK VINA RESULT:      -3.9      2.296      4.425
REMARK  3 active torsions:
REMARK  status: ('A' for Active; 'I' for Inactive)
REMARK    1  A    between atoms: C4_4  and  C8_8 
REMARK    2  A    between atoms: C7_7  and  C11_11 
REMARK    3  A    between atoms: C8_8  and  O12_12 
ROOT
HETATM    1  C1  UNL     1     -37.345  15.982  -4.267  1.00 20.00    -0.022 C 
HETATM    2  C2  UNL     1     -36.701  14.886  -3.840  1.00 20.00     0.011 C 
HETATM    3  C5  UNL     1     -35.803  16.134  -6.265  1.00 20.00     0.012 C 
HETATM    4  C6  UNL     1     -35.645  14.620  -6.123  1.00 20.00     0.047 C 
HETATM    5  C7  UNL     1     -37.090  16.646  -5.594  1.00 20.00     0.011 C 
HETATM    6  C8  UNL     1     -35.652  14.168  -4.648  1.00 20.00     0.092 C 
ENDROOT
BRANCH   6   7
HETATM    7  C4  UNL     1     -34.303  14.336  -4.008  1.00 20.00     0.004 C 
HETATM    8  C3  UNL     1     -33.965  15.373  -3.235  1.00 20.00     0.010 C 
ENDBRANCH   6   7
BRANCH   6   9
HETATM    9  O12 UNL     1     -35.974  12.772  -4.624  1.00 20.00    -0.382 OA
HETATM   10  H30 UNL     1     -35.133  12.302  -4.536  1.00 20.00     0.211 HD
ENDBRANCH   6   9
BRANCH   5  11
HETATM   11  C11 UNL     1     -38.306  16.462  -6.505  1.00 20.00    -0.015 C 
HETATM   12  C9  UNL     1     -39.574  16.951  -5.810  1.00 20.00     0.010 C 
HETATM   13  C10 UNL     1     -38.099  17.197  -7.827  1.00 20.00     0.010 C 
ENDBRANCH   5  11
TORSDOF 3
ENDMDL
