MODEL 1
REMARK VINA RESULT:      -4.5      0.000      0.000
REMARK  0 active torsions:
REMARK  status: ('A' for Active; 'I' for Inactive)
ROOT
HETATM    1  C1  UNL     1     -33.731   6.485   4.594  1.00 20.00     0.076 A 
HETATM    2  C2  UNL     1     -34.081   5.305   4.000  1.00 20.00     0.123 A 
HETATM    3  C3  UNL     1     -32.853   6.845   2.670  1.00 20.00     0.073 A 
HETATM    4  C4  UNL     1     -34.886   5.082   5.904  1.00 20.00     0.097 A 
HETATM    5  C5  UNL     1     -34.234   6.486   5.969  1.00 20.00     0.109 A 
HETATM    6  C6  UNL     1     -32.132   7.495   1.552  1.00 20.00     0.079 C 
HETATM    7  N7  UNL     1     -33.029   7.388   3.863  1.00 20.00    -0.248 NA
HETATM    8  N8  UNL     1     -34.780   4.435   4.770  1.00 20.00    -0.255 NA
HETATM    9  S9  UNL     1     -33.523   5.258   2.416  1.00 20.00    -0.053 SA
ENDROOT
TORSDOF 0
ENDMDL
MODEL 2
REMARK VINA RESULT:      -4.4     16.353     16.895
REMARK  0 active torsions:
REMARK  status: ('A' for Active; 'I' for Inactive)
ROOT
HETATM    1  C1  UNL     1     -24.555  18.673   9.117  1.00 20.00     0.076 A 
HETATM    2  C2  UNL     1     -23.470  18.360   8.349  1.00 20.00     0.123 A 
HETATM    3  C3  UNL     1     -23.312  17.865  10.668  1.00 20.00     0.073 A 
HETATM    4  C4  UNL     1     -24.772  19.166   6.943  1.00 20.00     0.097 A 
HETATM    5  C5  UNL     1     -25.584  19.263   8.259  1.00 20.00     0.109 A 
HETATM    6  C6  UNL     1     -22.829  17.417  11.993  1.00 20.00     0.079 C 
HETATM    7  N7  UNL     1     -24.500  18.403  10.446  1.00 20.00    -0.248 NA
HETATM    8  N8  UNL     1     -23.572  18.647   7.027  1.00 20.00    -0.255 NA
HETATM    9  S9  UNL     1     -22.259  17.678   9.292  1.00 20.00    -0.053 SA
ENDROOT
TORSDOF 0
ENDMDL
MODEL 3
REMARK VINA RESULT:      -4.1     16.555     16.875
REMARK  0 active torsions:
REMARK  status: ('A' for Active; 'I' for Inactive)
ROOT
HETATM    1  C1  UNL     1     -23.277  17.807   9.501  1.00 20.00     0.076 A 
HETATM    2  C2  UNL     1     -23.696  18.428   8.359  1.00 20.00     0.123 A 
HETATM    3  C3  UNL     1     -25.059  18.708  10.286  1.00 20.00     0.073 A 
HETATM    4  C4  UNL     1     -21.947  17.501   7.725  1.00 20.00     0.097 A 
HETATM    5  C5  UNL     1     -22.030  17.094   9.218  1.00 20.00     0.109 A 
HETATM    6  C6  UNL     1     -26.139  19.114  11.213  1.00 20.00     0.079 C 
HETATM    7  N7  UNL     1     -24.032  17.945  10.621  1.00 20.00    -0.248 NA
HETATM    8  N8  UNL     1     -22.910  18.262   7.267  1.00 20.00    -0.255 NA
HETATM    9  S9  UNL     1     -25.129  19.261   8.635  1.00 20.00    -0.053 SA
ENDROOT
TORSDOF 0
ENDMDL
MODEL 4
REMARK VINA RESULT:      -4.1     16.031     16.814
REMARK  0 active torsions:
REMARK  status: ('A' for Active; 'I' for Inactive)
ROOT
HETATM    1  C1  UNL     1     -22.964  18.228   8.567  1.00 20.00     0.076 A 
HETATM    2  C2  UNL     1     -23.790  18.407   9.641  1.00 20.00     0.123 A 
HETATM    3  C3  UNL     1     -24.708  18.878   7.500  1.00 20.00     0.073 A 
HETATM    4  C4  UNL     1     -22.035  17.766  10.553  1.00 20.00     0.097 A 
HETATM    5  C5  UNL     1     -21.660  17.769   9.049  1.00 20.00     0.109 A 
HETATM    6  C6  UNL     1     -25.623  19.263   6.402  1.00 20.00     0.079 C 
HETATM    7  N7  UNL     1     -23.456  18.488   7.329  1.00 20.00    -0.248 NA
HETATM    8  N8  UNL     1     -23.255  18.133  10.856  1.00 20.00    -0.255 NA
HETATM    9  S9  UNL     1     -25.303  18.935   9.136  1.00 20.00    -0.053 SA
ENDROOT
TORSDOF 0
ENDMDL
MODEL 5
REMARK VINA RESULT:      -4.1     15.822     16.283
REMARK  0 active torsions:
REMARK  status: ('A' for Active; 'I' for Inactive)
ROOT
HETATM    1  C1  UNL     1     -23.867  16.758  10.268  1.00 20.00     0.076 A 
HETATM    2  C2  UNL     1     -24.271  18.062  10.229  1.00 20.00     0.123 A 
HETATM    3  C3  UNL     1     -22.641  17.402   8.630  1.00 20.00     0.073 A 
HETATM    4  C4  UNL     1     -25.404  17.310  11.802  1.00 20.00     0.097 A 
HETATM    5  C5  UNL     1     -24.585  16.075  11.346  1.00 20.00     0.109 A 
HETATM    6  C6  UNL     1     -21.662  17.400   7.519  1.00 20.00     0.079 C 
HETATM    7  N7  UNL     1     -22.937  16.346   9.369  1.00 20.00    -0.248 NA
HETATM    8  N8  UNL     1     -25.202  18.426  11.145  1.00 20.00    -0.255 NA
HETATM    9  S9  UNL     1     -23.471  18.888   9.004  1.00 20.00    -0.053 SA
ENDROOT
TORSDOF 0
ENDMDL
MODEL 6
REMARK VINA RESULT:      -4.1     16.303     16.642
REMARK  0 active torsions:
REMARK  status: ('A' for Active; 'I' for Inactive)
ROOT
HETATM    1  C1  UNL     1     -24.069  18.201   9.407  1.00 20.00     0.076 A 
HETATM    2  C2  UNL     1     -23.398  17.103   9.867  1.00 20.00     0.123 A 
HETATM    3  C3  UNL     1     -25.158  17.928  11.235  1.00 20.00     0.073 A 
HETATM    4  C4  UNL     1     -22.424  17.478   8.069  1.00 20.00     0.097 A 
HETATM    5  C5  UNL     1     -23.492  18.600   8.122  1.00 20.00     0.109 A 
HETATM    6  C6  UNL     1     -26.134  18.115  12.332  1.00 20.00     0.079 C 
HETATM    7  N7  UNL     1     -25.080  18.699  10.163  1.00 20.00    -0.248 NA
HETATM    8  N8  UNL     1     -22.397  16.642   9.078  1.00 20.00    -0.255 NA
HETATM    9  S9  UNL     1     -24.027  16.608  11.344  1.00 20.00    -0.053 SA
ENDROOT
TORSDOF 0
ENDMDL
MODEL 7
REMARK VINA RESULT:      -4.0     16.303     17.034
REMARK  0 active torsions:
REMARK  status: ('A' for Active; 'I' for Inactive)
ROOT
HETATM    1  C1  UNL     1     -24.183  18.298  10.885  1.00 20.00     0.076 A 
HETATM    2  C2  UNL     1     -22.964  18.053  10.318  1.00 20.00     0.123 A 
HETATM    3  C3  UNL     1     -24.718  18.685   8.844  1.00 20.00     0.073 A 
HETATM    4  C4  UNL     1     -22.577  17.707  12.332  1.00 20.00     0.097 A 
HETATM    5  C5  UNL     1     -24.078  18.095  12.331  1.00 20.00     0.109 A 
HETATM    6  C6  UNL     1     -25.501  19.034   7.637  1.00 20.00     0.079 C 
HETATM    7  N7  UNL     1     -25.208  18.662  10.073  1.00 20.00    -0.248 NA
HETATM    8  N8  UNL     1     -21.972  17.694  11.170  1.00 20.00    -0.255 NA
HETATM    9  S9  UNL     1     -23.036  18.274   8.654  1.00 20.00    -0.053 SA
ENDROOT
TORSDOF 0
ENDMDL
MODEL 8
REMARK VINA RESULT:      -3.8     12.146     12.559
REMARK  0 active torsions:
REMARK  status: ('A' for Active; 'I' for Inactive)
ROOT
HETATM    1  C1  UNL     1     -36.772  15.896  -3.822  1.00 20.00     0.076 A 
HETATM    2  C2  UNL     1     -36.658  14.561  -4.093  1.00 20.00     0.123 A 
HETATM    3  C3  UNL     1     -34.647  15.722  -3.587  1.00 20.00     0.073 A 
HETATM    4  C4  UNL     1     -38.706  14.865  -4.291  1.00 20.00     0.097 A 
HETATM    5  C5  UNL     1     -38.182  16.276  -3.921  1.00 20.00     0.109 A 
HETATM    6  C6  UNL     1     -33.228  16.058  -3.333  1.00 20.00     0.079 C 
HETATM    7  N7  UNL     1     -35.643  16.590  -3.529  1.00 20.00    -0.248 NA
HETATM    8  N8  UNL     1     -37.812  13.910  -4.380  1.00 20.00    -0.255 NA
HETATM    9  S9  UNL     1     -35.053  14.077  -3.992  1.00 20.00    -0.053 SA
ENDROOT
TORSDOF 0
ENDMDL
MODEL 9
REMARK VINA RESULT:      -3.7     15.178     15.723
REMARK  0 active torsions:
REMARK  status: ('A' for Active; 'I' for Inactive)
ROOT
HETATM    1  C1  UNL     1     -24.931  19.019   7.132  1.00 20.00     0.076 A 
HETATM    2  C2  UNL     1     -26.162  19.189   7.701  1.00 20.00     0.123 A 
HETATM    3  C3  UNL     1     -26.094  19.056   5.329  1.00 20.00     0.073 A 
HETATM    4  C4  UNL     1     -24.922  19.136   9.370  1.00 20.00     0.097 A 
HETATM    5  C5  UNL     1     -23.926  18.961   8.195  1.00 20.00     0.109 A 
HETATM    6  C6  UNL     1     -26.472  19.024   3.899  1.00 20.00     0.079 C 
HETATM    7  N7  UNL     1     -24.855  18.940   5.779  1.00 20.00    -0.248 NA
HETATM    8  N8  UNL     1     -26.188  19.261   9.055  1.00 20.00    -0.255 NA
HETATM    9  S9  UNL     1     -27.352  19.261   6.517  1.00 20.00    -0.053 SA
ENDROOT
TORSDOF 0
ENDMDL
