MODEL 1
REMARK VINA RESULT:      -4.4      0.000      0.000
REMARK  1 active torsions:
REMARK  status: ('A' for Active; 'I' for Inactive)
REMARK    1  A    between atoms: C4_4  and  C7_7 
ROOT
HETATM    1  C1  UNL     1     -37.281  14.415  -4.519  1.00 20.00     0.075 C 
HETATM    2  C2  UNL     1     -34.894  13.927  -4.148  1.00 20.00     0.105 C 
HETATM    3  C3  UNL     1     -35.909  14.859  -4.793  1.00 20.00     0.164 C 
HETATM    4  C4  UNL     1     -33.831  16.383  -3.840  1.00 20.00     0.113 C 
HETATM    5  N8  UNL     1     -38.365  14.064  -4.303  1.00 20.00    -0.196 NA
HETATM    6  S9  UNL     1     -33.275  14.717  -4.310  1.00 20.00    -0.151 SA
HETATM    7  S10 UNL     1     -35.623  16.539  -4.145  1.00 20.00    -0.133 SA
ENDROOT
BRANCH   4   8
HETATM    8  C7  UNL     1     -33.538  16.637  -2.367  1.00 20.00     0.001 C 
HETATM    9  C5  UNL     1     -32.738  17.926  -2.188  1.00 20.00     0.011 C 
HETATM   10  C6  UNL     1     -34.835  16.696  -1.560  1.00 20.00     0.011 C 
ENDBRANCH   4   8
TORSDOF 1
ENDMDL
MODEL 2
REMARK VINA RESULT:      -4.1     15.758     17.366
REMARK  1 active torsions:
REMARK  status: ('A' for Active; 'I' for Inactive)
REMARK    1  A    between atoms: C4_4  and  C7_7 
ROOT
HETATM    1  C1  UNL     1     -24.555  19.179   7.046  1.00 20.00     0.075 C 
HETATM    2  C2  UNL     1     -23.190  17.880   8.635  1.00 20.00     0.105 C 
HETATM    3  C3  UNL     1     -24.026  19.132   8.415  1.00 20.00     0.164 C 
HETATM    4  C4  UNL     1     -24.512  18.212  10.958  1.00 20.00     0.113 C 
HETATM    5  N8  UNL     1     -24.973  19.215   5.965  1.00 20.00    -0.196 NA
HETATM    6  S9  UNL     1     -22.832  17.788  10.405  1.00 20.00    -0.151 SA
HETATM    7  S10 UNL     1     -25.378  19.128   9.639  1.00 20.00    -0.133 SA
ENDROOT
BRANCH   4   8
HETATM    8  C7  UNL     1     -25.287  16.946  11.296  1.00 20.00     0.001 C 
HETATM    9  C5  UNL     1     -24.346  15.854  11.801  1.00 20.00     0.011 C 
HETATM   10  C6  UNL     1     -26.374  17.236  12.331  1.00 20.00     0.011 C 
ENDBRANCH   4   8
TORSDOF 1
ENDMDL
MODEL 3
REMARK VINA RESULT:      -4.1     17.840     18.748
REMARK  1 active torsions:
REMARK  status: ('A' for Active; 'I' for Inactive)
REMARK    1  A    between atoms: C4_4  and  C7_7 
ROOT
HETATM    1  C1  UNL     1     -22.074  17.504   8.381  1.00 20.00     0.075 C 
HETATM    2  C2  UNL     1     -21.791  17.430  10.828  1.00 20.00     0.105 C 
HETATM    3  C3  UNL     1     -22.430  18.150   9.650  1.00 20.00     0.164 C 
HETATM    4  C4  UNL     1     -24.231  18.135  11.726  1.00 20.00     0.113 C 
HETATM    5  N8  UNL     1     -21.792  16.994   7.379  1.00 20.00    -0.196 NA
HETATM    6  S9  UNL     1     -22.517  18.127  12.331  1.00 20.00    -0.151 SA
HETATM    7  S10 UNL     1     -24.237  18.147   9.902  1.00 20.00    -0.133 SA
ENDROOT
BRANCH   4   8
HETATM    8  C7  UNL     1     -24.970  16.903  12.233  1.00 20.00     0.001 C 
HETATM    9  C5  UNL     1     -26.470  17.174  12.332  1.00 20.00     0.011 C 
HETATM   10  C6  UNL     1     -24.703  15.702  11.326  1.00 20.00     0.011 C 
ENDBRANCH   4   8
TORSDOF 1
ENDMDL
MODEL 4
REMARK VINA RESULT:      -4.0      1.033      1.118
REMARK  1 active torsions:
REMARK  status: ('A' for Active; 'I' for Inactive)
REMARK    1  A    between atoms: C4_4  and  C7_7 
ROOT
HETATM    1  C1  UNL     1     -37.018  14.557  -4.327  1.00 20.00     0.075 C 
HETATM    2  C2  UNL     1     -34.612  14.681  -3.809  1.00 20.00     0.105 C 
HETATM    3  C3  UNL     1     -35.834  15.425  -4.326  1.00 20.00     0.164 C 
HETATM    4  C4  UNL     1     -34.352  17.166  -2.802  1.00 20.00     0.113 C 
HETATM    5  N8  UNL     1     -37.953  13.871  -4.328  1.00 20.00    -0.196 NA
HETATM    6  S9  UNL     1     -33.301  15.908  -3.589  1.00 20.00    -0.151 SA
HETATM    7  S10 UNL     1     -36.094  16.886  -3.266  1.00 20.00    -0.133 SA
ENDROOT
BRANCH   4   8
HETATM    8  C7  UNL     1     -34.208  17.096  -1.288  1.00 20.00     0.001 C 
HETATM    9  C5  UNL     1     -33.231  18.159  -0.787  1.00 20.00     0.011 C 
HETATM   10  C6  UNL     1     -35.567  17.257  -0.607  1.00 20.00     0.011 C 
ENDBRANCH   4   8
TORSDOF 1
ENDMDL
MODEL 5
REMARK VINA RESULT:      -3.9      3.534      5.311
REMARK  1 active torsions:
REMARK  status: ('A' for Active; 'I' for Inactive)
REMARK    1  A    between atoms: C4_4  and  C7_7 
ROOT
HETATM    1  C1  UNL     1     -31.688  18.396  -0.882  1.00 20.00     0.075 C 
HETATM    2  C2  UNL     1     -34.017  17.670  -0.537  1.00 20.00     0.105 C 
HETATM    3  C3  UNL     1     -33.038  18.382  -1.458  1.00 20.00     0.164 C 
HETATM    4  C4  UNL     1     -34.780  16.934  -3.013  1.00 20.00     0.113 C 
HETATM    5  N8  UNL     1     -30.621  18.407  -0.427  1.00 20.00    -0.196 NA
HETATM    6  S9  UNL     1     -35.559  17.467  -1.460  1.00 20.00    -0.151 SA
HETATM    7  S10 UNL     1     -33.055  17.526  -3.068  1.00 20.00    -0.133 SA
ENDROOT
BRANCH   4   8
HETATM    8  C7  UNL     1     -34.803  15.414  -3.115  1.00 20.00     0.001 C 
HETATM    9  C5  UNL     1     -36.113  14.933  -3.736  1.00 20.00     0.011 C 
HETATM   10  C6  UNL     1     -33.610  14.908  -3.927  1.00 20.00     0.011 C 
ENDBRANCH   4   8
TORSDOF 1
ENDMDL
MODEL 6
REMARK VINA RESULT:      -3.8      1.448      1.925
REMARK  1 active torsions:
REMARK  status: ('A' for Active; 'I' for Inactive)
REMARK    1  A    between atoms: C4_4  and  C7_7 
ROOT
HETATM    1  C1  UNL     1     -38.037  14.762  -4.738  1.00 20.00     0.075 C 
HETATM    2  C2  UNL     1     -35.828  14.413  -5.775  1.00 20.00     0.105 C 
HETATM    3  C3  UNL     1     -36.891  15.425  -5.373  1.00 20.00     0.164 C 
HETATM    4  C4  UNL     1     -34.425  16.540  -4.902  1.00 20.00     0.113 C 
HETATM    5  N8  UNL     1     -38.942  14.237  -4.237  1.00 20.00    -0.196 NA
HETATM    6  S9  UNL     1     -34.368  15.353  -6.279  1.00 20.00    -0.151 SA
HETATM    7  S10 UNL     1     -36.122  16.630  -4.240  1.00 20.00    -0.133 SA
ENDROOT
BRANCH   4   8
HETATM    8  C7  UNL     1     -33.467  16.109  -3.800  1.00 20.00     0.001 C 
HETATM    9  C5  UNL     1     -34.209  15.935  -2.475  1.00 20.00     0.011 C 
HETATM   10  C6  UNL     1     -32.748  14.815  -4.183  1.00 20.00     0.011 C 
ENDBRANCH   4   8
TORSDOF 1
ENDMDL
MODEL 7
REMARK VINA RESULT:      -3.7      1.719      2.145
REMARK  1 active torsions:
REMARK  status: ('A' for Active; 'I' for Inactive)
REMARK    1  A    between atoms: C4_4  and  C7_7 
ROOT
HETATM    1  C1  UNL     1     -37.204  14.883  -4.257  1.00 20.00     0.075 C 
HETATM    2  C2  UNL     1     -35.945  16.763  -5.234  1.00 20.00     0.105 C 
HETATM    3  C3  UNL     1     -36.748  16.262  -4.043  1.00 20.00     0.164 C 
HETATM    4  C4  UNL     1     -34.678  17.800  -3.094  1.00 20.00     0.113 C 
HETATM    5  N8  UNL     1     -37.564  13.794  -4.427  1.00 20.00    -0.196 NA
HETATM    6  S9  UNL     1     -35.208  18.341  -4.747  1.00 20.00    -0.151 SA
HETATM    7  S10 UNL     1     -35.692  16.379  -2.561  1.00 20.00    -0.133 SA
ENDROOT
BRANCH   4   8
HETATM    8  C7  UNL     1     -33.209  17.399  -3.121  1.00 20.00     0.001 C 
HETATM    9  C5  UNL     1     -32.518  17.787  -1.815  1.00 20.00     0.011 C 
HETATM   10  C6  UNL     1     -33.062  15.899  -3.377  1.00 20.00     0.011 C 
ENDBRANCH   4   8
TORSDOF 1
ENDMDL
MODEL 8
REMARK VINA RESULT:      -3.7      2.335      2.978
REMARK  1 active torsions:
REMARK  status: ('A' for Active; 'I' for Inactive)
REMARK    1  A    between atoms: C4_4  and  C7_7 
ROOT
HETATM    1  C1  UNL     1     -34.367  15.161  -6.888  1.00 20.00     0.075 C 
HETATM    2  C2  UNL     1     -35.833  16.422  -5.361  1.00 20.00     0.105 C 
HETATM    3  C3  UNL     1     -35.232  15.067  -5.706  1.00 20.00     0.164 C 
HETATM    4  C4  UNL     1     -35.293  15.305  -2.969  1.00 20.00     0.113 C 
HETATM    5  N8  UNL     1     -33.684  15.235  -7.823  1.00 20.00    -0.196 NA
HETATM    6  S9  UNL     1     -36.638  16.247  -3.750  1.00 20.00    -0.151 SA
HETATM    7  S10 UNL     1     -34.296  14.480  -4.255  1.00 20.00    -0.133 SA
ENDROOT
BRANCH   4   8
HETATM    8  C7  UNL     1     -34.408  16.237  -2.153  1.00 20.00     0.001 C 
HETATM    9  C5  UNL     1     -33.113  16.547  -2.903  1.00 20.00     0.011 C 
HETATM   10  C6  UNL     1     -35.150  17.529  -1.813  1.00 20.00     0.011 C 
ENDBRANCH   4   8
TORSDOF 1
ENDMDL
MODEL 9
REMARK VINA RESULT:      -3.6      1.649      1.973
REMARK  1 active torsions:
REMARK  status: ('A' for Active; 'I' for Inactive)
REMARK    1  A    between atoms: C4_4  and  C7_7 
ROOT
HETATM    1  C1  UNL     1     -39.277  15.513  -3.807  1.00 20.00     0.075 C 
HETATM    2  C2  UNL     1     -37.260  14.261  -4.469  1.00 20.00     0.105 C 
HETATM    3  C3  UNL     1     -37.989  15.596  -4.506  1.00 20.00     0.164 C 
HETATM    4  C4  UNL     1     -35.306  16.093  -4.177  1.00 20.00     0.113 C 
HETATM    5  N8  UNL     1     -40.295  15.446  -3.255  1.00 20.00    -0.196 NA
HETATM    6  S9  UNL     1     -35.591  14.553  -5.101  1.00 20.00    -0.151 SA
HETATM    7  S10 UNL     1     -36.908  16.849  -3.740  1.00 20.00    -0.133 SA
ENDROOT
BRANCH   4   8
HETATM    8  C7  UNL     1     -34.514  15.803  -2.910  1.00 20.00     0.001 C 
HETATM    9  C5  UNL     1     -33.101  16.375  -3.013  1.00 20.00     0.011 C 
HETATM   10  C6  UNL     1     -35.230  16.368  -1.683  1.00 20.00     0.011 C 
ENDBRANCH   4   8
TORSDOF 1
ENDMDL
