MODEL 1
REMARK VINA RESULT:      -5.1      0.000      0.000
REMARK  2 active torsions:
REMARK  status: ('A' for Active; 'I' for Inactive)
REMARK    1  A    between atoms: C2_2  and  C5_5 
REMARK    2  A    between atoms: C7_7  and  C10_10 
ROOT
HETATM    1  C1  UNL     1     -36.072  15.915  -3.785  1.00 20.00    -0.006 A 
HETATM    2  C2  UNL     1     -36.704  14.780  -4.096  1.00 20.00     0.005 A 
HETATM    3  C3  UNL     1     -35.645  13.767  -4.263  1.00 20.00     0.159 A 
HETATM    4  C6  UNL     1     -34.277  14.359  -4.068  1.00 20.00     0.092 A 
HETATM    5  C7  UNL     1     -34.577  15.814  -3.697  1.00 20.00     0.019 A 
HETATM    6  O11 UNL     1     -35.856  12.595  -4.538  1.00 20.00    -0.292 OA
ENDROOT
BRANCH   5   7
HETATM    7  C10 UNL     1     -34.073  16.172  -2.304  1.00 20.00    -0.015 C 
HETATM    8  C8  UNL     1     -32.971  17.227  -2.383  1.00 20.00     0.010 C 
HETATM    9  C9  UNL     1     -35.221  16.663  -1.424  1.00 20.00     0.010 C 
ENDBRANCH   5   7
BRANCH   2  10
HETATM   10  C5  UNL     1     -38.100  14.550  -4.251  1.00 20.00     0.004 C 
HETATM   11  C4  UNL     1     -38.971  15.583  -4.189  1.00 20.00     0.012 C 
ENDBRANCH   2  10
TORSDOF 2
ENDMDL
MODEL 2
REMARK VINA RESULT:      -5.0     15.148     17.569
REMARK  2 active torsions:
REMARK  status: ('A' for Active; 'I' for Inactive)
REMARK    1  A    between atoms: C2_2  and  C5_5 
REMARK    2  A    between atoms: C7_7  and  C10_10 
ROOT
HETATM    1  C1  UNL     1     -24.661  18.962   9.144  1.00 20.00    -0.006 A 
HETATM    2  C2  UNL     1     -24.155  18.802   7.918  1.00 20.00     0.005 A 
HETATM    3  C3  UNL     1     -22.909  18.032   8.098  1.00 20.00     0.159 A 
HETATM    4  C6  UNL     1     -22.642  17.745   9.549  1.00 20.00     0.092 A 
HETATM    5  C7  UNL     1     -23.864  18.342  10.254  1.00 20.00     0.019 A 
HETATM    6  O11 UNL     1     -22.181  17.684   7.180  1.00 20.00    -0.292 OA
ENDROOT
BRANCH   5   7
HETATM    7  C10 UNL     1     -24.671  17.288  11.003  1.00 20.00    -0.015 C 
HETATM    8  C8  UNL     1     -23.746  16.335  11.758  1.00 20.00     0.010 C 
HETATM    9  C9  UNL     1     -25.658  17.947  11.964  1.00 20.00     0.010 C 
ENDBRANCH   5   7
BRANCH   2  10
HETATM   10  C5  UNL     1     -24.670  19.263   6.673  1.00 20.00     0.004 C 
HETATM   11  C4  UNL     1     -25.971  19.067   6.360  1.00 20.00     0.012 C 
ENDBRANCH   2  10
TORSDOF 2
ENDMDL
MODEL 3
REMARK VINA RESULT:      -4.7      2.475      4.279
REMARK  2 active torsions:
REMARK  status: ('A' for Active; 'I' for Inactive)
REMARK    1  A    between atoms: C2_2  and  C5_5 
REMARK    2  A    between atoms: C7_7  and  C10_10 
ROOT
HETATM    1  C1  UNL     1     -35.092  15.762  -2.230  1.00 20.00    -0.006 A 
HETATM    2  C2  UNL     1     -34.476  16.845  -1.749  1.00 20.00     0.005 A 
HETATM    3  C3  UNL     1     -33.235  16.979  -2.537  1.00 20.00     0.159 A 
HETATM    4  C6  UNL     1     -33.093  15.868  -3.538  1.00 20.00     0.092 A 
HETATM    5  C7  UNL     1     -34.385  15.066  -3.355  1.00 20.00     0.019 A 
HETATM    6  O11 UNL     1     -32.421  17.878  -2.382  1.00 20.00    -0.292 OA
ENDROOT
BRANCH   5   7
HETATM    7  C10 UNL     1     -35.234  15.042  -4.621  1.00 20.00    -0.015 C 
HETATM    8  C8  UNL     1     -34.347  15.033  -5.865  1.00 20.00     0.010 C 
HETATM    9  C9  UNL     1     -36.167  13.832  -4.621  1.00 20.00     0.010 C 
ENDBRANCH   5   7
BRANCH   2  10
HETATM   10  C5  UNL     1     -34.886  17.713  -0.699  1.00 20.00     0.004 C 
HETATM   11  C4  UNL     1     -35.460  17.207   0.417  1.00 20.00     0.012 C 
ENDBRANCH   2  10
TORSDOF 2
ENDMDL
MODEL 4
REMARK VINA RESULT:      -4.6      2.191      3.058
REMARK  2 active torsions:
REMARK  status: ('A' for Active; 'I' for Inactive)
REMARK    1  A    between atoms: C2_2  and  C5_5 
REMARK    2  A    between atoms: C7_7  and  C10_10 
ROOT
HETATM    1  C1  UNL     1     -33.621  14.864  -5.044  1.00 20.00    -0.006 A 
HETATM    2  C2  UNL     1     -34.428  15.021  -6.097  1.00 20.00     0.005 A 
HETATM    3  C3  UNL     1     -35.800  14.875  -5.573  1.00 20.00     0.159 A 
HETATM    4  C6  UNL     1     -35.800  14.577  -4.100  1.00 20.00     0.092 A 
HETATM    5  C7  UNL     1     -34.313  14.616  -3.736  1.00 20.00     0.019 A 
HETATM    6  O11 UNL     1     -36.807  14.975  -6.258  1.00 20.00    -0.292 OA
ENDROOT
BRANCH   5   7
HETATM    7  C10 UNL     1     -33.995  15.705  -2.718  1.00 20.00    -0.015 C 
HETATM    8  C8  UNL     1     -33.216  16.844  -3.373  1.00 20.00     0.010 C 
HETATM    9  C9  UNL     1     -35.277  16.234  -2.077  1.00 20.00     0.010 C 
ENDBRANCH   5   7
BRANCH   2  10
HETATM   10  C5  UNL     1     -34.084  15.270  -7.456  1.00 20.00     0.004 C 
HETATM   11  C4  UNL     1     -34.007  16.539  -7.917  1.00 20.00     0.012 C 
ENDBRANCH   2  10
TORSDOF 2
ENDMDL
MODEL 5
REMARK VINA RESULT:      -4.6      2.713      5.274
REMARK  2 active torsions:
REMARK  status: ('A' for Active; 'I' for Inactive)
REMARK    1  A    between atoms: C2_2  and  C5_5 
REMARK    2  A    between atoms: C7_7  and  C10_10 
ROOT
HETATM    1  C1  UNL     1     -33.264  17.163  -2.981  1.00 20.00    -0.006 A 
HETATM    2  C2  UNL     1     -33.095  17.754  -1.794  1.00 20.00     0.005 A 
HETATM    3  C3  UNL     1     -34.273  17.377  -0.990  1.00 20.00     0.159 A 
HETATM    4  C6  UNL     1     -35.229  16.523  -1.776  1.00 20.00     0.092 A 
HETATM    5  C7  UNL     1     -34.513  16.343  -3.118  1.00 20.00     0.019 A 
HETATM    6  O11 UNL     1     -34.452  17.727   0.168  1.00 20.00    -0.292 OA
ENDROOT
BRANCH   5   7
HETATM    7  C10 UNL     1     -34.195  14.882  -3.411  1.00 20.00    -0.015 C 
HETATM    8  C8  UNL     1     -35.391  14.189  -4.061  1.00 20.00     0.010 C 
HETATM    9  C9  UNL     1     -32.961  14.768  -4.305  1.00 20.00     0.010 C 
ENDBRANCH   5   7
BRANCH   2  10
HETATM   10  C5  UNL     1     -32.026  18.585  -1.356  1.00 20.00     0.004 C 
HETATM   11  C4  UNL     1     -31.153  18.136  -0.425  1.00 20.00     0.012 C 
ENDBRANCH   2  10
TORSDOF 2
ENDMDL
MODEL 6
REMARK VINA RESULT:      -4.5      1.304      1.693
REMARK  2 active torsions:
REMARK  status: ('A' for Active; 'I' for Inactive)
REMARK    1  A    between atoms: C2_2  and  C5_5 
REMARK    2  A    between atoms: C7_7  and  C10_10 
ROOT
HETATM    1  C1  UNL     1     -35.463  16.113  -3.247  1.00 20.00    -0.006 A 
HETATM    2  C2  UNL     1     -35.333  14.935  -3.862  1.00 20.00     0.005 A 
HETATM    3  C3  UNL     1     -33.880  14.724  -4.014  1.00 20.00     0.159 A 
HETATM    4  C6  UNL     1     -33.094  15.885  -3.475  1.00 20.00     0.092 A 
HETATM    5  C7  UNL     1     -34.177  16.809  -2.912  1.00 20.00     0.019 A 
HETATM    6  O11 UNL     1     -33.384  13.731  -4.525  1.00 20.00    -0.292 OA
ENDROOT
BRANCH   5   7
HETATM    7  C10 UNL     1     -34.031  17.023  -1.410  1.00 20.00    -0.015 C 
HETATM    8  C8  UNL     1     -33.300  18.333  -1.120  1.00 20.00     0.010 C 
HETATM    9  C9  UNL     1     -35.397  17.012  -0.727  1.00 20.00     0.010 C 
ENDBRANCH   5   7
BRANCH   2  10
HETATM   10  C5  UNL     1     -36.349  14.041  -4.303  1.00 20.00     0.004 C 
HETATM   11  C4  UNL     1     -37.643  14.436  -4.322  1.00 20.00     0.012 C 
ENDBRANCH   2  10
TORSDOF 2
ENDMDL
MODEL 7
REMARK VINA RESULT:      -4.5     11.354     12.117
REMARK  2 active torsions:
REMARK  status: ('A' for Active; 'I' for Inactive)
REMARK    1  A    between atoms: C2_2  and  C5_5 
REMARK    2  A    between atoms: C7_7  and  C10_10 
ROOT
HETATM    1  C1  UNL     1     -34.172   6.644   3.676  1.00 20.00    -0.006 A 
HETATM    2  C2  UNL     1     -34.358   5.565   4.443  1.00 20.00     0.005 A 
HETATM    3  C3  UNL     1     -33.943   4.414   3.619  1.00 20.00     0.159 A 
HETATM    4  C6  UNL     1     -33.510   4.845   2.246  1.00 20.00     0.092 A 
HETATM    5  C7  UNL     1     -33.624   6.371   2.307  1.00 20.00     0.019 A 
HETATM    6  O11 UNL     1     -33.963   3.254   4.005  1.00 20.00    -0.292 OA
ENDROOT
BRANCH   5   7
HETATM    7  C10 UNL     1     -32.282   7.061   2.092  1.00 20.00    -0.015 C 
HETATM    8  C8  UNL     1     -32.412   8.188   1.069  1.00 20.00     0.010 C 
HETATM    9  C9  UNL     1     -31.735   7.598   3.413  1.00 20.00     0.010 C 
ENDBRANCH   5   7
BRANCH   2  10
HETATM   10  C5  UNL     1     -34.855   5.493   5.775  1.00 20.00     0.004 C 
HETATM   11  C4  UNL     1     -34.477   6.410   6.694  1.00 20.00     0.012 C 
ENDBRANCH   2  10
TORSDOF 2
ENDMDL
MODEL 8
REMARK VINA RESULT:      -4.5      1.343      1.432
REMARK  2 active torsions:
REMARK  status: ('A' for Active; 'I' for Inactive)
REMARK    1  A    between atoms: C2_2  and  C5_5 
REMARK    2  A    between atoms: C7_7  and  C10_10 
ROOT
HETATM    1  C1  UNL     1     -35.291  16.101  -4.967  1.00 20.00    -0.006 A 
HETATM    2  C2  UNL     1     -36.543  15.673  -5.147  1.00 20.00     0.005 A 
HETATM    3  C3  UNL     1     -36.606  14.344  -4.509  1.00 20.00     0.159 A 
HETATM    4  C6  UNL     1     -35.276  13.942  -3.936  1.00 20.00     0.092 A 
HETATM    5  C7  UNL     1     -34.395  15.164  -4.211  1.00 20.00     0.019 A 
HETATM    6  O11 UNL     1     -37.614  13.654  -4.465  1.00 20.00    -0.292 OA
ENDROOT
BRANCH   5   7
HETATM    7  C10 UNL     1     -33.873  15.800  -2.928  1.00 20.00    -0.015 C 
HETATM    8  C8  UNL     1     -33.090  17.075  -3.238  1.00 20.00     0.010 C 
HETATM    9  C9  UNL     1     -35.023  16.099  -1.968  1.00 20.00     0.010 C 
ENDBRANCH   5   7
BRANCH   2  10
HETATM   10  C5  UNL     1     -37.621  16.323  -5.813  1.00 20.00     0.004 C 
HETATM   11  C4  UNL     1     -38.494  17.083  -5.113  1.00 20.00     0.012 C 
ENDBRANCH   2  10
TORSDOF 2
ENDMDL
MODEL 9
REMARK VINA RESULT:      -4.4      1.233      3.960
REMARK  2 active torsions:
REMARK  status: ('A' for Active; 'I' for Inactive)
REMARK    1  A    between atoms: C2_2  and  C5_5 
REMARK    2  A    between atoms: C7_7  and  C10_10 
ROOT
HETATM    1  C1  UNL     1     -35.541  15.804  -3.030  1.00 20.00    -0.006 A 
HETATM    2  C2  UNL     1     -34.249  15.603  -3.307  1.00 20.00     0.005 A 
HETATM    3  C3  UNL     1     -34.203  14.369  -4.116  1.00 20.00     0.159 A 
HETATM    4  C6  UNL     1     -35.573  13.779  -4.302  1.00 20.00     0.092 A 
HETATM    5  C7  UNL     1     -36.486  14.787  -3.598  1.00 20.00     0.019 A 
HETATM    6  O11 UNL     1     -33.175  13.885  -4.566  1.00 20.00    -0.292 OA
ENDROOT
BRANCH   5   7
HETATM    7  C10 UNL     1     -37.488  15.425  -4.554  1.00 20.00    -0.015 C 
HETATM    8  C8  UNL     1     -38.896  14.895  -4.291  1.00 20.00     0.010 C 
HETATM    9  C9  UNL     1     -37.458  16.947  -4.430  1.00 20.00     0.010 C 
ENDBRANCH   5   7
BRANCH   2  10
HETATM   10  C5  UNL     1     -33.122  16.381  -2.921  1.00 20.00     0.004 C 
HETATM   11  C4  UNL     1     -33.251  17.349  -1.985  1.00 20.00     0.012 C 
ENDBRANCH   2  10
TORSDOF 2
ENDMDL
