MODEL 1
REMARK VINA RESULT:      -4.8      0.000      0.000
REMARK  4 active torsions:
REMARK  status: ('A' for Active; 'I' for Inactive)
REMARK    1  A    between atoms: C3_3  and  C4_4 
REMARK    2  A    between atoms: C4_4  and  C5_5 
REMARK    3  A    between atoms: C5_5  and  C6_6 
REMARK    4  A    between atoms: C6_6  and  C7_7 
ROOT
HETATM    1  C1  UNL     1     -32.729   8.169   1.396  1.00 20.00     0.087 C 
HETATM    2  C2  UNL     1     -32.463   7.076   2.264  1.00 20.00     0.089 C 
HETATM    3  C3  UNL     1     -33.217   5.969   2.250  1.00 20.00    -0.016 C 
HETATM    4  N8  UNL     1     -32.942   9.064   0.689  1.00 20.00    -0.192 NA
ENDROOT
BRANCH   3   5
HETATM    5  C4  UNL     1     -32.980   4.792   3.152  1.00 20.00     0.028 C 
BRANCH   5   6
HETATM    6  C5  UNL     1     -34.300   4.225   3.682  1.00 20.00     0.005 C 
BRANCH   6   7
HETATM    7  C6  UNL     1     -35.125   5.308   4.385  1.00 20.00     0.015 C 
BRANCH   7   8
HETATM    8  C7  UNL     1     -34.715   5.532   5.836  1.00 20.00     0.114 C 
HETATM    9 CL9  UNL     1     -33.717   6.991   6.032  1.00 20.00    -0.130 Cl
ENDBRANCH   7   8
ENDBRANCH   6   7
ENDBRANCH   5   6
ENDBRANCH   3   5
TORSDOF 4
ENDMDL
MODEL 2
REMARK VINA RESULT:      -4.2      1.869      2.413
REMARK  4 active torsions:
REMARK  status: ('A' for Active; 'I' for Inactive)
REMARK    1  A    between atoms: C3_3  and  C4_4 
REMARK    2  A    between atoms: C4_4  and  C5_5 
REMARK    3  A    between atoms: C5_5  and  C6_6 
REMARK    4  A    between atoms: C6_6  and  C7_7 
ROOT
HETATM    1  C1  UNL     1     -32.475   7.705   2.053  1.00 20.00     0.087 C 
HETATM    2  C2  UNL     1     -32.446   7.314   3.418  1.00 20.00     0.089 C 
HETATM    3  C3  UNL     1     -33.565   7.230   4.149  1.00 20.00    -0.016 C 
HETATM    4  N8  UNL     1     -32.494   8.023   0.937  1.00 20.00    -0.192 NA
ENDROOT
BRANCH   3   5
HETATM    5  C4  UNL     1     -33.585   6.828   5.596  1.00 20.00     0.028 C 
BRANCH   5   6
HETATM    6  C5  UNL     1     -34.628   5.737   5.855  1.00 20.00     0.005 C 
BRANCH   6   7
HETATM    7  C6  UNL     1     -35.100   5.101   4.544  1.00 20.00     0.015 C 
BRANCH   7   8
HETATM    8  C7  UNL     1     -34.208   3.957   4.074  1.00 20.00     0.114 C 
HETATM    9 CL9  UNL     1     -33.503   4.273   2.472  1.00 20.00    -0.130 Cl
ENDBRANCH   7   8
ENDBRANCH   6   7
ENDBRANCH   5   6
ENDBRANCH   3   5
TORSDOF 4
ENDMDL
MODEL 3
REMARK VINA RESULT:      -4.0     10.998     11.945
REMARK  4 active torsions:
REMARK  status: ('A' for Active; 'I' for Inactive)
REMARK    1  A    between atoms: C3_3  and  C4_4 
REMARK    2  A    between atoms: C4_4  and  C5_5 
REMARK    3  A    between atoms: C5_5  and  C6_6 
REMARK    4  A    between atoms: C6_6  and  C7_7 
ROOT
HETATM    1  C1  UNL     1     -35.231  13.701  -4.170  1.00 20.00     0.087 C 
HETATM    2  C2  UNL     1     -34.361  14.746  -3.758  1.00 20.00     0.089 C 
HETATM    3  C3  UNL     1     -34.677  15.563  -2.745  1.00 20.00    -0.016 C 
HETATM    4  N8  UNL     1     -35.938  12.846  -4.510  1.00 20.00    -0.192 NA
ENDROOT
BRANCH   3   5
HETATM    5  C4  UNL     1     -33.795  16.686  -2.277  1.00 20.00     0.028 C 
BRANCH   5   6
HETATM    6  C5  UNL     1     -34.444  17.459  -1.127  1.00 20.00     0.005 C 
BRANCH   6   7
HETATM    7  C6  UNL     1     -33.392  18.203  -0.297  1.00 20.00     0.015 C 
BRANCH   7   8
HETATM    8  C7  UNL     1     -32.026  18.264  -0.971  1.00 20.00     0.114 C 
HETATM    9 CL9  UNL     1     -30.698  18.323   0.211  1.00 20.00    -0.130 Cl
ENDBRANCH   7   8
ENDBRANCH   6   7
ENDBRANCH   5   6
ENDBRANCH   3   5
TORSDOF 4
ENDMDL
MODEL 4
REMARK VINA RESULT:      -4.0     11.583     12.080
REMARK  4 active torsions:
REMARK  status: ('A' for Active; 'I' for Inactive)
REMARK    1  A    between atoms: C3_3  and  C4_4 
REMARK    2  A    between atoms: C4_4  and  C5_5 
REMARK    3  A    between atoms: C5_5  and  C6_6 
REMARK    4  A    between atoms: C6_6  and  C7_7 
ROOT
HETATM    1  C1  UNL     1     -36.708  14.096  -4.332  1.00 20.00     0.087 C 
HETATM    2  C2  UNL     1     -35.309  14.344  -4.315  1.00 20.00     0.089 C 
HETATM    3  C3  UNL     1     -34.770  15.271  -3.512  1.00 20.00    -0.016 C 
HETATM    4  N8  UNL     1     -37.850  13.890  -4.350  1.00 20.00    -0.192 NA
ENDROOT
BRANCH   3   5
HETATM    5  C4  UNL     1     -33.300  15.574  -3.462  1.00 20.00     0.028 C 
BRANCH   5   6
HETATM    6  C5  UNL     1     -33.041  16.974  -2.899  1.00 20.00     0.005 C 
BRANCH   6   7
HETATM    7  C6  UNL     1     -33.978  17.282  -1.727  1.00 20.00     0.015 C 
BRANCH   7   8
HETATM    8  C7  UNL     1     -33.314  18.097  -0.622  1.00 20.00     0.114 C 
HETATM    9 CL9  UNL     1     -31.562  18.264  -0.875  1.00 20.00    -0.130 Cl
ENDBRANCH   7   8
ENDBRANCH   6   7
ENDBRANCH   5   6
ENDBRANCH   3   5
TORSDOF 4
ENDMDL
MODEL 5
REMARK VINA RESULT:      -3.9     10.820     11.453
REMARK  4 active torsions:
REMARK  status: ('A' for Active; 'I' for Inactive)
REMARK    1  A    between atoms: C3_3  and  C4_4 
REMARK    2  A    between atoms: C4_4  and  C5_5 
REMARK    3  A    between atoms: C5_5  and  C6_6 
REMARK    4  A    between atoms: C6_6  and  C7_7 
ROOT
HETATM    1  C1  UNL     1     -35.218  13.675  -4.178  1.00 20.00     0.087 C 
HETATM    2  C2  UNL     1     -34.251  14.648  -3.809  1.00 20.00     0.089 C 
HETATM    3  C3  UNL     1     -34.527  15.610  -2.918  1.00 20.00    -0.016 C 
HETATM    4  N8  UNL     1     -36.005  12.878  -4.482  1.00 20.00    -0.192 NA
ENDROOT
BRANCH   3   5
HETATM    5  C4  UNL     1     -33.541  16.664  -2.501  1.00 20.00     0.028 C 
BRANCH   5   6
HETATM    6  C5  UNL     1     -34.106  17.540  -1.380  1.00 20.00     0.005 C 
BRANCH   6   7
HETATM    7  C6  UNL     1     -35.284  16.852  -0.681  1.00 20.00     0.015 C 
BRANCH   7   8
HETATM    8  C7  UNL     1     -35.629  17.473   0.669  1.00 20.00     0.114 C 
HETATM    9 CL9  UNL     1     -34.175  17.878   1.610  1.00 20.00    -0.130 Cl
ENDBRANCH   7   8
ENDBRANCH   6   7
ENDBRANCH   5   6
ENDBRANCH   3   5
TORSDOF 4
ENDMDL
MODEL 6
REMARK VINA RESULT:      -3.8      1.422      1.926
REMARK  4 active torsions:
REMARK  status: ('A' for Active; 'I' for Inactive)
REMARK    1  A    between atoms: C3_3  and  C4_4 
REMARK    2  A    between atoms: C4_4  and  C5_5 
REMARK    3  A    between atoms: C5_5  and  C6_6 
REMARK    4  A    between atoms: C6_6  and  C7_7 
ROOT
HETATM    1  C1  UNL     1     -33.208   8.728   0.130  1.00 20.00     0.087 C 
HETATM    2  C2  UNL     1     -32.838   8.589   1.494  1.00 20.00     0.089 C 
HETATM    3  C3  UNL     1     -32.512   7.398   2.015  1.00 20.00    -0.016 C 
HETATM    4  N8  UNL     1     -33.511   8.848  -0.984  1.00 20.00    -0.192 NA
ENDROOT
BRANCH   3   5
HETATM    5  C4  UNL     1     -32.121   7.198   3.451  1.00 20.00     0.028 C 
BRANCH   5   6
HETATM    6  C5  UNL     1     -33.314   6.738   4.293  1.00 20.00     0.005 C 
BRANCH   6   7
HETATM    7  C6  UNL     1     -34.104   5.636   3.578  1.00 20.00     0.015 C 
BRANCH   7   8
HETATM    8  C7  UNL     1     -34.887   4.741   4.532  1.00 20.00     0.114 C 
HETATM    9 CL9  UNL     1     -34.826   5.333   6.208  1.00 20.00    -0.130 Cl
ENDBRANCH   7   8
ENDBRANCH   6   7
ENDBRANCH   5   6
ENDBRANCH   3   5
TORSDOF 4
ENDMDL
MODEL 7
REMARK VINA RESULT:      -3.8     16.455     16.860
REMARK  4 active torsions:
REMARK  status: ('A' for Active; 'I' for Inactive)
REMARK    1  A    between atoms: C3_3  and  C4_4 
REMARK    2  A    between atoms: C4_4  and  C5_5 
REMARK    3  A    between atoms: C5_5  and  C6_6 
REMARK    4  A    between atoms: C6_6  and  C7_7 
ROOT
HETATM    1  C1  UNL     1     -22.422  17.386   8.237  1.00 20.00     0.087 C 
HETATM    2  C2  UNL     1     -22.811  16.918   9.520  1.00 20.00     0.089 C 
HETATM    3  C3  UNL     1     -22.609  17.648  10.625  1.00 20.00    -0.016 C 
HETATM    4  N8  UNL     1     -22.105  17.764   7.186  1.00 20.00    -0.192 NA
ENDROOT
BRANCH   3   5
HETATM    5  C4  UNL     1     -22.996  17.195  12.003  1.00 20.00     0.028 C 
BRANCH   5   6
HETATM    6  C5  UNL     1     -24.510  17.281  12.212  1.00 20.00     0.005 C 
BRANCH   6   7
HETATM    7  C6  UNL     1     -24.996  18.733  12.146  1.00 20.00     0.015 C 
BRANCH   7   8
HETATM    8  C7  UNL     1     -26.172  18.932  11.195  1.00 20.00     0.114 C 
HETATM    9 CL9  UNL     1     -25.638  19.263   9.531  1.00 20.00    -0.130 Cl
ENDBRANCH   7   8
ENDBRANCH   6   7
ENDBRANCH   5   6
ENDBRANCH   3   5
TORSDOF 4
ENDMDL
MODEL 8
REMARK VINA RESULT:      -3.7     15.884     16.535
REMARK  4 active torsions:
REMARK  status: ('A' for Active; 'I' for Inactive)
REMARK    1  A    between atoms: C3_3  and  C4_4 
REMARK    2  A    between atoms: C4_4  and  C5_5 
REMARK    3  A    between atoms: C5_5  and  C6_6 
REMARK    4  A    between atoms: C6_6  and  C7_7 
ROOT
HETATM    1  C1  UNL     1     -24.381  18.927   7.611  1.00 20.00     0.087 C 
HETATM    2  C2  UNL     1     -23.588  18.947   8.789  1.00 20.00     0.089 C 
HETATM    3  C3  UNL     1     -23.028  17.832   9.277  1.00 20.00    -0.016 C 
HETATM    4  N8  UNL     1     -25.030  18.917   6.649  1.00 20.00    -0.192 NA
ENDROOT
BRANCH   3   5
HETATM    5  C4  UNL     1     -22.188  17.800  10.522  1.00 20.00     0.028 C 
BRANCH   5   6
HETATM    6  C5  UNL     1     -23.038  17.496  11.758  1.00 20.00     0.005 C 
BRANCH   6   7
HETATM    7  C6  UNL     1     -24.077  16.409  11.462  1.00 20.00     0.015 C 
BRANCH   7   8
HETATM    8  C7  UNL     1     -25.459  16.727  12.023  1.00 20.00     0.114 C 
HETATM    9 CL9  UNL     1     -25.754  18.478  12.121  1.00 20.00    -0.130 Cl
ENDBRANCH   7   8
ENDBRANCH   6   7
ENDBRANCH   5   6
ENDBRANCH   3   5
TORSDOF 4
ENDMDL
MODEL 9
REMARK VINA RESULT:      -3.7     11.761     12.607
REMARK  4 active torsions:
REMARK  status: ('A' for Active; 'I' for Inactive)
REMARK    1  A    between atoms: C3_3  and  C4_4 
REMARK    2  A    between atoms: C4_4  and  C5_5 
REMARK    3  A    between atoms: C5_5  and  C6_6 
REMARK    4  A    between atoms: C6_6  and  C7_7 
ROOT
HETATM    1  C1  UNL     1     -32.439  18.160  -1.554  1.00 20.00     0.087 C 
HETATM    2  C2  UNL     1     -33.623  17.386  -1.679  1.00 20.00     0.089 C 
HETATM    3  C3  UNL     1     -33.712  16.375  -2.554  1.00 20.00    -0.016 C 
HETATM    4  N8  UNL     1     -31.473  18.795  -1.448  1.00 20.00    -0.192 NA
ENDROOT
BRANCH   3   5
HETATM    5  C4  UNL     1     -34.943  15.532  -2.728  1.00 20.00     0.028 C 
BRANCH   5   6
HETATM    6  C5  UNL     1     -34.712  14.416  -3.750  1.00 20.00     0.005 C 
BRANCH   6   7
HETATM    7  C6  UNL     1     -33.517  14.733  -4.655  1.00 20.00     0.015 C 
BRANCH   7   8
HETATM    8  C7  UNL     1     -33.912  14.991  -6.106  1.00 20.00     0.114 C 
HETATM    9 CL9  UNL     1     -34.568  16.627  -6.340  1.00 20.00    -0.130 Cl
ENDBRANCH   7   8
ENDBRANCH   6   7
ENDBRANCH   5   6
ENDBRANCH   3   5
TORSDOF 4
ENDMDL
