MODEL 1
REMARK VINA RESULT:      -5.0      0.000      0.000
REMARK  1 active torsions:
REMARK  status: ('A' for Active; 'I' for Inactive)
REMARK    1  A    between atoms: C5_5  and  C9_9 
ROOT
HETATM    1  C1  UNL     1     -34.295  14.976  -5.948  1.00 20.00     0.049 C 
HETATM    2  C2  UNL     1     -33.664  15.201  -4.789  1.00 20.00    -0.018 C 
HETATM    3  C3  UNL     1     -35.679  14.444  -5.943  1.00 20.00     0.182 C 
HETATM    4  C4  UNL     1     -35.809  14.921  -3.503  1.00 20.00     0.054 C 
HETATM    5  C5  UNL     1     -34.278  15.003  -3.426  1.00 20.00     0.014 C 
HETATM    6  C6  UNL     1     -36.260  13.997  -4.622  1.00 20.00     0.244 C 
HETATM    7  O10 UNL     1     -36.298  14.330  -6.999  1.00 20.00    -0.290 OA
HETATM    8  F11 UNL     1     -37.621  14.007  -4.666  1.00 20.00    -0.241 F 
ENDROOT
BRANCH   5   9
HETATM    9  C9  UNL     1     -33.861  16.122  -2.472  1.00 20.00    -0.015 C 
HETATM   10  C7  UNL     1     -33.224  17.274  -3.244  1.00 20.00     0.010 C 
HETATM   11  C8  UNL     1     -35.061  16.611  -1.666  1.00 20.00     0.010 C 
ENDBRANCH   5   9
TORSDOF 1
ENDMDL
MODEL 2
REMARK VINA RESULT:      -4.9      1.778      2.487
REMARK  1 active torsions:
REMARK  status: ('A' for Active; 'I' for Inactive)
REMARK    1  A    between atoms: C5_5  and  C9_9 
ROOT
HETATM    1  C1  UNL     1     -37.314  15.935  -4.028  1.00 20.00     0.049 C 
HETATM    2  C2  UNL     1     -36.412  16.862  -3.684  1.00 20.00    -0.018 C 
HETATM    3  C3  UNL     1     -36.890  14.527  -4.220  1.00 20.00     0.182 C 
HETATM    4  C4  UNL     1     -34.705  15.087  -3.166  1.00 20.00     0.054 C 
HETATM    5  C5  UNL     1     -34.955  16.581  -3.414  1.00 20.00     0.014 C 
HETATM    6  C6  UNL     1     -35.409  14.227  -4.202  1.00 20.00     0.244 C 
HETATM    7  O10 UNL     1     -37.729  13.656  -4.438  1.00 20.00    -0.290 OA
HETATM    8  F11 UNL     1     -35.186  12.919  -3.898  1.00 20.00    -0.241 F 
ENDROOT
BRANCH   5   9
HETATM    9  C9  UNL     1     -34.454  17.400  -2.224  1.00 20.00    -0.015 C 
HETATM   10  C7  UNL     1     -35.116  16.928  -0.932  1.00 20.00     0.010 C 
HETATM   11  C8  UNL     1     -32.934  17.309  -2.116  1.00 20.00     0.010 C 
ENDBRANCH   5   9
TORSDOF 1
ENDMDL
MODEL 3
REMARK VINA RESULT:      -4.9      1.977      2.731
REMARK  1 active torsions:
REMARK  status: ('A' for Active; 'I' for Inactive)
REMARK    1  A    between atoms: C5_5  and  C9_9 
ROOT
HETATM    1  C1  UNL     1     -36.480  14.880  -3.783  1.00 20.00     0.049 C 
HETATM    2  C2  UNL     1     -36.141  16.112  -3.385  1.00 20.00    -0.018 C 
HETATM    3  C3  UNL     1     -35.429  13.931  -4.224  1.00 20.00     0.182 C 
HETATM    4  C4  UNL     1     -33.708  15.474  -3.299  1.00 20.00     0.054 C 
HETATM    5  C5  UNL     1     -34.725  16.624  -3.293  1.00 20.00     0.014 C 
HETATM    6  C6  UNL     1     -34.023  14.460  -4.386  1.00 20.00     0.244 C 
HETATM    7  O10 UNL     1     -35.724  12.769  -4.494  1.00 20.00    -0.290 OA
HETATM    8  F11 UNL     1     -33.115  13.448  -4.305  1.00 20.00    -0.241 F 
ENDROOT
BRANCH   5   9
HETATM    9  C9  UNL     1     -34.536  17.484  -2.044  1.00 20.00    -0.015 C 
HETATM   10  C7  UNL     1     -35.269  16.868  -0.855  1.00 20.00     0.010 C 
HETATM   11  C8  UNL     1     -33.051  17.655  -1.733  1.00 20.00     0.010 C 
ENDBRANCH   5   9
TORSDOF 1
ENDMDL
MODEL 4
REMARK VINA RESULT:      -4.8      0.806      1.349
REMARK  1 active torsions:
REMARK  status: ('A' for Active; 'I' for Inactive)
REMARK    1  A    between atoms: C5_5  and  C9_9 
ROOT
HETATM    1  C1  UNL     1     -34.157  14.838  -5.170  1.00 20.00     0.049 C 
HETATM    2  C2  UNL     1     -33.803  15.388  -4.003  1.00 20.00    -0.018 C 
HETATM    3  C3  UNL     1     -35.542  14.343  -5.364  1.00 20.00     0.182 C 
HETATM    4  C4  UNL     1     -36.208  15.518  -3.273  1.00 20.00     0.054 C 
HETATM    5  C5  UNL     1     -34.738  15.605  -2.840  1.00 20.00     0.014 C 
HETATM    6  C6  UNL     1     -36.454  14.309  -4.160  1.00 20.00     0.244 C 
HETATM    7  O10 UNL     1     -35.898  13.929  -6.465  1.00 20.00    -0.290 OA
HETATM    8  F11 UNL     1     -37.760  14.318  -4.545  1.00 20.00    -0.241 F 
ENDROOT
BRANCH   5   9
HETATM    9  C9  UNL     1     -34.470  16.952  -2.168  1.00 20.00    -0.015 C 
HETATM   10  C7  UNL     1     -35.078  16.982  -0.768  1.00 20.00     0.010 C 
HETATM   11  C8  UNL     1     -32.970  17.231  -2.110  1.00 20.00     0.010 C 
ENDBRANCH   5   9
TORSDOF 1
ENDMDL
MODEL 5
REMARK VINA RESULT:      -4.7      1.239      1.968
REMARK  1 active torsions:
REMARK  status: ('A' for Active; 'I' for Inactive)
REMARK    1  A    between atoms: C5_5  and  C9_9 
ROOT
HETATM    1  C1  UNL     1     -33.271  15.403  -4.276  1.00 20.00     0.049 C 
HETATM    2  C2  UNL     1     -33.359  15.913  -3.042  1.00 20.00    -0.018 C 
HETATM    3  C3  UNL     1     -34.465  14.793  -4.910  1.00 20.00     0.182 C 
HETATM    4  C4  UNL     1     -35.871  15.772  -3.104  1.00 20.00     0.054 C 
HETATM    5  C5  UNL     1     -34.627  15.971  -2.227  1.00 20.00     0.014 C 
HETATM    6  C6  UNL     1     -35.697  14.601  -4.057  1.00 20.00     0.244 C 
HETATM    7  O10 UNL     1     -34.415  14.413  -6.078  1.00 20.00    -0.290 OA
HETATM    8  F11 UNL     1     -36.812  14.511  -4.833  1.00 20.00    -0.241 F 
ENDROOT
BRANCH   5   9
HETATM    9  C9  UNL     1     -34.727  17.294  -1.468  1.00 20.00    -0.015 C 
HETATM   10  C7  UNL     1     -35.433  17.091  -0.129  1.00 20.00     0.010 C 
HETATM   11  C8  UNL     1     -33.341  17.898  -1.261  1.00 20.00     0.010 C 
ENDBRANCH   5   9
TORSDOF 1
ENDMDL
MODEL 6
REMARK VINA RESULT:      -4.6      1.631      2.240
REMARK  1 active torsions:
REMARK  status: ('A' for Active; 'I' for Inactive)
REMARK    1  A    between atoms: C5_5  and  C9_9 
ROOT
HETATM    1  C1  UNL     1     -36.481  14.951  -4.185  1.00 20.00     0.049 C 
HETATM    2  C2  UNL     1     -36.018  15.839  -3.297  1.00 20.00    -0.018 C 
HETATM    3  C3  UNL     1     -35.645  14.565  -5.347  1.00 20.00     0.182 C 
HETATM    4  C4  UNL     1     -33.702  15.684  -4.268  1.00 20.00     0.054 C 
HETATM    5  C5  UNL     1     -34.648  16.468  -3.349  1.00 20.00     0.014 C 
HETATM    6  C6  UNL     1     -34.370  15.338  -5.588  1.00 20.00     0.244 C 
HETATM    7  O10 UNL     1     -36.023  13.677  -6.109  1.00 20.00    -0.290 OA
HETATM    8  F11 UNL     1     -33.495  14.605  -6.332  1.00 20.00    -0.241 F 
ENDROOT
BRANCH   5   9
HETATM    9  C9  UNL     1     -34.046  16.580  -1.948  1.00 20.00    -0.015 C 
HETATM   10  C7  UNL     1     -32.917  17.608  -1.932  1.00 20.00     0.010 C 
HETATM   11  C8  UNL     1     -35.123  16.946  -0.931  1.00 20.00     0.010 C 
ENDBRANCH   5   9
TORSDOF 1
ENDMDL
MODEL 7
REMARK VINA RESULT:      -4.6      1.429      1.869
REMARK  1 active torsions:
REMARK  status: ('A' for Active; 'I' for Inactive)
REMARK    1  A    between atoms: C5_5  and  C9_9 
ROOT
HETATM    1  C1  UNL     1     -35.068  16.138  -5.662  1.00 20.00     0.049 C 
HETATM    2  C2  UNL     1     -34.397  16.893  -4.784  1.00 20.00    -0.018 C 
HETATM    3  C3  UNL     1     -35.243  14.687  -5.406  1.00 20.00     0.182 C 
HETATM    4  C4  UNL     1     -34.441  15.045  -3.077  1.00 20.00     0.054 C 
HETATM    5  C5  UNL     1     -33.824  16.390  -3.483  1.00 20.00     0.014 C 
HETATM    6  C6  UNL     1     -34.487  14.078  -4.248  1.00 20.00     0.244 C 
HETATM    7  O10 UNL     1     -35.942  14.010  -6.157  1.00 20.00    -0.290 OA
HETATM    8  F11 UNL     1     -35.087  12.928  -3.833  1.00 20.00    -0.241 F 
ENDROOT
BRANCH   5   9
HETATM    9  C9  UNL     1     -34.022  17.415  -2.367  1.00 20.00    -0.015 C 
HETATM   10  C7  UNL     1     -34.987  16.879  -1.312  1.00 20.00     0.010 C 
HETATM   11  C8  UNL     1     -32.682  17.783  -1.735  1.00 20.00     0.010 C 
ENDBRANCH   5   9
TORSDOF 1
ENDMDL
MODEL 8
REMARK VINA RESULT:      -4.6      3.414      4.866
REMARK  1 active torsions:
REMARK  status: ('A' for Active; 'I' for Inactive)
REMARK    1  A    between atoms: C5_5  and  C9_9 
ROOT
HETATM    1  C1  UNL     1     -32.690  17.594  -1.929  1.00 20.00     0.049 C 
HETATM    2  C2  UNL     1     -33.084  16.789  -2.923  1.00 20.00    -0.018 C 
HETATM    3  C3  UNL     1     -33.638  17.947  -0.845  1.00 20.00     0.182 C 
HETATM    4  C4  UNL     1     -35.169  16.163  -1.663  1.00 20.00     0.054 C 
HETATM    5  C5  UNL     1     -34.443  16.142  -3.014  1.00 20.00     0.014 C 
HETATM    6  C6  UNL     1     -35.081  17.530  -1.006  1.00 20.00     0.244 C 
HETATM    7  O10 UNL     1     -33.253  18.604   0.120  1.00 20.00    -0.290 OA
HETATM    8  F11 UNL     1     -35.702  17.467   0.204  1.00 20.00    -0.241 F 
ENDROOT
BRANCH   5   9
HETATM    9  C9  UNL     1     -34.330  14.706  -3.526  1.00 20.00    -0.015 C 
HETATM   10  C7  UNL     1     -35.624  14.281  -4.215  1.00 20.00     0.010 C 
HETATM   11  C8  UNL     1     -33.143  14.568  -4.475  1.00 20.00     0.010 C 
ENDBRANCH   5   9
TORSDOF 1
ENDMDL
MODEL 9
REMARK VINA RESULT:      -4.5     12.029     12.669
REMARK  1 active torsions:
REMARK  status: ('A' for Active; 'I' for Inactive)
REMARK    1  A    between atoms: C5_5  and  C9_9 
ROOT
HETATM    1  C1  UNL     1     -34.084   6.716   5.381  1.00 20.00     0.049 C 
HETATM    2  C2  UNL     1     -33.720   7.348   4.259  1.00 20.00    -0.018 C 
HETATM    3  C3  UNL     1     -34.445   5.279   5.335  1.00 20.00     0.182 C 
HETATM    4  C4  UNL     1     -33.509   5.162   3.031  1.00 20.00     0.054 C 
HETATM    5  C5  UNL     1     -33.589   6.689   2.908  1.00 20.00     0.014 C 
HETATM    6  C6  UNL     1     -34.568   4.625   3.979  1.00 20.00     0.244 C 
HETATM    7  O10 UNL     1     -34.683   4.671   6.376  1.00 20.00    -0.290 OA
HETATM    8  F11 UNL     1     -34.412   3.275   4.078  1.00 20.00    -0.241 F 
ENDROOT
BRANCH   5   9
HETATM    9  C9  UNL     1     -32.366   7.219   2.160  1.00 20.00    -0.015 C 
HETATM   10  C7  UNL     1     -32.777   8.295   1.157  1.00 20.00     0.010 C 
HETATM   11  C8  UNL     1     -31.333   7.764   3.142  1.00 20.00     0.010 C 
ENDBRANCH   5   9
TORSDOF 1
ENDMDL
