MODEL 1
REMARK VINA RESULT:      -4.2      0.000      0.000
REMARK  1 active torsions:
REMARK  status: ('A' for Active; 'I' for Inactive)
REMARK    1  A    between atoms: C6_6  and  C8_8 
ROOT
HETATM    1  C1  UNL     1     -22.648  16.964   9.768  1.00 20.00     0.061 C 
HETATM    2  C2  UNL     1     -25.210  18.821   9.529  1.00 20.00     0.066 C 
HETATM    3  C3  UNL     1     -23.928  16.322  10.288  1.00 20.00     0.170 C 
HETATM    4  C4  UNL     1     -22.913  17.855   8.596  1.00 20.00     0.153 A 
HETATM    5  C5  UNL     1     -24.129  18.746   8.494  1.00 20.00     0.153 A 
HETATM    6  C6  UNL     1     -24.767  18.512  10.964  1.00 20.00     0.123 C 
HETATM    7  O9  UNL     1     -24.643  17.114  11.232  1.00 20.00    -0.386 OA
HETATM    8  O10 UNL     1     -22.853  19.262   8.889  1.00 20.00    -0.375 OA
ENDROOT
BRANCH   6   9
HETATM    9  C8  UNL     1     -25.800  19.039  11.959  1.00 20.00     0.027 C 
HETATM   10  C7  UNL     1     -26.795  17.989  12.331  1.00 20.00     0.007 C 
ENDBRANCH   6   9
TORSDOF 1
ENDMDL
MODEL 2
REMARK VINA RESULT:      -4.1     15.616     16.674
REMARK  1 active torsions:
REMARK  status: ('A' for Active; 'I' for Inactive)
REMARK    1  A    between atoms: C6_6  and  C8_8 
ROOT
HETATM    1  C1  UNL     1     -34.187   5.447   6.262  1.00 20.00     0.061 C 
HETATM    2  C2  UNL     1     -34.291   6.340   3.219  1.00 20.00     0.066 C 
HETATM    3  C3  UNL     1     -34.023   6.947   6.051  1.00 20.00     0.170 C 
HETATM    4  C4  UNL     1     -35.121   4.847   5.258  1.00 20.00     0.153 A 
HETATM    5  C5  UNL     1     -35.157   5.268   3.808  1.00 20.00     0.153 A 
HETATM    6  C6  UNL     1     -32.935   6.540   3.905  1.00 20.00     0.123 C 
HETATM    7  O9  UNL     1     -33.015   7.303   5.111  1.00 20.00    -0.386 OA
HETATM    8  O10 UNL     1     -34.476   4.080   4.226  1.00 20.00    -0.375 OA
ENDROOT
BRANCH   6   9
HETATM    9  C8  UNL     1     -31.988   7.309   2.985  1.00 20.00     0.027 C 
HETATM   10  C7  UNL     1     -32.637   7.654   1.685  1.00 20.00     0.007 C 
ENDBRANCH   6   9
TORSDOF 1
ENDMDL
MODEL 3
REMARK VINA RESULT:      -4.0      1.598      3.311
REMARK  1 active torsions:
REMARK  status: ('A' for Active; 'I' for Inactive)
REMARK    1  A    between atoms: C6_6  and  C8_8 
ROOT
HETATM    1  C1  UNL     1     -24.675  18.551  12.332  1.00 20.00     0.061 C 
HETATM    2  C2  UNL     1     -23.747  17.365   9.538  1.00 20.00     0.066 C 
HETATM    3  C3  UNL     1     -25.811  18.346  11.338  1.00 20.00     0.170 C 
HETATM    4  C4  UNL     1     -23.622  17.495  12.193  1.00 20.00     0.153 A 
HETATM    5  C5  UNL     1     -23.177  16.944  10.859  1.00 20.00     0.153 A 
HETATM    6  C6  UNL     1     -24.289  18.798   9.485  1.00 20.00     0.123 C 
HETATM    7  O9  UNL     1     -25.590  18.936  10.061  1.00 20.00    -0.386 OA
HETATM    8  O10 UNL     1     -22.413  17.938  11.551  1.00 20.00    -0.375 OA
ENDROOT
BRANCH   6   9
HETATM    9  C8  UNL     1     -24.424  19.256   8.033  1.00 20.00     0.027 C 
HETATM   10  C7  UNL     1     -25.754  18.890   7.459  1.00 20.00     0.007 C 
ENDBRANCH   6   9
TORSDOF 1
ENDMDL
MODEL 4
REMARK VINA RESULT:      -4.0     17.022     17.877
REMARK  1 active torsions:
REMARK  status: ('A' for Active; 'I' for Inactive)
REMARK    1  A    between atoms: C6_6  and  C8_8 
ROOT
HETATM    1  C1  UNL     1     -36.974  14.402  -4.196  1.00 20.00     0.061 C 
HETATM    2  C2  UNL     1     -34.081  15.637  -3.775  1.00 20.00     0.066 C 
HETATM    3  C3  UNL     1     -36.955  15.924  -4.127  1.00 20.00     0.170 C 
HETATM    4  C4  UNL     1     -35.743  13.863  -4.856  1.00 20.00     0.153 A 
HETATM    5  C5  UNL     1     -34.367  14.449  -4.642  1.00 20.00     0.153 A 
HETATM    6  C6  UNL     1     -35.049  15.844  -2.604  1.00 20.00     0.123 C 
HETATM    7  O9  UNL     1     -36.283  16.454  -2.988  1.00 20.00    -0.386 OA
HETATM    8  O10 UNL     1     -34.794  13.267  -3.955  1.00 20.00    -0.375 OA
ENDROOT
BRANCH   6   9
HETATM    9  C8  UNL     1     -34.427  16.776  -1.565  1.00 20.00     0.027 C 
HETATM   10  C7  UNL     1     -33.132  17.348  -2.040  1.00 20.00     0.007 C 
ENDBRANCH   6   9
TORSDOF 1
ENDMDL
MODEL 5
REMARK VINA RESULT:      -3.9     23.953     24.635
REMARK  1 active torsions:
REMARK  status: ('A' for Active; 'I' for Inactive)
REMARK    1  A    between atoms: C6_6  and  C8_8 
ROOT
HETATM    1  C1  UNL     1     -42.773   6.835   0.985  1.00 20.00     0.061 C 
HETATM    2  C2  UNL     1     -41.399   5.074  -1.270  1.00 20.00     0.066 C 
HETATM    3  C3  UNL     1     -42.902   5.333   1.207  1.00 20.00     0.170 C 
HETATM    4  C4  UNL     1     -41.467   7.188   0.344  1.00 20.00     0.153 A 
HETATM    5  C5  UNL     1     -40.824   6.351  -0.738  1.00 20.00     0.153 A 
HETATM    6  C6  UNL     1     -42.927   4.964  -1.205  1.00 20.00     0.123 C 
HETATM    7  O9  UNL     1     -43.417   4.614   0.091  1.00 20.00    -0.386 OA
HETATM    8  O10 UNL     1     -41.559   7.540  -1.048  1.00 20.00    -0.375 OA
ENDROOT
BRANCH   6   9
HETATM    9  C8  UNL     1     -43.417   3.866  -2.148  1.00 20.00     0.027 C 
HETATM   10  C7  UNL     1     -42.290   3.245  -2.906  1.00 20.00     0.007 C 
ENDBRANCH   6   9
TORSDOF 1
ENDMDL
MODEL 6
REMARK VINA RESULT:      -3.9      1.175      4.021
REMARK  1 active torsions:
REMARK  status: ('A' for Active; 'I' for Inactive)
REMARK    1  A    between atoms: C6_6  and  C8_8 
ROOT
HETATM    1  C1  UNL     1     -25.434  19.263  10.345  1.00 20.00     0.061 C 
HETATM    2  C2  UNL     1     -23.585  16.690  10.524  1.00 20.00     0.066 C 
HETATM    3  C3  UNL     1     -25.079  18.660   8.991  1.00 20.00     0.170 C 
HETATM    4  C4  UNL     1     -25.588  18.209  11.396  1.00 20.00     0.153 A 
HETATM    5  C5  UNL     1     -24.696  16.992  11.483  1.00 20.00     0.153 A 
HETATM    6  C6  UNL     1     -22.930  17.913   9.873  1.00 20.00     0.123 C 
HETATM    7  O9  UNL     1     -23.686  18.452   8.786  1.00 20.00    -0.386 OA
HETATM    8  O10 UNL     1     -24.495  18.130  12.329  1.00 20.00    -0.375 OA
ENDROOT
BRANCH   6   9
HETATM    9  C8  UNL     1     -21.570  17.533   9.288  1.00 20.00     0.027 C 
HETATM   10  C7  UNL     1     -21.634  17.357   7.806  1.00 20.00     0.007 C 
ENDBRANCH   6   9
TORSDOF 1
ENDMDL
MODEL 7
REMARK VINA RESULT:      -3.8     17.701     18.588
REMARK  1 active torsions:
REMARK  status: ('A' for Active; 'I' for Inactive)
REMARK    1  A    between atoms: C6_6  and  C8_8 
ROOT
HETATM    1  C1  UNL     1     -36.515  15.645  -5.923  1.00 20.00     0.061 C 
HETATM    2  C2  UNL     1     -34.981  14.388  -3.445  1.00 20.00     0.066 C 
HETATM    3  C3  UNL     1     -35.220  16.366  -5.566  1.00 20.00     0.170 C 
HETATM    4  C4  UNL     1     -36.414  14.172  -5.676  1.00 20.00     0.153 A 
HETATM    5  C5  UNL     1     -35.692  13.581  -4.489  1.00 20.00     0.153 A 
HETATM    6  C6  UNL     1     -35.537  15.798  -3.214  1.00 20.00     0.123 C 
HETATM    7  O9  UNL     1     -35.115  16.745  -4.197  1.00 20.00    -0.386 OA
HETATM    8  O10 UNL     1     -37.118  13.711  -4.510  1.00 20.00    -0.375 OA
ENDROOT
BRANCH   6   9
HETATM    9  C8  UNL     1     -35.049  16.342  -1.872  1.00 20.00     0.027 C 
HETATM   10  C7  UNL     1     -33.712  16.996  -1.994  1.00 20.00     0.007 C 
ENDBRANCH   6   9
TORSDOF 1
ENDMDL
MODEL 8
REMARK VINA RESULT:      -3.8     17.696     18.571
REMARK  1 active torsions:
REMARK  status: ('A' for Active; 'I' for Inactive)
REMARK    1  A    between atoms: C6_6  and  C8_8 
ROOT
HETATM    1  C1  UNL     1     -34.633  15.269  -6.553  1.00 20.00     0.061 C 
HETATM    2  C2  UNL     1     -35.678  14.284  -3.723  1.00 20.00     0.066 C 
HETATM    3  C3  UNL     1     -33.522  14.898  -5.578  1.00 20.00     0.170 C 
HETATM    4  C4  UNL     1     -35.837  14.399  -6.376  1.00 20.00     0.153 A 
HETATM    5  C5  UNL     1     -36.336  13.943  -5.025  1.00 20.00     0.153 A 
HETATM    6  C6  UNL     1     -34.912  15.612  -3.703  1.00 20.00     0.123 C 
HETATM    7  O9  UNL     1     -33.619  15.532  -4.306  1.00 20.00    -0.386 OA
HETATM    8  O10 UNL     1     -36.946  15.037  -5.719  1.00 20.00    -0.375 OA
ENDROOT
BRANCH   6   9
HETATM    9  C8  UNL     1     -34.675  16.061  -2.262  1.00 20.00     0.027 C 
HETATM   10  C7  UNL     1     -33.502  16.979  -2.155  1.00 20.00     0.007 C 
ENDBRANCH   6   9
TORSDOF 1
ENDMDL
MODEL 9
REMARK VINA RESULT:      -3.8     16.670     17.530
REMARK  1 active torsions:
REMARK  status: ('A' for Active; 'I' for Inactive)
REMARK    1  A    between atoms: C6_6  and  C8_8 
ROOT
HETATM    1  C1  UNL     1     -35.734  15.333  -5.354  1.00 20.00     0.061 C 
HETATM    2  C2  UNL     1     -33.627  15.917  -3.054  1.00 20.00     0.066 C 
HETATM    3  C3  UNL     1     -35.722  16.781  -4.878  1.00 20.00     0.170 C 
HETATM    4  C4  UNL     1     -34.365  14.728  -5.317  1.00 20.00     0.153 A 
HETATM    5  C5  UNL     1     -33.371  15.001  -4.212  1.00 20.00     0.153 A 
HETATM    6  C6  UNL     1     -35.095  16.051  -2.635  1.00 20.00     0.123 C 
HETATM    7  O9  UNL     1     -35.846  16.938  -3.468  1.00 20.00    -0.386 OA
HETATM    8  O10 UNL     1     -34.151  13.800  -4.239  1.00 20.00    -0.375 OA
ENDROOT
BRANCH   6   9
HETATM    9  C8  UNL     1     -35.189  16.625  -1.222  1.00 20.00     0.027 C 
HETATM   10  C7  UNL     1     -34.152  17.673  -0.980  1.00 20.00     0.007 C 
ENDBRANCH   6   9
TORSDOF 1
ENDMDL
