MODEL 1
REMARK VINA RESULT:      -4.8      0.000      0.000
REMARK  0 active torsions:
REMARK  status: ('A' for Active; 'I' for Inactive)
ROOT
HETATM    1  C1  UNL     1     -33.817  16.634  -2.256  1.00 20.00    -0.025 A 
HETATM    2  C2  UNL     1     -33.053  16.267  -3.300  1.00 20.00    -0.020 A 
HETATM    3  C3  UNL     1     -36.213  16.155  -3.154  1.00 20.00     0.014 C 
HETATM    4  C4  UNL     1     -36.311  15.437  -4.497  1.00 20.00     0.070 C 
HETATM    5  C5  UNL     1     -34.390  16.460  -6.994  1.00 20.00     0.197 C 
HETATM    6  C6  UNL     1     -33.908  15.035  -7.013  1.00 20.00     0.197 C 
HETATM    7  C7  UNL     1     -34.906  15.629  -2.566  1.00 20.00     0.021 A 
HETATM    8  C8  UNL     1     -34.024  15.202  -3.773  1.00 20.00     0.078 A 
HETATM    9  C9  UNL     1     -34.878  15.459  -5.020  1.00 20.00     0.171 C 
HETATM   10  O10 UNL     1     -34.574  16.735  -5.606  1.00 20.00    -0.352 OA
HETATM   11  O11 UNL     1     -34.678  14.419  -5.982  1.00 20.00    -0.352 OA
ENDROOT
TORSDOF 0
ENDMDL
MODEL 2
REMARK VINA RESULT:      -4.6      0.905      1.156
REMARK  0 active torsions:
REMARK  status: ('A' for Active; 'I' for Inactive)
ROOT
HETATM    1  C1  UNL     1     -33.559  17.847  -2.485  1.00 20.00    -0.025 A 
HETATM    2  C2  UNL     1     -33.031  17.635  -3.705  1.00 20.00    -0.020 A 
HETATM    3  C3  UNL     1     -35.278  15.900  -2.304  1.00 20.00     0.014 C 
HETATM    4  C4  UNL     1     -35.253  14.858  -3.417  1.00 20.00     0.070 C 
HETATM    5  C5  UNL     1     -35.093  15.887  -6.562  1.00 20.00     0.197 C 
HETATM    6  C6  UNL     1     -33.861  15.027  -6.627  1.00 20.00     0.197 C 
HETATM    7  C7  UNL     1     -33.829  16.378  -2.234  1.00 20.00     0.021 A 
HETATM    8  C8  UNL     1     -33.219  16.132  -3.642  1.00 20.00     0.078 A 
HETATM    9  C9  UNL     1     -34.334  15.476  -4.467  1.00 20.00     0.171 C 
HETATM   10  O10 UNL     1     -35.044  16.448  -5.250  1.00 20.00    -0.352 OA
HETATM   11  O11 UNL     1     -33.791  14.462  -5.319  1.00 20.00    -0.352 OA
ENDROOT
TORSDOF 0
ENDMDL
MODEL 3
REMARK VINA RESULT:      -4.5      1.035      1.110
REMARK  0 active torsions:
REMARK  status: ('A' for Active; 'I' for Inactive)
ROOT
HETATM    1  C1  UNL     1     -33.581  16.605  -2.321  1.00 20.00    -0.025 A 
HETATM    2  C2  UNL     1     -33.333  15.838  -3.398  1.00 20.00    -0.020 A 
HETATM    3  C3  UNL     1     -36.140  17.028  -2.546  1.00 20.00     0.014 C 
HETATM    4  C4  UNL     1     -36.869  16.255  -3.640  1.00 20.00     0.070 C 
HETATM    5  C5  UNL     1     -35.514  16.109  -6.660  1.00 20.00     0.197 C 
HETATM    6  C6  UNL     1     -35.600  14.620  -6.466  1.00 20.00     0.197 C 
HETATM    7  C7  UNL     1     -34.997  16.094  -2.155  1.00 20.00     0.021 A 
HETATM    8  C8  UNL     1     -34.712  15.207  -3.399  1.00 20.00     0.078 A 
HETATM    9  C9  UNL     1     -35.738  15.635  -4.455  1.00 20.00     0.171 C 
HETATM   10  O10 UNL     1     -35.181  16.600  -5.362  1.00 20.00    -0.352 OA
HETATM   11  O11 UNL     1     -36.208  14.495  -5.182  1.00 20.00    -0.352 OA
ENDROOT
TORSDOF 0
ENDMDL
MODEL 4
REMARK VINA RESULT:      -4.4      1.202      1.393
REMARK  0 active torsions:
REMARK  status: ('A' for Active; 'I' for Inactive)
ROOT
HETATM    1  C1  UNL     1     -34.327  15.580  -2.847  1.00 20.00    -0.025 A 
HETATM    2  C2  UNL     1     -33.599  16.163  -3.816  1.00 20.00    -0.020 A 
HETATM    3  C3  UNL     1     -36.114  14.286  -4.229  1.00 20.00     0.014 C 
HETATM    4  C4  UNL     1     -35.926  14.265  -5.743  1.00 20.00     0.070 C 
HETATM    5  C5  UNL     1     -35.177  17.093  -7.296  1.00 20.00     0.197 C 
HETATM    6  C6  UNL     1     -33.983  16.330  -7.798  1.00 20.00     0.197 C 
HETATM    7  C7  UNL     1     -34.686  14.379  -3.697  1.00 20.00     0.021 A 
HETATM    8  C8  UNL     1     -33.844  15.051  -4.817  1.00 20.00     0.078 A 
HETATM    9  C9  UNL     1     -34.816  15.284  -5.981  1.00 20.00     0.171 C 
HETATM   10  O10 UNL     1     -35.343  16.619  -5.960  1.00 20.00    -0.352 OA
HETATM   11  O11 UNL     1     -34.164  15.034  -7.230  1.00 20.00    -0.352 OA
ENDROOT
TORSDOF 0
ENDMDL
MODEL 5
REMARK VINA RESULT:      -4.2      1.893      3.489
REMARK  0 active torsions:
REMARK  status: ('A' for Active; 'I' for Inactive)
ROOT
HETATM    1  C1  UNL     1     -36.378  15.370  -3.769  1.00 20.00    -0.025 A 
HETATM    2  C2  UNL     1     -36.116  16.501  -3.088  1.00 20.00    -0.020 A 
HETATM    3  C3  UNL     1     -33.986  14.577  -4.424  1.00 20.00     0.014 C 
HETATM    4  C4  UNL     1     -32.818  15.350  -3.821  1.00 20.00     0.070 C 
HETATM    5  C5  UNL     1     -32.918  18.662  -3.846  1.00 20.00     0.197 C 
HETATM    6  C6  UNL     1     -32.743  18.532  -2.358  1.00 20.00     0.197 C 
HETATM    7  C7  UNL     1     -35.079  14.704  -3.365  1.00 20.00     0.021 A 
HETATM    8  C8  UNL     1     -34.775  16.009  -2.578  1.00 20.00     0.078 A 
HETATM    9  C9  UNL     1     -33.484  16.569  -3.187  1.00 20.00     0.171 C 
HETATM   10  O10 UNL     1     -33.766  17.565  -4.183  1.00 20.00    -0.352 OA
HETATM   11  O11 UNL     1     -32.650  17.122  -2.164  1.00 20.00    -0.352 OA
ENDROOT
TORSDOF 0
ENDMDL
MODEL 6
REMARK VINA RESULT:      -4.2      1.927      3.680
REMARK  0 active torsions:
REMARK  status: ('A' for Active; 'I' for Inactive)
ROOT
HETATM    1  C1  UNL     1     -35.873  14.080  -4.664  1.00 20.00    -0.025 A 
HETATM    2  C2  UNL     1     -36.476  14.994  -3.882  1.00 20.00    -0.020 A 
HETATM    3  C3  UNL     1     -33.371  14.773  -4.459  1.00 20.00     0.014 C 
HETATM    4  C4  UNL     1     -33.043  15.862  -3.443  1.00 20.00     0.070 C 
HETATM    5  C5  UNL     1     -34.941  18.575  -3.344  1.00 20.00     0.197 C 
HETATM    6  C6  UNL     1     -35.139  18.206  -1.900  1.00 20.00     0.197 C 
HETATM    7  C7  UNL     1     -34.593  14.083  -3.855  1.00 20.00     0.021 A 
HETATM    8  C8  UNL     1     -35.288  15.137  -2.950  1.00 20.00     0.078 A 
HETATM    9  C9  UNL     1     -34.413  16.394  -3.031  1.00 20.00     0.171 C 
HETATM   10  O10 UNL     1     -34.912  17.315  -4.014  1.00 20.00    -0.352 OA
HETATM   11  O11 UNL     1     -34.341  17.033  -1.753  1.00 20.00    -0.352 OA
ENDROOT
TORSDOF 0
ENDMDL
MODEL 7
REMARK VINA RESULT:      -4.1      2.648      4.608
REMARK  0 active torsions:
REMARK  status: ('A' for Active; 'I' for Inactive)
ROOT
HETATM    1  C1  UNL     1     -34.633  15.646  -4.179  1.00 20.00    -0.025 A 
HETATM    2  C2  UNL     1     -35.726  15.726  -3.398  1.00 20.00    -0.020 A 
HETATM    3  C3  UNL     1     -32.940  17.138  -2.881  1.00 20.00     0.014 C 
HETATM    4  C4  UNL     1     -33.377  17.635  -1.507  1.00 20.00     0.070 C 
HETATM    5  C5  UNL     1     -36.426  18.883  -1.159  1.00 20.00     0.197 C 
HETATM    6  C6  UNL     1     -36.578  17.828  -0.099  1.00 20.00     0.197 C 
HETATM    7  C7  UNL     1     -33.668  15.803  -3.023  1.00 20.00     0.021 A 
HETATM    8  C8  UNL     1     -34.929  15.894  -2.118  1.00 20.00     0.078 A 
HETATM    9  C9  UNL     1     -34.859  17.273  -1.449  1.00 20.00     0.171 C 
HETATM   10  O10 UNL     1     -35.643  18.240  -2.164  1.00 20.00    -0.352 OA
HETATM   11  O11 UNL     1     -35.303  17.189  -0.091  1.00 20.00    -0.352 OA
ENDROOT
TORSDOF 0
ENDMDL
MODEL 8
REMARK VINA RESULT:      -4.1     11.621     12.851
REMARK  0 active torsions:
REMARK  status: ('A' for Active; 'I' for Inactive)
ROOT
HETATM    1  C1  UNL     1     -42.903   9.066  -0.498  1.00 20.00    -0.025 A 
HETATM    2  C2  UNL     1     -43.363   8.171  -1.392  1.00 20.00    -0.020 A 
HETATM    3  C3  UNL     1     -41.176   7.646   0.836  1.00 20.00     0.014 C 
HETATM    4  C4  UNL     1     -40.881   6.247   0.303  1.00 20.00     0.070 C 
HETATM    5  C5  UNL     1     -43.417   4.318  -0.602  1.00 20.00     0.197 C 
HETATM    6  C6  UNL     1     -42.708   4.258  -1.927  1.00 20.00     0.197 C 
HETATM    7  C7  UNL     1     -41.528   8.437  -0.422  1.00 20.00     0.021 A 
HETATM    8  C8  UNL     1     -42.057   7.403  -1.455  1.00 20.00     0.078 A 
HETATM    9  C9  UNL     1     -41.950   6.038  -0.766  1.00 20.00     0.171 C 
HETATM   10  O10 UNL     1     -43.198   5.658  -0.163  1.00 20.00    -0.352 OA
HETATM   11  O11 UNL     1     -41.535   5.039  -1.703  1.00 20.00    -0.352 OA
ENDROOT
TORSDOF 0
ENDMDL
MODEL 9
REMARK VINA RESULT:      -4.1      1.864      3.554
REMARK  0 active torsions:
REMARK  status: ('A' for Active; 'I' for Inactive)
ROOT
HETATM    1  C1  UNL     1     -34.223  15.442  -6.529  1.00 20.00    -0.025 A 
HETATM    2  C2  UNL     1     -35.527  15.205  -6.760  1.00 20.00    -0.020 A 
HETATM    3  C3  UNL     1     -34.118  15.360  -3.929  1.00 20.00     0.014 C 
HETATM    4  C4  UNL     1     -35.386  14.915  -3.206  1.00 20.00     0.070 C 
HETATM    5  C5  UNL     1     -38.291  16.201  -4.144  1.00 20.00     0.197 C 
HETATM    6  C6  UNL     1     -38.693  14.766  -4.348  1.00 20.00     0.197 C 
HETATM    7  C7  UNL     1     -34.191  14.615  -5.261  1.00 20.00     0.021 A 
HETATM    8  C8  UNL     1     -35.698  14.340  -5.526  1.00 20.00     0.078 A 
HETATM    9  C9  UNL     1     -36.441  14.902  -4.308  1.00 20.00     0.171 C 
HETATM   10  O10 UNL     1     -36.925  16.230  -4.559  1.00 20.00    -0.352 OA
HETATM   11  O11 UNL     1     -37.529  14.043  -3.951  1.00 20.00    -0.352 OA
ENDROOT
TORSDOF 0
ENDMDL
