MODEL 1
REMARK VINA RESULT:      -4.0      0.000      0.000
REMARK  3 active torsions:
REMARK  status: ('A' for Active; 'I' for Inactive)
REMARK    1  A    between atoms: C1_1  and  C7_7 
REMARK    2  A    between atoms: C2_2  and  C8_8 
REMARK    3  A    between atoms: C7_7  and  C9_9 
ROOT
HETATM    1  C1  UNL     1     -32.539  18.443  -1.149  1.00 20.00     0.062 A 
HETATM    2  C2  UNL     1     -33.010  17.395  -2.115  1.00 20.00     0.064 A 
HETATM    3  S10 UNL     1     -32.608  18.926  -2.805  1.00 20.00    -0.157 SA
ENDROOT
BRANCH   1   4
HETATM    4  C7  UNL     1     -31.171  18.321  -0.491  1.00 20.00     0.020 C 
BRANCH   4   5
HETATM    5  C9  UNL     1     -31.232  18.244   1.045  1.00 20.00    -0.022 C 
HETATM    6  C5  UNL     1     -30.155  19.098   1.713  1.00 20.00     0.009 C 
HETATM    7  C6  UNL     1     -32.615  18.680   1.533  1.00 20.00     0.009 C 
ENDBRANCH   4   5
ENDBRANCH   1   4
BRANCH   2   8
HETATM    8  C8  UNL     1     -34.438  16.972  -2.128  1.00 20.00    -0.008 C 
HETATM    9  C3  UNL     1     -34.616  15.565  -2.729  1.00 20.00     0.011 C 
HETATM   10  C4  UNL     1     -35.057  17.000  -0.717  1.00 20.00     0.011 C 
ENDBRANCH   2   8
TORSDOF 3
ENDMDL
MODEL 2
REMARK VINA RESULT:      -3.9      0.534      1.239
REMARK  3 active torsions:
REMARK  status: ('A' for Active; 'I' for Inactive)
REMARK    1  A    between atoms: C1_1  and  C7_7 
REMARK    2  A    between atoms: C2_2  and  C8_8 
REMARK    3  A    between atoms: C7_7  and  C9_9 
ROOT
HETATM    1  C1  UNL     1     -32.759  18.300  -1.518  1.00 20.00     0.062 A 
HETATM    2  C2  UNL     1     -33.064  17.150  -2.435  1.00 20.00     0.064 A 
HETATM    3  S10 UNL     1     -32.693  18.650  -3.207  1.00 20.00    -0.157 SA
ENDROOT
BRANCH   1   4
HETATM    4  C7  UNL     1     -31.460  18.326  -0.726  1.00 20.00     0.020 C 
BRANCH   4   5
HETATM    5  C9  UNL     1     -31.597  18.979   0.661  1.00 20.00    -0.022 C 
HETATM    6  C5  UNL     1     -32.780  18.420   1.452  1.00 20.00     0.009 C 
HETATM    7  C6  UNL     1     -30.305  18.788   1.457  1.00 20.00     0.009 C 
ENDBRANCH   4   5
ENDBRANCH   1   4
BRANCH   2   8
HETATM    8  C8  UNL     1     -34.454  16.627  -2.548  1.00 20.00    -0.008 C 
HETATM    9  C3  UNL     1     -34.487  15.208  -3.147  1.00 20.00     0.011 C 
HETATM   10  C4  UNL     1     -35.176  16.618  -1.187  1.00 20.00     0.011 C 
ENDBRANCH   2   8
TORSDOF 3
ENDMDL
MODEL 3
REMARK VINA RESULT:      -3.9      1.551      4.807
REMARK  3 active torsions:
REMARK  status: ('A' for Active; 'I' for Inactive)
REMARK    1  A    between atoms: C1_1  and  C7_7 
REMARK    2  A    between atoms: C2_2  and  C8_8 
REMARK    3  A    between atoms: C7_7  and  C9_9 
ROOT
HETATM    1  C1  UNL     1     -34.195  17.984  -1.052  1.00 20.00     0.062 A 
HETATM    2  C2  UNL     1     -33.671  18.104   0.351  1.00 20.00     0.064 A 
HETATM    3  S10 UNL     1     -34.963  19.173  -0.063  1.00 20.00    -0.157 SA
ENDROOT
BRANCH   1   4
HETATM    4  C7  UNL     1     -35.003  16.762  -1.466  1.00 20.00     0.020 C 
BRANCH   4   5
HETATM    5  C9  UNL     1     -34.259  15.838  -2.447  1.00 20.00    -0.022 C 
HETATM    6  C5  UNL     1     -35.204  15.171  -3.447  1.00 20.00     0.009 C 
HETATM    7  C6  UNL     1     -33.187  16.630  -3.198  1.00 20.00     0.009 C 
ENDBRANCH   4   5
ENDBRANCH   1   4
BRANCH   2   8
HETATM    8  C8  UNL     1     -32.326  18.693   0.602  1.00 20.00    -0.008 C 
HETATM    9  C3  UNL     1     -31.769  18.286   1.980  1.00 20.00     0.011 C 
HETATM   10  C4  UNL     1     -31.313  18.297  -0.489  1.00 20.00     0.011 C 
ENDBRANCH   2   8
TORSDOF 3
ENDMDL
MODEL 4
REMARK VINA RESULT:      -3.8      1.309      1.960
REMARK  3 active torsions:
REMARK  status: ('A' for Active; 'I' for Inactive)
REMARK    1  A    between atoms: C1_1  and  C7_7 
REMARK    2  A    between atoms: C2_2  and  C8_8 
REMARK    3  A    between atoms: C7_7  and  C9_9 
ROOT
HETATM    1  C1  UNL     1     -33.223  18.368  -0.895  1.00 20.00     0.062 A 
HETATM    2  C2  UNL     1     -32.815  17.429  -1.994  1.00 20.00     0.064 A 
HETATM    3  S10 UNL     1     -32.550  19.108  -2.302  1.00 20.00    -0.157 SA
ENDROOT
BRANCH   1   4
HETATM    4  C7  UNL     1     -32.424  18.426   0.400  1.00 20.00     0.020 C 
BRANCH   4   5
HETATM    5  C9  UNL     1     -33.303  18.496   1.662  1.00 20.00    -0.022 C 
HETATM    6  C5  UNL     1     -34.702  17.925   1.428  1.00 20.00     0.009 C 
HETATM    7  C6  UNL     1     -32.624  17.747   2.811  1.00 20.00     0.009 C 
ENDBRANCH   4   5
ENDBRANCH   1   4
BRANCH   2   8
HETATM    8  C8  UNL     1     -33.849  16.722  -2.799  1.00 20.00    -0.008 C 
HETATM    9  C3  UNL     1     -33.240  15.588  -3.647  1.00 20.00     0.011 C 
HETATM   10  C4  UNL     1     -34.970  16.144  -1.914  1.00 20.00     0.011 C 
ENDBRANCH   2   8
TORSDOF 3
ENDMDL
MODEL 5
REMARK VINA RESULT:      -3.7     10.900     12.003
REMARK  3 active torsions:
REMARK  status: ('A' for Active; 'I' for Inactive)
REMARK    1  A    between atoms: C1_1  and  C7_7 
REMARK    2  A    between atoms: C2_2  and  C8_8 
REMARK    3  A    between atoms: C7_7  and  C9_9 
ROOT
HETATM    1  C1  UNL     1     -33.300   6.861   2.396  1.00 20.00     0.062 A 
HETATM    2  C2  UNL     1     -33.202   6.217   3.749  1.00 20.00     0.064 A 
HETATM    3  S10 UNL     1     -33.305   5.135   2.407  1.00 20.00    -0.157 SA
ENDROOT
BRANCH   1   4
HETATM    4  C7  UNL     1     -32.096   7.573   1.796  1.00 20.00     0.020 C 
BRANCH   4   5
HETATM    5  C9  UNL     1     -32.466   8.601   0.711  1.00 20.00    -0.022 C 
HETATM    6  C5  UNL     1     -33.323   7.991  -0.399  1.00 20.00     0.009 C 
HETATM    7  C6  UNL     1     -33.204   9.783   1.344  1.00 20.00     0.009 C 
ENDBRANCH   4   5
ENDBRANCH   1   4
BRANCH   2   8
HETATM    8  C8  UNL     1     -34.351   6.275   4.694  1.00 20.00    -0.008 C 
HETATM    9  C3  UNL     1     -34.931   4.877   4.981  1.00 20.00     0.011 C 
HETATM   10  C4  UNL     1     -33.964   6.944   6.027  1.00 20.00     0.011 C 
ENDBRANCH   2   8
TORSDOF 3
ENDMDL
MODEL 6
REMARK VINA RESULT:      -3.7      1.683      4.853
REMARK  3 active torsions:
REMARK  status: ('A' for Active; 'I' for Inactive)
REMARK    1  A    between atoms: C1_1  and  C7_7 
REMARK    2  A    between atoms: C2_2  and  C8_8 
REMARK    3  A    between atoms: C7_7  and  C9_9 
ROOT
HETATM    1  C1  UNL     1     -34.604  17.514  -1.543  1.00 20.00     0.062 A 
HETATM    2  C2  UNL     1     -34.084  17.698  -0.146  1.00 20.00     0.064 A 
HETATM    3  S10 UNL     1     -35.619  18.419  -0.479  1.00 20.00    -0.157 SA
ENDROOT
BRANCH   1   4
HETATM    4  C7  UNL     1     -35.087  16.147  -2.008  1.00 20.00     0.020 C 
BRANCH   4   5
HETATM    5  C9  UNL     1     -34.528  15.731  -3.380  1.00 20.00    -0.022 C 
HETATM    6  C5  UNL     1     -33.009  15.888  -3.461  1.00 20.00     0.009 C 
HETATM    7  C6  UNL     1     -34.915  14.283  -3.683  1.00 20.00     0.009 C 
ENDBRANCH   4   5
ENDBRANCH   1   4
BRANCH   2   8
HETATM    8  C8  UNL     1     -32.927  18.599   0.112  1.00 20.00    -0.008 C 
HETATM    9  C3  UNL     1     -32.402  18.461   1.555  1.00 20.00     0.011 C 
HETATM   10  C4  UNL     1     -31.769  18.342  -0.872  1.00 20.00     0.011 C 
ENDBRANCH   2   8
TORSDOF 3
ENDMDL
MODEL 7
REMARK VINA RESULT:      -3.6     11.844     12.819
REMARK  3 active torsions:
REMARK  status: ('A' for Active; 'I' for Inactive)
REMARK    1  A    between atoms: C1_1  and  C7_7 
REMARK    2  A    between atoms: C2_2  and  C8_8 
REMARK    3  A    between atoms: C7_7  and  C9_9 
ROOT
HETATM    1  C1  UNL     1     -33.594   5.717   3.476  1.00 20.00     0.062 A 
HETATM    2  C2  UNL     1     -33.467   6.397   2.143  1.00 20.00     0.064 A 
HETATM    3  S10 UNL     1     -33.207   4.689   2.144  1.00 20.00    -0.157 SA
ENDROOT
BRANCH   1   4
HETATM    4  C7  UNL     1     -34.959   5.562   4.132  1.00 20.00     0.020 C 
BRANCH   4   5
HETATM    5  C9  UNL     1     -34.951   5.852   5.644  1.00 20.00    -0.022 C 
HETATM    6  C5  UNL     1     -34.653   4.603   6.474  1.00 20.00     0.009 C 
HETATM    7  C6  UNL     1     -33.924   6.940   5.960  1.00 20.00     0.009 C 
ENDBRANCH   4   5
ENDBRANCH   1   4
BRANCH   2   8
HETATM    8  C8  UNL     1     -32.306   7.284   1.859  1.00 20.00    -0.008 C 
HETATM    9  C3  UNL     1     -32.696   8.473   0.959  1.00 20.00     0.011 C 
HETATM   10  C4  UNL     1     -31.664   7.820   3.154  1.00 20.00     0.011 C 
ENDBRANCH   2   8
TORSDOF 3
ENDMDL
MODEL 8
REMARK VINA RESULT:      -3.6     13.301     14.180
REMARK  3 active torsions:
REMARK  status: ('A' for Active; 'I' for Inactive)
REMARK    1  A    between atoms: C1_1  and  C7_7 
REMARK    2  A    between atoms: C2_2  and  C8_8 
REMARK    3  A    between atoms: C7_7  and  C9_9 
ROOT
HETATM    1  C1  UNL     1     -25.233  18.493  10.072  1.00 20.00     0.062 A 
HETATM    2  C2  UNL     1     -23.913  18.928   9.503  1.00 20.00     0.064 A 
HETATM    3  S10 UNL     1     -25.299  19.260   8.526  1.00 20.00    -0.157 SA
ENDROOT
BRANCH   1   4
HETATM    4  C7  UNL     1     -25.834  19.225  11.264  1.00 20.00     0.020 C 
BRANCH   4   5
HETATM    5  C9  UNL     1     -26.427  18.284  12.328  1.00 20.00    -0.022 C 
HETATM    6  C5  UNL     1     -27.934  18.092  12.159  1.00 20.00     0.009 C 
HETATM    7  C6  UNL     1     -25.723  16.926  12.273  1.00 20.00     0.009 C 
ENDBRANCH   4   5
ENDBRANCH   1   4
BRANCH   2   8
HETATM    8  C8  UNL     1     -22.936  17.917   9.014  1.00 20.00    -0.008 C 
HETATM    9  C3  UNL     1     -21.481  18.339   9.298  1.00 20.00     0.011 C 
HETATM   10  C4  UNL     1     -23.188  16.529   9.633  1.00 20.00     0.011 C 
ENDBRANCH   2   8
TORSDOF 3
ENDMDL
MODEL 9
REMARK VINA RESULT:      -3.6      1.792      5.178
REMARK  3 active torsions:
REMARK  status: ('A' for Active; 'I' for Inactive)
REMARK    1  A    between atoms: C1_1  and  C7_7 
REMARK    2  A    between atoms: C2_2  and  C8_8 
REMARK    3  A    between atoms: C7_7  and  C9_9 
ROOT
HETATM    1  C1  UNL     1     -33.231  17.076  -3.071  1.00 20.00     0.062 A 
HETATM    2  C2  UNL     1     -33.741  17.287  -1.674  1.00 20.00     0.064 A 
HETATM    3  S10 UNL     1     -34.805  17.774  -2.945  1.00 20.00    -0.157 SA
ENDROOT
BRANCH   1   4
HETATM    4  C7  UNL     1     -33.112  15.669  -3.639  1.00 20.00     0.020 C 
BRANCH   4   5
HETATM    5  C9  UNL     1     -34.341  15.229  -4.455  1.00 20.00    -0.022 C 
HETATM    6  C5  UNL     1     -34.020  15.047  -5.939  1.00 20.00     0.009 C 
HETATM    7  C6  UNL     1     -34.906  13.927  -3.884  1.00 20.00     0.009 C 
ENDBRANCH   4   5
ENDBRANCH   1   4
BRANCH   2   8
HETATM    8  C8  UNL     1     -33.148  18.346  -0.810  1.00 20.00    -0.008 C 
HETATM    9  C3  UNL     1     -33.666  18.263   0.639  1.00 20.00     0.011 C 
HETATM   10  C4  UNL     1     -31.608  18.282  -0.800  1.00 20.00     0.011 C 
ENDBRANCH   2   8
TORSDOF 3
ENDMDL
