MODEL 1
REMARK VINA RESULT:      -4.7      0.000      0.000
REMARK  0 active torsions:
REMARK  status: ('A' for Active; 'I' for Inactive)
ROOT
HETATM    1  C1  UNL     1     -24.812  19.044   9.583  1.00 20.00    -0.028 C 
HETATM    2  C2  UNL     1     -24.886  18.194  10.623  1.00 20.00     0.003 C 
HETATM    3  C3  UNL     1     -22.606  17.695  11.174  1.00 20.00     0.154 C 
HETATM    4  C4  UNL     1     -23.752  18.897   8.516  1.00 20.00     0.032 C 
HETATM    5  C5  UNL     1     -21.782  18.108   9.968  1.00 20.00     0.085 C 
HETATM    6  C6  UNL     1     -23.487  16.541   9.348  1.00 20.00     0.043 C 
HETATM    7  C7  UNL     1     -22.736  17.762   8.802  1.00 20.00    -0.002 C 
HETATM    8  C8  UNL     1     -23.908  17.058  10.731  1.00 20.00     0.115 C 
HETATM    9  O9  UNL     1     -22.264  17.895  12.332  1.00 20.00    -0.295 OA
HETATM   10 CL10 UNL     1     -24.418  15.781  11.812  1.00 20.00    -0.106 Cl
ENDROOT
TORSDOF 0
ENDMDL
MODEL 2
REMARK VINA RESULT:      -4.5     23.528     24.224
REMARK  0 active torsions:
REMARK  status: ('A' for Active; 'I' for Inactive)
ROOT
HETATM    1  C1  UNL     1     -43.403   6.114   1.438  1.00 20.00    -0.028 C 
HETATM    2  C2  UNL     1     -43.193   7.394   1.083  1.00 20.00     0.003 C 
HETATM    3  C3  UNL     1     -42.486   7.292  -1.206  1.00 20.00     0.154 C 
HETATM    4  C4  UNL     1     -42.520   4.998   0.930  1.00 20.00     0.032 C 
HETATM    5  C5  UNL     1     -42.067   5.854  -1.452  1.00 20.00     0.085 C 
HETATM    6  C6  UNL     1     -40.854   6.799   0.387  1.00 20.00     0.043 C 
HETATM    7  C7  UNL     1     -41.450   5.467  -0.089  1.00 20.00    -0.002 C 
HETATM    8  C8  UNL     1     -42.048   7.739   0.174  1.00 20.00     0.115 C 
HETATM    9  O9  UNL     1     -43.122   7.962  -2.009  1.00 20.00    -0.295 OA
HETATM   10 CL10 UNL     1     -41.600   9.430   0.207  1.00 20.00    -0.106 Cl
ENDROOT
TORSDOF 0
ENDMDL
MODEL 3
REMARK VINA RESULT:      -4.5     17.614     18.401
REMARK  0 active torsions:
REMARK  status: ('A' for Active; 'I' for Inactive)
ROOT
HETATM    1  C1  UNL     1     -34.762  16.270  -1.993  1.00 20.00    -0.028 C 
HETATM    2  C2  UNL     1     -35.784  15.810  -2.736  1.00 20.00     0.003 C 
HETATM    3  C3  UNL     1     -34.795  14.208  -4.220  1.00 20.00     0.154 C 
HETATM    4  C4  UNL     1     -33.387  16.480  -2.584  1.00 20.00     0.032 C 
HETATM    5  C5  UNL     1     -33.303  14.485  -4.204  1.00 20.00     0.085 C 
HETATM    6  C6  UNL     1     -34.534  16.447  -4.820  1.00 20.00     0.043 C 
HETATM    7  C7  UNL     1     -33.270  16.023  -4.061  1.00 20.00    -0.002 C 
HETATM    8  C8  UNL     1     -35.573  15.508  -4.192  1.00 20.00     0.115 C 
HETATM    9  O9  UNL     1     -35.278  13.083  -4.218  1.00 20.00    -0.295 OA
HETATM   10 CL10 UNL     1     -37.053  15.410  -5.119  1.00 20.00    -0.106 Cl
ENDROOT
TORSDOF 0
ENDMDL
MODEL 4
REMARK VINA RESULT:      -4.5     18.626     19.405
REMARK  0 active torsions:
REMARK  status: ('A' for Active; 'I' for Inactive)
ROOT
HETATM    1  C1  UNL     1     -35.360  16.393  -2.654  1.00 20.00    -0.028 C 
HETATM    2  C2  UNL     1     -36.350  16.441  -3.563  1.00 20.00     0.003 C 
HETATM    3  C3  UNL     1     -36.457  14.226  -4.474  1.00 20.00     0.154 C 
HETATM    4  C4  UNL     1     -34.114  15.570  -2.885  1.00 20.00     0.032 C 
HETATM    5  C5  UNL     1     -35.146  13.556  -4.106  1.00 20.00     0.085 C 
HETATM    6  C6  UNL     1     -34.761  15.590  -5.313  1.00 20.00     0.043 C 
HETATM    7  C7  UNL     1     -34.154  14.737  -4.192  1.00 20.00    -0.002 C 
HETATM    8  C8  UNL     1     -36.222  15.675  -4.849  1.00 20.00     0.115 C 
HETATM    9  O9  UNL     1     -37.544  13.664  -4.430  1.00 20.00    -0.295 OA
HETATM   10 CL10 UNL     1     -37.309  16.215  -6.108  1.00 20.00    -0.106 Cl
ENDROOT
TORSDOF 0
ENDMDL
MODEL 5
REMARK VINA RESULT:      -4.4     24.132     24.783
REMARK  0 active torsions:
REMARK  status: ('A' for Active; 'I' for Inactive)
ROOT
HETATM    1  C1  UNL     1     -43.095   6.487   1.272  1.00 20.00    -0.028 C 
HETATM    2  C2  UNL     1     -43.039   5.378   0.513  1.00 20.00     0.003 C 
HETATM    3  C3  UNL     1     -41.332   5.829  -1.109  1.00 20.00     0.154 C 
HETATM    4  C4  UNL     1     -42.911   7.863   0.676  1.00 20.00     0.032 C 
HETATM    5  C5  UNL     1     -41.126   7.333  -1.096  1.00 20.00     0.085 C 
HETATM    6  C6  UNL     1     -43.417   6.783  -1.535  1.00 20.00     0.043 C 
HETATM    7  C7  UNL     1     -42.560   7.844  -0.833  1.00 20.00    -0.002 C 
HETATM    8  C8  UNL     1     -42.803   5.497  -0.966  1.00 20.00     0.115 C 
HETATM    9  O9  UNL     1     -40.418   5.018  -1.187  1.00 20.00    -0.295 OA
HETATM   10 CL10 UNL     1     -43.247   4.068  -1.873  1.00 20.00    -0.106 Cl
ENDROOT
TORSDOF 0
ENDMDL
MODEL 6
REMARK VINA RESULT:      -4.3      2.003      3.242
REMARK  0 active torsions:
REMARK  status: ('A' for Active; 'I' for Inactive)
ROOT
HETATM    1  C1  UNL     1     -25.352  18.823   9.591  1.00 20.00    -0.028 C 
HETATM    2  C2  UNL     1     -24.245  18.165   9.979  1.00 20.00     0.003 C 
HETATM    3  C3  UNL     1     -24.972  16.730  11.756  1.00 20.00     0.154 C 
HETATM    4  C4  UNL     1     -26.400  19.263  10.586  1.00 20.00     0.032 C 
HETATM    5  C5  UNL     1     -26.314  17.273  12.213  1.00 20.00     0.085 C 
HETATM    6  C6  UNL     1     -24.618  18.963  12.332  1.00 20.00     0.043 C 
HETATM    7  C7  UNL     1     -26.114  18.795  12.036  1.00 20.00    -0.002 C 
HETATM    8  C8  UNL     1     -24.025  17.867  11.435  1.00 20.00     0.115 C 
HETATM    9  O9  UNL     1     -24.728  15.537  11.636  1.00 20.00    -0.295 OA
HETATM   10 CL10 UNL     1     -22.367  17.478  11.837  1.00 20.00    -0.106 Cl
ENDROOT
TORSDOF 0
ENDMDL
MODEL 7
REMARK VINA RESULT:      -4.3     18.632     19.464
REMARK  0 active torsions:
REMARK  status: ('A' for Active; 'I' for Inactive)
ROOT
HETATM    1  C1  UNL     1     -34.688  16.923  -4.012  1.00 20.00    -0.028 C 
HETATM    2  C2  UNL     1     -34.580  16.678  -5.330  1.00 20.00     0.003 C 
HETATM    3  C3  UNL     1     -35.618  14.540  -5.646  1.00 20.00     0.154 C 
HETATM    4  C4  UNL     1     -34.557  15.818  -2.989  1.00 20.00     0.032 C 
HETATM    5  C5  UNL     1     -35.697  13.903  -4.271  1.00 20.00     0.085 C 
HETATM    6  C6  UNL     1     -33.440  14.499  -4.813  1.00 20.00     0.043 C 
HETATM    7  C7  UNL     1     -34.393  14.409  -3.614  1.00 20.00    -0.002 C 
HETATM    8  C8  UNL     1     -34.307  15.281  -5.810  1.00 20.00     0.115 C 
HETATM    9  O9  UNL     1     -36.517  14.482  -6.475  1.00 20.00    -0.295 OA
HETATM   10 CL10 UNL     1     -33.704  15.199  -7.451  1.00 20.00    -0.106 Cl
ENDROOT
TORSDOF 0
ENDMDL
MODEL 8
REMARK VINA RESULT:      -4.3      2.114      3.035
REMARK  0 active torsions:
REMARK  status: ('A' for Active; 'I' for Inactive)
ROOT
HETATM    1  C1  UNL     1     -25.443  18.981  10.322  1.00 20.00    -0.028 C 
HETATM    2  C2  UNL     1     -24.259  18.866   9.694  1.00 20.00     0.003 C 
HETATM    3  C3  UNL     1     -23.566  16.606  10.098  1.00 20.00     0.154 C 
HETATM    4  C4  UNL     1     -25.709  18.294  11.641  1.00 20.00     0.032 C 
HETATM    5  C5  UNL     1     -24.404  16.111  11.263  1.00 20.00     0.085 C 
HETATM    6  C6  UNL     1     -23.212  18.107  11.848  1.00 20.00     0.043 C 
HETATM    7  C7  UNL     1     -24.542  17.391  12.117  1.00 20.00    -0.002 C 
HETATM    8  C8  UNL     1     -23.161  18.050  10.315  1.00 20.00     0.115 C 
HETATM    9  O9  UNL     1     -23.301  15.927   9.114  1.00 20.00    -0.295 OA
HETATM   10 CL10 UNL     1     -21.571  18.392   9.671  1.00 20.00    -0.106 Cl
ENDROOT
TORSDOF 0
ENDMDL
MODEL 9
REMARK VINA RESULT:      -4.3     19.240     20.087
REMARK  0 active torsions:
REMARK  status: ('A' for Active; 'I' for Inactive)
ROOT
HETATM    1  C1  UNL     1     -36.001  15.619  -6.965  1.00 20.00    -0.028 C 
HETATM    2  C2  UNL     1     -34.987  14.944  -6.394  1.00 20.00     0.003 C 
HETATM    3  C3  UNL     1     -35.982  13.781  -4.548  1.00 20.00     0.154 C 
HETATM    4  C4  UNL     1     -37.101  16.240  -6.137  1.00 20.00     0.032 C 
HETATM    5  C5  UNL     1     -37.317  14.459  -4.295  1.00 20.00     0.085 C 
HETATM    6  C6  UNL     1     -35.518  16.040  -4.196  1.00 20.00     0.043 C 
HETATM    7  C7  UNL     1     -36.988  15.933  -4.622  1.00 20.00    -0.002 C 
HETATM    8  C8  UNL     1     -34.926  14.810  -4.898  1.00 20.00     0.115 C 
HETATM    9  O9  UNL     1     -35.816  12.570  -4.507  1.00 20.00    -0.295 OA
HETATM   10 CL10 UNL     1     -33.348  14.368  -4.288  1.00 20.00    -0.106 Cl
ENDROOT
TORSDOF 0
ENDMDL
