MODEL 1
REMARK VINA RESULT:      -4.0      0.000      0.000
REMARK  1 active torsions:
REMARK  status: ('A' for Active; 'I' for Inactive)
REMARK    1  A    between atoms: C3_3  and  C9_9 
ROOT
HETATM    1  C1  UNL     1     -34.261  16.564  -4.462  1.00 20.00     0.069 C 
HETATM    2  C2  UNL     1     -34.150  15.122  -4.936  1.00 20.00     0.069 C 
HETATM    3  C3  UNL     1     -35.198  16.449  -3.268  1.00 20.00     0.076 C 
HETATM    4  C4  UNL     1     -34.283  15.018  -6.456  1.00 20.00     0.042 C 
HETATM    5  C5  UNL     1     -32.862  14.434  -4.480  1.00 20.00     0.042 C 
HETATM    6  C6  UNL     1     -36.273  17.537  -3.291  1.00 20.00     0.043 C 
HETATM    7  N10 UNL     1     -35.302  14.439  -4.320  1.00 20.00    -0.187 NA
HETATM    8  N11 UNL     1     -35.856  15.141  -3.438  1.00 20.00    -0.186 NA
ENDROOT
BRANCH   3   9
HETATM    9  C9  UNL     1     -34.469  16.469  -1.924  1.00 20.00     0.009 C 
HETATM   10  C7  UNL     1     -33.204  17.316  -2.015  1.00 20.00     0.012 C 
HETATM   11  C8  UNL     1     -35.389  16.991  -0.824  1.00 20.00     0.012 C 
ENDBRANCH   3   9
TORSDOF 1
ENDMDL
MODEL 2
REMARK VINA RESULT:      -4.0      1.978      3.495
REMARK  1 active torsions:
REMARK  status: ('A' for Active; 'I' for Inactive)
REMARK    1  A    between atoms: C3_3  and  C9_9 
ROOT
HETATM    1  C1  UNL     1     -34.534  15.707  -5.299  1.00 20.00     0.069 C 
HETATM    2  C2  UNL     1     -34.017  14.915  -4.106  1.00 20.00     0.069 C 
HETATM    3  C3  UNL     1     -35.841  14.996  -5.626  1.00 20.00     0.076 C 
HETATM    4  C4  UNL     1     -32.527  14.600  -4.244  1.00 20.00     0.042 C 
HETATM    5  C5  UNL     1     -34.280  15.602  -2.765  1.00 20.00     0.042 C 
HETATM    6  C6  UNL     1     -35.987  14.754  -7.129  1.00 20.00     0.043 C 
HETATM    7  N10 UNL     1     -34.766  13.646  -4.150  1.00 20.00    -0.187 NA
HETATM    8  N11 UNL     1     -35.731  13.689  -4.953  1.00 20.00    -0.186 NA
ENDROOT
BRANCH   3   9
HETATM    9  C9  UNL     1     -37.075  15.727  -5.095  1.00 20.00     0.009 C 
HETATM   10  C7  UNL     1     -37.798  16.448  -6.229  1.00 20.00     0.012 C 
HETATM   11  C8  UNL     1     -38.014  14.750  -4.393  1.00 20.00     0.012 C 
ENDBRANCH   3   9
TORSDOF 1
ENDMDL
MODEL 3
REMARK VINA RESULT:      -4.0      1.350      3.769
REMARK  1 active torsions:
REMARK  status: ('A' for Active; 'I' for Inactive)
REMARK    1  A    between atoms: C3_3  and  C9_9 
ROOT
HETATM    1  C1  UNL     1     -34.813  15.485  -2.539  1.00 20.00     0.069 C 
HETATM    2  C2  UNL     1     -34.632  16.913  -2.044  1.00 20.00     0.069 C 
HETATM    3  C3  UNL     1     -35.267  15.689  -3.978  1.00 20.00     0.076 C 
HETATM    4  C4  UNL     1     -35.245  17.109  -0.656  1.00 20.00     0.042 C 
HETATM    5  C5  UNL     1     -33.173  17.369  -2.035  1.00 20.00     0.042 C 
HETATM    6  C6  UNL     1     -36.451  14.786  -4.327  1.00 20.00     0.043 C 
HETATM    7  N10 UNL     1     -35.386  17.738  -3.006  1.00 20.00    -0.187 NA
HETATM    8  N11 UNL     1     -35.721  17.091  -4.029  1.00 20.00    -0.186 NA
ENDROOT
BRANCH   3   9
HETATM    9  C9  UNL     1     -34.146  15.492  -4.999  1.00 20.00     0.009 C 
HETATM   10  C7  UNL     1     -33.102  14.517  -4.464  1.00 20.00     0.012 C 
HETATM   11  C8  UNL     1     -34.713  14.999  -6.328  1.00 20.00     0.012 C 
ENDBRANCH   3   9
TORSDOF 1
ENDMDL
MODEL 4
REMARK VINA RESULT:      -4.0      1.683      3.668
REMARK  1 active torsions:
REMARK  status: ('A' for Active; 'I' for Inactive)
REMARK    1  A    between atoms: C3_3  and  C9_9 
ROOT
HETATM    1  C1  UNL     1     -34.624  16.571  -4.823  1.00 20.00     0.069 C 
HETATM    2  C2  UNL     1     -33.966  16.096  -3.535  1.00 20.00     0.069 C 
HETATM    3  C3  UNL     1     -34.689  15.295  -5.652  1.00 20.00     0.076 C 
HETATM    4  C4  UNL     1     -32.869  17.057  -3.077  1.00 20.00     0.042 C 
HETATM    5  C5  UNL     1     -34.962  15.864  -2.398  1.00 20.00     0.042 C 
HETATM    6  C6  UNL     1     -34.241  15.539  -7.094  1.00 20.00     0.043 C 
HETATM    7  N10 UNL     1     -33.339  14.810  -3.893  1.00 20.00    -0.187 NA
HETATM    8  N11 UNL     1     -33.721  14.387  -5.011  1.00 20.00    -0.186 NA
ENDROOT
BRANCH   3   9
HETATM    9  C9  UNL     1     -36.070  14.639  -5.642  1.00 20.00     0.009 C 
HETATM   10  C7  UNL     1     -36.102  13.476  -4.655  1.00 20.00     0.012 C 
HETATM   11  C8  UNL     1     -37.148  15.665  -5.302  1.00 20.00     0.012 C 
ENDBRANCH   3   9
TORSDOF 1
ENDMDL
MODEL 5
REMARK VINA RESULT:      -3.9      1.607      2.202
REMARK  1 active torsions:
REMARK  status: ('A' for Active; 'I' for Inactive)
REMARK    1  A    between atoms: C3_3  and  C9_9 
ROOT
HETATM    1  C1  UNL     1     -35.326  16.211  -4.776  1.00 20.00     0.069 C 
HETATM    2  C2  UNL     1     -34.778  15.352  -5.908  1.00 20.00     0.069 C 
HETATM    3  C3  UNL     1     -34.255  16.068  -3.703  1.00 20.00     0.076 C 
HETATM    4  C4  UNL     1     -35.861  14.457  -6.510  1.00 20.00     0.042 C 
HETATM    5  C5  UNL     1     -34.105  16.168  -7.013  1.00 20.00     0.042 C 
HETATM    6  C6  UNL     1     -34.871  15.813  -2.326  1.00 20.00     0.043 C 
HETATM    7  N10 UNL     1     -33.767  14.493  -5.264  1.00 20.00    -0.187 NA
HETATM    8  N11 UNL     1     -33.491  14.871  -4.099  1.00 20.00    -0.186 NA
ENDROOT
BRANCH   3   9
HETATM    9  C9  UNL     1     -33.306  17.264  -3.634  1.00 20.00     0.009 C 
HETATM   10  C7  UNL     1     -33.998  18.525  -4.144  1.00 20.00     0.012 C 
HETATM   11  C8  UNL     1     -32.802  17.466  -2.207  1.00 20.00     0.012 C 
ENDBRANCH   3   9
TORSDOF 1
ENDMDL
MODEL 6
REMARK VINA RESULT:      -3.9      2.875      4.692
REMARK  1 active torsions:
REMARK  status: ('A' for Active; 'I' for Inactive)
REMARK    1  A    between atoms: C3_3  and  C9_9 
ROOT
HETATM    1  C1  UNL     1     -37.817  16.274  -4.029  1.00 20.00     0.069 C 
HETATM    2  C2  UNL     1     -39.150  15.592  -4.305  1.00 20.00     0.069 C 
HETATM    3  C3  UNL     1     -36.809  15.211  -4.442  1.00 20.00     0.076 C 
HETATM    4  C4  UNL     1     -40.132  15.789  -3.150  1.00 20.00     0.042 C 
HETATM    5  C5  UNL     1     -39.796  16.038  -5.617  1.00 20.00     0.042 C 
HETATM    6  C6  UNL     1     -35.690  15.066  -3.410  1.00 20.00     0.043 C 
HETATM    7  N10 UNL     1     -38.820  14.158  -4.396  1.00 20.00    -0.187 NA
HETATM    8  N11 UNL     1     -37.583  13.957  -4.469  1.00 20.00    -0.186 NA
ENDROOT
BRANCH   3   9
HETATM    9  C9  UNL     1     -36.208  15.455  -5.827  1.00 20.00     0.009 C 
HETATM   10  C7  UNL     1     -36.172  16.948  -6.139  1.00 20.00     0.012 C 
HETATM   11  C8  UNL     1     -34.809  14.852  -5.917  1.00 20.00     0.012 C 
ENDBRANCH   3   9
TORSDOF 1
ENDMDL
MODEL 7
REMARK VINA RESULT:      -3.8      1.990      2.958
REMARK  1 active torsions:
REMARK  status: ('A' for Active; 'I' for Inactive)
REMARK    1  A    between atoms: C3_3  and  C9_9 
ROOT
HETATM    1  C1  UNL     1     -36.083  16.094  -4.858  1.00 20.00     0.069 C 
HETATM    2  C2  UNL     1     -35.371  16.772  -6.020  1.00 20.00     0.069 C 
HETATM    3  C3  UNL     1     -35.377  14.748  -4.776  1.00 20.00     0.076 C 
HETATM    4  C4  UNL     1     -36.362  17.440  -6.975  1.00 20.00     0.042 C 
HETATM    5  C5  UNL     1     -34.316  17.785  -5.574  1.00 20.00     0.042 C 
HETATM    6  C6  UNL     1     -36.373  13.599  -4.613  1.00 20.00     0.043 C 
HETATM    7  N10 UNL     1     -34.704  15.670  -6.739  1.00 20.00    -0.187 NA
HETATM    8  N11 UNL     1     -34.706  14.601  -6.081  1.00 20.00    -0.186 NA
ENDROOT
BRANCH   3   9
HETATM    9  C9  UNL     1     -34.326  14.684  -3.667  1.00 20.00     0.009 C 
HETATM   10  C7  UNL     1     -32.921  14.752  -4.257  1.00 20.00     0.012 C 
HETATM   11  C8  UNL     1     -34.542  15.811  -2.660  1.00 20.00     0.012 C 
ENDBRANCH   3   9
TORSDOF 1
ENDMDL
MODEL 8
REMARK VINA RESULT:      -3.8      1.105      3.904
REMARK  1 active torsions:
REMARK  status: ('A' for Active; 'I' for Inactive)
REMARK    1  A    between atoms: C3_3  and  C9_9 
ROOT
HETATM    1  C1  UNL     1     -33.468  16.743  -3.748  1.00 20.00     0.069 C 
HETATM    2  C2  UNL     1     -34.414  17.117  -2.616  1.00 20.00     0.069 C 
HETATM    3  C3  UNL     1     -34.016  15.399  -4.207  1.00 20.00     0.076 C 
HETATM    4  C4  UNL     1     -33.653  17.638  -1.396  1.00 20.00     0.042 C 
HETATM    5  C5  UNL     1     -35.483  18.128  -3.032  1.00 20.00     0.042 C 
HETATM    6  C6  UNL     1     -32.897  14.377  -4.416  1.00 20.00     0.043 C 
HETATM    7  N10 UNL     1     -35.071  15.849  -2.248  1.00 20.00    -0.187 NA
HETATM    8  N11 UNL     1     -34.861  14.941  -3.089  1.00 20.00    -0.186 NA
ENDROOT
BRANCH   3   9
HETATM    9  C9  UNL     1     -34.872  15.495  -5.471  1.00 20.00     0.009 C 
HETATM   10  C7  UNL     1     -34.041  15.162  -6.706  1.00 20.00     0.012 C 
HETATM   11  C8  UNL     1     -36.082  14.570  -5.370  1.00 20.00     0.012 C 
ENDBRANCH   3   9
TORSDOF 1
ENDMDL
MODEL 9
REMARK VINA RESULT:      -3.7      1.808      3.332
REMARK  1 active torsions:
REMARK  status: ('A' for Active; 'I' for Inactive)
REMARK    1  A    between atoms: C3_3  and  C9_9 
ROOT
HETATM    1  C1  UNL     1     -35.215  15.581  -3.118  1.00 20.00     0.069 C 
HETATM    2  C2  UNL     1     -33.851  16.051  -3.604  1.00 20.00     0.069 C 
HETATM    3  C3  UNL     1     -36.129  15.968  -4.273  1.00 20.00     0.076 C 
HETATM    4  C4  UNL     1     -33.088  16.793  -2.506  1.00 20.00     0.042 C 
HETATM    5  C5  UNL     1     -32.987  14.920  -4.163  1.00 20.00     0.042 C 
HETATM    6  C6  UNL     1     -37.412  16.636  -3.774  1.00 20.00     0.043 C 
HETATM    7  N10 UNL     1     -34.152  17.005  -4.688  1.00 20.00    -0.187 NA
HETATM    8  N11 UNL     1     -35.356  16.960  -5.041  1.00 20.00    -0.186 NA
ENDROOT
BRANCH   3   9
HETATM    9  C9  UNL     1     -36.478  14.793  -5.187  1.00 20.00     0.009 C 
HETATM   10  C7  UNL     1     -35.746  14.917  -6.520  1.00 20.00     0.012 C 
HETATM   11  C8  UNL     1     -36.139  13.468  -4.508  1.00 20.00     0.012 C 
ENDBRANCH   3   9
TORSDOF 1
ENDMDL
