MODEL 1
REMARK VINA RESULT:      -3.7      0.000      0.000
REMARK  1 active torsions:
REMARK  status: ('A' for Active; 'I' for Inactive)
REMARK    1  A    between atoms: C2_2  and  C4_4 
ROOT
HETATM    1  C1  UNL     1     -32.827   7.750   2.345  1.00 20.00     0.171 A 
HETATM    2  C2  UNL     1     -33.097   6.493   3.144  1.00 20.00     0.175 A 
HETATM    3  C3  UNL     1     -32.384   7.747   0.924  1.00 20.00     0.044 C 
HETATM    4  O5  UNL     1     -31.863   7.219   3.262  1.00 20.00    -0.352 OA
HETATM    5 CL6  UNL     1     -33.054   4.923   2.348  1.00 20.00    -0.084 Cl
ENDROOT
BRANCH   2   6
HETATM    6  C4  UNL     1     -33.952   6.573   4.367  1.00 20.00     0.172 C 
HETATM    7 CL7  UNL     1     -35.146   5.248   4.406  1.00 20.00    -0.126 Cl
ENDBRANCH   2   6
TORSDOF 1
ENDMDL
MODEL 2
REMARK VINA RESULT:      -3.6      1.819      3.328
REMARK  1 active torsions:
REMARK  status: ('A' for Active; 'I' for Inactive)
REMARK    1  A    between atoms: C2_2  and  C4_4 
ROOT
HETATM    1  C1  UNL     1     -33.934   6.426   4.875  1.00 20.00     0.171 A 
HETATM    2  C2  UNL     1     -33.361   6.267   3.482  1.00 20.00     0.175 A 
HETATM    3  C3  UNL     1     -34.710   5.367   5.575  1.00 20.00     0.044 C 
HETATM    4  O5  UNL     1     -34.590   6.971   3.724  1.00 20.00    -0.352 OA
HETATM    5 CL6  UNL     1     -33.454   4.707   2.671  1.00 20.00    -0.084 Cl
ENDROOT
BRANCH   2   6
HETATM    6  C4  UNL     1     -32.243   7.156   3.045  1.00 20.00     0.172 C 
HETATM    7 CL7  UNL     1     -32.607   7.922   1.476  1.00 20.00    -0.126 Cl
ENDBRANCH   2   6
TORSDOF 1
ENDMDL
MODEL 3
REMARK VINA RESULT:      -3.3     16.553     16.932
REMARK  1 active torsions:
REMARK  status: ('A' for Active; 'I' for Inactive)
REMARK    1  A    between atoms: C2_2  and  C4_4 
ROOT
HETATM    1  C1  UNL     1     -24.815  18.137  10.901  1.00 20.00     0.171 A 
HETATM    2  C2  UNL     1     -23.322  17.892  10.840  1.00 20.00     0.175 A 
HETATM    3  C3  UNL     1     -25.600  18.146  12.165  1.00 20.00     0.044 C 
HETATM    4  O5  UNL     1     -24.276  16.857  10.553  1.00 20.00    -0.352 OA
HETATM    5 CL6  UNL     1     -22.395  17.763  12.332  1.00 20.00    -0.084 Cl
ENDROOT
BRANCH   2   6
HETATM    6  C4  UNL     1     -22.555  18.342   9.641  1.00 20.00     0.172 C 
HETATM    7 CL7  UNL     1     -22.358  17.014   8.467  1.00 20.00    -0.126 Cl
ENDBRANCH   2   6
TORSDOF 1
ENDMDL
MODEL 4
REMARK VINA RESULT:      -3.2      9.400      9.641
REMARK  1 active torsions:
REMARK  status: ('A' for Active; 'I' for Inactive)
REMARK    1  A    between atoms: C2_2  and  C4_4 
ROOT
HETATM    1  C1  UNL     1     -41.207   8.166  -0.633  1.00 20.00     0.171 A 
HETATM    2  C2  UNL     1     -41.764   6.783  -0.367  1.00 20.00     0.175 A 
HETATM    3  C3  UNL     1     -41.503   9.353   0.213  1.00 20.00     0.044 C 
HETATM    4  O5  UNL     1     -42.338   7.658  -1.350  1.00 20.00    -0.352 OA
HETATM    5 CL6  UNL     1     -42.687   6.480   1.102  1.00 20.00    -0.084 Cl
ENDROOT
BRANCH   2   6
HETATM    6  C4  UNL     1     -41.081   5.593  -0.957  1.00 20.00     0.172 C 
HETATM    7 CL7  UNL     1     -42.242   4.545  -1.814  1.00 20.00    -0.126 Cl
ENDBRANCH   2   6
TORSDOF 1
ENDMDL
MODEL 5
REMARK VINA RESULT:      -3.2     16.302     16.472
REMARK  1 active torsions:
REMARK  status: ('A' for Active; 'I' for Inactive)
REMARK    1  A    between atoms: C2_2  and  C4_4 
ROOT
HETATM    1  C1  UNL     1     -23.229  17.959  10.340  1.00 20.00     0.171 A 
HETATM    2  C2  UNL     1     -24.036  17.405  11.496  1.00 20.00     0.175 A 
HETATM    3  C3  UNL     1     -22.743  17.134   9.202  1.00 20.00     0.044 C 
HETATM    4  O5  UNL     1     -22.622  17.641  11.598  1.00 20.00    -0.352 OA
HETATM    5 CL6  UNL     1     -24.589  15.735  11.456  1.00 20.00    -0.084 Cl
ENDROOT
BRANCH   2   6
HETATM    6  C4  UNL     1     -24.854  18.336  12.330  1.00 20.00     0.172 C 
HETATM    7 CL7  UNL     1     -26.571  18.290  11.851  1.00 20.00    -0.126 Cl
ENDBRANCH   2   6
TORSDOF 1
ENDMDL
MODEL 6
REMARK VINA RESULT:      -3.2     16.442     16.731
REMARK  1 active torsions:
REMARK  status: ('A' for Active; 'I' for Inactive)
REMARK    1  A    between atoms: C2_2  and  C4_4 
ROOT
HETATM    1  C1  UNL     1     -25.178  18.640  11.324  1.00 20.00     0.171 A 
HETATM    2  C2  UNL     1     -24.244  17.499  10.981  1.00 20.00     0.175 A 
HETATM    3  C3  UNL     1     -26.510  18.455  11.962  1.00 20.00     0.044 C 
HETATM    4  O5  UNL     1     -25.085  18.117   9.994  1.00 20.00    -0.352 OA
HETATM    5 CL6  UNL     1     -24.640  15.861  11.489  1.00 20.00    -0.084 Cl
ENDROOT
BRANCH   2   6
HETATM    6  C4  UNL     1     -22.790  17.778  10.780  1.00 20.00     0.172 C 
HETATM    7 CL7  UNL     1     -21.911  17.763  12.332  1.00 20.00    -0.126 Cl
ENDBRANCH   2   6
TORSDOF 1
ENDMDL
MODEL 7
REMARK VINA RESULT:      -3.2      9.169      9.433
REMARK  1 active torsions:
REMARK  status: ('A' for Active; 'I' for Inactive)
REMARK    1  A    between atoms: C2_2  and  C4_4 
ROOT
HETATM    1  C1  UNL     1     -41.335   6.601  -0.793  1.00 20.00     0.171 A 
HETATM    2  C2  UNL     1     -42.179   7.113   0.355  1.00 20.00     0.175 A 
HETATM    3  C3  UNL     1     -41.140   5.157  -1.096  1.00 20.00     0.044 C 
HETATM    4  O5  UNL     1     -40.748   7.027   0.443  1.00 20.00    -0.352 OA
HETATM    5 CL6  UNL     1     -43.131   5.983   1.313  1.00 20.00    -0.084 Cl
ENDROOT
BRANCH   2   6
HETATM    6  C4  UNL     1     -42.688   8.517   0.320  1.00 20.00     0.172 C 
HETATM    7 CL7  UNL     1     -41.348   9.690   0.415  1.00 20.00    -0.126 Cl
ENDBRANCH   2   6
TORSDOF 1
ENDMDL
MODEL 8
REMARK VINA RESULT:      -3.1      2.886      3.201
REMARK  1 active torsions:
REMARK  status: ('A' for Active; 'I' for Inactive)
REMARK    1  A    between atoms: C2_2  and  C4_4 
ROOT
HETATM    1  C1  UNL     1     -33.523   4.807   3.667  1.00 20.00     0.171 A 
HETATM    2  C2  UNL     1     -34.774   5.062   4.481  1.00 20.00     0.175 A 
HETATM    3  C3  UNL     1     -33.452   4.963   2.189  1.00 20.00     0.044 C 
HETATM    4  O5  UNL     1     -34.369   3.736   4.104  1.00 20.00    -0.352 OA
HETATM    5 CL6  UNL     1     -36.202   5.736   3.702  1.00 20.00    -0.084 Cl
ENDROOT
BRANCH   2   6
HETATM    6  C4  UNL     1     -34.653   5.326   5.946  1.00 20.00     0.172 C 
HETATM    7 CL7  UNL     1     -34.011   6.961   6.254  1.00 20.00    -0.126 Cl
ENDBRANCH   2   6
TORSDOF 1
ENDMDL
MODEL 9
REMARK VINA RESULT:      -3.1     11.111     11.730
REMARK  1 active torsions:
REMARK  status: ('A' for Active; 'I' for Inactive)
REMARK    1  A    between atoms: C2_2  and  C4_4 
ROOT
HETATM    1  C1  UNL     1     -34.594  15.473  -6.080  1.00 20.00     0.171 A 
HETATM    2  C2  UNL     1     -34.315  14.826  -4.740  1.00 20.00     0.175 A 
HETATM    3  C3  UNL     1     -35.712  15.070  -6.976  1.00 20.00     0.044 C 
HETATM    4  O5  UNL     1     -33.578  14.475  -5.922  1.00 20.00    -0.352 OA
HETATM    5 CL6  UNL     1     -35.441  13.638  -4.091  1.00 20.00    -0.084 Cl
ENDROOT
BRANCH   2   6
HETATM    6  C4  UNL     1     -33.499  15.561  -3.728  1.00 20.00     0.172 C 
HETATM    7 CL7  UNL     1     -34.464  15.946  -2.278  1.00 20.00    -0.126 Cl
ENDBRANCH   2   6
TORSDOF 1
ENDMDL
