MODEL 1
REMARK VINA RESULT:      -4.9      0.000      0.000
REMARK  1 active torsions:
REMARK  status: ('A' for Active; 'I' for Inactive)
REMARK    1  A    between atoms: C8_8  and  C11_11 
ROOT
HETATM    1  C1  UNL     1     -34.048  16.202  -3.258  1.00 20.00    -0.079 C 
HETATM    2  C2  UNL     1     -36.348  14.169  -4.693  1.00 20.00     0.132 C 
HETATM    3  C3  UNL     1     -32.862  16.681  -2.886  1.00 20.00     0.015 C 
HETATM    4  C4  UNL     1     -35.277  15.615  -2.499  1.00 20.00     0.047 C 
HETATM    5  C5  UNL     1     -35.750  14.354  -6.090  1.00 20.00     0.080 C 
HETATM    6  C6  UNL     1     -34.436  15.168  -5.810  1.00 20.00     0.022 C 
HETATM    7  C7  UNL     1     -35.306  14.753  -3.751  1.00 20.00     0.072 C 
HETATM    8  C8  UNL     1     -34.772  16.016  -4.579  1.00 20.00    -0.004 C 
HETATM    9  O12 UNL     1     -37.427  13.651  -4.453  1.00 20.00    -0.298 OA
ENDROOT
BRANCH   8  10
HETATM   10  C11 UNL     1     -35.643  17.224  -4.951  1.00 20.00    -0.009 C 
HETATM   11  C9  UNL     1     -35.058  18.501  -4.357  1.00 20.00     0.011 C 
HETATM   12  C10 UNL     1     -35.770  17.339  -6.465  1.00 20.00     0.011 C 
ENDBRANCH   8  10
TORSDOF 1
ENDMDL
MODEL 2
REMARK VINA RESULT:      -4.8      1.218      2.823
REMARK  1 active torsions:
REMARK  status: ('A' for Active; 'I' for Inactive)
REMARK    1  A    between atoms: C8_8  and  C11_11 
ROOT
HETATM    1  C1  UNL     1     -34.471  16.491  -6.105  1.00 20.00    -0.079 C 
HETATM    2  C2  UNL     1     -36.038  13.808  -4.754  1.00 20.00     0.132 C 
HETATM    3  C3  UNL     1     -34.299  17.647  -6.742  1.00 20.00     0.015 C 
HETATM    4  C4  UNL     1     -34.057  15.014  -6.387  1.00 20.00     0.047 C 
HETATM    5  C5  UNL     1     -36.907  14.679  -3.843  1.00 20.00     0.080 C 
HETATM    6  C6  UNL     1     -36.581  16.137  -4.329  1.00 20.00     0.022 C 
HETATM    7  C7  UNL     1     -35.411  14.787  -5.735  1.00 20.00     0.072 C 
HETATM    8  C8  UNL     1     -35.127  16.060  -4.805  1.00 20.00    -0.004 C 
HETATM    9  O12 UNL     1     -35.922  12.595  -4.666  1.00 20.00    -0.298 OA
ENDROOT
BRANCH   8  10
HETATM   10  C11 UNL     1     -34.148  16.054  -3.623  1.00 20.00    -0.009 C 
HETATM   11  C9  UNL     1     -33.291  17.315  -3.638  1.00 20.00     0.011 C 
HETATM   12  C10 UNL     1     -34.909  15.930  -2.308  1.00 20.00     0.011 C 
ENDBRANCH   8  10
TORSDOF 1
ENDMDL
MODEL 3
REMARK VINA RESULT:      -4.8      1.375      2.314
REMARK  1 active torsions:
REMARK  status: ('A' for Active; 'I' for Inactive)
REMARK    1  A    between atoms: C8_8  and  C11_11 
ROOT
HETATM    1  C1  UNL     1     -34.050  14.587  -4.192  1.00 20.00    -0.079 C 
HETATM    2  C2  UNL     1     -37.410  14.617  -4.628  1.00 20.00     0.132 C 
HETATM    3  C3  UNL     1     -32.753  14.711  -4.468  1.00 20.00     0.015 C 
HETATM    4  C4  UNL     1     -34.981  13.390  -3.827  1.00 20.00     0.047 C 
HETATM    5  C5  UNL     1     -37.421  16.096  -5.022  1.00 20.00     0.080 C 
HETATM    6  C6  UNL     1     -35.893  16.450  -5.120  1.00 20.00     0.022 C 
HETATM    7  C7  UNL     1     -35.941  14.224  -4.660  1.00 20.00     0.072 C 
HETATM    8  C8  UNL     1     -35.228  15.538  -4.084  1.00 20.00    -0.004 C 
HETATM    9  O12 UNL     1     -38.400  13.951  -4.366  1.00 20.00    -0.298 OA
ENDROOT
BRANCH   8  10
HETATM   10  C11 UNL     1     -35.432  16.066  -2.657  1.00 20.00    -0.009 C 
HETATM   11  C9  UNL     1     -34.098  16.495  -2.056  1.00 20.00     0.011 C 
HETATM   12  C10 UNL     1     -36.424  17.223  -2.659  1.00 20.00     0.011 C 
ENDBRANCH   8  10
TORSDOF 1
ENDMDL
MODEL 4
REMARK VINA RESULT:      -4.5      2.590      4.108
REMARK  1 active torsions:
REMARK  status: ('A' for Active; 'I' for Inactive)
REMARK    1  A    between atoms: C8_8  and  C11_11 
ROOT
HETATM    1  C1  UNL     1     -34.504  15.022  -3.610  1.00 20.00    -0.079 C 
HETATM    2  C2  UNL     1     -33.075  17.583  -1.914  1.00 20.00     0.132 C 
HETATM    3  C3  UNL     1     -35.062  13.836  -3.845  1.00 20.00     0.015 C 
HETATM    4  C4  UNL     1     -33.170  15.706  -4.039  1.00 20.00     0.047 C 
HETATM    5  C5  UNL     1     -34.274  17.728  -0.973  1.00 20.00     0.080 C 
HETATM    6  C6  UNL     1     -35.172  16.495  -1.349  1.00 20.00     0.022 C 
HETATM    7  C7  UNL     1     -33.309  16.263  -2.631  1.00 20.00     0.072 C 
HETATM    8  C8  UNL     1     -34.897  16.268  -2.839  1.00 20.00    -0.004 C 
HETATM    9  O12 UNL     1     -32.159  18.385  -2.014  1.00 20.00    -0.298 OA
ENDROOT
BRANCH   8  10
HETATM   10  C11 UNL     1     -35.642  17.291  -3.709  1.00 20.00    -0.009 C 
HETATM   11  C9  UNL     1     -36.324  16.592  -4.880  1.00 20.00     0.011 C 
HETATM   12  C10 UNL     1     -36.656  18.060  -2.870  1.00 20.00     0.011 C 
ENDBRANCH   8  10
TORSDOF 1
ENDMDL
MODEL 5
REMARK VINA RESULT:      -4.4      1.129      1.249
REMARK  1 active torsions:
REMARK  status: ('A' for Active; 'I' for Inactive)
REMARK    1  A    between atoms: C8_8  and  C11_11 
ROOT
HETATM    1  C1  UNL     1     -33.849  16.886  -2.474  1.00 20.00    -0.079 C 
HETATM    2  C2  UNL     1     -35.986  14.612  -3.794  1.00 20.00     0.132 C 
HETATM    3  C3  UNL     1     -32.758  17.389  -1.898  1.00 20.00     0.015 C 
HETATM    4  C4  UNL     1     -35.347  16.764  -2.060  1.00 20.00     0.047 C 
HETATM    5  C5  UNL     1     -34.966  14.147  -4.837  1.00 20.00     0.080 C 
HETATM    6  C6  UNL     1     -33.656  14.905  -4.416  1.00 20.00     0.022 C 
HETATM    7  C7  UNL     1     -35.179  15.459  -2.823  1.00 20.00     0.072 C 
HETATM    8  C8  UNL     1     -34.159  16.214  -3.800  1.00 20.00    -0.004 C 
HETATM    9  O12 UNL     1     -37.172  14.323  -3.793  1.00 20.00    -0.298 OA
ENDROOT
BRANCH   8  10
HETATM   10  C11 UNL     1     -34.592  17.214  -4.881  1.00 20.00    -0.009 C 
HETATM   11  C9  UNL     1     -33.796  18.508  -4.755  1.00 20.00     0.011 C 
HETATM   12  C10 UNL     1     -34.419  16.602  -6.266  1.00 20.00     0.011 C 
ENDBRANCH   8  10
TORSDOF 1
ENDMDL
MODEL 6
REMARK VINA RESULT:      -4.4      1.299      1.622
REMARK  1 active torsions:
REMARK  status: ('A' for Active; 'I' for Inactive)
REMARK    1  A    between atoms: C8_8  and  C11_11 
ROOT
HETATM    1  C1  UNL     1     -34.933  16.766  -3.220  1.00 20.00    -0.079 C 
HETATM    2  C2  UNL     1     -36.985  14.242  -4.168  1.00 20.00     0.132 C 
HETATM    3  C3  UNL     1     -33.976  17.418  -2.562  1.00 20.00     0.015 C 
HETATM    4  C4  UNL     1     -36.484  16.899  -3.309  1.00 20.00     0.047 C 
HETATM    5  C5  UNL     1     -35.814  13.331  -4.547  1.00 20.00     0.080 C 
HETATM    6  C6  UNL     1     -34.560  14.139  -4.051  1.00 20.00     0.022 C 
HETATM    7  C7  UNL     1     -36.345  15.387  -3.399  1.00 20.00     0.072 C 
HETATM    8  C8  UNL     1     -34.974  15.606  -4.199  1.00 20.00    -0.004 C 
HETATM    9  O12 UNL     1     -38.156  14.033  -4.445  1.00 20.00    -0.298 OA
ENDROOT
BRANCH   8  10
HETATM   10  C11 UNL     1     -34.902  16.065  -5.662  1.00 20.00    -0.009 C 
HETATM   11  C9  UNL     1     -34.327  17.475  -5.746  1.00 20.00     0.011 C 
HETATM   12  C10 UNL     1     -34.067  15.088  -6.481  1.00 20.00     0.011 C 
ENDBRANCH   8  10
TORSDOF 1
ENDMDL
MODEL 7
REMARK VINA RESULT:      -4.4      1.561      2.489
REMARK  1 active torsions:
REMARK  status: ('A' for Active; 'I' for Inactive)
REMARK    1  A    between atoms: C8_8  and  C11_11 
ROOT
HETATM    1  C1  UNL     1     -35.455  16.516  -2.353  1.00 20.00    -0.079 C 
HETATM    2  C2  UNL     1     -36.636  15.313  -5.292  1.00 20.00     0.132 C 
HETATM    3  C3  UNL     1     -35.244  16.627  -1.043  1.00 20.00     0.015 C 
HETATM    4  C4  UNL     1     -36.171  17.396  -3.423  1.00 20.00     0.047 C 
HETATM    5  C5  UNL     1     -36.011  13.934  -5.065  1.00 20.00     0.080 C 
HETATM    6  C6  UNL     1     -35.466  14.028  -3.595  1.00 20.00     0.022 C 
HETATM    7  C7  UNL     1     -36.519  16.012  -3.947  1.00 20.00     0.072 C 
HETATM    8  C8  UNL     1     -35.092  15.504  -3.425  1.00 20.00    -0.004 C 
HETATM    9  O12 UNL     1     -37.113  15.704  -6.346  1.00 20.00    -0.298 OA
ENDROOT
BRANCH   8  10
HETATM   10  C11 UNL     1     -33.763  15.831  -4.120  1.00 20.00    -0.009 C 
HETATM   11  C9  UNL     1     -32.918  16.747  -3.241  1.00 20.00     0.011 C 
HETATM   12  C10 UNL     1     -33.010  14.548  -4.449  1.00 20.00     0.011 C 
ENDBRANCH   8  10
TORSDOF 1
ENDMDL
MODEL 8
REMARK VINA RESULT:      -4.4      1.344      3.147
REMARK  1 active torsions:
REMARK  status: ('A' for Active; 'I' for Inactive)
REMARK    1  A    between atoms: C8_8  and  C11_11 
ROOT
HETATM    1  C1  UNL     1     -34.899  15.711  -6.183  1.00 20.00    -0.079 C 
HETATM    2  C2  UNL     1     -37.713  14.943  -4.459  1.00 20.00     0.132 C 
HETATM    3  C3  UNL     1     -34.041  16.404  -6.930  1.00 20.00     0.015 C 
HETATM    4  C4  UNL     1     -35.701  14.388  -6.380  1.00 20.00     0.047 C 
HETATM    5  C5  UNL     1     -37.574  16.161  -3.542  1.00 20.00     0.080 C 
HETATM    6  C6  UNL     1     -36.375  16.952  -4.180  1.00 20.00     0.022 C 
HETATM    7  C7  UNL     1     -36.713  15.191  -5.577  1.00 20.00     0.072 C 
HETATM    8  C8  UNL     1     -35.489  15.863  -4.792  1.00 20.00    -0.004 C 
HETATM    9  O12 UNL     1     -38.484  14.013  -4.281  1.00 20.00    -0.298 OA
ENDROOT
BRANCH   8  10
HETATM   10  C11 UNL     1     -34.662  15.142  -3.718  1.00 20.00    -0.009 C 
HETATM   11  C9  UNL     1     -33.211  15.008  -4.168  1.00 20.00     0.011 C 
HETATM   12  C10 UNL     1     -34.753  15.888  -2.392  1.00 20.00     0.011 C 
ENDBRANCH   8  10
TORSDOF 1
ENDMDL
MODEL 9
REMARK VINA RESULT:      -4.3      1.754      3.369
REMARK  1 active torsions:
REMARK  status: ('A' for Active; 'I' for Inactive)
REMARK    1  A    between atoms: C8_8  and  C11_11 
ROOT
HETATM    1  C1  UNL     1     -37.117  14.794  -4.409  1.00 20.00    -0.079 C 
HETATM    2  C2  UNL     1     -33.774  14.834  -3.862  1.00 20.00     0.132 C 
HETATM    3  C3  UNL     1     -38.421  14.665  -4.170  1.00 20.00     0.015 C 
HETATM    4  C4  UNL     1     -36.086  14.026  -5.293  1.00 20.00     0.047 C 
HETATM    5  C5  UNL     1     -33.890  15.896  -2.765  1.00 20.00     0.080 C 
HETATM    6  C6  UNL     1     -35.443  16.039  -2.572  1.00 20.00     0.022 C 
HETATM    7  C7  UNL     1     -35.204  14.378  -4.105  1.00 20.00     0.072 C 
HETATM    8  C8  UNL     1     -36.024  15.746  -3.958  1.00 20.00    -0.004 C 
HETATM    9  O12 UNL     1     -32.730  14.471  -4.382  1.00 20.00    -0.298 OA
ENDROOT
BRANCH   8  10
HETATM   10  C11 UNL     1     -35.861  16.947  -4.901  1.00 20.00    -0.009 C 
HETATM   11  C9  UNL     1     -37.188  17.273  -5.578  1.00 20.00     0.011 C 
HETATM   12  C10 UNL     1     -35.332  18.153  -4.134  1.00 20.00     0.011 C 
ENDBRANCH   8  10
TORSDOF 1
ENDMDL
