MODEL 1
REMARK VINA RESULT:      -4.7      0.000      0.000
REMARK  2 active torsions:
REMARK  status: ('A' for Active; 'I' for Inactive)
REMARK    1  A    between atoms: C7_7  and  C10_10 
REMARK    2  A    between atoms: C9_9  and  C10_10 
ROOT
HETATM    1  C1  UNL     1     -26.647  18.591   4.412  1.00 20.00     0.012 C 
HETATM    2  C2  UNL     1     -26.334  18.750   5.560  1.00 20.00    -0.117 C 
HETATM    3  C9  UNL     1     -25.954  18.943   6.965  1.00 20.00     0.093 C 
ENDROOT
BRANCH   3   4
HETATM    4  C10 UNL     1     -24.465  19.214   7.074  1.00 20.00     0.020 C 
BRANCH   4   5
HETATM    5  C7  UNL     1     -24.015  19.184   8.524  1.00 20.00     0.023 C 
HETATM    6  C4  UNL     1     -25.197  18.899   9.472  1.00 20.00     0.008 C 
HETATM    7  C3  UNL     1     -24.541  18.256  10.690  1.00 20.00     0.004 C 
HETATM    8  C5  UNL     1     -23.487  17.332  10.080  1.00 20.00     0.041 C 
HETATM    9  C8  UNL     1     -23.043  18.074   8.853  1.00 20.00     0.086 A 
HETATM   10  C6  UNL     1     -21.990  17.526   7.917  1.00 20.00     0.207 A 
HETATM   11  O11 UNL     1     -21.672  18.511   8.905  1.00 20.00    -0.375 OA
ENDBRANCH   4   5
ENDBRANCH   3   4
TORSDOF 2
ENDMDL
MODEL 2
REMARK VINA RESULT:      -4.6     15.159     16.171
REMARK  2 active torsions:
REMARK  status: ('A' for Active; 'I' for Inactive)
REMARK    1  A    between atoms: C7_7  and  C10_10 
REMARK    2  A    between atoms: C9_9  and  C10_10 
ROOT
HETATM    1  C1  UNL     1     -32.975   8.805   0.137  1.00 20.00     0.012 C 
HETATM    2  C2  UNL     1     -32.645   8.166   1.099  1.00 20.00    -0.117 C 
HETATM    3  C9  UNL     1     -32.237   7.385   2.273  1.00 20.00     0.093 C 
ENDROOT
BRANCH   3   4
HETATM    4  C10 UNL     1     -33.163   7.669   3.440  1.00 20.00     0.020 C 
BRANCH   4   5
HETATM    5  C7  UNL     1     -33.290   6.450   4.338  1.00 20.00     0.023 C 
HETATM    6  C4  UNL     1     -34.064   6.783   5.630  1.00 20.00     0.008 C 
HETATM    7  C3  UNL     1     -34.668   5.446   6.048  1.00 20.00     0.004 C 
HETATM    8  C5  UNL     1     -35.124   4.833   4.724  1.00 20.00     0.041 C 
HETATM    9  C8  UNL     1     -34.096   5.318   3.744  1.00 20.00     0.086 A 
HETATM   10  C6  UNL     1     -34.146   4.955   2.277  1.00 20.00     0.207 A 
HETATM   11  O11 UNL     1     -33.284   4.268   3.188  1.00 20.00    -0.375 OA
ENDBRANCH   4   5
ENDBRANCH   3   4
TORSDOF 2
ENDMDL
MODEL 3
REMARK VINA RESULT:      -4.5     13.295     16.607
REMARK  2 active torsions:
REMARK  status: ('A' for Active; 'I' for Inactive)
REMARK    1  A    between atoms: C7_7  and  C10_10 
REMARK    2  A    between atoms: C9_9  and  C10_10 
ROOT
HETATM    1  C1  UNL     1     -32.737  18.207  -1.039  1.00 20.00     0.012 C 
HETATM    2  C2  UNL     1     -33.352  17.393  -1.672  1.00 20.00    -0.117 C 
HETATM    3  C9  UNL     1     -34.108  16.398  -2.444  1.00 20.00     0.093 C 
ENDROOT
BRANCH   3   4
HETATM    4  C10 UNL     1     -33.321  15.978  -3.671  1.00 20.00     0.020 C 
BRANCH   4   5
HETATM    5  C7  UNL     1     -33.966  14.777  -4.341  1.00 20.00     0.023 C 
HETATM    6  C4  UNL     1     -35.154  14.245  -3.515  1.00 20.00     0.008 C 
HETATM    7  C3  UNL     1     -36.045  13.569  -4.552  1.00 20.00     0.004 C 
HETATM    8  C5  UNL     1     -35.988  14.522  -5.746  1.00 20.00     0.041 C 
HETATM    9  C8  UNL     1     -34.593  15.073  -5.684  1.00 20.00     0.086 A 
HETATM   10  C6  UNL     1     -34.079  16.079  -6.688  1.00 20.00     0.207 A 
HETATM   11  O11 UNL     1     -33.768  14.687  -6.798  1.00 20.00    -0.375 OA
ENDBRANCH   4   5
ENDBRANCH   3   4
TORSDOF 2
ENDMDL
MODEL 4
REMARK VINA RESULT:      -4.5      2.252      4.346
REMARK  2 active torsions:
REMARK  status: ('A' for Active; 'I' for Inactive)
REMARK    1  A    between atoms: C7_7  and  C10_10 
REMARK    2  A    between atoms: C9_9  and  C10_10 
ROOT
HETATM    1  C1  UNL     1     -28.937  18.211  12.267  1.00 20.00     0.012 C 
HETATM    2  C2  UNL     1     -27.776  17.908  12.296  1.00 20.00    -0.117 C 
HETATM    3  C9  UNL     1     -26.356  17.533  12.332  1.00 20.00     0.093 C 
ENDROOT
BRANCH   3   4
HETATM    4  C10 UNL     1     -25.506  18.640  11.739  1.00 20.00     0.020 C 
BRANCH   4   5
HETATM    5  C7  UNL     1     -24.931  18.220  10.397  1.00 20.00     0.023 C 
HETATM    6  C4  UNL     1     -25.238  19.263   9.304  1.00 20.00     0.008 C 
HETATM    7  C3  UNL     1     -24.109  19.076   8.294  1.00 20.00     0.004 C 
HETATM    8  C5  UNL     1     -22.877  18.863   9.174  1.00 20.00     0.041 C 
HETATM    9  C8  UNL     1     -23.423  18.129  10.364  1.00 20.00     0.086 A 
HETATM   10  C6  UNL     1     -22.546  17.703  11.519  1.00 20.00     0.207 A 
HETATM   11  O11 UNL     1     -22.928  16.784  10.492  1.00 20.00    -0.375 OA
ENDBRANCH   4   5
ENDBRANCH   3   4
TORSDOF 2
ENDMDL
MODEL 5
REMARK VINA RESULT:      -4.5     15.092     16.304
REMARK  2 active torsions:
REMARK  status: ('A' for Active; 'I' for Inactive)
REMARK    1  A    between atoms: C7_7  and  C10_10 
REMARK    2  A    between atoms: C9_9  and  C10_10 
ROOT
HETATM    1  C1  UNL     1     -33.137   9.123   0.351  1.00 20.00     0.012 C 
HETATM    2  C2  UNL     1     -32.605   8.314   1.062  1.00 20.00    -0.117 C 
HETATM    3  C9  UNL     1     -31.951   7.326   1.929  1.00 20.00     0.093 C 
ENDROOT
BRANCH   3   4
HETATM    4  C10 UNL     1     -32.655   7.258   3.272  1.00 20.00     0.020 C 
BRANCH   4   5
HETATM    5  C7  UNL     1     -33.710   6.166   3.274  1.00 20.00     0.023 C 
HETATM    6  C4  UNL     1     -33.208   4.900   2.551  1.00 20.00     0.008 C 
HETATM    7  C3  UNL     1     -34.011   3.772   3.192  1.00 20.00     0.004 C 
HETATM    8  C5  UNL     1     -34.036   4.150   4.673  1.00 20.00     0.041 C 
HETATM    9  C8  UNL     1     -34.072   5.650   4.648  1.00 20.00     0.086 A 
HETATM   10  C6  UNL     1     -34.103   6.477   5.913  1.00 20.00     0.207 A 
HETATM   11  O11 UNL     1     -35.292   6.210   5.166  1.00 20.00    -0.375 OA
ENDBRANCH   4   5
ENDBRANCH   3   4
TORSDOF 2
ENDMDL
MODEL 6
REMARK VINA RESULT:      -4.4     13.762     17.134
REMARK  2 active torsions:
REMARK  status: ('A' for Active; 'I' for Inactive)
REMARK    1  A    between atoms: C7_7  and  C10_10 
REMARK    2  A    between atoms: C9_9  and  C10_10 
ROOT
HETATM    1  C1  UNL     1     -32.664  17.868  -1.627  1.00 20.00     0.012 C 
HETATM    2  C2  UNL     1     -33.152  17.011  -2.313  1.00 20.00    -0.117 C 
HETATM    3  C9  UNL     1     -33.745  15.962  -3.152  1.00 20.00     0.093 C 
ENDROOT
BRANCH   3   4
HETATM    4  C10 UNL     1     -35.102  15.559  -2.608  1.00 20.00     0.020 C 
BRANCH   4   5
HETATM    5  C7  UNL     1     -36.188  15.780  -3.647  1.00 20.00     0.023 C 
HETATM    6  C4  UNL     1     -35.950  17.080  -4.439  1.00 20.00     0.008 C 
HETATM    7  C3  UNL     1     -36.640  16.825  -5.776  1.00 20.00     0.004 C 
HETATM    8  C5  UNL     1     -36.286  15.370  -6.086  1.00 20.00     0.041 C 
HETATM    9  C8  UNL     1     -36.239  14.727  -4.730  1.00 20.00     0.086 A 
HETATM   10  C6  UNL     1     -35.916  13.262  -4.544  1.00 20.00     0.207 A 
HETATM   11  O11 UNL     1     -37.264  13.740  -4.521  1.00 20.00    -0.375 OA
ENDBRANCH   4   5
ENDBRANCH   3   4
TORSDOF 2
ENDMDL
MODEL 7
REMARK VINA RESULT:      -4.3     15.071     17.216
REMARK  2 active torsions:
REMARK  status: ('A' for Active; 'I' for Inactive)
REMARK    1  A    between atoms: C7_7  and  C10_10 
REMARK    2  A    between atoms: C9_9  and  C10_10 
ROOT
HETATM    1  C1  UNL     1     -37.329  16.489  -6.871  1.00 20.00     0.012 C 
HETATM    2  C2  UNL     1     -36.134  16.534  -6.757  1.00 20.00    -0.117 C 
HETATM    3  C9  UNL     1     -34.674  16.593  -6.617  1.00 20.00     0.093 C 
ENDROOT
BRANCH   3   4
HETATM    4  C10 UNL     1     -34.108  15.198  -6.424  1.00 20.00     0.020 C 
BRANCH   4   5
HETATM    5  C7  UNL     1     -33.784  14.944  -4.962  1.00 20.00     0.023 C 
HETATM    6  C4  UNL     1     -33.451  16.256  -4.225  1.00 20.00     0.008 C 
HETATM    7  C3  UNL     1     -33.813  15.960  -2.772  1.00 20.00     0.004 C 
HETATM    8  C5  UNL     1     -35.113  15.164  -2.885  1.00 20.00     0.041 C 
HETATM    9  C8  UNL     1     -34.934  14.386  -4.156  1.00 20.00     0.086 A 
HETATM   10  C6  UNL     1     -35.994  13.442  -4.679  1.00 20.00     0.207 A 
HETATM   11  O11 UNL     1     -34.856  12.962  -3.958  1.00 20.00    -0.375 OA
ENDBRANCH   4   5
ENDBRANCH   3   4
TORSDOF 2
ENDMDL
MODEL 8
REMARK VINA RESULT:      -4.3     13.904     16.154
REMARK  2 active torsions:
REMARK  status: ('A' for Active; 'I' for Inactive)
REMARK    1  A    between atoms: C7_7  and  C10_10 
REMARK    2  A    between atoms: C9_9  and  C10_10 
ROOT
HETATM    1  C1  UNL     1     -35.468  17.193   0.742  1.00 20.00     0.012 C 
HETATM    2  C2  UNL     1     -35.285  17.242  -0.443  1.00 20.00    -0.117 C 
HETATM    3  C9  UNL     1     -35.062  17.306  -1.893  1.00 20.00     0.093 C 
ENDROOT
BRANCH   3   4
HETATM    4  C10 UNL     1     -34.174  16.159  -2.339  1.00 20.00     0.020 C 
BRANCH   4   5
HETATM    5  C7  UNL     1     -34.983  15.102  -3.071  1.00 20.00     0.023 C 
HETATM    6  C4  UNL     1     -36.325  15.671  -3.572  1.00 20.00     0.008 C 
HETATM    7  C3  UNL     1     -36.667  14.795  -4.774  1.00 20.00     0.004 C 
HETATM    8  C5  UNL     1     -35.321  14.612  -5.474  1.00 20.00     0.041 C 
HETATM    9  C8  UNL     1     -34.339  14.590  -4.339  1.00 20.00     0.086 A 
HETATM   10  C6  UNL     1     -32.853  14.427  -4.562  1.00 20.00     0.207 A 
HETATM   11  O11 UNL     1     -33.675  13.324  -4.172  1.00 20.00    -0.375 OA
ENDBRANCH   4   5
ENDBRANCH   3   4
TORSDOF 2
ENDMDL
MODEL 9
REMARK VINA RESULT:      -4.3     10.177     13.898
REMARK  2 active torsions:
REMARK  status: ('A' for Active; 'I' for Inactive)
REMARK    1  A    between atoms: C7_7  and  C10_10 
REMARK    2  A    between atoms: C9_9  and  C10_10 
ROOT
HETATM    1  C1  UNL     1     -30.322  18.619   1.522  1.00 20.00     0.012 C 
HETATM    2  C2  UNL     1     -30.866  18.485   0.460  1.00 20.00    -0.117 C 
HETATM    3  C9  UNL     1     -31.528  18.319  -0.840  1.00 20.00     0.093 C 
ENDROOT
BRANCH   3   4
HETATM    4  C10 UNL     1     -33.027  18.501  -0.693  1.00 20.00     0.020 C 
BRANCH   4   5
HETATM    5  C7  UNL     1     -33.762  17.910  -1.884  1.00 20.00     0.023 C 
HETATM    6  C4  UNL     1     -32.902  16.854  -2.607  1.00 20.00     0.008 C 
HETATM    7  C3  UNL     1     -33.927  15.938  -3.267  1.00 20.00     0.004 C 
HETATM    8  C5  UNL     1     -35.017  15.800  -2.204  1.00 20.00     0.041 C 
HETATM    9  C8  UNL     1     -35.012  17.140  -1.526  1.00 20.00     0.086 A 
HETATM   10  C6  UNL     1     -35.947  17.468  -0.384  1.00 20.00     0.207 A 
HETATM   11  O11 UNL     1     -36.223  17.892  -1.722  1.00 20.00    -0.375 OA
ENDBRANCH   4   5
ENDBRANCH   3   4
TORSDOF 2
ENDMDL
