MODEL 1
REMARK VINA RESULT:      -5.3      0.000      0.000
REMARK  1 active torsions:
REMARK  status: ('A' for Active; 'I' for Inactive)
REMARK    1  A    between atoms: C8_8  and  C11_11 
ROOT
HETATM    1  C1  UNL     1     -35.769  13.723  -4.209  1.00 20.00     0.131 C 
HETATM    2  C2  UNL     1     -36.913  14.697  -4.145  1.00 20.00     0.079 C 
HETATM    3  C3  UNL     1     -36.361  15.761  -3.207  1.00 20.00     0.018 C 
HETATM    4  C4  UNL     1     -33.927  15.584  -5.729  1.00 20.00     0.002 C 
HETATM    5  C5  UNL     1     -33.444  14.415  -4.884  1.00 20.00     0.013 C 
HETATM    6  C6  UNL     1     -34.447  16.601  -4.718  1.00 20.00     0.011 C 
HETATM    7  C7  UNL     1     -34.459  14.339  -3.755  1.00 20.00     0.064 C 
HETATM    8  C8  UNL     1     -34.845  15.802  -3.454  1.00 20.00    -0.027 C 
HETATM    9  O12 UNL     1     -35.879  12.576  -4.626  1.00 20.00    -0.298 OA
ENDROOT
BRANCH   8  10
HETATM   10  C11 UNL     1     -34.116  16.352  -2.225  1.00 20.00    -0.013 C 
HETATM   11  C9  UNL     1     -33.162  17.471  -2.630  1.00 20.00     0.010 C 
HETATM   12  C10 UNL     1     -35.119  16.844  -1.188  1.00 20.00     0.010 C 
ENDBRANCH   8  10
TORSDOF 1
ENDMDL
MODEL 2
REMARK VINA RESULT:      -5.1      0.913      1.043
REMARK  1 active torsions:
REMARK  status: ('A' for Active; 'I' for Inactive)
REMARK    1  A    between atoms: C8_8  and  C11_11 
ROOT
HETATM    1  C1  UNL     1     -36.814  14.652  -4.095  1.00 20.00     0.131 C 
HETATM    2  C2  UNL     1     -37.269  16.063  -4.347  1.00 20.00     0.079 C 
HETATM    3  C3  UNL     1     -36.407  16.846  -3.368  1.00 20.00     0.018 C 
HETATM    4  C4  UNL     1     -34.046  15.060  -5.254  1.00 20.00     0.002 C 
HETATM    5  C5  UNL     1     -34.397  13.965  -4.258  1.00 20.00     0.013 C 
HETATM    6  C6  UNL     1     -34.116  16.352  -4.446  1.00 20.00     0.011 C 
HETATM    7  C7  UNL     1     -35.472  14.596  -3.388  1.00 20.00     0.064 C 
HETATM    8  C8  UNL     1     -35.078  16.081  -3.264  1.00 20.00    -0.027 C 
HETATM    9  O12 UNL     1     -37.437  13.663  -4.462  1.00 20.00    -0.298 OA
ENDROOT
BRANCH   8  10
HETATM   10  C11 UNL     1     -34.386  16.388  -1.934  1.00 20.00    -0.013 C 
HETATM   11  C9  UNL     1     -33.180  17.294  -2.158  1.00 20.00     0.010 C 
HETATM   12  C10 UNL     1     -35.368  17.026  -0.957  1.00 20.00     0.010 C 
ENDBRANCH   8  10
TORSDOF 1
ENDMDL
MODEL 3
REMARK VINA RESULT:      -4.7      1.332      1.909
REMARK  1 active torsions:
REMARK  status: ('A' for Active; 'I' for Inactive)
REMARK    1  A    between atoms: C8_8  and  C11_11 
ROOT
HETATM    1  C1  UNL     1     -36.106  15.758  -4.978  1.00 20.00     0.131 C 
HETATM    2  C2  UNL     1     -35.477  17.051  -5.422  1.00 20.00     0.079 C 
HETATM    3  C3  UNL     1     -34.871  17.561  -4.122  1.00 20.00     0.018 C 
HETATM    4  C4  UNL     1     -33.476  14.357  -4.443  1.00 20.00     0.002 C 
HETATM    5  C5  UNL     1     -34.798  13.952  -3.810  1.00 20.00     0.013 C 
HETATM    6  C6  UNL     1     -33.128  15.690  -3.788  1.00 20.00     0.011 C 
HETATM    7  C7  UNL     1     -35.546  15.267  -3.657  1.00 20.00     0.064 C 
HETATM    8  C8  UNL     1     -34.465  16.314  -3.321  1.00 20.00    -0.027 C 
HETATM    9  O12 UNL     1     -36.943  15.152  -5.636  1.00 20.00    -0.298 OA
ENDROOT
BRANCH   8  10
HETATM   10  C11 UNL     1     -34.411  16.632  -1.825  1.00 20.00    -0.013 C 
HETATM   11  C9  UNL     1     -33.289  17.622  -1.532  1.00 20.00     0.010 C 
HETATM   12  C10 UNL     1     -35.752  17.177  -1.348  1.00 20.00     0.010 C 
ENDBRANCH   8  10
TORSDOF 1
ENDMDL
MODEL 4
REMARK VINA RESULT:      -4.6      2.342      4.055
REMARK  1 active torsions:
REMARK  status: ('A' for Active; 'I' for Inactive)
REMARK    1  A    between atoms: C8_8  and  C11_11 
ROOT
HETATM    1  C1  UNL     1     -33.755  18.242  -4.177  1.00 20.00     0.131 C 
HETATM    2  C2  UNL     1     -35.210  18.179  -4.554  1.00 20.00     0.079 C 
HETATM    3  C3  UNL     1     -35.484  16.684  -4.476  1.00 20.00     0.018 C 
HETATM    4  C4  UNL     1     -34.196  17.422  -1.296  1.00 20.00     0.002 C 
HETATM    5  C5  UNL     1     -32.873  17.264  -2.031  1.00 20.00     0.013 C 
HETATM    6  C6  UNL     1     -35.119  16.392  -1.939  1.00 20.00     0.011 C 
HETATM    7  C7  UNL     1     -33.286  16.985  -3.467  1.00 20.00     0.064 C 
HETATM    8  C8  UNL     1     -34.572  16.140  -3.365  1.00 20.00    -0.027 C 
HETATM    9  O12 UNL     1     -33.044  19.219  -4.381  1.00 20.00    -0.298 OA
ENDROOT
BRANCH   8  10
HETATM   10  C11 UNL     1     -34.302  14.648  -3.575  1.00 20.00    -0.013 C 
HETATM   11  C9  UNL     1     -35.523  13.968  -4.186  1.00 20.00     0.010 C 
HETATM   12  C10 UNL     1     -33.074  14.448  -4.456  1.00 20.00     0.010 C 
ENDBRANCH   8  10
TORSDOF 1
ENDMDL
MODEL 5
REMARK VINA RESULT:      -4.5      1.975      3.839
REMARK  1 active torsions:
REMARK  status: ('A' for Active; 'I' for Inactive)
REMARK    1  A    between atoms: C8_8  and  C11_11 
ROOT
HETATM    1  C1  UNL     1     -34.858  16.748  -1.495  1.00 20.00     0.131 C 
HETATM    2  C2  UNL     1     -33.513  17.382  -1.722  1.00 20.00     0.079 C 
HETATM    3  C3  UNL     1     -32.964  16.539  -2.864  1.00 20.00     0.018 C 
HETATM    4  C4  UNL     1     -36.034  17.679  -4.125  1.00 20.00     0.002 C 
HETATM    5  C5  UNL     1     -36.556  16.489  -3.335  1.00 20.00     0.013 C 
HETATM    6  C6  UNL     1     -34.682  17.222  -4.663  1.00 20.00     0.011 C 
HETATM    7  C7  UNL     1     -35.312  15.914  -2.678  1.00 20.00     0.064 C 
HETATM    8  C8  UNL     1     -34.178  16.115  -3.705  1.00 20.00    -0.027 C 
HETATM    9  O12 UNL     1     -35.529  16.926  -0.485  1.00 20.00    -0.298 OA
ENDROOT
BRANCH   8  10
HETATM   10  C11 UNL     1     -33.870  14.835  -4.485  1.00 20.00    -0.013 C 
HETATM   11  C9  UNL     1     -34.709  13.676  -3.958  1.00 20.00     0.010 C 
HETATM   12  C10 UNL     1     -34.116  15.048  -5.975  1.00 20.00     0.010 C 
ENDBRANCH   8  10
TORSDOF 1
ENDMDL
MODEL 6
REMARK VINA RESULT:      -4.4      1.477      2.163
REMARK  1 active torsions:
REMARK  status: ('A' for Active; 'I' for Inactive)
REMARK    1  A    between atoms: C8_8  and  C11_11 
ROOT
HETATM    1  C1  UNL     1     -37.279  14.745  -4.311  1.00 20.00     0.131 C 
HETATM    2  C2  UNL     1     -37.589  16.113  -3.766  1.00 20.00     0.079 C 
HETATM    3  C3  UNL     1     -36.197  16.650  -3.468  1.00 20.00     0.018 C 
HETATM    4  C4  UNL     1     -35.997  15.763  -6.858  1.00 20.00     0.002 C 
HETATM    5  C5  UNL     1     -35.728  14.390  -6.262  1.00 20.00     0.013 C 
HETATM    6  C6  UNL     1     -35.328  16.739  -5.895  1.00 20.00     0.011 C 
HETATM    7  C7  UNL     1     -35.836  14.617  -4.762  1.00 20.00     0.064 C 
HETATM    8  C8  UNL     1     -35.266  16.029  -4.521  1.00 20.00    -0.027 C 
HETATM    9  O12 UNL     1     -38.113  13.854  -4.418  1.00 20.00    -0.298 OA
ENDROOT
BRANCH   8  10
HETATM   10  C11 UNL     1     -33.824  15.992  -4.007  1.00 20.00    -0.013 C 
HETATM   11  C9  UNL     1     -33.784  16.305  -2.515  1.00 20.00     0.010 C 
HETATM   12  C10 UNL     1     -33.193  14.633  -4.292  1.00 20.00     0.010 C 
ENDBRANCH   8  10
TORSDOF 1
ENDMDL
MODEL 7
REMARK VINA RESULT:      -4.4      1.629      2.540
REMARK  1 active torsions:
REMARK  status: ('A' for Active; 'I' for Inactive)
REMARK    1  A    between atoms: C8_8  and  C11_11 
ROOT
HETATM    1  C1  UNL     1     -35.926  13.986  -4.835  1.00 20.00     0.131 C 
HETATM    2  C2  UNL     1     -35.760  14.431  -6.262  1.00 20.00     0.079 C 
HETATM    3  C3  UNL     1     -36.214  15.882  -6.188  1.00 20.00     0.018 C 
HETATM    4  C4  UNL     1     -33.686  15.716  -3.759  1.00 20.00     0.002 C 
HETATM    5  C5  UNL     1     -34.833  15.186  -2.911  1.00 20.00     0.013 C 
HETATM    6  C6  UNL     1     -34.328  16.763  -4.664  1.00 20.00     0.011 C 
HETATM    7  C7  UNL     1     -36.011  15.154  -3.871  1.00 20.00     0.064 C 
HETATM    8  C8  UNL     1     -35.824  16.380  -4.788  1.00 20.00    -0.027 C 
HETATM    9  O12 UNL     1     -35.944  12.810  -4.490  1.00 20.00    -0.298 OA
ENDROOT
BRANCH   8  10
HETATM   10  C11 UNL     1     -36.710  17.556  -4.370  1.00 20.00    -0.013 C 
HETATM   11  C9  UNL     1     -37.852  17.073  -3.484  1.00 20.00     0.010 C 
HETATM   12  C10 UNL     1     -35.882  18.619  -3.656  1.00 20.00     0.010 C 
ENDBRANCH   8  10
TORSDOF 1
ENDMDL
MODEL 8
REMARK VINA RESULT:      -4.4      2.464      4.356
REMARK  1 active torsions:
REMARK  status: ('A' for Active; 'I' for Inactive)
REMARK    1  A    between atoms: C8_8  and  C11_11 
ROOT
HETATM    1  C1  UNL     1     -32.896  18.320  -3.357  1.00 20.00     0.131 C 
HETATM    2  C2  UNL     1     -33.755  18.485  -4.580  1.00 20.00     0.079 C 
HETATM    3  C3  UNL     1     -34.245  17.063  -4.809  1.00 20.00     0.018 C 
HETATM    4  C4  UNL     1     -35.205  17.711  -1.496  1.00 20.00     0.002 C 
HETATM    5  C5  UNL     1     -33.765  17.302  -1.225  1.00 20.00     0.013 C 
HETATM    6  C6  UNL     1     -35.646  16.824  -2.656  1.00 20.00     0.011 C 
HETATM    7  C7  UNL     1     -33.196  17.034  -2.609  1.00 20.00     0.064 C 
HETATM    8  C8  UNL     1     -34.359  16.422  -3.417  1.00 20.00    -0.027 C 
HETATM    9  O12 UNL     1     -32.079  19.154  -2.986  1.00 20.00    -0.298 OA
ENDROOT
BRANCH   8  10
HETATM   10  C11 UNL     1     -34.254  14.898  -3.517  1.00 20.00    -0.013 C 
HETATM   11  C9  UNL     1     -35.552  14.311  -4.060  1.00 20.00     0.010 C 
HETATM   12  C10 UNL     1     -33.072  14.503  -4.396  1.00 20.00     0.010 C 
ENDBRANCH   8  10
TORSDOF 1
ENDMDL
MODEL 9
REMARK VINA RESULT:      -4.4      1.719      2.917
REMARK  1 active torsions:
REMARK  status: ('A' for Active; 'I' for Inactive)
REMARK    1  A    between atoms: C8_8  and  C11_11 
ROOT
HETATM    1  C1  UNL     1     -34.354  16.280  -6.102  1.00 20.00     0.131 C 
HETATM    2  C2  UNL     1     -33.932  14.840  -5.999  1.00 20.00     0.079 C 
HETATM    3  C3  UNL     1     -33.615  14.716  -4.515  1.00 20.00     0.018 C 
HETATM    4  C4  UNL     1     -36.914  15.915  -4.526  1.00 20.00     0.002 C 
HETATM    5  C5  UNL     1     -36.201  17.249  -4.691  1.00 20.00     0.013 C 
HETATM    6  C6  UNL     1     -36.001  15.101  -3.614  1.00 20.00     0.011 C 
HETATM    7  C7  UNL     1     -34.730  16.870  -4.755  1.00 20.00     0.064 C 
HETATM    8  C8  UNL     1     -34.575  15.675  -3.792  1.00 20.00    -0.027 C 
HETATM    9  O12 UNL     1     -34.428  16.891  -7.161  1.00 20.00    -0.298 OA
ENDROOT
BRANCH   8  10
HETATM   10  C11 UNL     1     -33.996  16.093  -2.439  1.00 20.00    -0.013 C 
HETATM   11  C9  UNL     1     -33.035  17.264  -2.610  1.00 20.00     0.010 C 
HETATM   12  C10 UNL     1     -35.117  16.449  -1.468  1.00 20.00     0.010 C 
ENDBRANCH   8  10
TORSDOF 1
ENDMDL
