MODEL 1
REMARK VINA RESULT:      -5.5      0.000      0.000
REMARK  2 active torsions:
REMARK  status: ('A' for Active; 'I' for Inactive)
REMARK    1  A    between atoms: C1_1  and  C2_2 
REMARK    2  A    between atoms: C1_1  and  C3_3 
ROOT
HETATM    1  C1  UNL     1     -33.809   6.197   4.156  1.00 20.00     0.280 C 
HETATM    2  O4  UNL     1     -33.296   7.045   4.887  1.00 20.00    -0.284 OA
ENDROOT
BRANCH   1   3
HETATM    3  C2  UNL     1     -33.378   6.040   2.722  1.00 20.00     0.344 C 
HETATM    4  F5  UNL     1     -32.681   4.884   2.544  1.00 20.00    -0.224 F 
HETATM    5 CL9  UNL     1     -32.340   7.406   2.294  1.00 20.00    -0.081 Cl
ENDBRANCH   1   3
BRANCH   1   6
HETATM    6  C3  UNL     1     -34.865   5.263   4.675  1.00 20.00     0.455 C 
HETATM    7  F6  UNL     1     -35.047   5.393   6.013  1.00 20.00    -0.163 F 
HETATM    8  F7  UNL     1     -34.558   3.961   4.442  1.00 20.00    -0.163 F 
HETATM    9  F8  UNL     1     -36.071   5.489   4.093  1.00 20.00    -0.163 F 
ENDBRANCH   1   6
TORSDOF 2
ENDMDL
MODEL 2
REMARK VINA RESULT:      -5.0      1.647      1.963
REMARK  2 active torsions:
REMARK  status: ('A' for Active; 'I' for Inactive)
REMARK    1  A    between atoms: C1_1  and  C2_2 
REMARK    2  A    between atoms: C1_1  and  C3_3 
ROOT
HETATM    1  C1  UNL     1     -34.042   5.950   4.451  1.00 20.00     0.280 C 
HETATM    2  O4  UNL     1     -33.534   6.982   4.012  1.00 20.00    -0.284 OA
ENDROOT
BRANCH   1   3
HETATM    3  C2  UNL     1     -34.282   4.760   3.562  1.00 20.00     0.344 C 
HETATM    4  F5  UNL     1     -34.154   3.596   4.257  1.00 20.00    -0.224 F 
HETATM    5 CL9  UNL     1     -33.087   4.782   2.258  1.00 20.00    -0.081 Cl
ENDBRANCH   1   3
BRANCH   1   6
HETATM    6  C3  UNL     1     -34.413   5.826   5.902  1.00 20.00     0.455 C 
HETATM    7  F6  UNL     1     -34.447   7.031   6.523  1.00 20.00    -0.163 F 
HETATM    8  F7  UNL     1     -33.538   5.050   6.591  1.00 20.00    -0.163 F 
HETATM    9  F8  UNL     1     -35.640   5.268   6.064  1.00 20.00    -0.163 F 
ENDBRANCH   1   6
TORSDOF 2
ENDMDL
MODEL 3
REMARK VINA RESULT:      -4.9      2.201      3.443
REMARK  2 active torsions:
REMARK  status: ('A' for Active; 'I' for Inactive)
REMARK    1  A    between atoms: C1_1  and  C2_2 
REMARK    2  A    between atoms: C1_1  and  C3_3 
ROOT
HETATM    1  C1  UNL     1     -33.681   6.510   4.319  1.00 20.00     0.280 C 
HETATM    2  O4  UNL     1     -33.576   7.299   5.258  1.00 20.00    -0.284 OA
ENDROOT
BRANCH   1   3
HETATM    3  C2  UNL     1     -34.638   5.350   4.378  1.00 20.00     0.344 C 
HETATM    4  F5  UNL     1     -35.867   5.706   3.912  1.00 20.00    -0.224 F 
HETATM    5 CL9  UNL     1     -34.792   4.833   6.061  1.00 20.00    -0.081 Cl
ENDBRANCH   1   3
BRANCH   1   6
HETATM    6  C3  UNL     1     -32.879   6.691   3.061  1.00 20.00     0.455 C 
HETATM    7  F6  UNL     1     -32.717   5.525   2.388  1.00 20.00    -0.163 F 
HETATM    8  F7  UNL     1     -31.637   7.181   3.311  1.00 20.00    -0.163 F 
HETATM    9  F8  UNL     1     -33.474   7.559   2.202  1.00 20.00    -0.163 F 
ENDBRANCH   1   6
TORSDOF 2
ENDMDL
MODEL 4
REMARK VINA RESULT:      -4.9      1.594      1.839
REMARK  2 active torsions:
REMARK  status: ('A' for Active; 'I' for Inactive)
REMARK    1  A    between atoms: C1_1  and  C2_2 
REMARK    2  A    between atoms: C1_1  and  C3_3 
ROOT
HETATM    1  C1  UNL     1     -34.166   4.637   3.846  1.00 20.00     0.280 C 
HETATM    2  O4  UNL     1     -33.969   3.463   4.160  1.00 20.00    -0.284 OA
ENDROOT
BRANCH   1   3
HETATM    3  C2  UNL     1     -33.583   5.215   2.585  1.00 20.00     0.344 C 
HETATM    4  F5  UNL     1     -32.815   4.297   1.936  1.00 20.00    -0.224 F 
HETATM    5 CL9  UNL     1     -32.576   6.603   3.015  1.00 20.00    -0.081 Cl
ENDBRANCH   1   3
BRANCH   1   6
HETATM    6  C3  UNL     1     -35.023   5.533   4.695  1.00 20.00     0.455 C 
HETATM    7  F6  UNL     1     -35.238   5.012   5.929  1.00 20.00    -0.163 F 
HETATM    8  F7  UNL     1     -36.242   5.752   4.140  1.00 20.00    -0.163 F 
HETATM    9  F8  UNL     1     -34.453   6.751   4.880  1.00 20.00    -0.163 F 
ENDBRANCH   1   6
TORSDOF 2
ENDMDL
MODEL 5
REMARK VINA RESULT:      -4.9      2.202      3.475
REMARK  2 active torsions:
REMARK  status: ('A' for Active; 'I' for Inactive)
REMARK    1  A    between atoms: C1_1  and  C2_2 
REMARK    2  A    between atoms: C1_1  and  C3_3 
ROOT
HETATM    1  C1  UNL     1     -33.673   6.509   4.327  1.00 20.00     0.280 C 
HETATM    2  O4  UNL     1     -33.560   7.295   5.268  1.00 20.00    -0.284 OA
ENDROOT
BRANCH   1   3
HETATM    3  C2  UNL     1     -34.631   5.350   4.390  1.00 20.00     0.344 C 
HETATM    4  F5  UNL     1     -35.856   5.701   3.911  1.00 20.00    -0.224 F 
HETATM    5 CL9  UNL     1     -34.798   4.850   6.078  1.00 20.00    -0.081 Cl
ENDBRANCH   1   3
BRANCH   1   6
HETATM    6  C3  UNL     1     -32.881   6.695   3.063  1.00 20.00     0.455 C 
HETATM    7  F6  UNL     1     -31.638   7.177   3.308  1.00 20.00    -0.163 F 
HETATM    8  F7  UNL     1     -33.480   7.560   2.205  1.00 20.00    -0.163 F 
HETATM    9  F8  UNL     1     -32.722   5.526   2.390  1.00 20.00    -0.163 F 
ENDBRANCH   1   6
TORSDOF 2
ENDMDL
MODEL 6
REMARK VINA RESULT:      -4.8      1.345      1.822
REMARK  2 active torsions:
REMARK  status: ('A' for Active; 'I' for Inactive)
REMARK    1  A    between atoms: C1_1  and  C2_2 
REMARK    2  A    between atoms: C1_1  and  C3_3 
ROOT
HETATM    1  C1  UNL     1     -33.806   6.342   4.676  1.00 20.00     0.280 C 
HETATM    2  O4  UNL     1     -33.559   7.119   5.598  1.00 20.00    -0.284 OA
ENDROOT
BRANCH   1   3
HETATM    3  C2  UNL     1     -33.048   6.410   3.377  1.00 20.00     0.344 C 
HETATM    4  F5  UNL     1     -33.448   7.477   2.632  1.00 20.00    -0.224 F 
HETATM    5 CL9  UNL     1     -33.361   4.927   2.465  1.00 20.00    -0.081 Cl
ENDBRANCH   1   3
BRANCH   1   6
HETATM    6  C3  UNL     1     -34.852   5.273   4.821  1.00 20.00     0.455 C 
HETATM    7  F6  UNL     1     -34.378   4.048   4.482  1.00 20.00    -0.163 F 
HETATM    8  F7  UNL     1     -35.937   5.508   4.040  1.00 20.00    -0.163 F 
HETATM    9  F8  UNL     1     -35.304   5.177   6.098  1.00 20.00    -0.163 F 
ENDBRANCH   1   6
TORSDOF 2
ENDMDL
MODEL 7
REMARK VINA RESULT:      -4.7      2.733      3.468
REMARK  2 active torsions:
REMARK  status: ('A' for Active; 'I' for Inactive)
REMARK    1  A    between atoms: C1_1  and  C2_2 
REMARK    2  A    between atoms: C1_1  and  C3_3 
ROOT
HETATM    1  C1  UNL     1     -34.094   4.980   3.802  1.00 20.00     0.280 C 
HETATM    2  O4  UNL     1     -34.417   3.829   4.096  1.00 20.00    -0.284 OA
ENDROOT
BRANCH   1   3
HETATM    3  C2  UNL     1     -34.444   6.140   4.695  1.00 20.00     0.344 C 
HETATM    4  F5  UNL     1     -33.361   6.938   4.906  1.00 20.00    -0.224 F 
HETATM    5 CL9  UNL     1     -35.000   5.506   6.249  1.00 20.00    -0.081 Cl
ENDBRANCH   1   3
BRANCH   1   6
HETATM    6  C3  UNL     1     -33.309   5.270   2.553  1.00 20.00     0.455 C 
HETATM    7  F6  UNL     1     -32.589   4.195   2.144  1.00 20.00    -0.163 F 
HETATM    8  F7  UNL     1     -32.432   6.292   2.725  1.00 20.00    -0.163 F 
HETATM    9  F8  UNL     1     -34.116   5.617   1.518  1.00 20.00    -0.163 F 
ENDBRANCH   1   6
TORSDOF 2
ENDMDL
MODEL 8
REMARK VINA RESULT:      -4.6      1.634      1.657
REMARK  2 active torsions:
REMARK  status: ('A' for Active; 'I' for Inactive)
REMARK    1  A    between atoms: C1_1  and  C2_2 
REMARK    2  A    between atoms: C1_1  and  C3_3 
ROOT
HETATM    1  C1  UNL     1     -33.616   5.617   3.196  1.00 20.00     0.280 C 
HETATM    2  O4  UNL     1     -33.232   4.638   2.555  1.00 20.00    -0.284 OA
ENDROOT
BRANCH   1   3
HETATM    3  C2  UNL     1     -33.187   7.010   2.822  1.00 20.00     0.344 C 
HETATM    4  F5  UNL     1     -32.877   7.089   1.499  1.00 20.00    -0.224 F 
HETATM    5 CL9  UNL     1     -31.757   7.433   3.772  1.00 20.00    -0.081 Cl
ENDBRANCH   1   3
BRANCH   1   6
HETATM    6  C3  UNL     1     -34.553   5.462   4.360  1.00 20.00     0.455 C 
HETATM    7  F6  UNL     1     -34.344   6.405   5.311  1.00 20.00    -0.163 F 
HETATM    8  F7  UNL     1     -34.423   4.253   4.965  1.00 20.00    -0.163 F 
HETATM    9  F8  UNL     1     -35.853   5.570   3.981  1.00 20.00    -0.163 F 
ENDBRANCH   1   6
TORSDOF 2
ENDMDL
MODEL 9
REMARK VINA RESULT:      -4.6      2.841      3.763
REMARK  2 active torsions:
REMARK  status: ('A' for Active; 'I' for Inactive)
REMARK    1  A    between atoms: C1_1  and  C2_2 
REMARK    2  A    between atoms: C1_1  and  C3_3 
ROOT
HETATM    1  C1  UNL     1     -33.662   6.052   3.690  1.00 20.00     0.280 C 
HETATM    2  O4  UNL     1     -33.995   4.927   3.315  1.00 20.00    -0.284 OA
ENDROOT
BRANCH   1   3
HETATM    3  C2  UNL     1     -34.149   6.613   4.999  1.00 20.00     0.344 C 
HETATM    4  F5  UNL     1     -33.124   7.165   5.706  1.00 20.00    -0.224 F 
HETATM    5 CL9  UNL     1     -34.856   5.299   5.947  1.00 20.00    -0.081 Cl
ENDBRANCH   1   3
BRANCH   1   6
HETATM    6  C3  UNL     1     -32.729   6.897   2.869  1.00 20.00     0.455 C 
HETATM    7  F6  UNL     1     -31.708   7.394   3.610  1.00 20.00    -0.163 F 
HETATM    8  F7  UNL     1     -33.362   7.957   2.304  1.00 20.00    -0.163 F 
HETATM    9  F8  UNL     1     -32.168   6.192   1.854  1.00 20.00    -0.163 F 
ENDBRANCH   1   6
TORSDOF 2
ENDMDL
