MODEL 1
REMARK VINA RESULT:      -4.3      0.000      0.000
REMARK  3 active torsions:
REMARK  status: ('A' for Active; 'I' for Inactive)
REMARK    1  A    between atoms: C1_1  and  C7_7 
REMARK    2  A    between atoms: C1_1  and  N9_9 
REMARK    3  A    between atoms: C7_7  and  C8_8 
ROOT
HETATM    1  C2  UNL     1     -35.145   5.376   5.794  1.00 20.00     0.021 C 
HETATM    2  C3  UNL     1     -34.146   6.392   6.320  1.00 20.00     0.021 C 
HETATM    3  C4  UNL     1     -34.470   4.857   4.528  1.00 20.00     0.123 C 
HETATM    4  C5  UNL     1     -33.633   7.057   5.046  1.00 20.00     0.123 C 
HETATM    5  N9  UNL     1     -33.703   6.000   4.043  1.00 20.00    -0.375 N 
ENDROOT
BRANCH   5   6
HETATM    6  C1  UNL     1     -33.127   6.070   2.814  1.00 20.00     0.075 C 
HETATM    7  S10 UNL     1     -33.181   4.799   1.731  1.00 20.00    -0.066 SA
BRANCH   6   8
HETATM    8  C7  UNL     1     -32.453   7.386   2.493  1.00 20.00     0.069 C 
BRANCH   8   9
HETATM    9  C8  UNL     1     -32.488   7.665   0.989  1.00 20.00     0.002 C 
HETATM   10  C6  UNL     1     -32.928   9.090   0.698  1.00 20.00     0.005 C 
ENDBRANCH   8   9
ENDBRANCH   6   8
ENDBRANCH   5   6
TORSDOF 3
ENDMDL
MODEL 2
REMARK VINA RESULT:      -3.9     15.858     16.471
REMARK  3 active torsions:
REMARK  status: ('A' for Active; 'I' for Inactive)
REMARK    1  A    between atoms: C1_1  and  C7_7 
REMARK    2  A    between atoms: C1_1  and  N9_9 
REMARK    3  A    between atoms: C7_7  and  C8_8 
ROOT
HETATM    1  C2  UNL     1     -22.651  17.885   8.319  1.00 20.00     0.021 C 
HETATM    2  C3  UNL     1     -23.912  18.628   7.910  1.00 20.00     0.021 C 
HETATM    3  C4  UNL     1     -23.140  16.977   9.443  1.00 20.00     0.123 C 
HETATM    4  C5  UNL     1     -24.609  18.877   9.244  1.00 20.00     0.123 C 
HETATM    5  N9  UNL     1     -24.222  17.734  10.064  1.00 20.00    -0.375 N 
ENDROOT
BRANCH   5   6
HETATM    6  C1  UNL     1     -24.797  17.414  11.252  1.00 20.00     0.075 C 
HETATM    7  S10 UNL     1     -24.643  15.898  11.937  1.00 20.00    -0.066 SA
BRANCH   6   8
HETATM    8  C7  UNL     1     -25.567  18.534  11.917  1.00 20.00     0.069 C 
BRANCH   8   9
HETATM    9  C8  UNL     1     -27.053  18.187  12.024  1.00 20.00     0.002 C 
HETATM   10  C6  UNL     1     -27.922  19.263  11.395  1.00 20.00     0.005 C 
ENDBRANCH   8   9
ENDBRANCH   6   8
ENDBRANCH   5   6
TORSDOF 3
ENDMDL
MODEL 3
REMARK VINA RESULT:      -3.8     11.239     12.124
REMARK  3 active torsions:
REMARK  status: ('A' for Active; 'I' for Inactive)
REMARK    1  A    between atoms: C1_1  and  C7_7 
REMARK    2  A    between atoms: C1_1  and  N9_9 
REMARK    3  A    between atoms: C7_7  and  C8_8 
ROOT
HETATM    1  C2  UNL     1     -33.653  14.756  -4.712  1.00 20.00     0.021 C 
HETATM    2  C3  UNL     1     -34.796  14.092  -3.963  1.00 20.00     0.021 C 
HETATM    3  C4  UNL     1     -32.997  15.620  -3.639  1.00 20.00     0.123 C 
HETATM    4  C5  UNL     1     -35.297  15.207  -3.049  1.00 20.00     0.123 C 
HETATM    5  N9  UNL     1     -34.102  15.993  -2.762  1.00 20.00    -0.375 N 
ENDROOT
BRANCH   5   6
HETATM    6  C1  UNL     1     -34.027  16.949  -1.800  1.00 20.00     0.075 C 
HETATM    7  S10 UNL     1     -35.256  17.203  -0.697  1.00 20.00    -0.066 SA
BRANCH   6   8
HETATM    8  C7  UNL     1     -32.743  17.750  -1.788  1.00 20.00     0.069 C 
BRANCH   8   9
HETATM    9  C8  UNL     1     -32.503  18.377  -0.413  1.00 20.00     0.002 C 
HETATM   10  C6  UNL     1     -31.024  18.415  -0.070  1.00 20.00     0.005 C 
ENDBRANCH   8   9
ENDBRANCH   6   8
ENDBRANCH   5   6
TORSDOF 3
ENDMDL
MODEL 4
REMARK VINA RESULT:      -3.8      1.504      1.564
REMARK  3 active torsions:
REMARK  status: ('A' for Active; 'I' for Inactive)
REMARK    1  A    between atoms: C1_1  and  C7_7 
REMARK    2  A    between atoms: C1_1  and  N9_9 
REMARK    3  A    between atoms: C7_7  and  C8_8 
ROOT
HETATM    1  C2  UNL     1     -35.365   4.916   4.717  1.00 20.00     0.021 C 
HETATM    2  C3  UNL     1     -34.679   5.474   5.952  1.00 20.00     0.021 C 
HETATM    3  C4  UNL     1     -34.322   5.126   3.623  1.00 20.00     0.123 C 
HETATM    4  C5  UNL     1     -33.944   6.697   5.412  1.00 20.00     0.123 C 
HETATM    5  N9  UNL     1     -33.612   6.331   4.039  1.00 20.00    -0.375 N 
ENDROOT
BRANCH   5   6
HETATM    6  C1  UNL     1     -32.751   7.023   3.248  1.00 20.00     0.075 C 
HETATM    7  S10 UNL     1     -31.558   8.008   3.878  1.00 20.00    -0.066 SA
BRANCH   6   8
HETATM    8  C7  UNL     1     -32.939   6.820   1.761  1.00 20.00     0.069 C 
BRANCH   8   9
HETATM    9  C8  UNL     1     -32.206   7.903   0.965  1.00 20.00     0.002 C 
HETATM   10  C6  UNL     1     -33.179   8.795   0.213  1.00 20.00     0.005 C 
ENDBRANCH   8   9
ENDBRANCH   6   8
ENDBRANCH   5   6
TORSDOF 3
ENDMDL
MODEL 5
REMARK VINA RESULT:      -3.8     11.333     12.137
REMARK  3 active torsions:
REMARK  status: ('A' for Active; 'I' for Inactive)
REMARK    1  A    between atoms: C1_1  and  C7_7 
REMARK    2  A    between atoms: C1_1  and  N9_9 
REMARK    3  A    between atoms: C7_7  and  C8_8 
ROOT
HETATM    1  C2  UNL     1     -34.930  14.235  -3.940  1.00 20.00     0.021 C 
HETATM    2  C3  UNL     1     -33.762  14.853  -4.689  1.00 20.00     0.021 C 
HETATM    3  C4  UNL     1     -35.376  15.362  -3.013  1.00 20.00     0.123 C 
HETATM    4  C5  UNL     1     -33.062  15.676  -3.611  1.00 20.00     0.123 C 
HETATM    5  N9  UNL     1     -34.145  16.090  -2.726  1.00 20.00    -0.375 N 
ENDROOT
BRANCH   5   6
HETATM    6  C1  UNL     1     -34.023  17.035  -1.757  1.00 20.00     0.075 C 
HETATM    7  S10 UNL     1     -35.227  17.322  -0.635  1.00 20.00    -0.066 SA
BRANCH   6   8
HETATM    8  C7  UNL     1     -32.713  17.792  -1.758  1.00 20.00     0.069 C 
BRANCH   8   9
HETATM    9  C8  UNL     1     -32.423  18.383  -0.376  1.00 20.00     0.002 C 
HETATM   10  C6  UNL     1     -30.941  18.323  -0.046  1.00 20.00     0.005 C 
ENDBRANCH   8   9
ENDBRANCH   6   8
ENDBRANCH   5   6
TORSDOF 3
ENDMDL
MODEL 6
REMARK VINA RESULT:      -3.6     11.778     12.495
REMARK  3 active torsions:
REMARK  status: ('A' for Active; 'I' for Inactive)
REMARK    1  A    between atoms: C1_1  and  C7_7 
REMARK    2  A    between atoms: C1_1  and  N9_9 
REMARK    3  A    between atoms: C7_7  and  C8_8 
ROOT
HETATM    1  C2  UNL     1     -32.368  18.831   1.526  1.00 20.00     0.021 C 
HETATM    2  C3  UNL     1     -31.044  18.248   1.061  1.00 20.00     0.021 C 
HETATM    3  C4  UNL     1     -33.357  18.296   0.495  1.00 20.00     0.123 C 
HETATM    4  C5  UNL     1     -31.145  18.343  -0.459  1.00 20.00     0.123 C 
HETATM    5  N9  UNL     1     -32.570  18.191  -0.729  1.00 20.00    -0.375 N 
ENDROOT
BRANCH   5   6
HETATM    6  C1  UNL     1     -33.098  17.976  -1.962  1.00 20.00     0.075 C 
HETATM    7  S10 UNL     1     -32.772  18.980  -3.258  1.00 20.00    -0.066 SA
BRANCH   6   8
HETATM    8  C7  UNL     1     -33.982  16.754  -2.080  1.00 20.00     0.069 C 
BRANCH   8   9
HETATM    9  C8  UNL     1     -33.546  15.876  -3.255  1.00 20.00     0.002 C 
HETATM   10  C6  UNL     1     -34.576  14.800  -3.556  1.00 20.00     0.005 C 
ENDBRANCH   8   9
ENDBRANCH   6   8
ENDBRANCH   5   6
TORSDOF 3
ENDMDL
MODEL 7
REMARK VINA RESULT:      -3.6     11.713     12.471
REMARK  3 active torsions:
REMARK  status: ('A' for Active; 'I' for Inactive)
REMARK    1  A    between atoms: C1_1  and  C7_7 
REMARK    2  A    between atoms: C1_1  and  N9_9 
REMARK    3  A    between atoms: C7_7  and  C8_8 
ROOT
HETATM    1  C2  UNL     1     -38.216  14.762  -4.334  1.00 20.00     0.021 C 
HETATM    2  C3  UNL     1     -38.014  16.265  -4.414  1.00 20.00     0.021 C 
HETATM    3  C4  UNL     1     -36.789  14.230  -4.237  1.00 20.00     0.123 C 
HETATM    4  C5  UNL     1     -36.774  16.395  -5.294  1.00 20.00     0.123 C 
HETATM    5  N9  UNL     1     -36.001  15.195  -4.995  1.00 20.00    -0.375 N 
ENDROOT
BRANCH   5   6
HETATM    6  C1  UNL     1     -34.710  15.001  -5.372  1.00 20.00     0.075 C 
HETATM    7  S10 UNL     1     -34.201  15.209  -6.949  1.00 20.00    -0.066 SA
BRANCH   6   8
HETATM    8  C7  UNL     1     -33.767  14.604  -4.257  1.00 20.00     0.069 C 
BRANCH   8   9
HETATM    9  C8  UNL     1     -33.246  15.838  -3.517  1.00 20.00     0.002 C 
HETATM   10  C6  UNL     1     -34.123  16.182  -2.325  1.00 20.00     0.005 C 
ENDBRANCH   8   9
ENDBRANCH   6   8
ENDBRANCH   5   6
TORSDOF 3
ENDMDL
MODEL 8
REMARK VINA RESULT:      -3.6     11.736     12.573
REMARK  3 active torsions:
REMARK  status: ('A' for Active; 'I' for Inactive)
REMARK    1  A    between atoms: C1_1  and  C7_7 
REMARK    2  A    between atoms: C1_1  and  N9_9 
REMARK    3  A    between atoms: C7_7  and  C8_8 
ROOT
HETATM    1  C2  UNL     1     -38.093  16.226  -4.727  1.00 20.00     0.021 C 
HETATM    2  C3  UNL     1     -38.214  14.755  -4.371  1.00 20.00     0.021 C 
HETATM    3  C4  UNL     1     -36.844  16.264  -5.603  1.00 20.00     0.123 C 
HETATM    4  C5  UNL     1     -36.762  14.334  -4.162  1.00 20.00     0.123 C 
HETATM    5  N9  UNL     1     -36.012  15.186  -5.078  1.00 20.00    -0.375 N 
ENDROOT
BRANCH   5   6
HETATM    6  C1  UNL     1     -34.706  15.000  -5.403  1.00 20.00     0.075 C 
HETATM    7  S10 UNL     1     -34.136  15.204  -6.960  1.00 20.00    -0.066 SA
BRANCH   6   8
HETATM    8  C7  UNL     1     -33.805  14.615  -4.249  1.00 20.00     0.069 C 
BRANCH   8   9
HETATM    9  C8  UNL     1     -33.253  15.858  -3.549  1.00 20.00     0.002 C 
HETATM   10  C6  UNL     1     -34.095  16.236  -2.342  1.00 20.00     0.005 C 
ENDBRANCH   8   9
ENDBRANCH   6   8
ENDBRANCH   5   6
TORSDOF 3
ENDMDL
MODEL 9
REMARK VINA RESULT:      -3.6     11.410     12.162
REMARK  3 active torsions:
REMARK  status: ('A' for Active; 'I' for Inactive)
REMARK    1  A    between atoms: C1_1  and  C7_7 
REMARK    2  A    between atoms: C1_1  and  N9_9 
REMARK    3  A    between atoms: C7_7  and  C8_8 
ROOT
HETATM    1  C2  UNL     1     -32.899  17.593  -1.849  1.00 20.00     0.021 C 
HETATM    2  C3  UNL     1     -34.285  17.416  -1.253  1.00 20.00     0.021 C 
HETATM    3  C4  UNL     1     -33.111  17.234  -3.317  1.00 20.00     0.123 C 
HETATM    4  C5  UNL     1     -34.812  16.179  -1.974  1.00 20.00     0.123 C 
HETATM    5  N9  UNL     1     -34.178  16.239  -3.287  1.00 20.00    -0.375 N 
ENDROOT
BRANCH   5   6
HETATM    6  C1  UNL     1     -34.536  15.468  -4.347  1.00 20.00     0.075 C 
HETATM    7  S10 UNL     1     -34.470  16.028  -5.919  1.00 20.00    -0.066 SA
BRANCH   6   8
HETATM    8  C7  UNL     1     -34.979  14.063  -4.000  1.00 20.00     0.069 C 
BRANCH   8   9
HETATM    9  C8  UNL     1     -36.245  13.684  -4.771  1.00 20.00     0.002 C 
HETATM   10  C6  UNL     1     -37.458  14.440  -4.254  1.00 20.00     0.005 C 
ENDBRANCH   8   9
ENDBRANCH   6   8
ENDBRANCH   5   6
TORSDOF 3
ENDMDL
