MODEL 1
REMARK VINA RESULT:      -5.6      0.000      0.000
REMARK  1 active torsions:
REMARK  status: ('A' for Active; 'I' for Inactive)
REMARK    1  A    between atoms: C2_2  and  C6_6 
ROOT
HETATM    1  C3  UNL     1     -34.058   6.868   5.908  1.00 20.00     0.003 C 
HETATM    2  C4  UNL     1     -33.364   7.188   4.569  1.00 20.00     0.011 C 
HETATM    3  C5  UNL     1     -34.498   5.412   6.074  1.00 20.00     0.034 C 
HETATM    4  C6  UNL     1     -33.195   5.979   3.628  1.00 20.00     0.039 C 
HETATM    5  C7  UNL     1     -35.188   4.936   4.837  1.00 20.00     0.151 A 
HETATM    6  C8  UNL     1     -34.502   5.237   3.536  1.00 20.00     0.158 A 
HETATM    7  O9  UNL     1     -34.503   3.921   4.098  1.00 20.00    -0.375 OA
ENDROOT
BRANCH   4   8
HETATM    8  C2  UNL     1     -32.650   6.421   2.305  1.00 20.00    -0.030 C 
HETATM    9  C1  UNL     1     -32.544   7.699   1.927  1.00 20.00     0.007 C 
ENDBRANCH   4   8
TORSDOF 1
ENDMDL
MODEL 2
REMARK VINA RESULT:      -5.1      1.475      2.201
REMARK  1 active torsions:
REMARK  status: ('A' for Active; 'I' for Inactive)
REMARK    1  A    between atoms: C2_2  and  C6_6 
ROOT
HETATM    1  C3  UNL     1     -34.522   4.380   4.001  1.00 20.00     0.003 C 
HETATM    2  C4  UNL     1     -33.551   5.214   3.141  1.00 20.00     0.011 C 
HETATM    3  C5  UNL     1     -35.174   5.140   5.158  1.00 20.00     0.034 C 
HETATM    4  C6  UNL     1     -33.422   6.690   3.568  1.00 20.00     0.039 C 
HETATM    5  C7  UNL     1     -34.149   5.936   5.897  1.00 20.00     0.151 A 
HETATM    6  C8  UNL     1     -33.214   6.758   5.058  1.00 20.00     0.158 A 
HETATM    7  O9  UNL     1     -34.280   7.358   5.800  1.00 20.00    -0.375 OA
ENDROOT
BRANCH   4   8
HETATM    8  C2  UNL     1     -32.352   7.370   2.771  1.00 20.00    -0.030 C 
HETATM    9  C1  UNL     1     -32.499   7.763   1.501  1.00 20.00     0.007 C 
ENDBRANCH   4   8
TORSDOF 1
ENDMDL
MODEL 3
REMARK VINA RESULT:      -4.2     12.305     12.839
REMARK  1 active torsions:
REMARK  status: ('A' for Active; 'I' for Inactive)
REMARK    1  A    between atoms: C2_2  and  C6_6 
ROOT
HETATM    1  C3  UNL     1     -36.601  14.631  -3.913  1.00 20.00     0.003 C 
HETATM    2  C4  UNL     1     -35.518  15.420  -3.149  1.00 20.00     0.011 C 
HETATM    3  C5  UNL     1     -36.106  13.911  -5.169  1.00 20.00     0.034 C 
HETATM    4  C6  UNL     1     -34.105  15.326  -3.757  1.00 20.00     0.039 C 
HETATM    5  C7  UNL     1     -35.248  14.823  -5.984  1.00 20.00     0.151 A 
HETATM    6  C8  UNL     1     -34.187  15.580  -5.239  1.00 20.00     0.158 A 
HETATM    7  O9  UNL     1     -33.867  14.460  -6.072  1.00 20.00    -0.375 OA
ENDROOT
BRANCH   4   8
HETATM    8  C2  UNL     1     -33.165  16.240  -3.033  1.00 20.00    -0.030 C 
HETATM    9  C1  UNL     1     -33.540  17.096  -2.077  1.00 20.00     0.007 C 
ENDBRANCH   4   8
TORSDOF 1
ENDMDL
MODEL 4
REMARK VINA RESULT:      -4.0     11.964     12.411
REMARK  1 active torsions:
REMARK  status: ('A' for Active; 'I' for Inactive)
REMARK    1  A    between atoms: C2_2  and  C6_6 
ROOT
HETATM    1  C3  UNL     1     -37.314  15.909  -4.081  1.00 20.00     0.003 C 
HETATM    2  C4  UNL     1     -35.989  16.457  -3.512  1.00 20.00     0.011 C 
HETATM    3  C5  UNL     1     -37.352  14.393  -4.279  1.00 20.00     0.034 C 
HETATM    4  C6  UNL     1     -34.931  15.380  -3.200  1.00 20.00     0.039 C 
HETATM    5  C7  UNL     1     -36.099  13.925  -4.943  1.00 20.00     0.151 A 
HETATM    6  C8  UNL     1     -34.811  14.449  -4.378  1.00 20.00     0.158 A 
HETATM    7  O9  UNL     1     -35.242  13.104  -4.144  1.00 20.00    -0.375 OA
ENDROOT
BRANCH   4   8
HETATM    8  C2  UNL     1     -33.639  16.022  -2.797  1.00 20.00    -0.030 C 
HETATM    9  C1  UNL     1     -33.552  17.112  -2.027  1.00 20.00     0.007 C 
ENDBRANCH   4   8
TORSDOF 1
ENDMDL
MODEL 5
REMARK VINA RESULT:      -3.9     12.051     12.544
REMARK  1 active torsions:
REMARK  status: ('A' for Active; 'I' for Inactive)
REMARK    1  A    between atoms: C2_2  and  C6_6 
ROOT
HETATM    1  C3  UNL     1     -34.061  16.224  -2.471  1.00 20.00     0.003 C 
HETATM    2  C4  UNL     1     -35.447  15.603  -2.735  1.00 20.00     0.011 C 
HETATM    3  C5  UNL     1     -33.065  16.091  -3.625  1.00 20.00     0.034 C 
HETATM    4  C6  UNL     1     -35.616  14.980  -4.135  1.00 20.00     0.039 C 
HETATM    5  C7  UNL     1     -33.078  14.698  -4.162  1.00 20.00     0.151 A 
HETATM    6  C8  UNL     1     -34.429  14.101  -4.431  1.00 20.00     0.158 A 
HETATM    7  O9  UNL     1     -33.581  14.551  -5.493  1.00 20.00    -0.375 OA
ENDROOT
BRANCH   4   8
HETATM    8  C2  UNL     1     -36.935  14.277  -4.237  1.00 20.00    -0.030 C 
HETATM    9  C1  UNL     1     -38.116  14.902  -4.255  1.00 20.00     0.007 C 
ENDBRANCH   4   8
TORSDOF 1
ENDMDL
MODEL 6
REMARK VINA RESULT:      -3.9      1.213      3.348
REMARK  1 active torsions:
REMARK  status: ('A' for Active; 'I' for Inactive)
REMARK    1  A    between atoms: C2_2  and  C6_6 
ROOT
HETATM    1  C3  UNL     1     -32.325   7.610   3.798  1.00 20.00     0.003 C 
HETATM    2  C4  UNL     1     -33.334   6.935   4.750  1.00 20.00     0.011 C 
HETATM    3  C5  UNL     1     -32.464   7.214   2.327  1.00 20.00     0.034 C 
HETATM    4  C6  UNL     1     -34.342   5.997   4.057  1.00 20.00     0.039 C 
HETATM    5  C7  UNL     1     -32.608   5.733   2.200  1.00 20.00     0.151 A 
HETATM    6  C8  UNL     1     -33.601   5.081   3.119  1.00 20.00     0.158 A 
HETATM    7  O9  UNL     1     -33.878   5.272   1.728  1.00 20.00    -0.375 OA
ENDROOT
BRANCH   4   8
HETATM    8  C2  UNL     1     -35.174   5.282   5.077  1.00 20.00    -0.030 C 
HETATM    9  C1  UNL     1     -34.786   5.059   6.336  1.00 20.00     0.007 C 
ENDBRANCH   4   8
TORSDOF 1
ENDMDL
MODEL 7
REMARK VINA RESULT:      -3.9     11.957     12.614
REMARK  1 active torsions:
REMARK  status: ('A' for Active; 'I' for Inactive)
REMARK    1  A    between atoms: C2_2  and  C6_6 
ROOT
HETATM    1  C3  UNL     1     -32.576  17.953  -1.899  1.00 20.00     0.003 C 
HETATM    2  C4  UNL     1     -33.126  16.858  -2.835  1.00 20.00     0.011 C 
HETATM    3  C5  UNL     1     -33.301  18.077  -0.557  1.00 20.00     0.034 C 
HETATM    4  C6  UNL     1     -34.296  16.042  -2.251  1.00 20.00     0.039 C 
HETATM    5  C7  UNL     1     -34.780  18.062  -0.765  1.00 20.00     0.151 A 
HETATM    6  C8  UNL     1     -35.314  16.986  -1.666  1.00 20.00     0.158 A 
HETATM    7  O9  UNL     1     -35.467  16.920  -0.244  1.00 20.00    -0.375 OA
ENDROOT
BRANCH   4   8
HETATM    8  C2  UNL     1     -34.851  15.113  -3.286  1.00 20.00    -0.030 C 
HETATM    9  C1  UNL     1     -34.103  14.432  -4.160  1.00 20.00     0.007 C 
ENDBRANCH   4   8
TORSDOF 1
ENDMDL
MODEL 8
REMARK VINA RESULT:      -3.9      9.174      9.655
REMARK  1 active torsions:
REMARK  status: ('A' for Active; 'I' for Inactive)
REMARK    1  A    between atoms: C2_2  and  C6_6 
ROOT
HETATM    1  C3  UNL     1     -43.417   5.830   1.503  1.00 20.00     0.003 C 
HETATM    2  C4  UNL     1     -42.709   7.138   1.094  1.00 20.00     0.011 C 
HETATM    3  C5  UNL     1     -43.086   4.618   0.630  1.00 20.00     0.034 C 
HETATM    4  C6  UNL     1     -41.755   7.002  -0.109  1.00 20.00     0.039 C 
HETATM    5  C7  UNL     1     -43.155   4.987  -0.816  1.00 20.00     0.151 A 
HETATM    6  C8  UNL     1     -42.454   6.253  -1.213  1.00 20.00     0.158 A 
HETATM    7  O9  UNL     1     -41.911   4.965  -1.521  1.00 20.00    -0.375 OA
ENDROOT
BRANCH   4   8
HETATM    8  C2  UNL     1     -41.237   8.346  -0.517  1.00 20.00    -0.030 C 
HETATM    9  C1  UNL     1     -41.373   9.456   0.217  1.00 20.00     0.007 C 
ENDBRANCH   4   8
TORSDOF 1
ENDMDL
MODEL 9
REMARK VINA RESULT:      -3.8      8.967      9.952
REMARK  1 active torsions:
REMARK  status: ('A' for Active; 'I' for Inactive)
REMARK    1  A    between atoms: C2_2  and  C6_6 
ROOT
HETATM    1  C3  UNL     1     -42.951   6.059   1.166  1.00 20.00     0.003 C 
HETATM    2  C4  UNL     1     -43.299   4.992   0.109  1.00 20.00     0.011 C 
HETATM    3  C5  UNL     1     -41.985   7.146   0.690  1.00 20.00     0.034 C 
HETATM    4  C6  UNL     1     -42.643   5.214  -1.268  1.00 20.00     0.039 C 
HETATM    5  C7  UNL     1     -40.835   6.533  -0.038  1.00 20.00     0.151 A 
HETATM    6  C8  UNL     1     -41.177   5.504  -1.076  1.00 20.00     0.158 A 
HETATM    7  O9  UNL     1     -40.760   6.825  -1.437  1.00 20.00    -0.375 OA
ENDROOT
BRANCH   4   8
HETATM    8  C2  UNL     1     -42.921   4.052  -2.171  1.00 20.00    -0.030 C 
HETATM    9  C1  UNL     1     -41.978   3.376  -2.835  1.00 20.00     0.007 C 
ENDBRANCH   4   8
TORSDOF 1
ENDMDL
