MODEL 1
REMARK VINA RESULT:      -3.5      0.000      0.000
REMARK  1 active torsions:
REMARK  status: ('A' for Active; 'I' for Inactive)
REMARK    1  A    between atoms: C3_3  and  C7_7 
ROOT
HETATM    1  C1  UNL     1     -35.662  16.868  -5.518  1.00 20.00     0.089 C 
HETATM    2  C2  UNL     1     -34.826  15.780  -6.177  1.00 20.00     0.053 C 
HETATM    3  C3  UNL     1     -34.977  15.211  -3.491  1.00 20.00     0.112 C 
HETATM    4  C4  UNL     1     -35.656  14.720  -6.898  1.00 20.00     0.022 C 
HETATM    5  S8  UNL     1     -36.414  16.194  -4.015  1.00 20.00    -0.152 SA
HETATM    6  S9  UNL     1     -33.809  15.009  -4.878  1.00 20.00    -0.148 SA
ENDROOT
BRANCH   3   7
HETATM    7  C7  UNL     1     -34.274  15.898  -2.328  1.00 20.00     0.001 C 
HETATM    8  C5  UNL     1     -33.122  16.770  -2.830  1.00 20.00     0.011 C 
HETATM    9  C6  UNL     1     -35.262  16.734  -1.516  1.00 20.00     0.011 C 
ENDBRANCH   3   7
TORSDOF 1
ENDMDL
MODEL 2
REMARK VINA RESULT:      -3.4     17.594     18.487
REMARK  1 active torsions:
REMARK  status: ('A' for Active; 'I' for Inactive)
REMARK    1  A    between atoms: C3_3  and  C7_7 
ROOT
HETATM    1  C1  UNL     1     -23.664  16.595  10.161  1.00 20.00     0.089 C 
HETATM    2  C2  UNL     1     -23.782  17.775   9.207  1.00 20.00     0.053 C 
HETATM    3  C3  UNL     1     -24.748  18.575  11.654  1.00 20.00     0.112 C 
HETATM    4  C4  UNL     1     -22.467  18.521   8.988  1.00 20.00     0.022 C 
HETATM    5  S8  UNL     1     -23.546  17.225  11.855  1.00 20.00    -0.152 SA
HETATM    6  S9  UNL     1     -25.043  18.902   9.884  1.00 20.00    -0.148 SA
ENDROOT
BRANCH   3   7
HETATM    7  C7  UNL     1     -26.061  18.205  12.330  1.00 20.00     0.001 C 
HETATM    8  C5  UNL     1     -27.238  18.898  11.642  1.00 20.00     0.011 C 
HETATM    9  C6  UNL     1     -26.261  16.690  12.331  1.00 20.00     0.011 C 
ENDBRANCH   3   7
TORSDOF 1
ENDMDL
MODEL 3
REMARK VINA RESULT:      -3.3      1.145      1.937
REMARK  1 active torsions:
REMARK  status: ('A' for Active; 'I' for Inactive)
REMARK    1  A    between atoms: C3_3  and  C7_7 
ROOT
HETATM    1  C1  UNL     1     -35.680  14.083  -4.442  1.00 20.00     0.089 C 
HETATM    2  C2  UNL     1     -36.346  15.283  -5.101  1.00 20.00     0.053 C 
HETATM    3  C3  UNL     1     -34.047  16.165  -3.877  1.00 20.00     0.112 C 
HETATM    4  C4  UNL     1     -36.104  15.369  -6.606  1.00 20.00     0.022 C 
HETATM    5  S8  UNL     1     -33.903  14.405  -4.307  1.00 20.00    -0.152 SA
HETATM    6  S9  UNL     1     -35.719  16.779  -4.273  1.00 20.00    -0.148 SA
ENDROOT
BRANCH   3   7
HETATM    7  C7  UNL     1     -33.770  16.362  -2.393  1.00 20.00     0.001 C 
HETATM    8  C5  UNL     1     -32.888  17.590  -2.166  1.00 20.00     0.011 C 
HETATM    9  C6  UNL     1     -35.076  16.491  -1.611  1.00 20.00     0.011 C 
ENDBRANCH   3   7
TORSDOF 1
ENDMDL
MODEL 4
REMARK VINA RESULT:      -3.2      1.899      2.402
REMARK  1 active torsions:
REMARK  status: ('A' for Active; 'I' for Inactive)
REMARK    1  A    between atoms: C3_3  and  C7_7 
ROOT
HETATM    1  C1  UNL     1     -36.831  16.817  -4.776  1.00 20.00     0.089 C 
HETATM    2  C2  UNL     1     -37.466  15.449  -4.980  1.00 20.00     0.053 C 
HETATM    3  C3  UNL     1     -35.428  15.165  -3.155  1.00 20.00     0.112 C 
HETATM    4  C4  UNL     1     -38.773  15.258  -4.212  1.00 20.00     0.022 C 
HETATM    5  S8  UNL     1     -36.068  16.867  -3.134  1.00 20.00    -0.152 SA
HETATM    6  S9  UNL     1     -36.246  14.197  -4.468  1.00 20.00    -0.148 SA
ENDROOT
BRANCH   3   7
HETATM    7  C7  UNL     1     -33.925  15.179  -3.393  1.00 20.00     0.001 C 
HETATM    8  C5  UNL     1     -33.603  14.840  -4.849  1.00 20.00     0.011 C 
HETATM    9  C6  UNL     1     -33.330  16.536  -3.018  1.00 20.00     0.011 C 
ENDBRANCH   3   7
TORSDOF 1
ENDMDL
MODEL 5
REMARK VINA RESULT:      -3.2      1.439      4.189
REMARK  1 active torsions:
REMARK  status: ('A' for Active; 'I' for Inactive)
REMARK    1  A    between atoms: C3_3  and  C7_7 
ROOT
HETATM    1  C1  UNL     1     -34.651  13.957  -3.845  1.00 20.00     0.089 C 
HETATM    2  C2  UNL     1     -34.231  15.372  -3.470  1.00 20.00     0.053 C 
HETATM    3  C3  UNL     1     -36.013  15.550  -5.556  1.00 20.00     0.112 C 
HETATM    4  C4  UNL     1     -34.944  15.916  -2.234  1.00 20.00     0.022 C 
HETATM    5  S8  UNL     1     -36.289  14.021  -4.613  1.00 20.00    -0.152 SA
HETATM    6  S9  UNL     1     -34.557  16.439  -4.909  1.00 20.00    -0.148 SA
ENDROOT
BRANCH   3   7
HETATM    7  C7  UNL     1     -35.798  15.222  -7.027  1.00 20.00     0.001 C 
HETATM    8  C5  UNL     1     -36.639  16.140  -7.915  1.00 20.00     0.011 C 
HETATM    9  C6  UNL     1     -34.319  15.332  -7.395  1.00 20.00     0.011 C 
ENDBRANCH   3   7
TORSDOF 1
ENDMDL
MODEL 6
REMARK VINA RESULT:      -3.2      1.965      2.916
REMARK  1 active torsions:
REMARK  status: ('A' for Active; 'I' for Inactive)
REMARK    1  A    between atoms: C3_3  and  C7_7 
ROOT
HETATM    1  C1  UNL     1     -37.079  14.340  -4.490  1.00 20.00     0.089 C 
HETATM    2  C2  UNL     1     -37.738  15.683  -4.207  1.00 20.00     0.053 C 
HETATM    3  C3  UNL     1     -35.106  16.158  -4.844  1.00 20.00     0.112 C 
HETATM    4  C4  UNL     1     -38.574  16.214  -5.371  1.00 20.00     0.022 C 
HETATM    5  S8  UNL     1     -35.672  14.604  -5.600  1.00 20.00    -0.152 SA
HETATM    6  S9  UNL     1     -36.416  16.865  -3.790  1.00 20.00    -0.148 SA
ENDROOT
BRANCH   3   7
HETATM    7  C7  UNL     1     -33.859  15.904  -4.007  1.00 20.00     0.001 C 
HETATM    8  C5  UNL     1     -34.189  15.960  -2.515  1.00 20.00     0.011 C 
HETATM    9  C6  UNL     1     -33.233  14.556  -4.365  1.00 20.00     0.011 C 
ENDBRANCH   3   7
TORSDOF 1
ENDMDL
MODEL 7
REMARK VINA RESULT:      -3.2      1.657      3.582
REMARK  1 active torsions:
REMARK  status: ('A' for Active; 'I' for Inactive)
REMARK    1  A    between atoms: C3_3  and  C7_7 
ROOT
HETATM    1  C1  UNL     1     -35.100  16.167  -2.005  1.00 20.00     0.089 C 
HETATM    2  C2  UNL     1     -33.752  16.047  -2.703  1.00 20.00     0.053 C 
HETATM    3  C3  UNL     1     -35.707  15.981  -4.636  1.00 20.00     0.112 C 
HETATM    4  C4  UNL     1     -33.023  17.380  -2.861  1.00 20.00     0.022 C 
HETATM    5  S8  UNL     1     -36.296  16.875  -3.166  1.00 20.00    -0.152 SA
HETATM    6  S9  UNL     1     -34.046  15.291  -4.334  1.00 20.00    -0.148 SA
ENDROOT
BRANCH   3   7
HETATM    7  C7  UNL     1     -36.673  14.855  -4.980  1.00 20.00     0.001 C 
HETATM    8  C5  UNL     1     -36.101  13.502  -4.553  1.00 20.00     0.011 C 
HETATM    9  C6  UNL     1     -38.034  15.090  -4.325  1.00 20.00     0.011 C 
ENDBRANCH   3   7
TORSDOF 1
ENDMDL
MODEL 8
REMARK VINA RESULT:      -3.2     17.589     18.670
REMARK  1 active torsions:
REMARK  status: ('A' for Active; 'I' for Inactive)
REMARK    1  A    between atoms: C3_3  and  C7_7 
ROOT
HETATM    1  C1  UNL     1     -24.242  17.504  12.331  1.00 20.00     0.089 C 
HETATM    2  C2  UNL     1     -25.072  18.596  11.671  1.00 20.00     0.053 C 
HETATM    3  C3  UNL     1     -23.945  17.075   9.676  1.00 20.00     0.112 C 
HETATM    4  C4  UNL     1     -26.571  18.302  11.654  1.00 20.00     0.022 C 
HETATM    5  S8  UNL     1     -24.123  16.097  11.198  1.00 20.00    -0.152 SA
HETATM    6  S9  UNL     1     -24.451  18.803   9.971  1.00 20.00    -0.148 SA
ENDROOT
BRANCH   3   7
HETATM    7  C7  UNL     1     -22.499  17.041   9.203  1.00 20.00     0.001 C 
HETATM    8  C5  UNL     1     -22.394  17.502   7.749  1.00 20.00     0.011 C 
HETATM    9  C6  UNL     1     -21.615  17.905  10.102  1.00 20.00     0.011 C 
ENDBRANCH   3   7
TORSDOF 1
ENDMDL
MODEL 9
REMARK VINA RESULT:      -3.1      1.883      2.428
REMARK  1 active torsions:
REMARK  status: ('A' for Active; 'I' for Inactive)
REMARK    1  A    between atoms: C3_3  and  C7_7 
ROOT
HETATM    1  C1  UNL     1     -37.808  15.804  -4.033  1.00 20.00     0.089 C 
HETATM    2  C2  UNL     1     -37.360  16.909  -4.979  1.00 20.00     0.053 C 
HETATM    3  C3  UNL     1     -35.360  15.025  -4.884  1.00 20.00     0.112 C 
HETATM    4  C4  UNL     1     -37.985  16.817  -6.370  1.00 20.00     0.022 C 
HETATM    5  S8  UNL     1     -36.966  14.268  -4.493  1.00 20.00    -0.152 SA
HETATM    6  S9  UNL     1     -35.544  16.827  -5.096  1.00 20.00    -0.148 SA
ENDROOT
BRANCH   3   7
HETATM    7  C7  UNL     1     -34.366  14.742  -3.766  1.00 20.00     0.001 C 
HETATM    8  C5  UNL     1     -32.946  14.624  -4.321  1.00 20.00     0.011 C 
HETATM    9  C6  UNL     1     -34.432  15.830  -2.695  1.00 20.00     0.011 C 
ENDBRANCH   3   7
TORSDOF 1
ENDMDL
