MODEL 1
REMARK VINA RESULT:      -4.9      0.000      0.000
REMARK  1 active torsions:
REMARK  status: ('A' for Active; 'I' for Inactive)
REMARK    1  A    between atoms: C6_6  and  C11_11 
ROOT
HETATM    1  C1  UNL     1     -35.276  13.749  -4.358  1.00 20.00     0.136 C 
HETATM    2  C2  UNL     1     -33.797  14.046  -4.058  1.00 20.00     0.085 C 
HETATM    3  C3  UNL     1     -35.721  16.769  -2.549  1.00 20.00     0.006 C 
HETATM    4  C4  UNL     1     -36.570  15.753  -3.306  1.00 20.00     0.018 C 
HETATM    5  C5  UNL     1     -34.183  15.543  -3.924  1.00 20.00     0.012 C 
HETATM    6  C6  UNL     1     -34.345  16.109  -2.506  1.00 20.00    -0.006 C 
HETATM    7  C7  UNL     1     -35.640  15.254  -4.417  1.00 20.00     0.021 C 
HETATM    8  C8  UNL     1     -35.995  15.771  -5.800  1.00 20.00     0.024 C 
HETATM    9  O12 UNL     1     -35.911  12.725  -4.493  1.00 20.00    -0.297 OA
ENDROOT
BRANCH   6  10
HETATM   10  C11 UNL     1     -33.231  17.080  -2.160  1.00 20.00    -0.018 C 
HETATM   11  C9  UNL     1     -32.908  17.975  -3.354  1.00 20.00     0.010 C 
HETATM   12  C10 UNL     1     -33.615  17.924  -0.945  1.00 20.00     0.010 C 
ENDBRANCH   6  10
TORSDOF 1
ENDMDL
MODEL 2
REMARK VINA RESULT:      -4.9      1.112      1.273
REMARK  1 active torsions:
REMARK  status: ('A' for Active; 'I' for Inactive)
REMARK    1  A    between atoms: C6_6  and  C11_11 
ROOT
HETATM    1  C1  UNL     1     -34.306  14.359  -3.967  1.00 20.00     0.136 C 
HETATM    2  C2  UNL     1     -32.927  15.005  -4.180  1.00 20.00     0.085 C 
HETATM    3  C3  UNL     1     -34.651  17.053  -1.684  1.00 20.00     0.006 C 
HETATM    4  C4  UNL     1     -35.488  15.901  -2.229  1.00 20.00     0.018 C 
HETATM    5  C5  UNL     1     -33.541  16.344  -3.690  1.00 20.00     0.012 C 
HETATM    6  C6  UNL     1     -33.259  16.765  -2.242  1.00 20.00    -0.006 C 
HETATM    7  C7  UNL     1     -34.977  15.722  -3.662  1.00 20.00     0.021 C 
HETATM    8  C8  UNL     1     -35.941  16.212  -4.728  1.00 20.00     0.024 C 
HETATM    9  O12 UNL     1     -34.709  13.216  -4.017  1.00 20.00    -0.297 OA
ENDROOT
BRANCH   6  10
HETATM   10  C11 UNL     1     -32.333  17.966  -2.178  1.00 20.00    -0.018 C 
HETATM   11  C9  UNL     1     -32.707  18.990  -3.247  1.00 20.00     0.010 C 
HETATM   12  C10 UNL     1     -32.374  18.601  -0.789  1.00 20.00     0.010 C 
ENDBRANCH   6  10
TORSDOF 1
ENDMDL
MODEL 3
REMARK VINA RESULT:      -4.7      1.708      2.752
REMARK  1 active torsions:
REMARK  status: ('A' for Active; 'I' for Inactive)
REMARK    1  A    between atoms: C6_6  and  C11_11 
ROOT
HETATM    1  C1  UNL     1     -37.028  15.996  -5.976  1.00 20.00     0.136 C 
HETATM    2  C2  UNL     1     -36.349  17.104  -5.153  1.00 20.00     0.085 C 
HETATM    3  C3  UNL     1     -35.122  13.924  -3.818  1.00 20.00     0.006 C 
HETATM    4  C4  UNL     1     -36.152  13.775  -4.932  1.00 20.00     0.018 C 
HETATM    5  C5  UNL     1     -36.180  16.070  -4.008  1.00 20.00     0.012 C 
HETATM    6  C6  UNL     1     -34.801  15.417  -3.839  1.00 20.00    -0.006 C 
HETATM    7  C7  UNL     1     -37.040  15.014  -4.779  1.00 20.00     0.021 C 
HETATM    8  C8  UNL     1     -38.416  14.723  -4.206  1.00 20.00     0.024 C 
HETATM    9  O12 UNL     1     -37.406  15.925  -7.127  1.00 20.00    -0.297 OA
ENDROOT
BRANCH   6  10
HETATM   10  C11 UNL     1     -34.106  15.893  -2.576  1.00 20.00    -0.018 C 
HETATM   11  C9  UNL     1     -33.040  16.934  -2.910  1.00 20.00     0.010 C 
HETATM   12  C10 UNL     1     -35.123  16.463  -1.588  1.00 20.00     0.010 C 
ENDBRANCH   6  10
TORSDOF 1
ENDMDL
MODEL 4
REMARK VINA RESULT:      -4.7     15.234     17.719
REMARK  1 active torsions:
REMARK  status: ('A' for Active; 'I' for Inactive)
REMARK    1  A    between atoms: C6_6  and  C11_11 
ROOT
HETATM    1  C1  UNL     1     -22.574  17.765  11.417  1.00 20.00     0.136 C 
HETATM    2  C2  UNL     1     -22.414  17.709   9.889  1.00 20.00     0.085 C 
HETATM    3  C3  UNL     1     -25.871  18.728  10.530  1.00 20.00     0.006 C 
HETATM    4  C4  UNL     1     -25.064  18.438  11.791  1.00 20.00     0.018 C 
HETATM    5  C5  UNL     1     -23.949  17.494   9.793  1.00 20.00     0.012 C 
HETATM    6  C6  UNL     1     -24.814  18.708   9.429  1.00 20.00    -0.006 C 
HETATM    7  C7  UNL     1     -24.067  17.361  11.348  1.00 20.00     0.021 C 
HETATM    8  C8  UNL     1     -24.379  15.973  11.881  1.00 20.00     0.024 C 
HETATM    9  O12 UNL     1     -21.815  18.028  12.326  1.00 20.00    -0.297 OA
ENDROOT
BRANCH   6  10
HETATM   10  C11 UNL     1     -25.407  18.576   8.038  1.00 20.00    -0.018 C 
HETATM   11  C9  UNL     1     -26.769  19.262   7.967  1.00 20.00     0.010 C 
HETATM   12  C10 UNL     1     -24.457  19.158   6.992  1.00 20.00     0.010 C 
ENDBRANCH   6  10
TORSDOF 1
ENDMDL
MODEL 5
REMARK VINA RESULT:      -4.6     15.890     17.623
REMARK  1 active torsions:
REMARK  status: ('A' for Active; 'I' for Inactive)
REMARK    1  A    between atoms: C6_6  and  C11_11 
ROOT
HETATM    1  C1  UNL     1     -23.267  18.784   9.287  1.00 20.00     0.136 C 
HETATM    2  C2  UNL     1     -24.646  19.226   8.769  1.00 20.00     0.085 C 
HETATM    3  C3  UNL     1     -25.064  18.501  12.332  1.00 20.00     0.006 C 
HETATM    4  C4  UNL     1     -23.659  18.233  11.804  1.00 20.00     0.018 C 
HETATM    5  C5  UNL     1     -25.278  18.431   9.943  1.00 20.00     0.012 C 
HETATM    6  C6  UNL     1     -25.739  19.227  11.171  1.00 20.00    -0.006 C 
HETATM    7  C7  UNL     1     -23.887  17.835  10.342  1.00 20.00     0.021 C 
HETATM    8  C8  UNL     1     -23.687  16.355  10.065  1.00 20.00     0.024 C 
HETATM    9  O12 UNL     1     -22.129  19.074   8.982  1.00 20.00    -0.297 OA
ENDROOT
BRANCH   6  10
HETATM   10  C11 UNL     1     -27.253  19.253  11.286  1.00 20.00    -0.018 C 
HETATM   11  C9  UNL     1     -27.897  19.263   9.902  1.00 20.00     0.010 C 
HETATM   12  C10 UNL     1     -27.749  18.058  12.100  1.00 20.00     0.010 C 
ENDBRANCH   6  10
TORSDOF 1
ENDMDL
MODEL 6
REMARK VINA RESULT:      -4.5      1.420      2.552
REMARK  1 active torsions:
REMARK  status: ('A' for Active; 'I' for Inactive)
REMARK    1  A    between atoms: C6_6  and  C11_11 
ROOT
HETATM    1  C1  UNL     1     -36.052  15.229  -5.808  1.00 20.00     0.136 C 
HETATM    2  C2  UNL     1     -36.601  16.319  -4.873  1.00 20.00     0.085 C 
HETATM    3  C3  UNL     1     -33.201  15.593  -3.727  1.00 20.00     0.006 C 
HETATM    4  C4  UNL     1     -33.662  14.729  -4.896  1.00 20.00     0.018 C 
HETATM    5  C5  UNL     1     -35.588  15.831  -3.802  1.00 20.00     0.012 C 
HETATM    6  C6  UNL     1     -34.301  16.647  -3.621  1.00 20.00    -0.006 C 
HETATM    7  C7  UNL     1     -35.176  14.611  -4.691  1.00 20.00     0.021 C 
HETATM    8  C8  UNL     1     -35.629  13.245  -4.206  1.00 20.00     0.024 C 
HETATM    9  O12 UNL     1     -36.236  14.962  -6.977  1.00 20.00    -0.297 OA
ENDROOT
BRANCH   6  10
HETATM   10  C11 UNL     1     -34.289  17.386  -2.294  1.00 20.00    -0.018 C 
HETATM   11  C9  UNL     1     -35.109  16.631  -1.251  1.00 20.00     0.010 C 
HETATM   12  C10 UNL     1     -32.855  17.588  -1.807  1.00 20.00     0.010 C 
ENDBRANCH   6  10
TORSDOF 1
ENDMDL
MODEL 7
REMARK VINA RESULT:      -4.4      2.478      4.558
REMARK  1 active torsions:
REMARK  status: ('A' for Active; 'I' for Inactive)
REMARK    1  A    between atoms: C6_6  and  C11_11 
ROOT
HETATM    1  C1  UNL     1     -34.142  17.761  -0.465  1.00 20.00     0.136 C 
HETATM    2  C2  UNL     1     -35.484  17.014  -0.553  1.00 20.00     0.085 C 
HETATM    3  C3  UNL     1     -33.534  15.979  -3.472  1.00 20.00     0.006 C 
HETATM    4  C4  UNL     1     -32.841  17.019  -2.598  1.00 20.00     0.018 C 
HETATM    5  C5  UNL     1     -35.259  16.906  -2.085  1.00 20.00     0.012 C 
HETATM    6  C6  UNL     1     -34.741  15.569  -2.632  1.00 20.00    -0.006 C 
HETATM    7  C7  UNL     1     -33.998  17.830  -2.006  1.00 20.00     0.021 C 
HETATM    8  C8  UNL     1     -34.147  19.220  -2.599  1.00 20.00     0.024 C 
HETATM    9  O12 UNL     1     -33.461  18.145   0.462  1.00 20.00    -0.297 OA
ENDROOT
BRANCH   6  10
HETATM   10  C11 UNL     1     -35.805  14.844  -3.437  1.00 20.00    -0.018 C 
HETATM   11  C9  UNL     1     -36.472  15.796  -4.426  1.00 20.00     0.010 C 
HETATM   12  C10 UNL     1     -35.200  13.646  -4.168  1.00 20.00     0.010 C 
ENDBRANCH   6  10
TORSDOF 1
ENDMDL
MODEL 8
REMARK VINA RESULT:      -4.3      1.607      2.832
REMARK  1 active torsions:
REMARK  status: ('A' for Active; 'I' for Inactive)
REMARK    1  A    between atoms: C6_6  and  C11_11 
ROOT
HETATM    1  C1  UNL     1     -35.657  16.048  -4.751  1.00 20.00     0.136 C 
HETATM    2  C2  UNL     1     -36.644  16.307  -3.601  1.00 20.00     0.085 C 
HETATM    3  C3  UNL     1     -33.294  16.847  -2.228  1.00 20.00     0.006 C 
HETATM    4  C4  UNL     1     -33.304  16.394  -3.685  1.00 20.00     0.018 C 
HETATM    5  C5  UNL     1     -35.495  15.970  -2.614  1.00 20.00     0.012 C 
HETATM    6  C6  UNL     1     -34.765  17.144  -1.947  1.00 20.00    -0.006 C 
HETATM    7  C7  UNL     1     -34.562  15.525  -3.789  1.00 20.00     0.021 C 
HETATM    8  C8  UNL     1     -34.279  14.037  -3.894  1.00 20.00     0.024 C 
HETATM    9  O12 UNL     1     -35.719  16.200  -5.953  1.00 20.00    -0.297 OA
ENDROOT
BRANCH   6  10
HETATM   10  C11 UNL     1     -35.080  17.229  -0.464  1.00 20.00    -0.018 C 
HETATM   11  C9  UNL     1     -34.039  18.080   0.258  1.00 20.00     0.010 C 
HETATM   12  C10 UNL     1     -36.482  17.796  -0.247  1.00 20.00     0.010 C 
ENDBRANCH   6  10
TORSDOF 1
ENDMDL
MODEL 9
REMARK VINA RESULT:      -4.3     15.160     17.501
REMARK  1 active torsions:
REMARK  status: ('A' for Active; 'I' for Inactive)
REMARK    1  A    between atoms: C6_6  and  C11_11 
ROOT
HETATM    1  C1  UNL     1     -24.141  16.559  11.409  1.00 20.00     0.136 C 
HETATM    2  C2  UNL     1     -25.300  17.493  11.022  1.00 20.00     0.085 C 
HETATM    3  C3  UNL     1     -22.811  17.778   8.354  1.00 20.00     0.006 C 
HETATM    4  C4  UNL     1     -22.393  16.861   9.499  1.00 20.00     0.018 C 
HETATM    5  C5  UNL     1     -24.287  18.305  10.172  1.00 20.00     0.012 C 
HETATM    6  C6  UNL     1     -24.280  18.063   8.656  1.00 20.00    -0.006 C 
HETATM    7  C7  UNL     1     -23.088  17.465  10.724  1.00 20.00     0.021 C 
HETATM    8  C8  UNL     1     -22.149  18.184  11.676  1.00 20.00     0.024 C 
HETATM    9  O12 UNL     1     -24.081  15.511  12.017  1.00 20.00    -0.297 OA
ENDROOT
BRANCH   6  10
HETATM   10  C11 UNL     1     -24.821  19.260   7.895  1.00 20.00    -0.018 C 
HETATM   11  C9  UNL     1     -24.305  19.262   6.459  1.00 20.00     0.010 C 
HETATM   12  C10 UNL     1     -26.349  19.263   7.917  1.00 20.00     0.010 C 
ENDBRANCH   6  10
TORSDOF 1
ENDMDL
