MODEL 1
REMARK VINA RESULT:      -3.9      0.000      0.000
REMARK  1 active torsions:
REMARK  status: ('A' for Active; 'I' for Inactive)
REMARK    1  A    between atoms: C3_3  and  N9_9 
ROOT
HETATM    1  C1  UNL     1     -33.833   5.242   3.211  1.00 20.00     0.079 C 
HETATM    2  C4  UNL     1     -34.969   4.767   4.119  1.00 20.00     0.070 C 
HETATM    3  C5  UNL     1     -34.508   4.616   5.569  1.00 20.00     0.007 C 
HETATM    4  C6  UNL     1     -34.598   5.911   6.371  1.00 20.00     0.002 C 
HETATM    5  C7  UNL     1     -33.703   7.036   5.861  1.00 20.00     0.020 C 
HETATM    6  C8  UNL     1     -33.993   7.441   4.418  1.00 20.00     0.129 C 
HETATM    7  N9  UNL     1     -33.349   6.541   3.442  1.00 20.00    -0.352 N 
HETATM    8  S10 UNL     1     -33.266   4.149   2.048  1.00 20.00    -0.065 SA
ENDROOT
BRANCH   7   9
HETATM    9  C3  UNL     1     -32.242   7.058   2.791  1.00 20.00     0.081 C 
HETATM   10  C2  UNL     1     -32.329   7.767   1.664  1.00 20.00     0.030 C 
ENDBRANCH   7   9
TORSDOF 1
ENDMDL
MODEL 2
REMARK VINA RESULT:      -3.8     12.326     13.201
REMARK  1 active torsions:
REMARK  status: ('A' for Active; 'I' for Inactive)
REMARK    1  A    between atoms: C3_3  and  N9_9 
ROOT
HETATM    1  C1  UNL     1     -34.476  15.107  -5.549  1.00 20.00     0.079 C 
HETATM    2  C4  UNL     1     -33.447  14.756  -4.472  1.00 20.00     0.070 C 
HETATM    3  C5  UNL     1     -33.182  15.937  -3.539  1.00 20.00     0.007 C 
HETATM    4  C6  UNL     1     -34.163  16.020  -2.373  1.00 20.00     0.002 C 
HETATM    5  C7  UNL     1     -35.614  16.250  -2.782  1.00 20.00     0.020 C 
HETATM    6  C8  UNL     1     -36.172  15.161  -3.695  1.00 20.00     0.129 C 
HETATM    7  N9  UNL     1     -35.786  15.358  -5.105  1.00 20.00    -0.352 N 
HETATM    8  S10 UNL     1     -33.924  15.183  -7.149  1.00 20.00    -0.065 SA
ENDROOT
BRANCH   7   9
HETATM    9  C3  UNL     1     -36.790  15.813  -5.942  1.00 20.00     0.081 C 
HETATM   10  C2  UNL     1     -37.081  17.107  -6.092  1.00 20.00     0.030 C 
ENDBRANCH   7   9
TORSDOF 1
ENDMDL
MODEL 3
REMARK VINA RESULT:      -3.8     12.049     12.871
REMARK  1 active torsions:
REMARK  status: ('A' for Active; 'I' for Inactive)
REMARK    1  A    between atoms: C3_3  and  N9_9 
ROOT
HETATM    1  C1  UNL     1     -35.767  15.521  -4.081  1.00 20.00     0.079 C 
HETATM    2  C4  UNL     1     -36.105  16.442  -2.906  1.00 20.00     0.070 C 
HETATM    3  C5  UNL     1     -35.142  16.239  -1.736  1.00 20.00     0.007 C 
HETATM    4  C6  UNL     1     -33.872  17.077  -1.844  1.00 20.00     0.002 C 
HETATM    5  C7  UNL     1     -32.994  16.745  -3.046  1.00 20.00     0.020 C 
HETATM    6  C8  UNL     1     -33.702  16.921  -4.387  1.00 20.00     0.129 C 
HETATM    7  N9  UNL     1     -34.546  15.761  -4.733  1.00 20.00    -0.352 N 
HETATM    8  S10 UNL     1     -36.882  14.301  -4.451  1.00 20.00    -0.065 SA
ENDROOT
BRANCH   7   9
HETATM    9  C3  UNL     1     -34.047  14.933  -5.724  1.00 20.00     0.081 C 
HETATM   10  C2  UNL     1     -34.090  15.245  -7.021  1.00 20.00     0.030 C 
ENDBRANCH   7   9
TORSDOF 1
ENDMDL
MODEL 4
REMARK VINA RESULT:      -3.8     16.206     17.102
REMARK  1 active torsions:
REMARK  status: ('A' for Active; 'I' for Inactive)
REMARK    1  A    between atoms: C3_3  and  N9_9 
ROOT
HETATM    1  C1  UNL     1     -23.296  18.124  10.796  1.00 20.00     0.079 C 
HETATM    2  C4  UNL     1     -22.386  18.639   9.679  1.00 20.00     0.070 C 
HETATM    3  C5  UNL     1     -22.668  17.935   8.352  1.00 20.00     0.007 C 
HETATM    4  C6  UNL     1     -23.788  18.587   7.546  1.00 20.00     0.002 C 
HETATM    5  C7  UNL     1     -25.154  18.560   8.224  1.00 20.00     0.020 C 
HETATM    6  C8  UNL     1     -25.178  19.263   9.579  1.00 20.00     0.129 C 
HETATM    7  N9  UNL     1     -24.667  18.404  10.665  1.00 20.00    -0.352 N 
HETATM    8  S10 UNL     1     -22.562  17.253  12.050  1.00 20.00    -0.065 SA
ENDROOT
BRANCH   7   9
HETATM    9  C3  UNL     1     -25.625  17.894  11.525  1.00 20.00     0.081 C 
HETATM   10  C2  UNL     1     -26.642  18.620  11.992  1.00 20.00     0.030 C 
ENDBRANCH   7   9
TORSDOF 1
ENDMDL
MODEL 5
REMARK VINA RESULT:      -3.7     11.939     12.783
REMARK  1 active torsions:
REMARK  status: ('A' for Active; 'I' for Inactive)
REMARK    1  A    between atoms: C3_3  and  N9_9 
ROOT
HETATM    1  C1  UNL     1     -36.232  15.204  -3.771  1.00 20.00     0.079 C 
HETATM    2  C4  UNL     1     -35.224  14.097  -4.089  1.00 20.00     0.070 C 
HETATM    3  C5  UNL     1     -34.025  14.633  -4.871  1.00 20.00     0.007 C 
HETATM    4  C6  UNL     1     -32.919  15.189  -3.978  1.00 20.00     0.002 C 
HETATM    5  C7  UNL     1     -33.327  16.397  -3.142  1.00 20.00     0.020 C 
HETATM    6  C8  UNL     1     -34.498  16.123  -2.201  1.00 20.00     0.129 C 
HETATM    7  N9  UNL     1     -35.801  16.208  -2.887  1.00 20.00    -0.352 N 
HETATM    8  S10 UNL     1     -37.741  15.117  -4.537  1.00 20.00    -0.065 SA
ENDROOT
BRANCH   7   9
HETATM    9  C3  UNL     1     -36.551  17.338  -2.609  1.00 20.00     0.081 C 
HETATM   10  C2  UNL     1     -36.360  18.506  -3.225  1.00 20.00     0.030 C 
ENDBRANCH   7   9
TORSDOF 1
ENDMDL
MODEL 6
REMARK VINA RESULT:      -3.6     12.333     13.069
REMARK  1 active torsions:
REMARK  status: ('A' for Active; 'I' for Inactive)
REMARK    1  A    between atoms: C3_3  and  N9_9 
ROOT
HETATM    1  C1  UNL     1     -32.574  18.260  -0.684  1.00 20.00     0.079 C 
HETATM    2  C4  UNL     1     -32.644  18.099  -2.204  1.00 20.00     0.070 C 
HETATM    3  C5  UNL     1     -33.024  16.672  -2.603  1.00 20.00     0.007 C 
HETATM    4  C6  UNL     1     -34.531  16.438  -2.651  1.00 20.00     0.002 C 
HETATM    5  C7  UNL     1     -35.239  16.599  -1.310  1.00 20.00     0.020 C 
HETATM    6  C8  UNL     1     -35.073  17.985  -0.692  1.00 20.00     0.129 C 
HETATM    7  N9  UNL     1     -33.786  18.132   0.016  1.00 20.00    -0.352 N 
HETATM    8  S10 UNL     1     -31.048  18.547  -0.007  1.00 20.00    -0.065 SA
ENDROOT
BRANCH   7   9
HETATM    9  C3  UNL     1     -33.860  18.124   1.398  1.00 20.00     0.081 C 
HETATM   10  C2  UNL     1     -34.998  18.323   2.066  1.00 20.00     0.030 C 
ENDBRANCH   7   9
TORSDOF 1
ENDMDL
MODEL 7
REMARK VINA RESULT:      -3.6     12.126     13.033
REMARK  1 active torsions:
REMARK  status: ('A' for Active; 'I' for Inactive)
REMARK    1  A    between atoms: C3_3  and  N9_9 
ROOT
HETATM    1  C1  UNL     1     -33.136  17.901  -1.825  1.00 20.00     0.079 C 
HETATM    2  C4  UNL     1     -32.923  17.435  -3.267  1.00 20.00     0.070 C 
HETATM    3  C5  UNL     1     -33.068  15.919  -3.397  1.00 20.00     0.007 C 
HETATM    4  C6  UNL     1     -34.509  15.464  -3.613  1.00 20.00     0.002 C 
HETATM    5  C7  UNL     1     -35.452  15.782  -2.458  1.00 20.00     0.020 C 
HETATM    6  C8  UNL     1     -35.549  17.272  -2.139  1.00 20.00     0.129 C 
HETATM    7  N9  UNL     1     -34.429  17.740  -1.300  1.00 20.00    -0.352 N 
HETATM    8  S10 UNL     1     -31.791  18.533  -1.011  1.00 20.00    -0.065 SA
ENDROOT
BRANCH   7   9
HETATM    9  C3  UNL     1     -34.740  17.994   0.025  1.00 20.00     0.081 C 
HETATM   10  C2  UNL     1     -35.543  17.208   0.746  1.00 20.00     0.030 C 
ENDBRANCH   7   9
TORSDOF 1
ENDMDL
MODEL 8
REMARK VINA RESULT:      -3.5     12.075     13.346
REMARK  1 active torsions:
REMARK  status: ('A' for Active; 'I' for Inactive)
REMARK    1  A    between atoms: C3_3  and  N9_9 
ROOT
HETATM    1  C1  UNL     1     -36.229  16.264  -4.237  1.00 20.00     0.079 C 
HETATM    2  C4  UNL     1     -36.310  15.764  -5.681  1.00 20.00     0.070 C 
HETATM    3  C5  UNL     1     -35.010  16.026  -6.442  1.00 20.00     0.007 C 
HETATM    4  C6  UNL     1     -33.972  14.921  -6.268  1.00 20.00     0.002 C 
HETATM    5  C7  UNL     1     -33.478  14.738  -4.836  1.00 20.00     0.020 C 
HETATM    6  C8  UNL     1     -34.588  14.401  -3.844  1.00 20.00     0.129 C 
HETATM    7  N9  UNL     1     -35.322  15.600  -3.394  1.00 20.00    -0.352 N 
HETATM    8  S10 UNL     1     -37.217  17.575  -3.818  1.00 20.00    -0.065 SA
ENDROOT
BRANCH   7   9
HETATM    9  C3  UNL     1     -35.045  16.021  -2.105  1.00 20.00     0.081 C 
HETATM   10  C2  UNL     1     -34.045  16.855  -1.813  1.00 20.00     0.030 C 
ENDBRANCH   7   9
TORSDOF 1
ENDMDL
MODEL 9
REMARK VINA RESULT:      -3.4     12.092     13.347
REMARK  1 active torsions:
REMARK  status: ('A' for Active; 'I' for Inactive)
REMARK    1  A    between atoms: C3_3  and  N9_9 
ROOT
HETATM    1  C1  UNL     1     -34.957  16.936  -5.003  1.00 20.00     0.079 C 
HETATM    2  C4  UNL     1     -36.253  16.283  -5.488  1.00 20.00     0.070 C 
HETATM    3  C5  UNL     1     -36.013  14.860  -5.995  1.00 20.00     0.007 C 
HETATM    4  C6  UNL     1     -36.062  13.808  -4.891  1.00 20.00     0.002 C 
HETATM    5  C7  UNL     1     -34.983  13.959  -3.824  1.00 20.00     0.020 C 
HETATM    6  C8  UNL     1     -35.025  15.300  -3.096  1.00 20.00     0.129 C 
HETATM    7  N9  UNL     1     -34.362  16.374  -3.861  1.00 20.00    -0.352 N 
HETATM    8  S10 UNL     1     -34.366  18.242  -5.906  1.00 20.00    -0.065 SA
ENDROOT
BRANCH   7   9
HETATM    9  C3  UNL     1     -33.125  16.772  -3.384  1.00 20.00     0.081 C 
HETATM   10  C2  UNL     1     -32.958  17.349  -2.192  1.00 20.00     0.030 C 
ENDBRANCH   7   9
TORSDOF 1
ENDMDL
