MODEL 1
REMARK VINA RESULT:      -4.9      0.000      0.000
REMARK  1 active torsions:
REMARK  status: ('A' for Active; 'I' for Inactive)
REMARK    1  A    between atoms: C6_6  and  C10_10 
ROOT
HETATM    1  C1  UNL     1     -34.090  14.093  -4.060  1.00 20.00     0.054 A 
HETATM    2  C2  UNL     1     -36.392  15.068  -4.460  1.00 20.00     0.060 A 
HETATM    3  C3  UNL     1     -33.624  15.329  -3.857  1.00 20.00     0.025 A 
HETATM    4  C4  UNL     1     -35.915  16.306  -4.254  1.00 20.00    -0.037 A 
HETATM    5  C5  UNL     1     -35.523  13.877  -4.339  1.00 20.00     0.172 A 
HETATM    6  C6  UNL     1     -34.469  16.577  -3.876  1.00 20.00     0.147 A 
HETATM    7  C7  UNL     1     -36.811  17.502  -4.435  1.00 20.00     0.047 C 
HETATM    8  O11 UNL     1     -35.976  12.745  -4.483  1.00 20.00    -0.289 OA
HETATM    9  F12 UNL     1     -33.929  17.442  -4.788  1.00 20.00    -0.233 F 
ENDROOT
BRANCH   6  10
HETATM   10  C10 UNL     1     -34.368  17.257  -2.507  1.00 20.00     0.026 C 
HETATM   11  C8  UNL     1     -35.115  16.443  -1.453  1.00 20.00     0.014 C 
HETATM   12  C9  UNL     1     -32.907  17.442  -2.112  1.00 20.00     0.014 C 
ENDBRANCH   6  10
TORSDOF 1
ENDMDL
MODEL 2
REMARK VINA RESULT:      -4.7      1.451      2.972
REMARK  1 active torsions:
REMARK  status: ('A' for Active; 'I' for Inactive)
REMARK    1  A    between atoms: C6_6  and  C10_10 
ROOT
HETATM    1  C1  UNL     1     -37.092  14.540  -4.275  1.00 20.00     0.054 A 
HETATM    2  C2  UNL     1     -34.616  14.402  -3.765  1.00 20.00     0.060 A 
HETATM    3  C3  UNL     1     -37.066  15.835  -3.946  1.00 20.00     0.025 A 
HETATM    4  C4  UNL     1     -34.600  15.704  -3.437  1.00 20.00    -0.037 A 
HETATM    5  C5  UNL     1     -35.851  13.742  -4.243  1.00 20.00     0.172 A 
HETATM    6  C6  UNL     1     -35.828  16.591  -3.539  1.00 20.00     0.147 A 
HETATM    7  C7  UNL     1     -33.341  16.334  -2.904  1.00 20.00     0.047 C 
HETATM    8  O11 UNL     1     -35.848  12.563  -4.585  1.00 20.00    -0.289 OA
HETATM    9  F12 UNL     1     -36.062  17.163  -2.318  1.00 20.00    -0.233 F 
ENDROOT
BRANCH   6  10
HETATM   10  C10 UNL     1     -35.607  17.739  -4.530  1.00 20.00     0.026 C 
HETATM   11  C8  UNL     1     -35.330  17.189  -5.926  1.00 20.00     0.014 C 
HETATM   12  C9  UNL     1     -36.815  18.669  -4.544  1.00 20.00     0.014 C 
ENDBRANCH   6  10
TORSDOF 1
ENDMDL
MODEL 3
REMARK VINA RESULT:      -4.6      1.905      3.136
REMARK  1 active torsions:
REMARK  status: ('A' for Active; 'I' for Inactive)
REMARK    1  A    between atoms: C6_6  and  C10_10 
ROOT
HETATM    1  C1  UNL     1     -35.096  14.571  -3.841  1.00 20.00     0.054 A 
HETATM    2  C2  UNL     1     -32.929  15.819  -3.444  1.00 20.00     0.060 A 
HETATM    3  C3  UNL     1     -35.703  15.393  -2.979  1.00 20.00     0.025 A 
HETATM    4  C4  UNL     1     -33.547  16.640  -2.580  1.00 20.00    -0.037 A 
HETATM    5  C5  UNL     1     -33.667  14.756  -4.161  1.00 20.00     0.172 A 
HETATM    6  C6  UNL     1     -35.034  16.550  -2.283  1.00 20.00     0.147 A 
HETATM    7  C7  UNL     1     -32.759  17.677  -1.826  1.00 20.00     0.047 C 
HETATM    8  O11 UNL     1     -33.105  14.040  -4.984  1.00 20.00    -0.289 OA
HETATM    9  F12 UNL     1     -35.206  16.391  -0.935  1.00 20.00    -0.233 F 
ENDROOT
BRANCH   6  10
HETATM   10  C10 UNL     1     -35.760  17.842  -2.673  1.00 20.00     0.026 C 
HETATM   11  C8  UNL     1     -35.649  18.080  -4.176  1.00 20.00     0.014 C 
HETATM   12  C9  UNL     1     -37.221  17.781  -2.241  1.00 20.00     0.014 C 
ENDBRANCH   6  10
TORSDOF 1
ENDMDL
MODEL 4
REMARK VINA RESULT:      -4.5      1.560      2.738
REMARK  1 active torsions:
REMARK  status: ('A' for Active; 'I' for Inactive)
REMARK    1  A    between atoms: C6_6  and  C10_10 
ROOT
HETATM    1  C1  UNL     1     -36.918  15.697  -3.367  1.00 20.00     0.054 A 
HETATM    2  C2  UNL     1     -35.327  14.029  -4.416  1.00 20.00     0.060 A 
HETATM    3  C3  UNL     1     -35.868  16.450  -3.025  1.00 20.00     0.025 A 
HETATM    4  C4  UNL     1     -34.279  14.793  -4.067  1.00 20.00    -0.037 A 
HETATM    5  C5  UNL     1     -36.717  14.446  -4.125  1.00 20.00     0.172 A 
HETATM    6  C6  UNL     1     -34.436  16.131  -3.367  1.00 20.00     0.147 A 
HETATM    7  C7  UNL     1     -32.876  14.317  -4.330  1.00 20.00     0.047 C 
HETATM    8  O11 UNL     1     -37.671  13.765  -4.487  1.00 20.00    -0.289 OA
HETATM    9  F12 UNL     1     -33.716  16.108  -2.204  1.00 20.00    -0.233 F 
ENDROOT
BRANCH   6  10
HETATM   10  C10 UNL     1     -33.869  17.275  -4.215  1.00 20.00     0.026 C 
HETATM   11  C8  UNL     1     -34.696  17.454  -5.486  1.00 20.00     0.014 C 
HETATM   12  C9  UNL     1     -33.832  18.568  -3.407  1.00 20.00     0.014 C 
ENDBRANCH   6  10
TORSDOF 1
ENDMDL
MODEL 5
REMARK VINA RESULT:      -4.4      1.352      1.630
REMARK  1 active torsions:
REMARK  status: ('A' for Active; 'I' for Inactive)
REMARK    1  A    between atoms: C6_6  and  C10_10 
ROOT
HETATM    1  C1  UNL     1     -35.220  14.298  -4.099  1.00 20.00     0.054 A 
HETATM    2  C2  UNL     1     -35.298  16.307  -5.639  1.00 20.00     0.060 A 
HETATM    3  C3  UNL     1     -34.366  14.961  -3.313  1.00 20.00     0.025 A 
HETATM    4  C4  UNL     1     -34.440  16.964  -4.842  1.00 20.00    -0.037 A 
HETATM    5  C5  UNL     1     -35.775  14.948  -5.303  1.00 20.00     0.172 A 
HETATM    6  C6  UNL     1     -33.908  16.377  -3.547  1.00 20.00     0.147 A 
HETATM    7  C7  UNL     1     -33.931  18.325  -5.237  1.00 20.00     0.047 C 
HETATM    8  O11 UNL     1     -36.595  14.371  -6.011  1.00 20.00    -0.289 OA
HETATM    9  F12 UNL     1     -32.540  16.380  -3.589  1.00 20.00    -0.233 F 
ENDROOT
BRANCH   6  10
HETATM   10  C10 UNL     1     -34.315  17.228  -2.339  1.00 20.00     0.026 C 
HETATM   11  C8  UNL     1     -35.212  16.425  -1.402  1.00 20.00     0.014 C 
HETATM   12  C9  UNL     1     -33.078  17.734  -1.604  1.00 20.00     0.014 C 
ENDBRANCH   6  10
TORSDOF 1
ENDMDL
MODEL 6
REMARK VINA RESULT:      -4.4      2.410      3.611
REMARK  1 active torsions:
REMARK  status: ('A' for Active; 'I' for Inactive)
REMARK    1  A    between atoms: C6_6  and  C10_10 
ROOT
HETATM    1  C1  UNL     1     -33.507  16.846  -2.713  1.00 20.00     0.054 A 
HETATM    2  C2  UNL     1     -35.486  15.271  -2.601  1.00 20.00     0.060 A 
HETATM    3  C3  UNL     1     -33.221  16.367  -3.928  1.00 20.00     0.025 A 
HETATM    4  C4  UNL     1     -35.191  14.796  -3.821  1.00 20.00    -0.037 A 
HETATM    5  C5  UNL     1     -34.690  16.352  -1.981  1.00 20.00     0.172 A 
HETATM    6  C6  UNL     1     -34.040  15.332  -4.655  1.00 20.00     0.147 A 
HETATM    7  C7  UNL     1     -35.986  13.658  -4.404  1.00 20.00     0.047 C 
HETATM    8  O11 UNL     1     -34.993  16.814  -0.885  1.00 20.00    -0.289 OA
HETATM    9  F12 UNL     1     -33.213  14.293  -4.986  1.00 20.00    -0.233 F 
ENDROOT
BRANCH   6  10
HETATM   10  C10 UNL     1     -34.538  15.937  -5.971  1.00 20.00     0.026 C 
HETATM   11  C8  UNL     1     -34.297  17.444  -5.986  1.00 20.00     0.014 C 
HETATM   12  C9  UNL     1     -33.852  15.268  -7.158  1.00 20.00     0.014 C 
ENDBRANCH   6  10
TORSDOF 1
ENDMDL
MODEL 7
REMARK VINA RESULT:      -4.3      2.283      3.339
REMARK  1 active torsions:
REMARK  status: ('A' for Active; 'I' for Inactive)
REMARK    1  A    between atoms: C6_6  and  C10_10 
ROOT
HETATM    1  C1  UNL     1     -33.099  16.589  -3.304  1.00 20.00     0.054 A 
HETATM    2  C2  UNL     1     -35.049  15.935  -1.827  1.00 20.00     0.060 A 
HETATM    3  C3  UNL     1     -32.920  17.677  -2.549  1.00 20.00     0.025 A 
HETATM    4  C4  UNL     1     -34.861  17.030  -1.074  1.00 20.00    -0.037 A 
HETATM    5  C5  UNL     1     -34.160  15.620  -2.967  1.00 20.00     0.172 A 
HETATM    6  C6  UNL     1     -33.729  18.013  -1.323  1.00 20.00     0.147 A 
HETATM    7  C7  UNL     1     -35.813  17.352   0.046  1.00 20.00     0.047 C 
HETATM    8  O11 UNL     1     -34.310  14.593  -3.622  1.00 20.00    -0.289 OA
HETATM    9  F12 UNL     1     -34.259  19.263  -1.493  1.00 20.00    -0.233 F 
ENDROOT
BRANCH   6  10
HETATM   10  C10 UNL     1     -32.785  18.093  -0.119  1.00 20.00     0.026 C 
HETATM   11  C8  UNL     1     -31.338  18.221  -0.588  1.00 20.00     0.014 C 
HETATM   12  C9  UNL     1     -33.168  19.263   0.781  1.00 20.00     0.014 C 
ENDBRANCH   6  10
TORSDOF 1
ENDMDL
MODEL 8
REMARK VINA RESULT:      -4.3      2.671      4.045
REMARK  1 active torsions:
REMARK  status: ('A' for Active; 'I' for Inactive)
REMARK    1  A    between atoms: C6_6  and  C10_10 
ROOT
HETATM    1  C1  UNL     1     -33.311  17.239  -1.906  1.00 20.00     0.054 A 
HETATM    2  C2  UNL     1     -33.235  18.464  -4.121  1.00 20.00     0.060 A 
HETATM    3  C3  UNL     1     -34.201  16.390  -2.431  1.00 20.00     0.025 A 
HETATM    4  C4  UNL     1     -34.129  17.607  -4.638  1.00 20.00    -0.037 A 
HETATM    5  C5  UNL     1     -32.737  18.317  -2.736  1.00 20.00     0.172 A 
HETATM    6  C6  UNL     1     -34.683  16.428  -3.858  1.00 20.00     0.147 A 
HETATM    7  C7  UNL     1     -34.657  17.814  -6.033  1.00 20.00     0.047 C 
HETATM    8  O11 UNL     1     -31.886  19.077  -2.284  1.00 20.00    -0.289 OA
HETATM    9  F12 UNL     1     -36.049  16.511  -3.842  1.00 20.00    -0.233 F 
ENDROOT
BRANCH   6  10
HETATM   10  C10 UNL     1     -34.328  15.097  -4.529  1.00 20.00     0.026 C 
HETATM   11  C8  UNL     1     -32.864  14.749  -4.276  1.00 20.00     0.014 C 
HETATM   12  C9  UNL     1     -35.244  13.986  -4.025  1.00 20.00     0.014 C 
ENDBRANCH   6  10
TORSDOF 1
ENDMDL
MODEL 9
REMARK VINA RESULT:      -4.3      2.310      3.107
REMARK  1 active torsions:
REMARK  status: ('A' for Active; 'I' for Inactive)
REMARK    1  A    between atoms: C6_6  and  C10_10 
ROOT
HETATM    1  C1  UNL     1     -34.783  17.518  -5.801  1.00 20.00     0.054 A 
HETATM    2  C2  UNL     1     -35.166  15.054  -6.241  1.00 20.00     0.060 A 
HETATM    3  C3  UNL     1     -35.190  17.334  -4.541  1.00 20.00     0.025 A 
HETATM    4  C4  UNL     1     -35.573  14.880  -4.974  1.00 20.00    -0.037 A 
HETATM    5  C5  UNL     1     -34.707  16.373  -6.730  1.00 20.00     0.172 A 
HETATM    6  C6  UNL     1     -35.584  16.004  -3.953  1.00 20.00     0.147 A 
HETATM    7  C7  UNL     1     -36.084  13.538  -4.520  1.00 20.00     0.047 C 
HETATM    8  O11 UNL     1     -34.293  16.514  -7.876  1.00 20.00    -0.289 OA
HETATM    9  F12 UNL     1     -36.848  16.124  -3.442  1.00 20.00    -0.233 F 
ENDROOT
BRANCH   6  10
HETATM   10  C10 UNL     1     -34.657  15.697  -2.773  1.00 20.00     0.026 C 
HETATM   11  C8  UNL     1     -33.211  16.024  -3.134  1.00 20.00     0.014 C 
HETATM   12  C9  UNL     1     -35.095  16.474  -1.536  1.00 20.00     0.014 C 
ENDBRANCH   6  10
TORSDOF 1
ENDMDL
