MODEL 1
REMARK VINA RESULT:      -4.7      0.000      0.000
REMARK  4 active torsions:
REMARK  status: ('A' for Active; 'I' for Inactive)
REMARK    1  A    between atoms: C1_1  and  C6_6 
REMARK    2  A    between atoms: C1_1  and  C7_7 
REMARK    3  A    between atoms: C6_6  and  C8_8 
REMARK    4  A    between atoms: C7_7  and  C9_9 
ROOT
HETATM    1  C1  UNL     1     -32.903   6.365   2.707  1.00 20.00     0.161 C 
HETATM    2  O10 UNL     1     -32.908   5.184   2.362  1.00 20.00    -0.295 OA
ENDROOT
BRANCH   1   3
HETATM    3  C6  UNL     1     -32.230   7.451   1.880  1.00 20.00     0.085 C 
BRANCH   3   4
HETATM    4  C8  UNL     1     -33.215   8.288   1.051  1.00 20.00    -0.016 C 
HETATM    5  C2  UNL     1     -33.034   8.041  -0.449  1.00 20.00     0.010 C 
HETATM    6  C3  UNL     1     -33.025   9.775   1.357  1.00 20.00     0.010 C 
ENDBRANCH   3   4
ENDBRANCH   1   3
BRANCH   1   7
HETATM    7  C7  UNL     1     -33.596   6.801   3.986  1.00 20.00     0.242 C 
HETATM    8  F11 UNL     1     -32.697   7.371   4.840  1.00 20.00    -0.241 F 
BRANCH   7   9
HETATM    9  C9  UNL     1     -34.301   5.647   4.712  1.00 20.00     0.019 C 
HETATM   10  C4  UNL     1     -34.462   5.932   6.207  1.00 20.00     0.012 C 
HETATM   11  C5  UNL     1     -35.675   5.395   4.086  1.00 20.00     0.012 C 
ENDBRANCH   7   9
ENDBRANCH   1   7
TORSDOF 4
ENDMDL
MODEL 2
REMARK VINA RESULT:      -4.5      1.560      1.865
REMARK  4 active torsions:
REMARK  status: ('A' for Active; 'I' for Inactive)
REMARK    1  A    between atoms: C1_1  and  C6_6 
REMARK    2  A    between atoms: C1_1  and  C7_7 
REMARK    3  A    between atoms: C6_6  and  C8_8 
REMARK    4  A    between atoms: C7_7  and  C9_9 
ROOT
HETATM    1  C1  UNL     1     -32.282   7.170   2.959  1.00 20.00     0.161 C 
HETATM    2  O10 UNL     1     -31.698   7.829   3.819  1.00 20.00    -0.295 OA
ENDROOT
BRANCH   1   3
HETATM    3  C6  UNL     1     -32.169   7.487   1.475  1.00 20.00     0.085 C 
BRANCH   3   4
HETATM    4  C8  UNL     1     -33.237   8.470   0.976  1.00 20.00    -0.016 C 
HETATM    5  C2  UNL     1     -33.392   8.402  -0.546  1.00 20.00     0.010 C 
HETATM    6  C3  UNL     1     -32.873   9.896   1.395  1.00 20.00     0.010 C 
ENDBRANCH   3   4
ENDBRANCH   1   3
BRANCH   1   7
HETATM    7  C7  UNL     1     -33.142   5.979   3.348  1.00 20.00     0.242 C 
HETATM    8  F11 UNL     1     -33.634   5.368   2.232  1.00 20.00    -0.241 F 
BRANCH   7   9
HETATM    9  C9  UNL     1     -34.316   6.357   4.261  1.00 20.00     0.019 C 
HETATM   10  C4  UNL     1     -35.342   5.226   4.361  1.00 20.00     0.012 C 
HETATM   11  C5  UNL     1     -33.801   6.708   5.659  1.00 20.00     0.012 C 
ENDBRANCH   7   9
ENDBRANCH   1   7
TORSDOF 4
ENDMDL
MODEL 3
REMARK VINA RESULT:      -4.5     10.527     12.160
REMARK  4 active torsions:
REMARK  status: ('A' for Active; 'I' for Inactive)
REMARK    1  A    between atoms: C1_1  and  C6_6 
REMARK    2  A    between atoms: C1_1  and  C7_7 
REMARK    3  A    between atoms: C6_6  and  C8_8 
REMARK    4  A    between atoms: C7_7  and  C9_9 
ROOT
HETATM    1  C1  UNL     1     -35.557  13.989  -4.564  1.00 20.00     0.161 C 
HETATM    2  O10 UNL     1     -36.002  12.845  -4.658  1.00 20.00    -0.295 OA
ENDROOT
BRANCH   1   3
HETATM    3  C6  UNL     1     -34.475  14.362  -3.561  1.00 20.00     0.085 C 
BRANCH   3   4
HETATM    4  C8  UNL     1     -34.426  15.863  -3.243  1.00 20.00    -0.016 C 
HETATM    5  C2  UNL     1     -32.988  16.388  -3.245  1.00 20.00     0.010 C 
HETATM    6  C3  UNL     1     -35.073  16.132  -1.883  1.00 20.00     0.010 C 
ENDBRANCH   3   4
ENDBRANCH   1   3
BRANCH   1   7
HETATM    7  C7  UNL     1     -36.065  15.094  -5.475  1.00 20.00     0.242 C 
HETATM    8  F11 UNL     1     -37.427  15.159  -5.424  1.00 20.00    -0.241 F 
BRANCH   7   9
HETATM    9  C9  UNL     1     -35.635  14.914  -6.937  1.00 20.00     0.019 C 
HETATM   10  C4  UNL     1     -36.389  15.864  -7.870  1.00 20.00     0.012 C 
HETATM   11  C5  UNL     1     -34.129  15.149  -7.073  1.00 20.00     0.012 C 
ENDBRANCH   7   9
ENDBRANCH   1   7
TORSDOF 4
ENDMDL
MODEL 4
REMARK VINA RESULT:      -4.5      1.033      4.435
REMARK  4 active torsions:
REMARK  status: ('A' for Active; 'I' for Inactive)
REMARK    1  A    between atoms: C1_1  and  C6_6 
REMARK    2  A    between atoms: C1_1  and  C7_7 
REMARK    3  A    between atoms: C6_6  and  C8_8 
REMARK    4  A    between atoms: C7_7  and  C9_9 
ROOT
HETATM    1  C1  UNL     1     -33.137   5.993   2.762  1.00 20.00     0.161 C 
HETATM    2  O10 UNL     1     -32.996   4.837   2.366  1.00 20.00    -0.295 OA
ENDROOT
BRANCH   1   3
HETATM    3  C6  UNL     1     -34.218   6.386   3.759  1.00 20.00     0.085 C 
BRANCH   3   4
HETATM    4  C8  UNL     1     -33.911   5.948   5.198  1.00 20.00    -0.016 C 
HETATM    5  C2  UNL     1     -35.009   5.037   5.751  1.00 20.00     0.010 C 
HETATM    6  C3  UNL     1     -33.755   7.176   6.097  1.00 20.00     0.010 C 
ENDBRANCH   3   4
ENDBRANCH   1   3
BRANCH   1   7
HETATM    7  C7  UNL     1     -32.210   7.095   2.278  1.00 20.00     0.242 C 
HETATM    8  F11 UNL     1     -31.941   7.966   3.294  1.00 20.00    -0.241 F 
BRANCH   7   9
HETATM    9  C9  UNL     1     -32.781   7.884   1.092  1.00 20.00     0.019 C 
HETATM   10  C4  UNL     1     -33.040   9.347   1.456  1.00 20.00     0.012 C 
HETATM   11  C5  UNL     1     -31.819   7.813  -0.097  1.00 20.00     0.012 C 
ENDBRANCH   7   9
ENDBRANCH   1   7
TORSDOF 4
ENDMDL
MODEL 5
REMARK VINA RESULT:      -4.4     10.735     12.403
REMARK  4 active torsions:
REMARK  status: ('A' for Active; 'I' for Inactive)
REMARK    1  A    between atoms: C1_1  and  C6_6 
REMARK    2  A    between atoms: C1_1  and  C7_7 
REMARK    3  A    between atoms: C6_6  and  C8_8 
REMARK    4  A    between atoms: C7_7  and  C9_9 
ROOT
HETATM    1  C1  UNL     1     -35.888  14.148  -4.869  1.00 20.00     0.161 C 
HETATM    2  O10 UNL     1     -35.933  12.939  -4.638  1.00 20.00    -0.295 OA
ENDROOT
BRANCH   1   3
HETATM    3  C6  UNL     1     -36.048  15.191  -3.773  1.00 20.00     0.085 C 
BRANCH   3   4
HETATM    4  C8  UNL     1     -34.851  15.262  -2.815  1.00 20.00    -0.016 C 
HETATM    5  C2  UNL     1     -35.062  16.325  -1.734  1.00 20.00     0.010 C 
HETATM    6  C3  UNL     1     -33.571  15.565  -3.597  1.00 20.00     0.010 C 
ENDBRANCH   3   4
ENDBRANCH   1   3
BRANCH   1   7
HETATM    7  C7  UNL     1     -35.649  14.658  -6.280  1.00 20.00     0.242 C 
HETATM    8  F11 UNL     1     -34.341  14.486  -6.629  1.00 20.00    -0.241 F 
BRANCH   7   9
HETATM    9  C9  UNL     1     -36.015  16.138  -6.454  1.00 20.00     0.019 C 
HETATM   10  C4  UNL     1     -34.792  16.985  -6.813  1.00 20.00     0.012 C 
HETATM   11  C5  UNL     1     -37.082  16.291  -7.540  1.00 20.00     0.012 C 
ENDBRANCH   7   9
ENDBRANCH   1   7
TORSDOF 4
ENDMDL
MODEL 6
REMARK VINA RESULT:      -4.3     10.468     11.556
REMARK  4 active torsions:
REMARK  status: ('A' for Active; 'I' for Inactive)
REMARK    1  A    between atoms: C1_1  and  C6_6 
REMARK    2  A    between atoms: C1_1  and  C7_7 
REMARK    3  A    between atoms: C6_6  and  C8_8 
REMARK    4  A    between atoms: C7_7  and  C9_9 
ROOT
HETATM    1  C1  UNL     1     -35.107  14.022  -3.926  1.00 20.00     0.161 C 
HETATM    2  O10 UNL     1     -34.234  13.163  -4.045  1.00 20.00    -0.295 OA
ENDROOT
BRANCH   1   3
HETATM    3  C6  UNL     1     -34.974  15.190  -2.960  1.00 20.00     0.085 C 
BRANCH   3   4
HETATM    4  C8  UNL     1     -33.741  16.066  -3.224  1.00 20.00    -0.016 C 
HETATM    5  C2  UNL     1     -33.481  17.030  -2.064  1.00 20.00     0.010 C 
HETATM    6  C3  UNL     1     -33.928  16.855  -4.521  1.00 20.00     0.010 C 
ENDBRANCH   3   4
ENDBRANCH   1   3
BRANCH   1   7
HETATM    7  C7  UNL     1     -36.371  13.962  -4.767  1.00 20.00     0.242 C 
HETATM    8  F11 UNL     1     -36.053  13.851  -6.089  1.00 20.00    -0.241 F 
BRANCH   7   9
HETATM    9  C9  UNL     1     -37.277  15.187  -4.580  1.00 20.00     0.019 C 
HETATM   10  C4  UNL     1     -37.300  16.070  -5.829  1.00 20.00     0.012 C 
HETATM   11  C5  UNL     1     -38.700  14.739  -4.240  1.00 20.00     0.012 C 
ENDBRANCH   7   9
ENDBRANCH   1   7
TORSDOF 4
ENDMDL
MODEL 7
REMARK VINA RESULT:      -4.3     10.725     11.789
REMARK  4 active torsions:
REMARK  status: ('A' for Active; 'I' for Inactive)
REMARK    1  A    between atoms: C1_1  and  C6_6 
REMARK    2  A    between atoms: C1_1  and  C7_7 
REMARK    3  A    between atoms: C6_6  and  C8_8 
REMARK    4  A    between atoms: C7_7  and  C9_9 
ROOT
HETATM    1  C1  UNL     1     -36.319  14.023  -4.507  1.00 20.00     0.161 C 
HETATM    2  O10 UNL     1     -36.066  12.818  -4.501  1.00 20.00    -0.295 OA
ENDROOT
BRANCH   1   3
HETATM    3  C6  UNL     1     -37.742  14.555  -4.406  1.00 20.00     0.085 C 
BRANCH   3   4
HETATM    4  C8  UNL     1     -37.844  16.073  -4.609  1.00 20.00    -0.016 C 
HETATM    5  C2  UNL     1     -38.728  16.722  -3.542  1.00 20.00     0.010 C 
HETATM    6  C3  UNL     1     -38.402  16.379  -6.001  1.00 20.00     0.010 C 
ENDBRANCH   3   4
ENDBRANCH   1   3
BRANCH   1   7
HETATM    7  C7  UNL     1     -35.203  15.049  -4.600  1.00 20.00     0.242 C 
HETATM    8  F11 UNL     1     -34.397  14.775  -5.666  1.00 20.00    -0.241 F 
BRANCH   7   9
HETATM    9  C9  UNL     1     -34.338  15.113  -3.333  1.00 20.00     0.019 C 
HETATM   10  C4  UNL     1     -32.977  15.755  -3.609  1.00 20.00     0.012 C 
HETATM   11  C5  UNL     1     -35.066  15.900  -2.241  1.00 20.00     0.012 C 
ENDBRANCH   7   9
ENDBRANCH   1   7
TORSDOF 4
ENDMDL
MODEL 8
REMARK VINA RESULT:      -4.3     10.626     11.664
REMARK  4 active torsions:
REMARK  status: ('A' for Active; 'I' for Inactive)
REMARK    1  A    between atoms: C1_1  and  C6_6 
REMARK    2  A    between atoms: C1_1  and  C7_7 
REMARK    3  A    between atoms: C6_6  and  C8_8 
REMARK    4  A    between atoms: C7_7  and  C9_9 
ROOT
HETATM    1  C1  UNL     1     -35.877  13.830  -4.350  1.00 20.00     0.161 C 
HETATM    2  O10 UNL     1     -35.739  12.611  -4.449  1.00 20.00    -0.295 OA
ENDROOT
BRANCH   1   3
HETATM    3  C6  UNL     1     -35.139  14.650  -3.301  1.00 20.00     0.085 C 
BRANCH   3   4
HETATM    4  C8  UNL     1     -33.969  15.463  -3.871  1.00 20.00    -0.016 C 
HETATM    5  C2  UNL     1     -32.860  14.551  -4.401  1.00 20.00     0.010 C 
HETATM    6  C3  UNL     1     -33.405  16.394  -2.797  1.00 20.00     0.010 C 
ENDBRANCH   3   4
ENDBRANCH   1   3
BRANCH   1   7
HETATM    7  C7  UNL     1     -36.793  14.585  -5.298  1.00 20.00     0.242 C 
HETATM    8  F11 UNL     1     -36.060  15.214  -6.262  1.00 20.00    -0.241 F 
BRANCH   7   9
HETATM    9  C9  UNL     1     -37.669  15.626  -4.588  1.00 20.00     0.019 C 
HETATM   10  C4  UNL     1     -37.906  16.859  -5.463  1.00 20.00     0.012 C 
HETATM   11  C5  UNL     1     -39.012  15.005  -4.200  1.00 20.00     0.012 C 
ENDBRANCH   7   9
ENDBRANCH   1   7
TORSDOF 4
ENDMDL
MODEL 9
REMARK VINA RESULT:      -4.2     11.018     11.883
REMARK  4 active torsions:
REMARK  status: ('A' for Active; 'I' for Inactive)
REMARK    1  A    between atoms: C1_1  and  C6_6 
REMARK    2  A    between atoms: C1_1  and  C7_7 
REMARK    3  A    between atoms: C6_6  and  C8_8 
REMARK    4  A    between atoms: C7_7  and  C9_9 
ROOT
HETATM    1  C1  UNL     1     -33.731  14.962  -4.871  1.00 20.00     0.161 C 
HETATM    2  O10 UNL     1     -33.125  13.968  -4.470  1.00 20.00    -0.295 OA
ENDROOT
BRANCH   1   3
HETATM    3  C6  UNL     1     -33.651  16.305  -4.159  1.00 20.00     0.085 C 
BRANCH   3   4
HETATM    4  C8  UNL     1     -33.658  16.188  -2.628  1.00 20.00    -0.016 C 
HETATM    5  C2  UNL     1     -35.083  16.063  -2.083  1.00 20.00     0.010 C 
HETATM    6  C3  UNL     1     -32.970  17.404  -2.006  1.00 20.00     0.010 C 
ENDBRANCH   3   4
ENDBRANCH   1   3
BRANCH   1   7
HETATM    7  C7  UNL     1     -34.583  14.896  -6.126  1.00 20.00     0.242 C 
HETATM    8  F11 UNL     1     -34.506  16.072  -6.812  1.00 20.00    -0.241 F 
BRANCH   7   9
HETATM    9  C9  UNL     1     -36.059  14.591  -5.836  1.00 20.00     0.019 C 
HETATM   10  C4  UNL     1     -36.220  13.678  -4.618  1.00 20.00     0.012 C 
HETATM   11  C5  UNL     1     -36.829  15.894  -5.607  1.00 20.00     0.012 C 
ENDBRANCH   7   9
ENDBRANCH   1   7
TORSDOF 4
ENDMDL
