MODEL 1
REMARK VINA RESULT:      -4.5      0.000      0.000
REMARK  1 active torsions:
REMARK  status: ('A' for Active; 'I' for Inactive)
REMARK    1  A    between atoms: C7_7  and  C10_10 
ROOT
HETATM    1  C1  UNL     1     -36.030  14.038  -5.632  1.00 20.00     0.003 C 
HETATM    2  C2  UNL     1     -36.407  13.923  -4.354  1.00 20.00     0.004 C 
HETATM    3  C3  UNL     1     -34.010  15.556  -5.546  1.00 20.00     0.036 C 
HETATM    4  C4  UNL     1     -33.643  15.033  -4.140  1.00 20.00     0.010 C 
HETATM    5  C5  UNL     1     -35.511  15.425  -5.839  1.00 20.00     0.145 C 
HETATM    6  C6  UNL     1     -36.149  15.231  -3.674  1.00 20.00     0.149 C 
HETATM    7  C7  UNL     1     -34.730  15.316  -3.066  1.00 20.00     0.022 C 
HETATM    8  O11 UNL     1     -36.186  16.154  -4.787  1.00 20.00    -0.373 OA
ENDROOT
BRANCH   7   9
HETATM    9  C10 UNL     1     -34.501  16.697  -2.441  1.00 20.00    -0.016 C 
HETATM   10  C8  UNL     1     -35.168  16.777  -1.072  1.00 20.00     0.010 C 
HETATM   11  C9  UNL     1     -33.009  16.990  -2.334  1.00 20.00     0.010 C 
ENDBRANCH   7   9
TORSDOF 1
ENDMDL
MODEL 2
REMARK VINA RESULT:      -4.4      1.111      2.350
REMARK  1 active torsions:
REMARK  status: ('A' for Active; 'I' for Inactive)
REMARK    1  A    between atoms: C7_7  and  C10_10 
ROOT
HETATM    1  C1  UNL     1     -35.842  14.621  -6.477  1.00 20.00     0.003 C 
HETATM    2  C2  UNL     1     -34.854  15.518  -6.390  1.00 20.00     0.004 C 
HETATM    3  C3  UNL     1     -36.811  14.540  -4.145  1.00 20.00     0.036 C 
HETATM    4  C4  UNL     1     -36.436  16.020  -3.908  1.00 20.00     0.010 C 
HETATM    5  C5  UNL     1     -35.902  13.872  -5.185  1.00 20.00     0.145 C 
HETATM    6  C6  UNL     1     -34.229  15.391  -5.036  1.00 20.00     0.149 C 
HETATM    7  C7  UNL     1     -34.909  16.294  -3.981  1.00 20.00     0.022 C 
HETATM    8  O11 UNL     1     -34.552  14.025  -4.690  1.00 20.00    -0.373 OA
ENDROOT
BRANCH   7   9
HETATM    9  C10 UNL     1     -34.272  16.076  -2.604  1.00 20.00    -0.016 C 
HETATM   10  C8  UNL     1     -32.945  16.822  -2.508  1.00 20.00     0.010 C 
HETATM   11  C9  UNL     1     -35.224  16.524  -1.501  1.00 20.00     0.010 C 
ENDBRANCH   7   9
TORSDOF 1
ENDMDL
MODEL 3
REMARK VINA RESULT:      -4.4     16.428     18.280
REMARK  1 active torsions:
REMARK  status: ('A' for Active; 'I' for Inactive)
REMARK    1  A    between atoms: C7_7  and  C10_10 
ROOT
HETATM    1  C1  UNL     1     -21.299  17.090   8.923  1.00 20.00     0.003 C 
HETATM    2  C2  UNL     1     -22.346  17.117   8.091  1.00 20.00     0.004 C 
HETATM    3  C3  UNL     1     -22.268  17.757  11.160  1.00 20.00     0.036 C 
HETATM    4  C4  UNL     1     -23.630  17.130  10.787  1.00 20.00     0.010 C 
HETATM    5  C5  UNL     1     -21.472  18.189   9.921  1.00 20.00     0.145 C 
HETATM    6  C6  UNL     1     -23.246  18.236   8.514  1.00 20.00     0.149 C 
HETATM    7  C7  UNL     1     -24.302  17.790   9.551  1.00 20.00     0.022 C 
HETATM    8  O11 UNL     1     -22.323  19.111   9.203  1.00 20.00    -0.373 OA
ENDROOT
BRANCH   7   9
HETATM    9  C10 UNL     1     -25.151  18.988   9.994  1.00 20.00    -0.016 C 
HETATM   10  C8  UNL     1     -26.253  19.263   8.977  1.00 20.00     0.010 C 
HETATM   11  C9  UNL     1     -25.742  18.737  11.377  1.00 20.00     0.010 C 
ENDBRANCH   7   9
TORSDOF 1
ENDMDL
MODEL 4
REMARK VINA RESULT:      -4.2      1.611      4.285
REMARK  1 active torsions:
REMARK  status: ('A' for Active; 'I' for Inactive)
REMARK    1  A    between atoms: C7_7  and  C10_10 
ROOT
HETATM    1  C1  UNL     1     -33.609  18.751  -1.348  1.00 20.00     0.003 C 
HETATM    2  C2  UNL     1     -32.667  17.825  -1.559  1.00 20.00     0.004 C 
HETATM    3  C3  UNL     1     -35.723  17.699  -2.251  1.00 20.00     0.036 C 
HETATM    4  C4  UNL     1     -35.205  16.288  -1.895  1.00 20.00     0.010 C 
HETATM    5  C5  UNL     1     -34.577  18.693  -2.486  1.00 20.00     0.145 C 
HETATM    6  C6  UNL     1     -32.984  17.124  -2.844  1.00 20.00     0.149 C 
HETATM    7  C7  UNL     1     -33.900  15.896  -2.642  1.00 20.00     0.022 C 
HETATM    8  O11 UNL     1     -33.766  18.123  -3.538  1.00 20.00    -0.373 OA
ENDROOT
BRANCH   7   9
HETATM    9  C10 UNL     1     -34.242  15.259  -3.993  1.00 20.00    -0.016 C 
HETATM   10  C8  UNL     1     -33.057  14.453  -4.515  1.00 20.00     0.010 C 
HETATM   11  C9  UNL     1     -35.480  14.379  -3.868  1.00 20.00     0.010 C 
ENDBRANCH   7   9
TORSDOF 1
ENDMDL
MODEL 5
REMARK VINA RESULT:      -4.2      1.248      1.550
REMARK  1 active torsions:
REMARK  status: ('A' for Active; 'I' for Inactive)
REMARK    1  A    between atoms: C7_7  and  C10_10 
ROOT
HETATM    1  C1  UNL     1     -34.821  14.888  -4.976  1.00 20.00     0.003 C 
HETATM    2  C2  UNL     1     -34.839  14.403  -3.730  1.00 20.00     0.004 C 
HETATM    3  C3  UNL     1     -33.992  17.261  -4.704  1.00 20.00     0.036 C 
HETATM    4  C4  UNL     1     -33.156  16.856  -3.470  1.00 20.00     0.010 C 
HETATM    5  C5  UNL     1     -35.197  16.334  -4.916  1.00 20.00     0.145 C 
HETATM    6  C6  UNL     1     -35.227  15.514  -2.805  1.00 20.00     0.149 C 
HETATM    7  C7  UNL     1     -34.008  16.314  -2.290  1.00 20.00     0.022 C 
HETATM    8  O11 UNL     1     -35.962  16.391  -3.690  1.00 20.00    -0.373 OA
ENDROOT
BRANCH   7   9
HETATM    9  C10 UNL     1     -34.470  17.474  -1.401  1.00 20.00    -0.016 C 
HETATM   10  C8  UNL     1     -35.361  16.959  -0.276  1.00 20.00     0.010 C 
HETATM   11  C9  UNL     1     -33.267  18.223  -0.838  1.00 20.00     0.010 C 
ENDBRANCH   7   9
TORSDOF 1
ENDMDL
MODEL 6
REMARK VINA RESULT:      -4.0      1.496      2.519
REMARK  1 active torsions:
REMARK  status: ('A' for Active; 'I' for Inactive)
REMARK    1  A    between atoms: C7_7  and  C10_10 
ROOT
HETATM    1  C1  UNL     1     -34.329  15.471  -5.901  1.00 20.00     0.003 C 
HETATM    2  C2  UNL     1     -34.360  16.757  -5.534  1.00 20.00     0.004 C 
HETATM    3  C3  UNL     1     -34.823  14.206  -3.769  1.00 20.00     0.036 C 
HETATM    4  C4  UNL     1     -35.689  15.373  -3.246  1.00 20.00     0.010 C 
HETATM    5  C5  UNL     1     -33.758  14.679  -4.769  1.00 20.00     0.145 C 
HETATM    6  C6  UNL     1     -33.811  16.856  -4.145  1.00 20.00     0.149 C 
HETATM    7  C7  UNL     1     -34.903  16.700  -3.062  1.00 20.00     0.022 C 
HETATM    8  O11 UNL     1     -32.976  15.678  -4.073  1.00 20.00    -0.373 OA
ENDROOT
BRANCH   7   9
HETATM    9  C10 UNL     1     -34.275  16.746  -1.664  1.00 20.00    -0.016 C 
HETATM   10  C8  UNL     1     -33.211  17.836  -1.595  1.00 20.00     0.010 C 
HETATM   11  C9  UNL     1     -35.350  16.972  -0.606  1.00 20.00     0.010 C 
ENDBRANCH   7   9
TORSDOF 1
ENDMDL
MODEL 7
REMARK VINA RESULT:      -3.9      1.496      3.777
REMARK  1 active torsions:
REMARK  status: ('A' for Active; 'I' for Inactive)
REMARK    1  A    between atoms: C7_7  and  C10_10 
ROOT
HETATM    1  C1  UNL     1     -33.937  17.351  -1.693  1.00 20.00     0.003 C 
HETATM    2  C2  UNL     1     -34.957  16.499  -1.543  1.00 20.00     0.004 C 
HETATM    3  C3  UNL     1     -33.768  17.681  -4.194  1.00 20.00     0.036 C 
HETATM    4  C4  UNL     1     -35.288  17.453  -4.354  1.00 20.00     0.010 C 
HETATM    5  C5  UNL     1     -33.207  16.985  -2.945  1.00 20.00     0.145 C 
HETATM    6  C6  UNL     1     -34.935  15.541  -2.694  1.00 20.00     0.149 C 
HETATM    7  C7  UNL     1     -35.758  16.043  -3.902  1.00 20.00     0.022 C 
HETATM    8  O11 UNL     1     -33.543  15.585  -3.086  1.00 20.00    -0.373 OA
ENDROOT
BRANCH   7   9
HETATM    9  C10 UNL     1     -35.646  15.056  -5.069  1.00 20.00    -0.016 C 
HETATM   10  C8  UNL     1     -36.233  13.703  -4.679  1.00 20.00     0.010 C 
HETATM   11  C9  UNL     1     -36.346  15.612  -6.304  1.00 20.00     0.010 C 
ENDBRANCH   7   9
TORSDOF 1
ENDMDL
MODEL 8
REMARK VINA RESULT:      -3.9      1.686      3.771
REMARK  1 active torsions:
REMARK  status: ('A' for Active; 'I' for Inactive)
REMARK    1  A    between atoms: C7_7  and  C10_10 
ROOT
HETATM    1  C1  UNL     1     -35.315  18.606  -1.766  1.00 20.00     0.003 C 
HETATM    2  C2  UNL     1     -36.089  18.031  -2.694  1.00 20.00     0.004 C 
HETATM    3  C3  UNL     1     -33.132  17.340  -1.910  1.00 20.00     0.036 C 
HETATM    4  C4  UNL     1     -33.353  17.076  -3.416  1.00 20.00     0.010 C 
HETATM    5  C5  UNL     1     -34.455  17.545  -1.158  1.00 20.00     0.145 C 
HETATM    6  C6  UNL     1     -35.763  16.570  -2.729  1.00 20.00     0.149 C 
HETATM    7  C7  UNL     1     -34.625  16.238  -3.722  1.00 20.00     0.022 C 
HETATM    8  O11 UNL     1     -35.238  16.353  -1.399  1.00 20.00    -0.373 OA
ENDROOT
BRANCH   7   9
HETATM    9  C10 UNL     1     -34.292  14.743  -3.669  1.00 20.00    -0.016 C 
HETATM   10  C8  UNL     1     -35.463  13.919  -4.195  1.00 20.00     0.010 C 
HETATM   11  C9  UNL     1     -33.025  14.452  -4.465  1.00 20.00     0.010 C 
ENDBRANCH   7   9
TORSDOF 1
ENDMDL
MODEL 9
REMARK VINA RESULT:      -3.9      1.213      3.948
REMARK  1 active torsions:
REMARK  status: ('A' for Active; 'I' for Inactive)
REMARK    1  A    between atoms: C7_7  and  C10_10 
ROOT
HETATM    1  C1  UNL     1     -34.351  16.278  -2.140  1.00 20.00     0.003 C 
HETATM    2  C2  UNL     1     -33.310  16.280  -2.981  1.00 20.00     0.004 C 
HETATM    3  C3  UNL     1     -36.194  15.135  -3.439  1.00 20.00     0.036 C 
HETATM    4  C4  UNL     1     -35.160  14.282  -4.208  1.00 20.00     0.010 C 
HETATM    5  C5  UNL     1     -35.597  16.461  -2.945  1.00 20.00     0.145 C 
HETATM    6  C6  UNL     1     -33.837  16.464  -4.370  1.00 20.00     0.149 C 
HETATM    7  C7  UNL     1     -34.171  15.122  -5.062  1.00 20.00     0.022 C 
HETATM    8  O11 UNL     1     -35.094  17.133  -4.122  1.00 20.00    -0.373 OA
ENDROOT
BRANCH   7   9
HETATM    9  C10 UNL     1     -34.764  15.374  -6.453  1.00 20.00    -0.016 C 
HETATM   10  C8  UNL     1     -33.698  15.185  -7.527  1.00 20.00     0.010 C 
HETATM   11  C9  UNL     1     -35.950  14.449  -6.700  1.00 20.00     0.010 C 
ENDBRANCH   7   9
TORSDOF 1
ENDMDL
