MODEL 1
REMARK VINA RESULT:      -5.3      0.000      0.000
REMARK  0 active torsions:
REMARK  status: ('A' for Active; 'I' for Inactive)
ROOT
HETATM    1  C1  UNL     1     -24.033  18.826   7.766  1.00 20.00     0.100 C 
HETATM    2  C2  UNL     1     -25.326  18.697   9.819  1.00 20.00     0.067 A 
HETATM    3  C3  UNL     1     -24.098  18.595   9.176  1.00 20.00     0.056 A 
HETATM    4  C4  UNL     1     -22.961  18.272   9.908  1.00 20.00    -0.001 A 
HETATM    5  C5  UNL     1     -25.364  18.471  11.186  1.00 20.00     0.129 A 
HETATM    6  C6  UNL     1     -23.104  18.064  11.270  1.00 20.00     0.135 A 
HETATM    7  C7  UNL     1     -21.628  18.153   9.244  1.00 20.00     0.053 C 
HETATM    8  N8  UNL     1     -23.980  19.014   6.621  1.00 20.00    -0.191 NA
HETATM    9  N9  UNL     1     -24.280  18.155  11.931  1.00 20.00    -0.224 NA
HETATM   10 CL10 UNL     1     -26.834  18.576  12.063  1.00 20.00    -0.062 Cl
HETATM   11 CL11 UNL     1     -21.776  17.661  12.287  1.00 20.00    -0.062 Cl
ENDROOT
TORSDOF 0
ENDMDL
MODEL 2
REMARK VINA RESULT:      -5.3      2.464      3.733
REMARK  0 active torsions:
REMARK  status: ('A' for Active; 'I' for Inactive)
ROOT
HETATM    1  C1  UNL     1     -25.711  18.959  10.951  1.00 20.00     0.100 C 
HETATM    2  C2  UNL     1     -25.454  19.090   8.538  1.00 20.00     0.067 A 
HETATM    3  C3  UNL     1     -24.915  18.768   9.778  1.00 20.00     0.056 A 
HETATM    4  C4  UNL     1     -23.620  18.269   9.859  1.00 20.00    -0.001 A 
HETATM    5  C5  UNL     1     -24.663  18.894   7.416  1.00 20.00     0.129 A 
HETATM    6  C6  UNL     1     -22.911  18.111   8.679  1.00 20.00     0.135 A 
HETATM    7  C7  UNL     1     -23.013  17.915  11.178  1.00 20.00     0.053 C 
HETATM    8  N8  UNL     1     -26.358  19.114  11.903  1.00 20.00    -0.191 NA
HETATM    9  N9  UNL     1     -23.401  18.411   7.455  1.00 20.00    -0.224 NA
HETATM   10 CL10 UNL     1     -25.245  19.263   5.845  1.00 20.00    -0.062 Cl
HETATM   11 CL11 UNL     1     -21.302  17.501   8.643  1.00 20.00    -0.062 Cl
ENDROOT
TORSDOF 0
ENDMDL
MODEL 3
REMARK VINA RESULT:      -4.5      3.951      5.200
REMARK  0 active torsions:
REMARK  status: ('A' for Active; 'I' for Inactive)
ROOT
HETATM    1  C1  UNL     1     -28.176  19.246   7.323  1.00 20.00     0.100 C 
HETATM    2  C2  UNL     1     -26.482  19.248   5.579  1.00 20.00     0.067 A 
HETATM    3  C3  UNL     1     -26.799  19.224   6.932  1.00 20.00     0.056 A 
HETATM    4  C4  UNL     1     -25.782  19.180   7.878  1.00 20.00    -0.001 A 
HETATM    5  C5  UNL     1     -25.142  19.224   5.226  1.00 20.00     0.129 A 
HETATM    6  C6  UNL     1     -24.473  19.160   7.422  1.00 20.00     0.135 A 
HETATM    7  C7  UNL     1     -26.091  19.155   9.340  1.00 20.00     0.053 C 
HETATM    8  N8  UNL     1     -29.293  19.263   7.639  1.00 20.00    -0.191 NA
HETATM    9  N9  UNL     1     -24.126  19.181   6.116  1.00 20.00    -0.224 NA
HETATM   10 CL10 UNL     1     -24.658  19.250   3.580  1.00 20.00    -0.062 Cl
HETATM   11 CL11 UNL     1     -23.125  19.104   8.490  1.00 20.00    -0.062 Cl
ENDROOT
TORSDOF 0
ENDMDL
MODEL 4
REMARK VINA RESULT:      -4.5     16.445     18.102
REMARK  0 active torsions:
REMARK  status: ('A' for Active; 'I' for Inactive)
ROOT
HETATM    1  C1  UNL     1     -35.456  13.864  -4.219  1.00 20.00     0.100 C 
HETATM    2  C2  UNL     1     -34.943  15.580  -2.576  1.00 20.00     0.067 A 
HETATM    3  C3  UNL     1     -35.026  15.193  -3.908  1.00 20.00     0.056 A 
HETATM    4  C4  UNL     1     -34.691  16.095  -4.911  1.00 20.00    -0.001 A 
HETATM    5  C5  UNL     1     -34.525  16.873  -2.301  1.00 20.00     0.129 A 
HETATM    6  C6  UNL     1     -34.283  17.364  -4.532  1.00 20.00     0.135 A 
HETATM    7  C7  UNL     1     -34.768  15.708  -6.352  1.00 20.00     0.053 C 
HETATM    8  N8  UNL     1     -35.806  12.786  -4.470  1.00 20.00    -0.191 NA
HETATM    9  N9  UNL     1     -34.191  17.778  -3.248  1.00 20.00    -0.224 NA
HETATM   10 CL10 UNL     1     -34.394  17.439  -0.687  1.00 20.00    -0.062 Cl
HETATM   11 CL11 UNL     1     -33.844  18.573  -5.676  1.00 20.00    -0.062 Cl
ENDROOT
TORSDOF 0
ENDMDL
MODEL 5
REMARK VINA RESULT:      -4.4     16.606     18.338
REMARK  0 active torsions:
REMARK  status: ('A' for Active; 'I' for Inactive)
ROOT
HETATM    1  C1  UNL     1     -35.703  13.845  -4.130  1.00 20.00     0.100 C 
HETATM    2  C2  UNL     1     -34.321  15.543  -3.073  1.00 20.00     0.067 A 
HETATM    3  C3  UNL     1     -35.546  15.171  -3.614  1.00 20.00     0.056 A 
HETATM    4  C4  UNL     1     -36.593  16.085  -3.645  1.00 20.00    -0.001 A 
HETATM    5  C5  UNL     1     -34.195  16.832  -2.578  1.00 20.00     0.129 A 
HETATM    6  C6  UNL     1     -36.365  17.349  -3.125  1.00 20.00     0.135 A 
HETATM    7  C7  UNL     1     -37.921  15.715  -4.221  1.00 20.00     0.053 C 
HETATM    8  N8  UNL     1     -35.829  12.770  -4.548  1.00 20.00    -0.191 NA
HETATM    9  N9  UNL     1     -35.189  17.748  -2.591  1.00 20.00    -0.224 NA
HETATM   10 CL10 UNL     1     -32.721  17.379  -1.892  1.00 20.00    -0.062 Cl
HETATM   11 CL11 UNL     1     -37.578  18.570  -3.102  1.00 20.00    -0.062 Cl
ENDROOT
TORSDOF 0
ENDMDL
MODEL 6
REMARK VINA RESULT:      -4.3     14.075     15.633
REMARK  0 active torsions:
REMARK  status: ('A' for Active; 'I' for Inactive)
ROOT
HETATM    1  C1  UNL     1     -31.757  18.232  -0.886  1.00 20.00     0.100 C 
HETATM    2  C2  UNL     1     -33.161  16.810  -2.269  1.00 20.00     0.067 A 
HETATM    3  C3  UNL     1     -33.043  17.687  -1.197  1.00 20.00     0.056 A 
HETATM    4  C4  UNL     1     -34.167  18.018  -0.450  1.00 20.00    -0.001 A 
HETATM    5  C5  UNL     1     -34.417  16.297  -2.553  1.00 20.00     0.129 A 
HETATM    6  C6  UNL     1     -35.378  17.451  -0.814  1.00 20.00     0.135 A 
HETATM    7  C7  UNL     1     -34.071  18.957   0.709  1.00 20.00     0.053 C 
HETATM    8  N8  UNL     1     -30.713  18.674  -0.634  1.00 20.00    -0.191 NA
HETATM    9  N9  UNL     1     -35.533  16.596  -1.849  1.00 20.00    -0.224 NA
HETATM   10 CL10 UNL     1     -34.659  15.209  -3.857  1.00 20.00    -0.062 Cl
HETATM   11 CL11 UNL     1     -36.842  17.781   0.029  1.00 20.00    -0.062 Cl
ENDROOT
TORSDOF 0
ENDMDL
MODEL 7
REMARK VINA RESULT:      -4.2     16.937     18.312
REMARK  0 active torsions:
REMARK  status: ('A' for Active; 'I' for Inactive)
ROOT
HETATM    1  C1  UNL     1     -37.147  14.514  -4.158  1.00 20.00     0.100 C 
HETATM    2  C2  UNL     1     -34.720  14.406  -4.222  1.00 20.00     0.067 A 
HETATM    3  C3  UNL     1     -35.873  15.111  -3.898  1.00 20.00     0.056 A 
HETATM    4  C4  UNL     1     -35.772  16.376  -3.330  1.00 20.00    -0.001 A 
HETATM    5  C5  UNL     1     -33.498  15.005  -3.959  1.00 20.00     0.129 A 
HETATM    6  C6  UNL     1     -34.503  16.887  -3.108  1.00 20.00     0.135 A 
HETATM    7  C7  UNL     1     -36.994  17.158  -2.973  1.00 20.00     0.053 C 
HETATM    8  N8  UNL     1     -38.181  14.028  -4.369  1.00 20.00    -0.191 NA
HETATM    9  N9  UNL     1     -33.360  16.232  -3.408  1.00 20.00    -0.224 NA
HETATM   10 CL10 UNL     1     -32.023  14.210  -4.324  1.00 20.00    -0.062 Cl
HETATM   11 CL11 UNL     1     -34.243  18.439  -2.411  1.00 20.00    -0.062 Cl
ENDROOT
TORSDOF 0
ENDMDL
MODEL 8
REMARK VINA RESULT:      -4.2     13.723     15.310
REMARK  0 active torsions:
REMARK  status: ('A' for Active; 'I' for Inactive)
ROOT
HETATM    1  C1  UNL     1     -31.863  18.246  -0.668  1.00 20.00     0.100 C 
HETATM    2  C2  UNL     1     -34.061  18.224   0.370  1.00 20.00     0.067 A 
HETATM    3  C3  UNL     1     -33.242  17.866  -0.694  1.00 20.00     0.056 A 
HETATM    4  C4  UNL     1     -33.771  17.148  -1.761  1.00 20.00    -0.001 A 
HETATM    5  C5  UNL     1     -35.392  17.843   0.321  1.00 20.00     0.129 A 
HETATM    6  C6  UNL     1     -35.116  16.815  -1.714  1.00 20.00     0.135 A 
HETATM    7  C7  UNL     1     -32.916  16.749  -2.919  1.00 20.00     0.053 C 
HETATM    8  N8  UNL     1     -30.744  18.556  -0.645  1.00 20.00    -0.191 NA
HETATM    9  N9  UNL     1     -35.943  17.145  -0.698  1.00 20.00    -0.224 NA
HETATM   10 CL10 UNL     1     -36.477  18.240   1.590  1.00 20.00    -0.062 Cl
HETATM   11 CL11 UNL     1     -35.890  15.928  -2.969  1.00 20.00    -0.062 Cl
ENDROOT
TORSDOF 0
ENDMDL
MODEL 9
REMARK VINA RESULT:      -4.1     16.996     18.062
REMARK  0 active torsions:
REMARK  status: ('A' for Active; 'I' for Inactive)
ROOT
HETATM    1  C1  UNL     1     -35.756  13.889  -4.271  1.00 20.00     0.100 C 
HETATM    2  C2  UNL     1     -36.726  15.993  -3.533  1.00 20.00     0.067 A 
HETATM    3  C3  UNL     1     -35.595  15.242  -3.832  1.00 20.00     0.056 A 
HETATM    4  C4  UNL     1     -34.334  15.812  -3.701  1.00 20.00    -0.001 A 
HETATM    5  C5  UNL     1     -36.544  17.301  -3.112  1.00 20.00     0.129 A 
HETATM    6  C6  UNL     1     -34.259  17.127  -3.271  1.00 20.00     0.135 A 
HETATM    7  C7  UNL     1     -33.100  15.029  -4.013  1.00 20.00     0.053 C 
HETATM    8  N8  UNL     1     -35.888  12.792  -4.627  1.00 20.00    -0.191 NA
HETATM    9  N9  UNL     1     -35.334  17.889  -2.973  1.00 20.00    -0.224 NA
HETATM   10 CL10 UNL     1     -37.881  18.302  -2.723  1.00 20.00    -0.062 Cl
HETATM   11 CL11 UNL     1     -32.759  17.948  -3.070  1.00 20.00    -0.062 Cl
ENDROOT
TORSDOF 0
ENDMDL
