MODEL 1
REMARK VINA RESULT:      -5.2      0.000      0.000
REMARK  1 active torsions:
REMARK  status: ('A' for Active; 'I' for Inactive)
REMARK    1  A    between atoms: C1_1  and  C10_10 
ROOT
HETATM    1  C1  UNL     1     -35.182  15.038  -4.575  1.00 20.00     0.025 C 
HETATM    2  C2  UNL     1     -35.270  15.874  -5.603  1.00 20.00    -0.038 C 
HETATM    3  C3  UNL     1     -35.748  13.770  -5.076  1.00 20.00     0.290 C 
HETATM    4  C4  UNL     1     -34.574  17.139  -5.950  1.00 20.00     0.038 C 
HETATM    5  C5  UNL     1     -34.504  17.041  -7.486  1.00 20.00     0.007 C 
HETATM    6  C6  UNL     1     -34.908  15.600  -7.842  1.00 20.00     0.037 C 
HETATM    7  C7  UNL     1     -35.924  15.261  -6.769  1.00 20.00     0.162 C 
HETATM    8  O11 UNL     1     -35.876  12.749  -4.421  1.00 20.00    -0.260 OA
HETATM    9  O12 UNL     1     -36.044  13.897  -6.411  1.00 20.00    -0.308 OA
ENDROOT
BRANCH   1  10
HETATM   10  C10 UNL     1     -34.499  15.170  -3.270  1.00 20.00     0.017 C 
HETATM   11  C8  UNL     1     -33.070  15.695  -3.448  1.00 20.00     0.015 C 
HETATM   12  C9  UNL     1     -35.281  16.083  -2.317  1.00 20.00     0.015 C 
ENDBRANCH   1  10
TORSDOF 1
ENDMDL
MODEL 2
REMARK VINA RESULT:      -5.1      1.916      2.473
REMARK  1 active torsions:
REMARK  status: ('A' for Active; 'I' for Inactive)
REMARK    1  A    between atoms: C1_1  and  C10_10 
ROOT
HETATM    1  C1  UNL     1     -35.491  14.757  -4.156  1.00 20.00     0.025 C 
HETATM    2  C2  UNL     1     -36.398  15.726  -4.097  1.00 20.00    -0.038 C 
HETATM    3  C3  UNL     1     -36.277  13.525  -4.365  1.00 20.00     0.290 C 
HETATM    4  C4  UNL     1     -36.332  17.197  -4.293  1.00 20.00     0.038 C 
HETATM    5  C5  UNL     1     -37.708  17.486  -4.921  1.00 20.00     0.007 C 
HETATM    6  C6  UNL     1     -38.308  16.118  -5.288  1.00 20.00     0.037 C 
HETATM    7  C7  UNL     1     -37.773  15.214  -4.195  1.00 20.00     0.162 C 
HETATM    8  O11 UNL     1     -35.812  12.400  -4.445  1.00 20.00    -0.260 OA
HETATM    9  O12 UNL     1     -37.603  13.848  -4.523  1.00 20.00    -0.308 OA
ENDROOT
BRANCH   1  10
HETATM   10  C10 UNL     1     -34.016  14.810  -4.230  1.00 20.00     0.017 C 
HETATM   11  C8  UNL     1     -33.546  15.050  -5.670  1.00 20.00     0.015 C 
HETATM   12  C9  UNL     1     -33.445  15.889  -3.303  1.00 20.00     0.015 C 
ENDBRANCH   1  10
TORSDOF 1
ENDMDL
MODEL 3
REMARK VINA RESULT:      -4.7      2.152      3.063
REMARK  1 active torsions:
REMARK  status: ('A' for Active; 'I' for Inactive)
REMARK    1  A    between atoms: C1_1  and  C10_10 
ROOT
HETATM    1  C1  UNL     1     -33.827  15.693  -3.435  1.00 20.00     0.025 C 
HETATM    2  C2  UNL     1     -35.118  15.380  -3.422  1.00 20.00    -0.038 C 
HETATM    3  C3  UNL     1     -33.179  14.568  -4.138  1.00 20.00     0.290 C 
HETATM    4  C4  UNL     1     -36.358  16.178  -3.248  1.00 20.00     0.038 C 
HETATM    5  C5  UNL     1     -37.340  15.424  -4.165  1.00 20.00     0.007 C 
HETATM    6  C6  UNL     1     -36.490  14.445  -4.992  1.00 20.00     0.037 C 
HETATM    7  C7  UNL     1     -35.382  14.066  -4.028  1.00 20.00     0.162 C 
HETATM    8  O11 UNL     1     -31.980  14.459  -4.335  1.00 20.00    -0.260 OA
HETATM    9  O12 UNL     1     -34.139  13.699  -4.596  1.00 20.00    -0.308 OA
ENDROOT
BRANCH   1  10
HETATM   10  C10 UNL     1     -33.125  16.940  -3.064  1.00 20.00     0.017 C 
HETATM   11  C8  UNL     1     -33.427  18.059  -4.067  1.00 20.00     0.015 C 
HETATM   12  C9  UNL     1     -33.492  17.390  -1.645  1.00 20.00     0.015 C 
ENDBRANCH   1  10
TORSDOF 1
ENDMDL
MODEL 4
REMARK VINA RESULT:      -4.6      2.483      3.690
REMARK  1 active torsions:
REMARK  status: ('A' for Active; 'I' for Inactive)
REMARK    1  A    between atoms: C1_1  and  C10_10 
ROOT
HETATM    1  C1  UNL     1     -34.818  16.205  -2.473  1.00 20.00     0.025 C 
HETATM    2  C2  UNL     1     -35.095  15.221  -3.322  1.00 20.00    -0.038 C 
HETATM    3  C3  UNL     1     -33.378  16.467  -2.665  1.00 20.00     0.290 C 
HETATM    4  C4  UNL     1     -36.354  14.730  -3.938  1.00 20.00     0.038 C 
HETATM    5  C5  UNL     1     -35.860  14.270  -5.323  1.00 20.00     0.007 C 
HETATM    6  C6  UNL     1     -34.426  14.806  -5.467  1.00 20.00     0.037 C 
HETATM    7  C7  UNL     1     -33.903  14.752  -4.044  1.00 20.00     0.162 C 
HETATM    8  O11 UNL     1     -32.725  17.289  -2.044  1.00 20.00    -0.260 OA
HETATM    9  O12 UNL     1     -32.904  15.692  -3.695  1.00 20.00    -0.308 OA
ENDROOT
BRANCH   1  10
HETATM   10  C10 UNL     1     -35.703  17.057  -1.650  1.00 20.00     0.017 C 
HETATM   11  C8  UNL     1     -35.258  17.053  -0.183  1.00 20.00     0.015 C 
HETATM   12  C9  UNL     1     -35.753  18.494  -2.182  1.00 20.00     0.015 C 
ENDBRANCH   1  10
TORSDOF 1
ENDMDL
MODEL 5
REMARK VINA RESULT:      -4.5      1.760      3.186
REMARK  1 active torsions:
REMARK  status: ('A' for Active; 'I' for Inactive)
REMARK    1  A    between atoms: C1_1  and  C10_10 
ROOT
HETATM    1  C1  UNL     1     -35.934  15.152  -4.880  1.00 20.00     0.025 C 
HETATM    2  C2  UNL     1     -34.833  15.887  -4.764  1.00 20.00    -0.038 C 
HETATM    3  C3  UNL     1     -35.522  13.797  -4.464  1.00 20.00     0.290 C 
HETATM    4  C4  UNL     1     -34.591  17.347  -4.633  1.00 20.00     0.038 C 
HETATM    5  C5  UNL     1     -33.349  17.372  -3.722  1.00 20.00     0.007 C 
HETATM    6  C6  UNL     1     -33.179  15.939  -3.189  1.00 20.00     0.037 C 
HETATM    7  C7  UNL     1     -33.669  15.091  -4.346  1.00 20.00     0.162 C 
HETATM    8  O11 UNL     1     -36.244  12.814  -4.457  1.00 20.00    -0.260 OA
HETATM    9  O12 UNL     1     -34.221  13.829  -4.023  1.00 20.00    -0.308 OA
ENDROOT
BRANCH   1  10
HETATM   10  C10 UNL     1     -37.337  15.538  -5.140  1.00 20.00     0.017 C 
HETATM   11  C8  UNL     1     -37.932  16.287  -3.941  1.00 20.00     0.015 C 
HETATM   12  C9  UNL     1     -37.460  16.391  -6.408  1.00 20.00     0.015 C 
ENDBRANCH   1  10
TORSDOF 1
ENDMDL
MODEL 6
REMARK VINA RESULT:      -4.5      4.736      6.883
REMARK  1 active torsions:
REMARK  status: ('A' for Active; 'I' for Inactive)
REMARK    1  A    between atoms: C1_1  and  C10_10 
ROOT
HETATM    1  C1  UNL     1     -32.943  17.995  -1.282  1.00 20.00     0.025 C 
HETATM    2  C2  UNL     1     -34.030  18.182  -0.541  1.00 20.00    -0.038 C 
HETATM    3  C3  UNL     1     -31.821  18.362  -0.396  1.00 20.00     0.290 C 
HETATM    4  C4  UNL     1     -35.421  17.669  -0.625  1.00 20.00     0.038 C 
HETATM    5  C5  UNL     1     -35.797  17.554   0.864  1.00 20.00     0.007 C 
HETATM    6  C6  UNL     1     -34.490  17.737   1.652  1.00 20.00     0.037 C 
HETATM    7  C7  UNL     1     -33.714  18.716   0.792  1.00 20.00     0.162 C 
HETATM    8  O11 UNL     1     -30.643  18.355  -0.713  1.00 20.00    -0.260 OA
HETATM    9  O12 UNL     1     -32.302  18.646   0.859  1.00 20.00    -0.308 OA
ENDROOT
BRANCH   1  10
HETATM   10  C10 UNL     1     -32.767  17.366  -2.608  1.00 20.00     0.017 C 
HETATM   11  C8  UNL     1     -33.637  16.110  -2.740  1.00 20.00     0.015 C 
HETATM   12  C9  UNL     1     -33.084  18.349  -3.743  1.00 20.00     0.015 C 
ENDBRANCH   1  10
TORSDOF 1
ENDMDL
MODEL 7
REMARK VINA RESULT:      -4.5      1.035      3.603
REMARK  1 active torsions:
REMARK  status: ('A' for Active; 'I' for Inactive)
REMARK    1  A    between atoms: C1_1  and  C10_10 
ROOT
HETATM    1  C1  UNL     1     -34.517  15.452  -5.549  1.00 20.00     0.025 C 
HETATM    2  C2  UNL     1     -34.054  15.610  -4.314  1.00 20.00    -0.038 C 
HETATM    3  C3  UNL     1     -35.623  14.484  -5.412  1.00 20.00     0.290 C 
HETATM    4  C4  UNL     1     -33.253  16.672  -3.654  1.00 20.00     0.038 C 
HETATM    5  C5  UNL     1     -33.834  16.655  -2.228  1.00 20.00     0.007 C 
HETATM    6  C6  UNL     1     -35.103  15.789  -2.292  1.00 20.00     0.037 C 
HETATM    7  C7  UNL     1     -34.750  14.754  -3.342  1.00 20.00     0.162 C 
HETATM    8  O11 UNL     1     -36.295  14.049  -6.332  1.00 20.00    -0.260 OA
HETATM    9  O12 UNL     1     -35.823  14.203  -4.082  1.00 20.00    -0.308 OA
ENDROOT
BRANCH   1  10
HETATM   10  C10 UNL     1     -34.219  16.182  -6.800  1.00 20.00     0.017 C 
HETATM   11  C8  UNL     1     -33.809  15.214  -7.916  1.00 20.00     0.015 C 
HETATM   12  C9  UNL     1     -35.412  17.033  -7.252  1.00 20.00     0.015 C 
ENDBRANCH   1  10
TORSDOF 1
ENDMDL
MODEL 8
REMARK VINA RESULT:      -4.4      4.580      6.853
REMARK  1 active torsions:
REMARK  status: ('A' for Active; 'I' for Inactive)
REMARK    1  A    between atoms: C1_1  and  C10_10 
ROOT
HETATM    1  C1  UNL     1     -33.587  18.019  -1.153  1.00 20.00     0.025 C 
HETATM    2  C2  UNL     1     -33.023  18.448  -0.030  1.00 20.00    -0.038 C 
HETATM    3  C3  UNL     1     -32.594  18.313  -2.205  1.00 20.00     0.290 C 
HETATM    4  C4  UNL     1     -33.248  18.141   1.406  1.00 20.00     0.038 C 
HETATM    5  C5  UNL     1     -31.821  18.253   1.972  1.00 20.00     0.007 C 
HETATM    6  C6  UNL     1     -30.881  18.328   0.757  1.00 20.00     0.037 C 
HETATM    7  C7  UNL     1     -31.715  19.077  -0.265  1.00 20.00     0.162 C 
HETATM    8  O11 UNL     1     -32.745  18.095  -3.395  1.00 20.00    -0.260 OA
HETATM    9  O12 UNL     1     -31.449  18.805  -1.628  1.00 20.00    -0.308 OA
ENDROOT
BRANCH   1  10
HETATM   10  C10 UNL     1     -34.813  17.225  -1.384  1.00 20.00     0.017 C 
HETATM   11  C8  UNL     1     -35.907  18.079  -2.034  1.00 20.00     0.015 C 
HETATM   12  C9  UNL     1     -34.527  15.989  -2.247  1.00 20.00     0.015 C 
ENDBRANCH   1  10
TORSDOF 1
ENDMDL
MODEL 9
REMARK VINA RESULT:      -4.3      1.785      3.444
REMARK  1 active torsions:
REMARK  status: ('A' for Active; 'I' for Inactive)
REMARK    1  A    between atoms: C1_1  and  C10_10 
ROOT
HETATM    1  C1  UNL     1     -36.394  15.659  -5.466  1.00 20.00     0.025 C 
HETATM    2  C2  UNL     1     -35.405  16.009  -4.651  1.00 20.00    -0.038 C 
HETATM    3  C3  UNL     1     -35.743  14.848  -6.514  1.00 20.00     0.290 C 
HETATM    4  C4  UNL     1     -35.363  16.468  -3.239  1.00 20.00     0.038 C 
HETATM    5  C5  UNL     1     -34.037  15.851  -2.755  1.00 20.00     0.007 C 
HETATM    6  C6  UNL     1     -33.598  14.864  -3.849  1.00 20.00     0.037 C 
HETATM    7  C7  UNL     1     -34.097  15.527  -5.118  1.00 20.00     0.162 C 
HETATM    8  O11 UNL     1     -36.310  14.357  -7.476  1.00 20.00    -0.260 OA
HETATM    9  O12 UNL     1     -34.417  14.674  -6.201  1.00 20.00    -0.308 OA
ENDROOT
BRANCH   1  10
HETATM   10  C10 UNL     1     -37.859  15.805  -5.336  1.00 20.00     0.017 C 
HETATM   11  C8  UNL     1     -38.412  14.856  -4.266  1.00 20.00     0.015 C 
HETATM   12  C9  UNL     1     -38.254  17.251  -5.012  1.00 20.00     0.015 C 
ENDBRANCH   1  10
TORSDOF 1
ENDMDL
