MODEL 1
REMARK VINA RESULT:      -4.8      0.000      0.000
REMARK  1 active torsions:
REMARK  status: ('A' for Active; 'I' for Inactive)
REMARK    1  A    between atoms: C3_3  and  C8_8 
ROOT
HETATM    1  C1  UNL     1     -34.041   4.938   3.742  1.00 20.00     0.145 C 
HETATM    2  C4  UNL     1     -33.037   5.453   2.727  1.00 20.00     0.088 C 
HETATM    3  C5  UNL     1     -33.374   6.926   5.097  1.00 20.00     0.028 C 
HETATM    4  C6  UNL     1     -32.996   7.731   3.848  1.00 20.00     0.011 C 
HETATM    5  C7  UNL     1     -34.482   5.917   4.819  1.00 20.00     0.151 C 
HETATM    6  C8  UNL     1     -33.215   6.960   2.534  1.00 20.00     0.014 C 
HETATM    7  O9  UNL     1     -34.467   3.785   3.669  1.00 20.00    -0.296 OA
HETATM    8 CL10 UNL     1     -34.862   5.011   6.303  1.00 20.00    -0.117 Cl
ENDROOT
BRANCH   6   9
HETATM    9  C3  UNL     1     -32.321   7.485   1.455  1.00 20.00    -0.032 C 
HETATM   10  C2  UNL     1     -32.661   8.466   0.612  1.00 20.00     0.007 C 
ENDBRANCH   6   9
TORSDOF 1
ENDMDL
MODEL 2
REMARK VINA RESULT:      -4.7     16.468     16.985
REMARK  1 active torsions:
REMARK  status: ('A' for Active; 'I' for Inactive)
REMARK    1  A    between atoms: C3_3  and  C8_8 
ROOT
HETATM    1  C1  UNL     1     -23.705  18.428   8.155  1.00 20.00     0.145 C 
HETATM    2  C4  UNL     1     -24.548  19.177   9.171  1.00 20.00     0.088 C 
HETATM    3  C5  UNL     1     -22.321  17.748  10.118  1.00 20.00     0.028 C 
HETATM    4  C6  UNL     1     -23.511  17.860  11.078  1.00 20.00     0.011 C 
HETATM    5  C7  UNL     1     -22.752  17.378   8.704  1.00 20.00     0.151 C 
HETATM    6  C8  UNL     1     -24.817  18.286  10.385  1.00 20.00     0.014 C 
HETATM    7  O9  UNL     1     -23.812  18.672   6.953  1.00 20.00    -0.296 OA
HETATM    8 CL10 UNL     1     -21.327  17.278   7.643  1.00 20.00    -0.117 Cl
ENDROOT
BRANCH   6   9
HETATM    9  C3  UNL     1     -25.742  18.948  11.357  1.00 20.00    -0.032 C 
HETATM   10  C2  UNL     1     -26.585  18.287  12.158  1.00 20.00     0.007 C 
ENDBRANCH   6   9
TORSDOF 1
ENDMDL
MODEL 3
REMARK VINA RESULT:      -4.5     16.206     16.852
REMARK  1 active torsions:
REMARK  status: ('A' for Active; 'I' for Inactive)
REMARK    1  A    between atoms: C3_3  and  C8_8 
ROOT
HETATM    1  C1  UNL     1     -22.858  17.962   8.008  1.00 20.00     0.145 C 
HETATM    2  C4  UNL     1     -22.792  17.122   9.271  1.00 20.00     0.088 C 
HETATM    3  C5  UNL     1     -25.123  18.625   8.820  1.00 20.00     0.028 C 
HETATM    4  C6  UNL     1     -24.733  18.405  10.286  1.00 20.00     0.011 C 
HETATM    5  C7  UNL     1     -23.933  19.036   7.961  1.00 20.00     0.151 C 
HETATM    6  C8  UNL     1     -23.278  17.941  10.468  1.00 20.00     0.014 C 
HETATM    7  O9  UNL     1     -22.064  17.768   7.087  1.00 20.00    -0.296 OA
HETATM    8 CL10 UNL     1     -24.452  19.262   6.274  1.00 20.00    -0.117 Cl
ENDROOT
BRANCH   6   9
HETATM    9  C3  UNL     1     -23.118  17.185  11.750  1.00 20.00    -0.032 C 
HETATM   10  C2  UNL     1     -23.851  16.118  12.087  1.00 20.00     0.007 C 
ENDBRANCH   6   9
TORSDOF 1
ENDMDL
MODEL 4
REMARK VINA RESULT:      -4.4     11.785     12.495
REMARK  1 active torsions:
REMARK  status: ('A' for Active; 'I' for Inactive)
REMARK    1  A    between atoms: C3_3  and  C8_8 
ROOT
HETATM    1  C1  UNL     1     -32.636  17.984  -1.670  1.00 20.00     0.145 C 
HETATM    2  C4  UNL     1     -32.994  17.272  -2.961  1.00 20.00     0.088 C 
HETATM    3  C5  UNL     1     -35.004  17.542  -1.016  1.00 20.00     0.028 C 
HETATM    4  C6  UNL     1     -35.083  16.293  -1.902  1.00 20.00     0.011 C 
HETATM    5  C7  UNL     1     -33.592  17.796  -0.502  1.00 20.00     0.151 C 
HETATM    6  C8  UNL     1     -33.775  15.993  -2.653  1.00 20.00     0.014 C 
HETATM    7  O9  UNL     1     -31.614  18.666  -1.595  1.00 20.00    -0.296 OA
HETATM    8 CL10 UNL     1     -33.569  19.262   0.506  1.00 20.00    -0.117 Cl
ENDROOT
BRANCH   6   9
HETATM    9  C3  UNL     1     -34.045  15.203  -3.895  1.00 20.00    -0.032 C 
HETATM   10  C2  UNL     1     -34.892  14.170  -3.956  1.00 20.00     0.007 C 
ENDBRANCH   6   9
TORSDOF 1
ENDMDL
MODEL 5
REMARK VINA RESULT:      -4.3     11.517     12.160
REMARK  1 active torsions:
REMARK  status: ('A' for Active; 'I' for Inactive)
REMARK    1  A    between atoms: C3_3  and  C8_8 
ROOT
HETATM    1  C1  UNL     1     -33.961  15.025  -4.679  1.00 20.00     0.145 C 
HETATM    2  C4  UNL     1     -32.970  15.634  -3.704  1.00 20.00     0.088 C 
HETATM    3  C5  UNL     1     -35.582  15.152  -2.785  1.00 20.00     0.028 C 
HETATM    4  C6  UNL     1     -34.853  16.347  -2.157  1.00 20.00     0.011 C 
HETATM    5  C7  UNL     1     -35.432  15.116  -4.301  1.00 20.00     0.151 C 
HETATM    6  C8  UNL     1     -33.621  16.801  -2.959  1.00 20.00     0.014 C 
HETATM    7  O9  UNL     1     -33.569  14.496  -5.719  1.00 20.00    -0.296 OA
HETATM    8 CL10 UNL     1     -36.288  13.704  -4.961  1.00 20.00    -0.117 Cl
ENDROOT
BRANCH   6   9
HETATM    9  C3  UNL     1     -32.640  17.501  -2.073  1.00 20.00    -0.032 C 
HETATM   10  C2  UNL     1     -32.967  18.115  -0.931  1.00 20.00     0.007 C 
ENDBRANCH   6   9
TORSDOF 1
ENDMDL
MODEL 6
REMARK VINA RESULT:      -4.3     11.623     12.655
REMARK  1 active torsions:
REMARK  status: ('A' for Active; 'I' for Inactive)
REMARK    1  A    between atoms: C3_3  and  C8_8 
ROOT
HETATM    1  C1  UNL     1     -34.566  14.668  -4.086  1.00 20.00     0.145 C 
HETATM    2  C4  UNL     1     -34.470  15.494  -2.817  1.00 20.00     0.088 C 
HETATM    3  C5  UNL     1     -34.717  16.869  -5.255  1.00 20.00     0.028 C 
HETATM    4  C6  UNL     1     -33.921  17.580  -4.154  1.00 20.00     0.011 C 
HETATM    5  C7  UNL     1     -34.323  15.403  -5.396  1.00 20.00     0.151 C 
HETATM    6  C8  UNL     1     -33.482  16.645  -3.015  1.00 20.00     0.014 C 
HETATM    7  O9  UNL     1     -34.821  13.465  -4.032  1.00 20.00    -0.296 OA
HETATM    8 CL10 UNL     1     -35.290  14.637  -6.678  1.00 20.00    -0.117 Cl
ENDROOT
BRANCH   6   9
HETATM    9  C3  UNL     1     -33.273  17.412  -1.748  1.00 20.00    -0.032 C 
HETATM   10  C2  UNL     1     -32.200  18.172  -1.501  1.00 20.00     0.007 C 
ENDBRANCH   6   9
TORSDOF 1
ENDMDL
MODEL 7
REMARK VINA RESULT:      -4.2     16.343     17.018
REMARK  1 active torsions:
REMARK  status: ('A' for Active; 'I' for Inactive)
REMARK    1  A    between atoms: C3_3  and  C8_8 
ROOT
HETATM    1  C1  UNL     1     -23.576  17.618  11.350  1.00 20.00     0.145 C 
HETATM    2  C4  UNL     1     -25.059  17.670  11.664  1.00 20.00     0.088 C 
HETATM    3  C5  UNL     1     -24.242  18.429   9.085  1.00 20.00     0.028 C 
HETATM    4  C6  UNL     1     -25.491  19.130   9.632  1.00 20.00     0.011 C 
HETATM    5  C7  UNL     1     -23.116  18.371  10.111  1.00 20.00     0.151 C 
HETATM    6  C8  UNL     1     -25.656  18.983  11.155  1.00 20.00     0.014 C 
HETATM    7  O9  UNL     1     -22.803  16.998  12.081  1.00 20.00    -0.296 OA
HETATM    8 CL10 UNL     1     -21.706  17.537   9.416  1.00 20.00    -0.117 Cl
ENDROOT
BRANCH   6   9
HETATM    9  C3  UNL     1     -27.092  19.122  11.549  1.00 20.00    -0.032 C 
HETATM   10  C2  UNL     1     -27.808  18.150  12.125  1.00 20.00     0.007 C 
ENDBRANCH   6   9
TORSDOF 1
ENDMDL
MODEL 8
REMARK VINA RESULT:      -4.2      1.488      2.177
REMARK  1 active torsions:
REMARK  status: ('A' for Active; 'I' for Inactive)
REMARK    1  A    between atoms: C3_3  and  C8_8 
ROOT
HETATM    1  C1  UNL     1     -33.797   6.741   5.101  1.00 20.00     0.145 C 
HETATM    2  C4  UNL     1     -33.464   7.480   3.818  1.00 20.00     0.088 C 
HETATM    3  C5  UNL     1     -34.442   4.855   3.600  1.00 20.00     0.028 C 
HETATM    4  C6  UNL     1     -33.467   5.307   2.506  1.00 20.00     0.011 C 
HETATM    5  C7  UNL     1     -33.960   5.233   4.995  1.00 20.00     0.151 C 
HETATM    6  C8  UNL     1     -32.670   6.568   2.881  1.00 20.00     0.014 C 
HETATM    7  O9  UNL     1     -33.915   7.355   6.162  1.00 20.00    -0.296 OA
HETATM    8 CL10 UNL     1     -35.140   4.691   6.211  1.00 20.00    -0.117 Cl
ENDROOT
BRANCH   6   9
HETATM    9  C3  UNL     1     -32.223   7.298   1.654  1.00 20.00    -0.032 C 
HETATM   10  C2  UNL     1     -32.868   8.347   1.130  1.00 20.00     0.007 C 
ENDBRANCH   6   9
TORSDOF 1
ENDMDL
MODEL 9
REMARK VINA RESULT:      -4.2     12.005     12.823
REMARK  1 active torsions:
REMARK  status: ('A' for Active; 'I' for Inactive)
REMARK    1  A    between atoms: C3_3  and  C8_8 
ROOT
HETATM    1  C1  UNL     1     -35.683  14.324  -5.144  1.00 20.00     0.145 C 
HETATM    2  C4  UNL     1     -35.600  14.935  -3.757  1.00 20.00     0.088 C 
HETATM    3  C5  UNL     1     -34.936  16.567  -5.946  1.00 20.00     0.028 C 
HETATM    4  C6  UNL     1     -34.200  16.863  -4.634  1.00 20.00     0.011 C 
HETATM    5  C7  UNL     1     -34.977  15.077  -6.262  1.00 20.00     0.151 C 
HETATM    6  C8  UNL     1     -34.296  15.719  -3.609  1.00 20.00     0.014 C 
HETATM    7  O9  UNL     1     -36.290  13.269  -5.327  1.00 20.00    -0.296 OA
HETATM    8 CL10 UNL     1     -35.852  14.804  -7.786  1.00 20.00    -0.117 Cl
ENDROOT
BRANCH   6   9
HETATM    9  C3  UNL     1     -34.124  16.239  -2.216  1.00 20.00    -0.032 C 
HETATM   10  C2  UNL     1     -35.138  16.593  -1.419  1.00 20.00     0.007 C 
ENDBRANCH   6   9
TORSDOF 1
ENDMDL
