MODEL 1
REMARK VINA RESULT:      -4.9      0.000      0.000
REMARK  1 active torsions:
REMARK  status: ('A' for Active; 'I' for Inactive)
REMARK    1  A    between atoms: C7_7  and  C10_10 
ROOT
HETATM    1  C1  UNL     1     -36.473  16.531  -5.444  1.00 20.00    -0.017 C 
HETATM    2  C2  UNL     1     -35.132  16.409  -5.400  1.00 20.00    -0.019 C 
HETATM    3  C3  UNL     1     -37.124  14.344  -4.317  1.00 20.00     0.135 C 
HETATM    4  C4  UNL     1     -35.884  13.487  -4.443  1.00 20.00     0.080 C 
HETATM    5  C5  UNL     1     -34.766  14.345  -3.828  1.00 20.00     0.022 C 
HETATM    6  C6  UNL     1     -36.680  15.827  -4.118  1.00 20.00     0.090 C 
HETATM    7  C7  UNL     1     -35.133  15.835  -3.988  1.00 20.00    -0.006 C 
HETATM    8  O11 UNL     1     -38.262  13.898  -4.415  1.00 20.00    -0.297 OA
ENDROOT
BRANCH   7   9
HETATM    9  C10 UNL     1     -34.513  16.731  -2.927  1.00 20.00    -0.009 C 
HETATM   10  C8  UNL     1     -35.089  16.415  -1.545  1.00 20.00     0.011 C 
HETATM   11  C9  UNL     1     -32.991  16.585  -2.914  1.00 20.00     0.011 C 
ENDBRANCH   7   9
TORSDOF 1
ENDMDL
MODEL 2
REMARK VINA RESULT:      -4.7      1.896      3.036
REMARK  1 active torsions:
REMARK  status: ('A' for Active; 'I' for Inactive)
REMARK    1  A    between atoms: C7_7  and  C10_10 
ROOT
HETATM    1  C1  UNL     1     -35.265  13.844  -4.165  1.00 20.00    -0.017 C 
HETATM    2  C2  UNL     1     -35.937  14.836  -3.548  1.00 20.00    -0.019 C 
HETATM    3  C3  UNL     1     -34.061  15.207  -5.944  1.00 20.00     0.135 C 
HETATM    4  C4  UNL     1     -34.857  16.492  -6.019  1.00 20.00     0.080 C 
HETATM    5  C5  UNL     1     -34.882  17.005  -4.570  1.00 20.00     0.022 C 
HETATM    6  C6  UNL     1     -34.060  14.713  -4.464  1.00 20.00     0.090 C 
HETATM    7  C7  UNL     1     -34.761  15.803  -3.611  1.00 20.00    -0.006 C 
HETATM    8  O11 UNL     1     -33.566  14.666  -6.927  1.00 20.00    -0.297 OA
ENDROOT
BRANCH   7   9
HETATM    9  C10 UNL     1     -34.146  16.159  -2.266  1.00 20.00    -0.009 C 
HETATM   10  C8  UNL     1     -32.980  17.133  -2.443  1.00 20.00     0.011 C 
HETATM   11  C9  UNL     1     -35.197  16.752  -1.327  1.00 20.00     0.011 C 
ENDBRANCH   7   9
TORSDOF 1
ENDMDL
MODEL 3
REMARK VINA RESULT:      -4.6      1.412      1.872
REMARK  1 active torsions:
REMARK  status: ('A' for Active; 'I' for Inactive)
REMARK    1  A    between atoms: C7_7  and  C10_10 
ROOT
HETATM    1  C1  UNL     1     -36.044  16.228  -4.576  1.00 20.00    -0.017 C 
HETATM    2  C2  UNL     1     -35.027  17.111  -4.578  1.00 20.00    -0.019 C 
HETATM    3  C3  UNL     1     -34.753  14.115  -3.990  1.00 20.00     0.135 C 
HETATM    4  C4  UNL     1     -33.319  14.459  -4.329  1.00 20.00     0.080 C 
HETATM    5  C5  UNL     1     -33.043  15.751  -3.542  1.00 20.00     0.022 C 
HETATM    6  C6  UNL     1     -35.454  15.401  -3.451  1.00 20.00     0.090 C 
HETATM    7  C7  UNL     1     -34.371  16.508  -3.342  1.00 20.00    -0.006 C 
HETATM    8  O11 UNL     1     -35.240  13.005  -4.176  1.00 20.00    -0.297 OA
ENDROOT
BRANCH   7   9
HETATM    9  C10 UNL     1     -34.385  17.396  -2.107  1.00 20.00    -0.009 C 
HETATM   10  C8  UNL     1     -35.164  16.733  -0.970  1.00 20.00     0.011 C 
HETATM   11  C9  UNL     1     -32.960  17.721  -1.656  1.00 20.00     0.011 C 
ENDBRANCH   7   9
TORSDOF 1
ENDMDL
MODEL 4
REMARK VINA RESULT:      -4.2      1.367      2.948
REMARK  1 active torsions:
REMARK  status: ('A' for Active; 'I' for Inactive)
REMARK    1  A    between atoms: C7_7  and  C10_10 
ROOT
HETATM    1  C1  UNL     1     -34.580  15.296  -2.914  1.00 20.00    -0.017 C 
HETATM    2  C2  UNL     1     -35.373  16.385  -2.917  1.00 20.00    -0.019 C 
HETATM    3  C3  UNL     1     -35.955  13.782  -4.429  1.00 20.00     0.135 C 
HETATM    4  C4  UNL     1     -37.339  14.393  -4.394  1.00 20.00     0.080 C 
HETATM    5  C5  UNL     1     -37.116  15.859  -4.801  1.00 20.00     0.022 C 
HETATM    6  C6  UNL     1     -34.906  14.934  -4.350  1.00 20.00     0.090 C 
HETATM    7  C7  UNL     1     -35.685  16.276  -4.404  1.00 20.00    -0.006 C 
HETATM    8  O11 UNL     1     -35.756  12.573  -4.463  1.00 20.00    -0.297 OA
ENDROOT
BRANCH   7   9
HETATM    9  C10 UNL     1     -35.117  17.393  -5.266  1.00 20.00    -0.009 C 
HETATM   10  C8  UNL     1     -34.973  16.938  -6.719  1.00 20.00     0.011 C 
HETATM   11  C9  UNL     1     -35.995  18.642  -5.184  1.00 20.00     0.011 C 
ENDBRANCH   7   9
TORSDOF 1
ENDMDL
MODEL 5
REMARK VINA RESULT:      -4.2      2.742      4.171
REMARK  1 active torsions:
REMARK  status: ('A' for Active; 'I' for Inactive)
REMARK    1  A    between atoms: C7_7  and  C10_10 
ROOT
HETATM    1  C1  UNL     1     -33.724  18.125  -4.260  1.00 20.00    -0.017 C 
HETATM    2  C2  UNL     1     -34.903  17.483  -4.369  1.00 20.00    -0.019 C 
HETATM    3  C3  UNL     1     -33.122  17.478  -1.874  1.00 20.00     0.135 C 
HETATM    4  C4  UNL     1     -34.442  17.056  -1.267  1.00 20.00     0.080 C 
HETATM    5  C5  UNL     1     -34.971  15.977  -2.226  1.00 20.00     0.022 C 
HETATM    6  C6  UNL     1     -33.112  17.056  -3.376  1.00 20.00     0.090 C 
HETATM    7  C7  UNL     1     -34.408  16.242  -3.637  1.00 20.00    -0.006 C 
HETATM    8  O11 UNL     1     -32.262  18.092  -1.250  1.00 20.00    -0.297 OA
ENDROOT
BRANCH   7   9
HETATM    9  C10 UNL     1     -34.299  14.989  -4.493  1.00 20.00    -0.009 C 
HETATM   10  C8  UNL     1     -32.907  14.368  -4.372  1.00 20.00     0.011 C 
HETATM   11  C9  UNL     1     -35.371  13.971  -4.104  1.00 20.00     0.011 C 
ENDBRANCH   7   9
TORSDOF 1
ENDMDL
MODEL 6
REMARK VINA RESULT:      -4.2      1.671      2.735
REMARK  1 active torsions:
REMARK  status: ('A' for Active; 'I' for Inactive)
REMARK    1  A    between atoms: C7_7  and  C10_10 
ROOT
HETATM    1  C1  UNL     1     -36.978  14.301  -4.590  1.00 20.00    -0.017 C 
HETATM    2  C2  UNL     1     -36.630  15.340  -3.807  1.00 20.00    -0.019 C 
HETATM    3  C3  UNL     1     -35.963  15.085  -6.788  1.00 20.00     0.135 C 
HETATM    4  C4  UNL     1     -35.783  16.575  -6.595  1.00 20.00     0.080 C 
HETATM    5  C5  UNL     1     -34.958  16.691  -5.303  1.00 20.00     0.022 C 
HETATM    6  C6  UNL     1     -35.712  14.376  -5.421  1.00 20.00     0.090 C 
HETATM    7  C7  UNL     1     -35.239  15.461  -4.416  1.00 20.00    -0.006 C 
HETATM    8  O11 UNL     1     -36.300  14.582  -7.854  1.00 20.00    -0.297 OA
ENDROOT
BRANCH   7   9
HETATM    9  C10 UNL     1     -34.092  15.112  -3.480  1.00 20.00    -0.009 C 
HETATM   10  C8  UNL     1     -32.852  14.695  -4.273  1.00 20.00     0.011 C 
HETATM   11  C9  UNL     1     -33.765  16.288  -2.560  1.00 20.00     0.011 C 
ENDBRANCH   7   9
TORSDOF 1
ENDMDL
MODEL 7
REMARK VINA RESULT:      -4.2      1.948      3.365
REMARK  1 active torsions:
REMARK  status: ('A' for Active; 'I' for Inactive)
REMARK    1  A    between atoms: C7_7  and  C10_10 
ROOT
HETATM    1  C1  UNL     1     -33.862  16.247  -2.379  1.00 20.00    -0.017 C 
HETATM    2  C2  UNL     1     -35.151  16.207  -1.988  1.00 20.00    -0.019 C 
HETATM    3  C3  UNL     1     -33.949  14.532  -4.256  1.00 20.00     0.135 C 
HETATM    4  C4  UNL     1     -35.205  13.739  -3.967  1.00 20.00     0.080 C 
HETATM    5  C5  UNL     1     -36.310  14.803  -3.870  1.00 20.00     0.022 C 
HETATM    6  C6  UNL     1     -34.196  16.015  -3.839  1.00 20.00     0.090 C 
HETATM    7  C7  UNL     1     -35.684  16.136  -3.413  1.00 20.00    -0.006 C 
HETATM    8  O11 UNL     1     -32.923  14.027  -4.699  1.00 20.00    -0.297 OA
ENDROOT
BRANCH   7   9
HETATM    9  C10 UNL     1     -36.458  17.361  -3.875  1.00 20.00    -0.009 C 
HETATM   10  C8  UNL     1     -36.532  17.412  -5.402  1.00 20.00     0.011 C 
HETATM   11  C9  UNL     1     -37.864  17.373  -3.274  1.00 20.00     0.011 C 
ENDBRANCH   7   9
TORSDOF 1
ENDMDL
MODEL 8
REMARK VINA RESULT:      -4.2      1.553      2.268
REMARK  1 active torsions:
REMARK  status: ('A' for Active; 'I' for Inactive)
REMARK    1  A    between atoms: C7_7  and  C10_10 
ROOT
HETATM    1  C1  UNL     1     -33.625  14.778  -5.605  1.00 20.00    -0.017 C 
HETATM    2  C2  UNL     1     -33.207  14.626  -4.333  1.00 20.00    -0.019 C 
HETATM    3  C3  UNL     1     -36.070  15.337  -5.170  1.00 20.00     0.135 C 
HETATM    4  C4  UNL     1     -36.313  14.834  -3.764  1.00 20.00     0.080 C 
HETATM    5  C5  UNL     1     -35.226  15.521  -2.923  1.00 20.00     0.022 C 
HETATM    6  C6  UNL     1     -34.608  15.877  -5.254  1.00 20.00     0.090 C 
HETATM    7  C7  UNL     1     -34.009  15.817  -3.823  1.00 20.00    -0.006 C 
HETATM    8  O11 UNL     1     -36.904  15.259  -6.066  1.00 20.00    -0.297 OA
ENDROOT
BRANCH   7   9
HETATM    9  C10 UNL     1     -33.177  17.000  -3.351  1.00 20.00    -0.009 C 
HETATM   10  C8  UNL     1     -33.527  18.260  -4.143  1.00 20.00     0.011 C 
HETATM   11  C9  UNL     1     -33.376  17.240  -1.854  1.00 20.00     0.011 C 
ENDBRANCH   7   9
TORSDOF 1
ENDMDL
MODEL 9
REMARK VINA RESULT:      -4.1      1.995      3.525
REMARK  1 active torsions:
REMARK  status: ('A' for Active; 'I' for Inactive)
REMARK    1  A    between atoms: C7_7  and  C10_10 
ROOT
HETATM    1  C1  UNL     1     -33.841  17.036  -1.585  1.00 20.00    -0.017 C 
HETATM    2  C2  UNL     1     -33.382  16.868  -2.840  1.00 20.00    -0.019 C 
HETATM    3  C3  UNL     1     -36.291  17.493  -2.101  1.00 20.00     0.135 C 
HETATM    4  C4  UNL     1     -36.286  17.901  -3.558  1.00 20.00     0.080 C 
HETATM    5  C5  UNL     1     -35.571  16.742  -4.273  1.00 20.00     0.022 C 
HETATM    6  C6  UNL     1     -35.188  16.410  -1.888  1.00 20.00     0.090 C 
HETATM    7  C7  UNL     1     -34.600  16.067  -3.283  1.00 20.00    -0.006 C 
HETATM    8  O11 UNL     1     -37.029  18.001  -1.263  1.00 20.00    -0.297 OA
ENDROOT
BRANCH   7   9
HETATM    9  C10 UNL     1     -34.329  14.605  -3.601  1.00 20.00    -0.009 C 
HETATM   10  C8  UNL     1     -35.574  13.936  -4.186  1.00 20.00     0.011 C 
HETATM   11  C9  UNL     1     -33.150  14.467  -4.564  1.00 20.00     0.011 C 
ENDBRANCH   7   9
TORSDOF 1
ENDMDL
