MODEL 1
REMARK VINA RESULT:      -3.4      0.000      0.000
REMARK  1 active torsions:
REMARK  status: ('A' for Active; 'I' for Inactive)
REMARK    1  A    between atoms: C7_7  and  N8_8 
ROOT
HETATM    1  C1  UNL     1     -34.593  16.673  -5.008  1.00 20.00     0.137 C 
HETATM    2  C2  UNL     1     -34.714  14.906  -3.380  1.00 20.00     0.140 C 
HETATM    3  C3  UNL     1     -35.369  14.211  -4.564  1.00 20.00     0.068 C 
HETATM    4  C4  UNL     1     -36.890  14.200  -4.470  1.00 20.00     0.023 C 
HETATM    5  N8  UNL     1     -34.619  16.330  -3.661  1.00 20.00    -0.361 N 
HETATM    6  S9  UNL     1     -34.368  18.176  -5.697  1.00 20.00    -0.053 SA
HETATM    7  S10 UNL     1     -34.841  15.220  -5.980  1.00 20.00    -0.095 SA
ENDROOT
BRANCH   5   8
HETATM    8  C7  UNL     1     -34.386  17.229  -2.538  1.00 20.00     0.077 C 
HETATM    9  C5  UNL     1     -32.891  17.301  -2.258  1.00 20.00     0.032 C 
HETATM   10  C6  UNL     1     -35.160  16.718  -1.331  1.00 20.00     0.032 C 
ENDBRANCH   5   8
TORSDOF 1
ENDMDL
MODEL 2
REMARK VINA RESULT:      -3.2      1.578      3.099
REMARK  1 active torsions:
REMARK  status: ('A' for Active; 'I' for Inactive)
REMARK    1  A    between atoms: C7_7  and  N8_8 
ROOT
HETATM    1  C1  UNL     1     -35.923  15.485  -4.819  1.00 20.00     0.137 C 
HETATM    2  C2  UNL     1     -35.104  17.714  -4.436  1.00 20.00     0.140 C 
HETATM    3  C3  UNL     1     -35.543  17.846  -5.887  1.00 20.00     0.068 C 
HETATM    4  C4  UNL     1     -34.378  17.747  -6.865  1.00 20.00     0.023 C 
HETATM    5  N8  UNL     1     -35.083  16.304  -4.076  1.00 20.00    -0.361 N 
HETATM    6  S9  UNL     1     -36.250  13.861  -4.610  1.00 20.00    -0.053 SA
HETATM    7  S10 UNL     1     -36.665  16.435  -6.110  1.00 20.00    -0.095 SA
ENDROOT
BRANCH   5   8
HETATM    8  C7  UNL     1     -34.337  15.921  -2.883  1.00 20.00     0.077 C 
HETATM    9  C5  UNL     1     -35.128  16.329  -1.648  1.00 20.00     0.032 C 
HETATM   10  C6  UNL     1     -32.970  16.590  -2.921  1.00 20.00     0.032 C 
ENDBRANCH   5   8
TORSDOF 1
ENDMDL
MODEL 3
REMARK VINA RESULT:      -3.2      1.267      1.415
REMARK  1 active torsions:
REMARK  status: ('A' for Active; 'I' for Inactive)
REMARK    1  A    between atoms: C7_7  and  N8_8 
ROOT
HETATM    1  C1  UNL     1     -34.981  17.304  -4.316  1.00 20.00     0.137 C 
HETATM    2  C2  UNL     1     -33.286  15.884  -3.369  1.00 20.00     0.140 C 
HETATM    3  C3  UNL     1     -33.792  14.976  -4.480  1.00 20.00     0.068 C 
HETATM    4  C4  UNL     1     -34.757  13.910  -3.974  1.00 20.00     0.023 C 
HETATM    5  N8  UNL     1     -34.220  16.987  -3.198  1.00 20.00    -0.361 N 
HETATM    6  S9  UNL     1     -36.050  18.569  -4.527  1.00 20.00    -0.053 SA
HETATM    7  S10 UNL     1     -34.659  16.123  -5.590  1.00 20.00    -0.095 SA
ENDROOT
BRANCH   5   8
HETATM    8  C7  UNL     1     -34.147  17.751  -1.959  1.00 20.00     0.077 C 
HETATM    9  C5  UNL     1     -32.693  17.847  -1.517  1.00 20.00     0.032 C 
HETATM   10  C6  UNL     1     -35.011  17.069  -0.908  1.00 20.00     0.032 C 
ENDBRANCH   5   8
TORSDOF 1
ENDMDL
MODEL 4
REMARK VINA RESULT:      -3.2      1.530      3.646
REMARK  1 active torsions:
REMARK  status: ('A' for Active; 'I' for Inactive)
REMARK    1  A    between atoms: C7_7  and  N8_8 
ROOT
HETATM    1  C1  UNL     1     -35.440  17.355  -4.078  1.00 20.00     0.137 C 
HETATM    2  C2  UNL     1     -34.763  15.881  -2.302  1.00 20.00     0.140 C 
HETATM    3  C3  UNL     1     -34.611  17.220  -1.598  1.00 20.00     0.068 C 
HETATM    4  C4  UNL     1     -33.165  17.699  -1.550  1.00 20.00     0.023 C 
HETATM    5  N8  UNL     1     -34.923  16.113  -3.730  1.00 20.00    -0.361 N 
HETATM    6  S9  UNL     1     -35.871  17.919  -5.590  1.00 20.00    -0.053 SA
HETATM    7  S10 UNL     1     -35.605  18.343  -2.624  1.00 20.00    -0.095 SA
ENDROOT
BRANCH   5   8
HETATM    8  C7  UNL     1     -34.701  14.988  -4.629  1.00 20.00     0.077 C 
HETATM    9  C5  UNL     1     -35.718  13.897  -4.324  1.00 20.00     0.032 C 
HETATM   10  C6  UNL     1     -33.273  14.491  -4.452  1.00 20.00     0.032 C 
ENDBRANCH   5   8
TORSDOF 1
ENDMDL
MODEL 5
REMARK VINA RESULT:      -3.2      1.168      1.168
REMARK  1 active torsions:
REMARK  status: ('A' for Active; 'I' for Inactive)
REMARK    1  A    between atoms: C7_7  and  N8_8 
ROOT
HETATM    1  C1  UNL     1     -35.880  17.042  -4.822  1.00 20.00     0.137 C 
HETATM    2  C2  UNL     1     -34.340  15.254  -4.357  1.00 20.00     0.140 C 
HETATM    3  C3  UNL     1     -35.266  14.549  -5.336  1.00 20.00     0.068 C 
HETATM    4  C4  UNL     1     -36.284  13.653  -4.642  1.00 20.00     0.023 C 
HETATM    5  N8  UNL     1     -34.962  16.499  -3.932  1.00 20.00    -0.361 N 
HETATM    6  S9  UNL     1     -36.685  18.502  -4.729  1.00 20.00    -0.053 SA
HETATM    7  S10 UNL     1     -36.112  15.924  -6.169  1.00 20.00    -0.095 SA
ENDROOT
BRANCH   5   8
HETATM    8  C7  UNL     1     -34.446  17.137  -2.727  1.00 20.00     0.077 C 
HETATM    9  C5  UNL     1     -32.940  16.929  -2.657  1.00 20.00     0.032 C 
HETATM   10  C6  UNL     1     -35.153  16.545  -1.516  1.00 20.00     0.032 C 
ENDBRANCH   5   8
TORSDOF 1
ENDMDL
MODEL 6
REMARK VINA RESULT:      -3.1      1.959      2.486
REMARK  1 active torsions:
REMARK  status: ('A' for Active; 'I' for Inactive)
REMARK    1  A    between atoms: C7_7  and  N8_8 
ROOT
HETATM    1  C1  UNL     1     -34.546  17.378  -5.937  1.00 20.00     0.137 C 
HETATM    2  C2  UNL     1     -33.934  15.064  -6.162  1.00 20.00     0.140 C 
HETATM    3  C3  UNL     1     -34.352  15.361  -7.594  1.00 20.00     0.068 C 
HETATM    4  C4  UNL     1     -35.758  14.864  -7.911  1.00 20.00     0.023 C 
HETATM    5  N8  UNL     1     -34.377  16.153  -5.305  1.00 20.00    -0.361 N 
HETATM    6  S9  UNL     1     -34.919  18.858  -5.259  1.00 20.00    -0.053 SA
HETATM    7  S10 UNL     1     -34.299  17.175  -7.673  1.00 20.00    -0.095 SA
ENDROOT
BRANCH   5   8
HETATM    8  C7  UNL     1     -34.429  15.907  -3.869  1.00 20.00     0.077 C 
HETATM    9  C5  UNL     1     -33.081  16.254  -3.254  1.00 20.00     0.032 C 
HETATM   10  C6  UNL     1     -34.797  14.449  -3.633  1.00 20.00     0.032 C 
ENDBRANCH   5   8
TORSDOF 1
ENDMDL
MODEL 7
REMARK VINA RESULT:      -3.0      2.304      3.744
REMARK  1 active torsions:
REMARK  status: ('A' for Active; 'I' for Inactive)
REMARK    1  A    between atoms: C7_7  and  N8_8 
ROOT
HETATM    1  C1  UNL     1     -36.752  15.772  -5.532  1.00 20.00     0.137 C 
HETATM    2  C2  UNL     1     -34.562  14.791  -5.376  1.00 20.00     0.140 C 
HETATM    3  C3  UNL     1     -35.074  14.501  -3.974  1.00 20.00     0.068 C 
HETATM    4  C4  UNL     1     -34.543  15.486  -2.939  1.00 20.00     0.023 C 
HETATM    5  N8  UNL     1     -35.450  15.751  -6.015  1.00 20.00    -0.361 N 
HETATM    6  S9  UNL     1     -38.060  16.641  -6.098  1.00 20.00    -0.053 SA
HETATM    7  S10 UNL     1     -36.873  14.687  -4.144  1.00 20.00    -0.095 SA
ENDROOT
BRANCH   5   8
HETATM    8  C7  UNL     1     -34.954  16.455  -7.190  1.00 20.00     0.077 C 
HETATM    9  C5  UNL     1     -33.952  15.570  -7.917  1.00 20.00     0.032 C 
HETATM   10  C6  UNL     1     -34.326  17.769  -6.748  1.00 20.00     0.032 C 
ENDBRANCH   5   8
TORSDOF 1
ENDMDL
MODEL 8
REMARK VINA RESULT:      -3.0      2.276      3.880
REMARK  1 active torsions:
REMARK  status: ('A' for Active; 'I' for Inactive)
REMARK    1  A    between atoms: C7_7  and  N8_8 
ROOT
HETATM    1  C1  UNL     1     -35.817  16.398  -3.716  1.00 20.00     0.137 C 
HETATM    2  C2  UNL     1     -33.526  15.762  -4.076  1.00 20.00     0.140 C 
HETATM    3  C3  UNL     1     -33.426  16.291  -2.653  1.00 20.00     0.068 C 
HETATM    4  C4  UNL     1     -32.867  17.707  -2.590  1.00 20.00     0.023 C 
HETATM    5  N8  UNL     1     -34.807  16.161  -4.639  1.00 20.00    -0.361 N 
HETATM    6  S9  UNL     1     -37.426  16.747  -3.996  1.00 20.00    -0.053 SA
HETATM    7  S10 UNL     1     -35.152  16.277  -2.085  1.00 20.00    -0.095 SA
ENDROOT
BRANCH   5   8
HETATM    8  C7  UNL     1     -34.958  16.102  -6.088  1.00 20.00     0.077 C 
HETATM    9  C5  UNL     1     -34.028  15.033  -6.644  1.00 20.00     0.032 C 
HETATM   10  C6  UNL     1     -34.650  17.474  -6.671  1.00 20.00     0.032 C 
ENDBRANCH   5   8
TORSDOF 1
ENDMDL
MODEL 9
REMARK VINA RESULT:      -3.0      2.815      3.488
REMARK  1 active torsions:
REMARK  status: ('A' for Active; 'I' for Inactive)
REMARK    1  A    between atoms: C7_7  and  N8_8 
ROOT
HETATM    1  C1  UNL     1     -36.022  17.363  -1.800  1.00 20.00     0.137 C 
HETATM    2  C2  UNL     1     -36.105  16.876  -4.154  1.00 20.00     0.140 C 
HETATM    3  C3  UNL     1     -37.470  17.524  -3.976  1.00 20.00     0.068 C 
HETATM    4  C4  UNL     1     -38.597  16.502  -3.877  1.00 20.00     0.023 C 
HETATM    5  N8  UNL     1     -35.551  16.575  -2.843  1.00 20.00    -0.361 N 
HETATM    6  S9  UNL     1     -35.528  17.388  -0.206  1.00 20.00    -0.053 SA
HETATM    7  S10 UNL     1     -37.302  18.419  -2.405  1.00 20.00    -0.095 SA
ENDROOT
BRANCH   5   8
HETATM    8  C7  UNL     1     -34.450  15.622  -2.775  1.00 20.00     0.077 C 
HETATM    9  C5  UNL     1     -33.147  16.341  -3.096  1.00 20.00     0.032 C 
HETATM   10  C6  UNL     1     -34.722  14.487  -3.751  1.00 20.00     0.032 C 
ENDBRANCH   5   8
TORSDOF 1
ENDMDL
