MODEL 1
REMARK VINA RESULT:      -4.2      0.000      0.000
REMARK  0 active torsions:
REMARK  status: ('A' for Active; 'I' for Inactive)
ROOT
HETATM    1  C1  UNL     1     -33.865   5.218   3.084  1.00 20.00     0.098 A 
HETATM    2  C2  UNL     1     -33.292   6.451   3.315  1.00 20.00     0.136 A 
HETATM    3  C3  UNL     1     -34.283   6.179   5.253  1.00 20.00     0.253 A 
HETATM    4  N4  UNL     1     -33.531   7.003   4.558  1.00 20.00    -0.201 NA
HETATM    5  F5  UNL     1     -34.672   6.461   6.504  1.00 20.00    -0.176 F 
HETATM    6  S6  UNL     1     -34.739   4.720   4.473  1.00 20.00    -0.048 SA
HETATM    7 CL7  UNL     1     -32.335   7.290   2.167  1.00 20.00    -0.062 Cl
ENDROOT
TORSDOF 0
ENDMDL
MODEL 2
REMARK VINA RESULT:      -3.9      3.317      3.600
REMARK  0 active torsions:
REMARK  status: ('A' for Active; 'I' for Inactive)
ROOT
HETATM    1  C1  UNL     1     -33.641   6.799   4.196  1.00 20.00     0.098 A 
HETATM    2  C2  UNL     1     -34.245   5.622   4.586  1.00 20.00     0.136 A 
HETATM    3  C3  UNL     1     -33.409   4.946   2.673  1.00 20.00     0.253 A 
HETATM    4  N4  UNL     1     -34.114   4.559   3.713  1.00 20.00    -0.201 NA
HETATM    5  F5  UNL     1     -33.124   4.114   1.662  1.00 20.00    -0.176 F 
HETATM    6  S6  UNL     1     -32.872   6.576   2.679  1.00 20.00    -0.048 SA
HETATM    7 CL7  UNL     1     -35.119   5.434   6.048  1.00 20.00    -0.062 Cl
ENDROOT
TORSDOF 0
ENDMDL
MODEL 3
REMARK VINA RESULT:      -3.8      2.879      3.096
REMARK  0 active torsions:
REMARK  status: ('A' for Active; 'I' for Inactive)
ROOT
HETATM    1  C1  UNL     1     -34.226   4.586   3.753  1.00 20.00     0.098 A 
HETATM    2  C2  UNL     1     -34.234   5.656   4.623  1.00 20.00     0.136 A 
HETATM    3  C3  UNL     1     -33.008   6.536   3.030  1.00 20.00     0.253 A 
HETATM    4  N4  UNL     1     -33.536   6.774   4.211  1.00 20.00    -0.201 NA
HETATM    5  F5  UNL     1     -32.273   7.452   2.386  1.00 20.00    -0.176 F 
HETATM    6  S6  UNL     1     -33.313   4.986   2.357  1.00 20.00    -0.048 SA
HETATM    7 CL7  UNL     1     -35.041   5.652   6.135  1.00 20.00    -0.062 Cl
ENDROOT
TORSDOF 0
ENDMDL
MODEL 4
REMARK VINA RESULT:      -3.6      1.964      2.096
REMARK  0 active torsions:
REMARK  status: ('A' for Active; 'I' for Inactive)
ROOT
HETATM    1  C1  UNL     1     -33.456   6.516   3.943  1.00 20.00     0.098 A 
HETATM    2  C2  UNL     1     -33.873   5.266   3.532  1.00 20.00     0.136 A 
HETATM    3  C3  UNL     1     -34.774   5.275   5.533  1.00 20.00     0.253 A 
HETATM    4  N4  UNL     1     -34.628   4.554   4.443  1.00 20.00    -0.201 NA
HETATM    5  F5  UNL     1     -35.467   4.829   6.589  1.00 20.00    -0.176 F 
HETATM    6  S6  UNL     1     -34.029   6.821   5.530  1.00 20.00    -0.048 SA
HETATM    7 CL7  UNL     1     -33.505   4.591   2.001  1.00 20.00    -0.062 Cl
ENDROOT
TORSDOF 0
ENDMDL
MODEL 5
REMARK VINA RESULT:      -3.6      9.182      9.307
REMARK  0 active torsions:
REMARK  status: ('A' for Active; 'I' for Inactive)
ROOT
HETATM    1  C1  UNL     1     -42.541   7.096   0.908  1.00 20.00     0.098 A 
HETATM    2  C2  UNL     1     -41.660   7.800   0.114  1.00 20.00     0.136 A 
HETATM    3  C3  UNL     1     -41.315   5.796  -0.708  1.00 20.00     0.253 A 
HETATM    4  N4  UNL     1     -40.957   7.056  -0.813  1.00 20.00    -0.201 NA
HETATM    5  F5  UNL     1     -40.789   4.843  -1.491  1.00 20.00    -0.176 F 
HETATM    6  S6  UNL     1     -42.496   5.434   0.484  1.00 20.00    -0.048 SA
HETATM    7 CL7  UNL     1     -41.414   9.492   0.228  1.00 20.00    -0.062 Cl
ENDROOT
TORSDOF 0
ENDMDL
MODEL 6
REMARK VINA RESULT:      -3.6      2.040      2.259
REMARK  0 active torsions:
REMARK  status: ('A' for Active; 'I' for Inactive)
ROOT
HETATM    1  C1  UNL     1     -33.799   6.923   4.200  1.00 20.00     0.098 A 
HETATM    2  C2  UNL     1     -33.202   6.507   3.028  1.00 20.00     0.136 A 
HETATM    3  C3  UNL     1     -34.035   4.583   3.675  1.00 20.00     0.253 A 
HETATM    4  N4  UNL     1     -33.337   5.166   2.726  1.00 20.00    -0.201 NA
HETATM    5  F5  UNL     1     -34.322   3.275   3.641  1.00 20.00    -0.176 F 
HETATM    6  S6  UNL     1     -34.563   5.590   4.962  1.00 20.00    -0.048 SA
HETATM    7 CL7  UNL     1     -32.335   7.545   1.975  1.00 20.00    -0.062 Cl
ENDROOT
TORSDOF 0
ENDMDL
MODEL 7
REMARK VINA RESULT:      -3.4     16.196     16.399
REMARK  0 active torsions:
REMARK  status: ('A' for Active; 'I' for Inactive)
ROOT
HETATM    1  C1  UNL     1     -22.176  17.891  10.669  1.00 20.00     0.098 A 
HETATM    2  C2  UNL     1     -22.726  17.226   9.593  1.00 20.00     0.136 A 
HETATM    3  C3  UNL     1     -24.078  16.495  11.158  1.00 20.00     0.253 A 
HETATM    4  N4  UNL     1     -23.815  16.425   9.872  1.00 20.00    -0.201 NA
HETATM    5  F5  UNL     1     -25.091  15.814  11.711  1.00 20.00    -0.176 F 
HETATM    6  S6  UNL     1     -23.053  17.507  12.092  1.00 20.00    -0.048 SA
HETATM    7 CL7  UNL     1     -22.132  17.348   7.989  1.00 20.00    -0.062 Cl
ENDROOT
TORSDOF 0
ENDMDL
MODEL 8
REMARK VINA RESULT:      -3.4      9.120      9.123
REMARK  0 active torsions:
REMARK  status: ('A' for Active; 'I' for Inactive)
ROOT
HETATM    1  C1  UNL     1     -41.113   7.224  -1.133  1.00 20.00     0.098 A 
HETATM    2  C2  UNL     1     -41.549   7.857   0.013  1.00 20.00     0.136 A 
HETATM    3  C3  UNL     1     -42.065   5.796   0.557  1.00 20.00     0.253 A 
HETATM    4  N4  UNL     1     -42.095   7.040   0.982  1.00 20.00    -0.201 NA
HETATM    5  F5  UNL     1     -42.534   4.783   1.300  1.00 20.00    -0.176 F 
HETATM    6  S6  UNL     1     -41.393   5.538  -1.000  1.00 20.00    -0.048 SA
HETATM    7 CL7  UNL     1     -41.444   9.549   0.269  1.00 20.00    -0.062 Cl
ENDROOT
TORSDOF 0
ENDMDL
MODEL 9
REMARK VINA RESULT:      -3.4     17.121     17.315
REMARK  0 active torsions:
REMARK  status: ('A' for Active; 'I' for Inactive)
ROOT
HETATM    1  C1  UNL     1     -24.474  17.728  10.193  1.00 20.00     0.098 A 
HETATM    2  C2  UNL     1     -24.712  18.078  11.506  1.00 20.00     0.136 A 
HETATM    3  C3  UNL     1     -22.543  17.776  11.632  1.00 20.00     0.253 A 
HETATM    4  N4  UNL     1     -23.606  18.105  12.332  1.00 20.00    -0.201 NA
HETATM    5  F5  UNL     1     -21.322  17.720  12.182  1.00 20.00    -0.176 F 
HETATM    6  S6  UNL     1     -22.802  17.421   9.972  1.00 20.00    -0.048 SA
HETATM    7 CL7  UNL     1     -26.262  18.462  12.127  1.00 20.00    -0.062 Cl
ENDROOT
TORSDOF 0
ENDMDL
