MODEL 1
REMARK VINA RESULT:      -4.1      0.000      0.000
REMARK  1 active torsions:
REMARK  status: ('A' for Active; 'I' for Inactive)
REMARK    1  A    between atoms: C4_4  and  C5_5 
ROOT
HETATM    1  C1  UNL     1     -32.545   8.358   1.045  1.00 20.00     0.015 C 
HETATM    2  C2  UNL     1     -32.673   7.484   1.859  1.00 20.00    -0.083 C 
HETATM    3  C3  UNL     1     -32.824   6.445   2.827  1.00 20.00     0.229 A 
HETATM    4  C4  UNL     1     -34.101   6.352   3.623  1.00 20.00     0.177 A 
HETATM    5  O6  UNL     1     -32.919   6.940   4.173  1.00 20.00    -0.361 OA
ENDROOT
BRANCH   4   6
HETATM    6  C5  UNL     1     -34.511   5.076   4.268  1.00 20.00     0.150 C 
HETATM    7 CL7  UNL     1     -34.793   5.293   6.018  1.00 20.00    -0.128 Cl
ENDBRANCH   4   6
TORSDOF 1
ENDMDL
MODEL 2
REMARK VINA RESULT:      -3.6      2.852      4.114
REMARK  1 active torsions:
REMARK  status: ('A' for Active; 'I' for Inactive)
REMARK    1  A    between atoms: C4_4  and  C5_5 
ROOT
HETATM    1  C1  UNL     1     -35.153   5.400   4.742  1.00 20.00     0.015 C 
HETATM    2  C2  UNL     1     -34.239   5.956   4.196  1.00 20.00    -0.083 C 
HETATM    3  C3  UNL     1     -33.151   6.616   3.547  1.00 20.00     0.229 A 
HETATM    4  C4  UNL     1     -33.253   6.949   2.080  1.00 20.00     0.177 A 
HETATM    5  O6  UNL     1     -32.524   5.807   2.538  1.00 20.00    -0.361 OA
ENDROOT
BRANCH   4   6
HETATM    6  C5  UNL     1     -32.412   8.015   1.476  1.00 20.00     0.150 C 
HETATM    7 CL7  UNL     1     -33.215   8.756   0.063  1.00 20.00    -0.128 Cl
ENDBRANCH   4   6
TORSDOF 1
ENDMDL
MODEL 3
REMARK VINA RESULT:      -3.3     11.036     11.464
REMARK  1 active torsions:
REMARK  status: ('A' for Active; 'I' for Inactive)
REMARK    1  A    between atoms: C4_4  and  C5_5 
ROOT
HETATM    1  C1  UNL     1     -32.931  16.785  -2.656  1.00 20.00     0.015 C 
HETATM    2  C2  UNL     1     -33.528  16.107  -3.447  1.00 20.00    -0.083 C 
HETATM    3  C3  UNL     1     -34.237  15.298  -4.388  1.00 20.00     0.229 A 
HETATM    4  C4  UNL     1     -35.160  14.216  -3.890  1.00 20.00     0.177 A 
HETATM    5  O6  UNL     1     -33.840  13.917  -4.354  1.00 20.00    -0.361 OA
ENDROOT
BRANCH   4   6
HETATM    6  C5  UNL     1     -36.249  13.682  -4.749  1.00 20.00     0.150 C 
HETATM    7 CL7  UNL     1     -37.825  14.411  -4.330  1.00 20.00    -0.128 Cl
ENDBRANCH   4   6
TORSDOF 1
ENDMDL
MODEL 4
REMARK VINA RESULT:      -3.3     12.013     12.582
REMARK  1 active torsions:
REMARK  status: ('A' for Active; 'I' for Inactive)
REMARK    1  A    between atoms: C4_4  and  C5_5 
ROOT
HETATM    1  C1  UNL     1     -34.794  16.084  -1.959  1.00 20.00     0.015 C 
HETATM    2  C2  UNL     1     -34.255  15.707  -2.964  1.00 20.00    -0.083 C 
HETATM    3  C3  UNL     1     -33.613  15.258  -4.159  1.00 20.00     0.229 A 
HETATM    4  C4  UNL     1     -34.440  14.991  -5.390  1.00 20.00     0.177 A 
HETATM    5  O6  UNL     1     -34.002  13.927  -4.539  1.00 20.00    -0.361 OA
ENDROOT
BRANCH   4   6
HETATM    6  C5  UNL     1     -33.822  14.990  -6.742  1.00 20.00     0.150 C 
HETATM    7 CL7  UNL     1     -34.154  16.516  -7.610  1.00 20.00    -0.128 Cl
ENDBRANCH   4   6
TORSDOF 1
ENDMDL
MODEL 5
REMARK VINA RESULT:      -3.2     16.015     16.534
REMARK  1 active torsions:
REMARK  status: ('A' for Active; 'I' for Inactive)
REMARK    1  A    between atoms: C4_4  and  C5_5 
ROOT
HETATM    1  C1  UNL     1     -25.730  19.258   6.952  1.00 20.00     0.015 C 
HETATM    2  C2  UNL     1     -24.769  18.805   7.512  1.00 20.00    -0.083 C 
HETATM    3  C3  UNL     1     -23.625  18.267   8.178  1.00 20.00     0.229 A 
HETATM    4  C4  UNL     1     -23.558  18.301   9.683  1.00 20.00     0.177 A 
HETATM    5  O6  UNL     1     -22.865  19.263   8.882  1.00 20.00    -0.361 OA
ENDROOT
BRANCH   4   6
HETATM    6  C5  UNL     1     -22.672  17.371  10.432  1.00 20.00     0.150 C 
HETATM    7 CL7  UNL     1     -22.602  17.793  12.166  1.00 20.00    -0.128 Cl
ENDBRANCH   4   6
TORSDOF 1
ENDMDL
MODEL 6
REMARK VINA RESULT:      -3.2      9.547      9.763
REMARK  1 active torsions:
REMARK  status: ('A' for Active; 'I' for Inactive)
REMARK    1  A    between atoms: C4_4  and  C5_5 
ROOT
HETATM    1  C1  UNL     1     -41.302   9.323   0.271  1.00 20.00     0.015 C 
HETATM    2  C2  UNL     1     -41.569   8.405  -0.455  1.00 20.00    -0.083 C 
HETATM    3  C3  UNL     1     -41.885   7.311  -1.318  1.00 20.00     0.229 A 
HETATM    4  C4  UNL     1     -42.136   5.948  -0.729  1.00 20.00     0.177 A 
HETATM    5  O6  UNL     1     -40.878   6.286  -1.319  1.00 20.00    -0.361 OA
ENDROOT
BRANCH   4   6
HETATM    6  C5  UNL     1     -42.909   4.920  -1.475  1.00 20.00     0.150 C 
HETATM    7 CL7  UNL     1     -41.831   3.836  -2.397  1.00 20.00    -0.128 Cl
ENDBRANCH   4   6
TORSDOF 1
ENDMDL
MODEL 7
REMARK VINA RESULT:      -3.2     16.622     16.900
REMARK  1 active torsions:
REMARK  status: ('A' for Active; 'I' for Inactive)
REMARK    1  A    between atoms: C4_4  and  C5_5 
ROOT
HETATM    1  C1  UNL     1     -26.302  18.828  11.988  1.00 20.00     0.015 C 
HETATM    2  C2  UNL     1     -25.246  18.417  11.591  1.00 20.00    -0.083 C 
HETATM    3  C3  UNL     1     -23.989  17.928  11.119  1.00 20.00     0.229 A 
HETATM    4  C4  UNL     1     -23.499  18.335   9.754  1.00 20.00     0.177 A 
HETATM    5  O6  UNL     1     -24.115  17.064   9.978  1.00 20.00    -0.361 OA
ENDROOT
BRANCH   4   6
HETATM    6  C5  UNL     1     -22.055  18.267   9.405  1.00 20.00     0.150 C 
HETATM    7 CL7  UNL     1     -21.803  17.461   7.831  1.00 20.00    -0.128 Cl
ENDBRANCH   4   6
TORSDOF 1
ENDMDL
MODEL 8
REMARK VINA RESULT:      -3.2     15.546     15.919
REMARK  1 active torsions:
REMARK  status: ('A' for Active; 'I' for Inactive)
REMARK    1  A    between atoms: C4_4  and  C5_5 
ROOT
HETATM    1  C1  UNL     1     -21.745  17.372   7.850  1.00 20.00     0.015 C 
HETATM    2  C2  UNL     1     -22.254  17.299   8.935  1.00 20.00    -0.083 C 
HETATM    3  C3  UNL     1     -22.860  17.213  10.226  1.00 20.00     0.229 A 
HETATM    4  C4  UNL     1     -24.168  16.483  10.386  1.00 20.00     0.177 A 
HETATM    5  O6  UNL     1     -24.114  17.910  10.306  1.00 20.00    -0.361 OA
ENDROOT
BRANCH   4   6
HETATM    6  C5  UNL     1     -24.596  15.955  11.708  1.00 20.00     0.150 C 
HETATM    7 CL7  UNL     1     -26.018  16.837  12.332  1.00 20.00    -0.128 Cl
ENDBRANCH   4   6
TORSDOF 1
ENDMDL
MODEL 9
REMARK VINA RESULT:      -3.2      9.300      9.712
REMARK  1 active torsions:
REMARK  status: ('A' for Active; 'I' for Inactive)
REMARK    1  A    between atoms: C4_4  and  C5_5 
ROOT
HETATM    1  C1  UNL     1     -42.590   3.900  -2.372  1.00 20.00     0.015 C 
HETATM    2  C2  UNL     1     -41.991   4.666  -1.667  1.00 20.00    -0.083 C 
HETATM    3  C3  UNL     1     -41.278   5.578  -0.829  1.00 20.00     0.229 A 
HETATM    4  C4  UNL     1     -41.858   6.940  -0.551  1.00 20.00     0.177 A 
HETATM    5  O6  UNL     1     -40.831   6.751  -1.527  1.00 20.00    -0.361 OA
ENDROOT
BRANCH   4   6
HETATM    6  C5  UNL     1     -41.439   7.724   0.641  1.00 20.00     0.150 C 
HETATM    7 CL7  UNL     1     -41.382   9.473   0.283  1.00 20.00    -0.128 Cl
ENDBRANCH   4   6
TORSDOF 1
ENDMDL
