MODEL 1
REMARK VINA RESULT:      -5.4      0.000      0.000
REMARK  2 active torsions:
REMARK  status: ('A' for Active; 'I' for Inactive)
REMARK    1  A    between atoms: C2_2  and  C3_3 
REMARK    2  A    between atoms: C3_3  and  O11_11 
ROOT
HETATM    1  C1  UNL     1     -33.918  17.504  -1.331  1.00 20.00    -0.069 C 
HETATM    2  C2  UNL     1     -33.020  18.158  -0.599  1.00 20.00     0.084 C 
HETATM    3  C4  UNL     1     -35.369  17.026  -1.095  1.00 20.00     0.040 C 
HETATM    4  C5  UNL     1     -34.038  14.974  -4.048  1.00 20.00     0.001 C 
HETATM    5  C6  UNL     1     -33.036  15.980  -3.429  1.00 20.00     0.009 C 
HETATM    6  C7  UNL     1     -35.356  15.156  -3.257  1.00 20.00     0.005 C 
HETATM    7  C8  UNL     1     -33.961  16.945  -2.727  1.00 20.00     0.019 C 
HETATM    8  C9  UNL     1     -34.867  15.883  -2.023  1.00 20.00    -0.002 C 
ENDROOT
BRANCH   2   9
HETATM    9  C3  UNL     1     -31.661  18.507  -1.066  1.00 20.00     0.165 C 
HETATM   10  O10 UNL     1     -30.645  18.144  -0.492  1.00 20.00    -0.647 OA
BRANCH   9  11
HETATM   11  O11 UNL     1     -31.673  19.263  -2.186  1.00 20.00    -0.773 OA
HETATM   12  H23 UNL     1     -32.022  20.164  -2.017  1.00 20.00     0.167 HD
ENDBRANCH   9  11
ENDBRANCH   2   9
TORSDOF 2
ENDMDL
MODEL 2
REMARK VINA RESULT:      -5.2      3.751      5.015
REMARK  2 active torsions:
REMARK  status: ('A' for Active; 'I' for Inactive)
REMARK    1  A    between atoms: C2_2  and  C3_3 
REMARK    2  A    between atoms: C3_3  and  O11_11 
ROOT
HETATM    1  C1  UNL     1     -36.209  15.597  -3.510  1.00 20.00    -0.069 C 
HETATM    2  C2  UNL     1     -36.786  14.799  -4.404  1.00 20.00     0.084 C 
HETATM    3  C4  UNL     1     -36.660  16.849  -2.722  1.00 20.00     0.040 C 
HETATM    4  C5  UNL     1     -32.828  16.845  -2.610  1.00 20.00     0.001 C 
HETATM    5  C6  UNL     1     -33.474  15.683  -3.404  1.00 20.00     0.009 C 
HETATM    6  C7  UNL     1     -34.008  17.670  -2.042  1.00 20.00     0.005 C 
HETATM    7  C8  UNL     1     -34.869  15.653  -2.829  1.00 20.00     0.019 C 
HETATM    8  C9  UNL     1     -35.153  17.188  -2.907  1.00 20.00    -0.002 C 
ENDROOT
BRANCH   2   9
HETATM    9  C3  UNL     1     -36.124  13.633  -5.027  1.00 20.00     0.165 C 
HETATM   10  O10 UNL     1     -35.848  12.615  -4.411  1.00 20.00    -0.647 OA
BRANCH   9  11
HETATM   11  O11 UNL     1     -35.863  13.823  -6.340  1.00 20.00    -0.773 OA
HETATM   12  H23 UNL     1     -35.322  13.096  -6.716  1.00 20.00     0.167 HD
ENDBRANCH   9  11
ENDBRANCH   2   9
TORSDOF 2
ENDMDL
MODEL 3
REMARK VINA RESULT:      -5.2      3.859      5.478
REMARK  2 active torsions:
REMARK  status: ('A' for Active; 'I' for Inactive)
REMARK    1  A    between atoms: C2_2  and  C3_3 
REMARK    2  A    between atoms: C3_3  and  O11_11 
ROOT
HETATM    1  C1  UNL     1     -35.231  15.679  -5.006  1.00 20.00    -0.069 C 
HETATM    2  C2  UNL     1     -35.745  14.552  -5.492  1.00 20.00     0.084 C 
HETATM    3  C4  UNL     1     -34.412  16.845  -5.606  1.00 20.00     0.040 C 
HETATM    4  C5  UNL     1     -33.893  17.020  -1.811  1.00 20.00     0.001 C 
HETATM    5  C6  UNL     1     -34.788  15.859  -2.310  1.00 20.00     0.009 C 
HETATM    6  C7  UNL     1     -33.499  17.818  -3.078  1.00 20.00     0.005 C 
HETATM    7  C8  UNL     1     -35.220  16.362  -3.666  1.00 20.00     0.019 C 
HETATM    8  C9  UNL     1     -33.813  16.819  -4.170  1.00 20.00    -0.002 C 
ENDROOT
BRANCH   2   9
HETATM    9  C3  UNL     1     -36.510  13.574  -4.691  1.00 20.00     0.165 C 
HETATM   10  O10 UNL     1     -37.688  13.726  -4.401  1.00 20.00    -0.647 OA
BRANCH   9  11
HETATM   11  O11 UNL     1     -35.767  12.507  -4.322  1.00 20.00    -0.773 OA
HETATM   12  H23 UNL     1     -36.313  11.699  -4.213  1.00 20.00     0.167 HD
ENDBRANCH   9  11
ENDBRANCH   2   9
TORSDOF 2
ENDMDL
MODEL 4
REMARK VINA RESULT:      -5.0      3.984      5.302
REMARK  2 active torsions:
REMARK  status: ('A' for Active; 'I' for Inactive)
REMARK    1  A    between atoms: C2_2  and  C3_3 
REMARK    2  A    between atoms: C3_3  and  O11_11 
ROOT
HETATM    1  C1  UNL     1     -34.947  15.370  -3.500  1.00 20.00    -0.069 C 
HETATM    2  C2  UNL     1     -35.118  14.171  -4.050  1.00 20.00     0.084 C 
HETATM    3  C4  UNL     1     -33.876  15.998  -2.579  1.00 20.00     0.040 C 
HETATM    4  C5  UNL     1     -36.982  18.225  -2.273  1.00 20.00     0.001 C 
HETATM    5  C6  UNL     1     -37.130  16.997  -3.206  1.00 20.00     0.009 C 
HETATM    6  C7  UNL     1     -35.523  18.186  -1.759  1.00 20.00     0.005 C 
HETATM    7  C8  UNL     1     -35.690  16.678  -3.526  1.00 20.00     0.019 C 
HETATM    8  C9  UNL     1     -35.135  16.756  -2.067  1.00 20.00    -0.002 C 
ENDROOT
BRANCH   2   9
HETATM    9  C3  UNL     1     -36.258  13.810  -4.919  1.00 20.00     0.165 C 
HETATM   10  O10 UNL     1     -37.386  13.614  -4.492  1.00 20.00    -0.647 OA
BRANCH   9  11
HETATM   11  O11 UNL     1     -35.913  13.723  -6.223  1.00 20.00    -0.773 OA
HETATM   12  H23 UNL     1     -36.193  12.871  -6.621  1.00 20.00     0.167 HD
ENDBRANCH   9  11
ENDBRANCH   2   9
TORSDOF 2
ENDMDL
MODEL 5
REMARK VINA RESULT:      -4.9      3.363      4.940
REMARK  2 active torsions:
REMARK  status: ('A' for Active; 'I' for Inactive)
REMARK    1  A    between atoms: C2_2  and  C3_3 
REMARK    2  A    between atoms: C3_3  and  O11_11 
ROOT
HETATM    1  C1  UNL     1     -35.295  14.997  -4.929  1.00 20.00    -0.069 C 
HETATM    2  C2  UNL     1     -35.276  14.958  -6.259  1.00 20.00     0.084 C 
HETATM    3  C4  UNL     1     -36.357  14.685  -3.850  1.00 20.00     0.040 C 
HETATM    4  C5  UNL     1     -33.711  16.870  -2.140  1.00 20.00     0.001 C 
HETATM    5  C6  UNL     1     -33.464  16.574  -3.640  1.00 20.00     0.009 C 
HETATM    6  C7  UNL     1     -35.007  16.109  -1.771  1.00 20.00     0.005 C 
HETATM    7  C8  UNL     1     -34.301  15.336  -3.852  1.00 20.00     0.019 C 
HETATM    8  C9  UNL     1     -35.596  15.842  -3.139  1.00 20.00    -0.002 C 
ENDROOT
BRANCH   2   9
HETATM    9  C3  UNL     1     -34.102  15.314  -7.085  1.00 20.00     0.165 C 
HETATM   10  O10 UNL     1     -34.078  16.287  -7.824  1.00 20.00    -0.647 OA
BRANCH   9  11
HETATM   11  O11 UNL     1     -33.075  14.451  -6.929  1.00 20.00    -0.773 OA
HETATM   12  H23 UNL     1     -33.368  13.516  -6.985  1.00 20.00     0.167 HD
ENDBRANCH   9  11
ENDBRANCH   2   9
TORSDOF 2
ENDMDL
MODEL 6
REMARK VINA RESULT:      -4.8      2.848      4.261
REMARK  2 active torsions:
REMARK  status: ('A' for Active; 'I' for Inactive)
REMARK    1  A    between atoms: C2_2  and  C3_3 
REMARK    2  A    between atoms: C3_3  and  O11_11 
ROOT
HETATM    1  C1  UNL     1     -34.370  15.704  -2.823  1.00 20.00    -0.069 C 
HETATM    2  C2  UNL     1     -34.578  14.724  -3.698  1.00 20.00     0.084 C 
HETATM    3  C4  UNL     1     -35.102  16.199  -1.554  1.00 20.00     0.040 C 
HETATM    4  C5  UNL     1     -32.872  19.101  -2.697  1.00 20.00     0.001 C 
HETATM    5  C6  UNL     1     -32.826  17.833  -3.586  1.00 20.00     0.009 C 
HETATM    6  C7  UNL     1     -33.832  18.760  -1.532  1.00 20.00     0.005 C 
HETATM    7  C8  UNL     1     -33.327  16.772  -2.637  1.00 20.00     0.019 C 
HETATM    8  C9  UNL     1     -34.563  17.557  -2.089  1.00 20.00    -0.002 C 
ENDROOT
BRANCH   2   9
HETATM    9  C3  UNL     1     -33.708  14.449  -4.861  1.00 20.00     0.165 C 
HETATM   10  O10 UNL     1     -34.017  14.736  -6.008  1.00 20.00    -0.647 OA
BRANCH   9  11
HETATM   11  O11 UNL     1     -32.546  13.852  -4.512  1.00 20.00    -0.773 OA
HETATM   12  H23 UNL     1     -32.136  13.377  -5.267  1.00 20.00     0.167 HD
ENDBRANCH   9  11
ENDBRANCH   2   9
TORSDOF 2
ENDMDL
MODEL 7
REMARK VINA RESULT:      -4.8      3.457      5.101
REMARK  2 active torsions:
REMARK  status: ('A' for Active; 'I' for Inactive)
REMARK    1  A    between atoms: C2_2  and  C3_3 
REMARK    2  A    between atoms: C3_3  and  O11_11 
ROOT
HETATM    1  C1  UNL     1     -34.207  15.519  -3.801  1.00 20.00    -0.069 C 
HETATM    2  C2  UNL     1     -34.611  14.404  -4.404  1.00 20.00     0.084 C 
HETATM    3  C4  UNL     1     -32.896  16.338  -3.799  1.00 20.00     0.040 C 
HETATM    4  C5  UNL     1     -34.826  17.409  -0.663  1.00 20.00     0.001 C 
HETATM    5  C6  UNL     1     -35.509  16.321  -1.528  1.00 20.00     0.009 C 
HETATM    6  C7  UNL     1     -33.518  17.774  -1.406  1.00 20.00     0.005 C 
HETATM    7  C8  UNL     1     -34.831  16.516  -2.863  1.00 20.00     0.019 C 
HETATM    8  C9  UNL     1     -33.362  16.590  -2.335  1.00 20.00    -0.002 C 
ENDROOT
BRANCH   2   9
HETATM    9  C3  UNL     1     -35.953  13.807  -4.238  1.00 20.00     0.165 C 
HETATM   10  O10 UNL     1     -36.971  14.475  -4.133  1.00 20.00    -0.647 OA
BRANCH   9  11
HETATM   11  O11 UNL     1     -35.923  12.456  -4.216  1.00 20.00    -0.773 OA
HETATM   12  H23 UNL     1     -35.795  12.077  -5.112  1.00 20.00     0.167 HD
ENDBRANCH   9  11
ENDBRANCH   2   9
TORSDOF 2
ENDMDL
MODEL 8
REMARK VINA RESULT:      -4.8      4.049      5.304
REMARK  2 active torsions:
REMARK  status: ('A' for Active; 'I' for Inactive)
REMARK    1  A    between atoms: C2_2  and  C3_3 
REMARK    2  A    between atoms: C3_3  and  O11_11 
ROOT
HETATM    1  C1  UNL     1     -34.555  15.319  -3.922  1.00 20.00    -0.069 C 
HETATM    2  C2  UNL     1     -35.102  14.111  -4.026  1.00 20.00     0.084 C 
HETATM    3  C4  UNL     1     -33.386  15.915  -3.104  1.00 20.00     0.040 C 
HETATM    4  C5  UNL     1     -35.532  18.891  -4.218  1.00 20.00     0.001 C 
HETATM    5  C6  UNL     1     -36.046  17.497  -4.655  1.00 20.00     0.009 C 
HETATM    6  C7  UNL     1     -34.209  18.629  -3.457  1.00 20.00     0.005 C 
HETATM    7  C8  UNL     1     -34.792  16.661  -4.559  1.00 20.00     0.019 C 
HETATM    8  C9  UNL     1     -34.328  17.152  -3.150  1.00 20.00    -0.002 C 
ENDROOT
BRANCH   2   9
HETATM    9  C3  UNL     1     -36.245  13.788  -4.905  1.00 20.00     0.165 C 
HETATM   10  O10 UNL     1     -37.379  13.609  -4.486  1.00 20.00    -0.647 OA
BRANCH   9  11
HETATM   11  O11 UNL     1     -35.895  13.714  -6.208  1.00 20.00    -0.773 OA
HETATM   12  H23 UNL     1     -36.513  13.153  -6.724  1.00 20.00     0.167 HD
ENDBRANCH   9  11
ENDBRANCH   2   9
TORSDOF 2
ENDMDL
MODEL 9
REMARK VINA RESULT:      -4.6     11.631     12.508
REMARK  2 active torsions:
REMARK  status: ('A' for Active; 'I' for Inactive)
REMARK    1  A    between atoms: C2_2  and  C3_3 
REMARK    2  A    between atoms: C3_3  and  O11_11 
ROOT
HETATM    1  C1  UNL     1     -33.466   5.634   2.961  1.00 20.00    -0.069 C 
HETATM    2  C2  UNL     1     -33.100   6.274   1.853  1.00 20.00     0.084 C 
HETATM    3  C4  UNL     1     -34.172   4.290   3.255  1.00 20.00     0.040 C 
HETATM    4  C5  UNL     1     -34.526   6.397   6.438  1.00 20.00     0.001 C 
HETATM    5  C6  UNL     1     -33.785   7.082   5.263  1.00 20.00     0.009 C 
HETATM    6  C7  UNL     1     -34.875   4.974   5.939  1.00 20.00     0.005 C 
HETATM    7  C8  UNL     1     -33.351   5.895   4.438  1.00 20.00     0.019 C 
HETATM    8  C9  UNL     1     -34.716   5.134   4.443  1.00 20.00    -0.002 C 
ENDROOT
BRANCH   2   9
HETATM    9  C3  UNL     1     -32.419   7.585   1.837  1.00 20.00     0.165 C 
HETATM   10  O10 UNL     1     -31.591   7.917   2.673  1.00 20.00    -0.647 OA
BRANCH   9  11
HETATM   11  O11 UNL     1     -32.812   8.364   0.805  1.00 20.00    -0.773 OA
HETATM   12  H23 UNL     1     -33.683   8.783   0.973  1.00 20.00     0.167 HD
ENDBRANCH   9  11
ENDBRANCH   2   9
TORSDOF 2
ENDMDL
