MODEL 1
REMARK VINA RESULT:      -4.9      0.000      0.000
REMARK  1 active torsions:
REMARK  status: ('A' for Active; 'I' for Inactive)
REMARK    1  A    between atoms: C4_4  and  C9_9 
ROOT
HETATM    1  C1  UNL     1     -33.969  15.157  -3.294  1.00 20.00     0.014 A 
HETATM    2  C2  UNL     1     -34.334  14.071  -3.985  1.00 20.00     0.075 A 
HETATM    3  C3  UNL     1     -36.230  15.955  -3.197  1.00 20.00     0.101 A 
HETATM    4  C4  UNL     1     -34.940  16.143  -2.878  1.00 20.00    -0.039 A 
HETATM    5  C5  UNL     1     -35.766  13.856  -4.344  1.00 20.00     0.246 A 
HETATM    6  C8  UNL     1     -38.073  14.710  -4.223  1.00 20.00     0.159 C 
HETATM    7  N10 UNL     1     -36.655  14.847  -3.912  1.00 20.00    -0.329 N 
HETATM    8  O11 UNL     1     -36.074  12.849  -4.980  1.00 20.00    -0.268 OA
ENDROOT
BRANCH   4   9
HETATM    9  C9  UNL     1     -34.447  17.326  -2.108  1.00 20.00     0.012 C 
HETATM   10  C6  UNL     1     -34.959  17.277  -0.671  1.00 20.00     0.015 C 
HETATM   11  C7  UNL     1     -32.921  17.396  -2.137  1.00 20.00     0.015 C 
ENDBRANCH   4   9
TORSDOF 1
ENDMDL
MODEL 2
REMARK VINA RESULT:      -4.7      1.387      1.973
REMARK  1 active torsions:
REMARK  status: ('A' for Active; 'I' for Inactive)
REMARK    1  A    between atoms: C4_4  and  C9_9 
ROOT
HETATM    1  C1  UNL     1     -33.413  16.367  -2.674  1.00 20.00     0.014 A 
HETATM    2  C2  UNL     1     -33.031  15.711  -3.775  1.00 20.00     0.075 A 
HETATM    3  C3  UNL     1     -35.629  15.455  -2.801  1.00 20.00     0.101 A 
HETATM    4  C4  UNL     1     -34.757  16.245  -2.156  1.00 20.00    -0.039 A 
HETATM    5  C5  UNL     1     -33.995  14.832  -4.498  1.00 20.00     0.246 A 
HETATM    6  C8  UNL     1     -36.281  13.919  -4.595  1.00 20.00     0.159 C 
HETATM    7  N10 UNL     1     -35.280  14.757  -3.946  1.00 20.00    -0.329 N 
HETATM    8  O11 UNL     1     -33.617  14.240  -5.508  1.00 20.00    -0.268 OA
ENDROOT
BRANCH   4   9
HETATM    9  C9  UNL     1     -35.100  17.013  -0.919  1.00 20.00     0.012 C 
HETATM   10  C6  UNL     1     -33.948  17.935  -0.529  1.00 20.00     0.015 C 
HETATM   11  C7  UNL     1     -36.389  17.809  -1.114  1.00 20.00     0.015 C 
ENDBRANCH   4   9
TORSDOF 1
ENDMDL
MODEL 3
REMARK VINA RESULT:      -4.7      3.129      4.977
REMARK  1 active torsions:
REMARK  status: ('A' for Active; 'I' for Inactive)
REMARK    1  A    between atoms: C4_4  and  C9_9 
ROOT
HETATM    1  C1  UNL     1     -35.209  16.075  -2.044  1.00 20.00     0.014 A 
HETATM    2  C2  UNL     1     -35.248  16.849  -0.953  1.00 20.00     0.075 A 
HETATM    3  C3  UNL     1     -33.021  16.871  -2.628  1.00 20.00     0.101 A 
HETATM    4  C4  UNL     1     -34.061  16.076  -2.922  1.00 20.00    -0.039 A 
HETATM    5  C5  UNL     1     -34.096  17.736  -0.620  1.00 20.00     0.246 A 
HETATM    6  C8  UNL     1     -31.852  18.528  -1.255  1.00 20.00     0.159 C 
HETATM    7  N10 UNL     1     -33.017  17.689  -1.511  1.00 20.00    -0.329 N 
HETATM    8  O11 UNL     1     -34.158  18.436   0.389  1.00 20.00    -0.268 OA
ENDROOT
BRANCH   4   9
HETATM    9  C9  UNL     1     -34.100  15.180  -4.120  1.00 20.00     0.012 C 
HETATM   10  C6  UNL     1     -32.735  14.533  -4.344  1.00 20.00     0.015 C 
HETATM   11  C7  UNL     1     -35.186  14.117  -3.969  1.00 20.00     0.015 C 
ENDBRANCH   4   9
TORSDOF 1
ENDMDL
MODEL 4
REMARK VINA RESULT:      -4.7      1.255      1.595
REMARK  1 active torsions:
REMARK  status: ('A' for Active; 'I' for Inactive)
REMARK    1  A    between atoms: C4_4  and  C9_9 
ROOT
HETATM    1  C1  UNL     1     -33.223  16.513  -2.690  1.00 20.00     0.014 A 
HETATM    2  C2  UNL     1     -33.038  15.647  -3.694  1.00 20.00     0.075 A 
HETATM    3  C3  UNL     1     -35.570  16.025  -2.593  1.00 20.00     0.101 A 
HETATM    4  C4  UNL     1     -34.529  16.719  -2.109  1.00 20.00    -0.039 A 
HETATM    5  C5  UNL     1     -34.190  14.872  -4.238  1.00 20.00     0.246 A 
HETATM    6  C8  UNL     1     -36.604  14.400  -4.107  1.00 20.00     0.159 C 
HETATM    7  N10 UNL     1     -35.428  15.119  -3.631  1.00 20.00    -0.329 N 
HETATM    8  O11 UNL     1     -33.993  14.083  -5.161  1.00 20.00    -0.268 OA
ENDROOT
BRANCH   4   9
HETATM    9  C9  UNL     1     -34.647  17.705  -0.989  1.00 20.00     0.012 C 
HETATM   10  C6  UNL     1     -35.445  17.105   0.165  1.00 20.00     0.015 C 
HETATM   11  C7  UNL     1     -33.267  18.157  -0.516  1.00 20.00     0.015 C 
ENDBRANCH   4   9
TORSDOF 1
ENDMDL
MODEL 5
REMARK VINA RESULT:      -4.6      1.180      1.586
REMARK  1 active torsions:
REMARK  status: ('A' for Active; 'I' for Inactive)
REMARK    1  A    between atoms: C4_4  and  C9_9 
ROOT
HETATM    1  C1  UNL     1     -34.436  14.652  -3.559  1.00 20.00     0.014 A 
HETATM    2  C2  UNL     1     -35.439  13.902  -4.032  1.00 20.00     0.075 A 
HETATM    3  C3  UNL     1     -35.884  16.541  -3.255  1.00 20.00     0.101 A 
HETATM    4  C4  UNL     1     -34.651  16.021  -3.152  1.00 20.00    -0.039 A 
HETATM    5  C5  UNL     1     -36.812  14.473  -4.150  1.00 20.00     0.246 A 
HETATM    6  C8  UNL     1     -38.265  16.435  -3.824  1.00 20.00     0.159 C 
HETATM    7  N10 UNL     1     -36.953  15.804  -3.739  1.00 20.00    -0.329 N 
HETATM    8  O11 UNL     1     -37.715  13.762  -4.588  1.00 20.00    -0.268 OA
ENDROOT
BRANCH   4   9
HETATM    9  C9  UNL     1     -33.476  16.788  -2.634  1.00 20.00     0.012 C 
HETATM   10  C6  UNL     1     -33.045  17.847  -3.645  1.00 20.00     0.015 C 
HETATM   11  C7  UNL     1     -33.795  17.425  -1.284  1.00 20.00     0.015 C 
ENDBRANCH   4   9
TORSDOF 1
ENDMDL
MODEL 6
REMARK VINA RESULT:      -4.6      2.094      2.718
REMARK  1 active torsions:
REMARK  status: ('A' for Active; 'I' for Inactive)
REMARK    1  A    between atoms: C4_4  and  C9_9 
ROOT
HETATM    1  C1  UNL     1     -35.578  14.460  -3.875  1.00 20.00     0.014 A 
HETATM    2  C2  UNL     1     -36.102  14.042  -5.034  1.00 20.00     0.075 A 
HETATM    3  C3  UNL     1     -34.279  16.150  -4.978  1.00 20.00     0.101 A 
HETATM    4  C4  UNL     1     -34.632  15.551  -3.830  1.00 20.00    -0.039 A 
HETATM    5  C5  UNL     1     -35.715  14.703  -6.314  1.00 20.00     0.246 A 
HETATM    6  C8  UNL     1     -34.365  16.448  -7.408  1.00 20.00     0.159 C 
HETATM    7  N10 UNL     1     -34.795  15.752  -6.201  1.00 20.00    -0.329 N 
HETATM    8  O11 UNL     1     -36.212  14.299  -7.364  1.00 20.00    -0.268 OA
ENDROOT
BRANCH   4   9
HETATM    9  C9  UNL     1     -34.095  15.954  -2.493  1.00 20.00     0.012 C 
HETATM   10  C6  UNL     1     -32.995  17.000  -2.656  1.00 20.00     0.015 C 
HETATM   11  C7  UNL     1     -35.213  16.479  -1.595  1.00 20.00     0.015 C 
ENDBRANCH   4   9
TORSDOF 1
ENDMDL
MODEL 7
REMARK VINA RESULT:      -4.6      0.758      1.306
REMARK  1 active torsions:
REMARK  status: ('A' for Active; 'I' for Inactive)
REMARK    1  A    between atoms: C4_4  and  C9_9 
ROOT
HETATM    1  C1  UNL     1     -33.658  15.376  -3.850  1.00 20.00     0.014 A 
HETATM    2  C2  UNL     1     -34.080  14.660  -4.899  1.00 20.00     0.075 A 
HETATM    3  C3  UNL     1     -35.904  15.721  -3.079  1.00 20.00     0.101 A 
HETATM    4  C4  UNL     1     -34.591  15.932  -2.898  1.00 20.00    -0.039 A 
HETATM    5  C5  UNL     1     -35.538  14.422  -5.108  1.00 20.00     0.246 A 
HETATM    6  C8  UNL     1     -37.828  14.800  -4.284  1.00 20.00     0.159 C 
HETATM    7  N10 UNL     1     -36.388  14.988  -4.150  1.00 20.00    -0.329 N 
HETATM    8  O11 UNL     1     -35.898  13.761  -6.080  1.00 20.00    -0.268 OA
ENDROOT
BRANCH   4   9
HETATM    9  C9  UNL     1     -34.034  16.718  -1.753  1.00 20.00     0.012 C 
HETATM   10  C6  UNL     1     -32.852  17.566  -2.217  1.00 20.00     0.015 C 
HETATM   11  C7  UNL     1     -35.113  17.594  -1.119  1.00 20.00     0.015 C 
ENDBRANCH   4   9
TORSDOF 1
ENDMDL
MODEL 8
REMARK VINA RESULT:      -4.5      2.973      4.460
REMARK  1 active torsions:
REMARK  status: ('A' for Active; 'I' for Inactive)
REMARK    1  A    between atoms: C4_4  and  C9_9 
ROOT
HETATM    1  C1  UNL     1     -33.090  16.559  -2.897  1.00 20.00     0.014 A 
HETATM    2  C2  UNL     1     -32.780  17.582  -2.092  1.00 20.00     0.075 A 
HETATM    3  C3  UNL     1     -35.129  16.132  -1.707  1.00 20.00     0.101 A 
HETATM    4  C4  UNL     1     -34.304  15.798  -2.711  1.00 20.00    -0.039 A 
HETATM    5  C5  UNL     1     -33.692  17.959  -0.973  1.00 20.00     0.246 A 
HETATM    6  C8  UNL     1     -35.793  17.488   0.223  1.00 20.00     0.159 C 
HETATM    7  N10 UNL     1     -34.850  17.182  -0.847  1.00 20.00    -0.329 N 
HETATM    8  O11 UNL     1     -33.383  18.903  -0.248  1.00 20.00    -0.268 OA
ENDROOT
BRANCH   4   9
HETATM    9  C9  UNL     1     -34.573  14.671  -3.657  1.00 20.00     0.012 C 
HETATM   10  C6  UNL     1     -36.050  14.641  -4.041  1.00 20.00     0.015 C 
HETATM   11  C7  UNL     1     -33.693  14.783  -4.900  1.00 20.00     0.015 C 
ENDBRANCH   4   9
TORSDOF 1
ENDMDL
MODEL 9
REMARK VINA RESULT:      -4.3      1.646      2.425
REMARK  1 active torsions:
REMARK  status: ('A' for Active; 'I' for Inactive)
REMARK    1  A    between atoms: C4_4  and  C9_9 
ROOT
HETATM    1  C1  UNL     1     -35.372  14.058  -4.189  1.00 20.00     0.014 A 
HETATM    2  C2  UNL     1     -36.635  13.768  -4.523  1.00 20.00     0.075 A 
HETATM    3  C3  UNL     1     -35.989  16.252  -3.437  1.00 20.00     0.101 A 
HETATM    4  C4  UNL     1     -35.021  15.342  -3.625  1.00 20.00    -0.039 A 
HETATM    5  C5  UNL     1     -37.716  14.776  -4.317  1.00 20.00     0.246 A 
HETATM    6  C8  UNL     1     -38.308  17.036  -3.536  1.00 20.00     0.159 C 
HETATM    7  N10 UNL     1     -37.310  15.998  -3.768  1.00 20.00    -0.329 N 
HETATM    8  O11 UNL     1     -38.868  14.483  -4.633  1.00 20.00    -0.268 OA
ENDROOT
BRANCH   4   9
HETATM    9  C9  UNL     1     -33.586  15.583  -3.279  1.00 20.00     0.012 C 
HETATM   10  C6  UNL     1     -32.674  14.822  -4.239  1.00 20.00     0.015 C 
HETATM   11  C7  UNL     1     -33.266  17.076  -3.297  1.00 20.00     0.015 C 
ENDBRANCH   4   9
TORSDOF 1
ENDMDL
