MODEL 1
REMARK VINA RESULT:      -4.7      0.000      0.000
REMARK  0 active torsions:
REMARK  status: ('A' for Active; 'I' for Inactive)
ROOT
HETATM    1  C1  UNL     1     -34.607  17.433  -1.121  1.00 20.00     0.001 C 
HETATM    2  C2  UNL     1     -33.202  17.708  -1.652  1.00 20.00     0.001 C 
HETATM    3  C3  UNL     1     -33.652  14.683  -5.135  1.00 20.00     0.004 C 
HETATM    4  C4  UNL     1     -34.553  15.406  -6.132  1.00 20.00     0.034 C 
HETATM    5  C5  UNL     1     -35.082  16.167  -1.826  1.00 20.00     0.012 C 
HETATM    6  C6  UNL     1     -32.936  16.662  -2.736  1.00 20.00     0.012 C 
HETATM    7  C7  UNL     1     -34.245  14.709  -3.726  1.00 20.00     0.012 C 
HETATM    8  C8  UNL     1     -35.016  16.735  -5.626  1.00 20.00     0.152 A 
HETATM    9  C9  UNL     1     -34.949  17.095  -4.164  1.00 20.00     0.159 A 
HETATM   10  C10 UNL     1     -34.324  16.144  -3.162  1.00 20.00    -0.012 C 
HETATM   11  O11 UNL     1     -36.167  16.646  -4.765  1.00 20.00    -0.375 OA
ENDROOT
TORSDOF 0
ENDMDL
MODEL 2
REMARK VINA RESULT:      -4.6     17.274     18.324
REMARK  0 active torsions:
REMARK  status: ('A' for Active; 'I' for Inactive)
ROOT
HETATM    1  C1  UNL     1     -26.722  17.067  12.242  1.00 20.00     0.001 C 
HETATM    2  C2  UNL     1     -26.459  18.570  12.321  1.00 20.00     0.001 C 
HETATM    3  C3  UNL     1     -21.909  18.070  11.590  1.00 20.00     0.004 C 
HETATM    4  C4  UNL     1     -21.811  17.774  10.097  1.00 20.00     0.034 C 
HETATM    5  C5  UNL     1     -25.354  16.397  12.321  1.00 20.00     0.012 C 
HETATM    6  C6  UNL     1     -24.940  18.744  12.330  1.00 20.00     0.012 C 
HETATM    7  C7  UNL     1     -22.937  17.166  12.271  1.00 20.00     0.012 C 
HETATM    8  C8  UNL     1     -23.152  17.673   9.442  1.00 20.00     0.152 A 
HETATM    9  C9  UNL     1     -24.412  17.462  10.243  1.00 20.00     0.159 A 
HETATM   10  C10 UNL     1     -24.368  17.432  11.758  1.00 20.00    -0.012 C 
HETATM   11  O11 UNL     1     -23.758  16.374   9.583  1.00 20.00    -0.375 OA
ENDROOT
TORSDOF 0
ENDMDL
MODEL 3
REMARK VINA RESULT:      -4.4      1.014      1.073
REMARK  0 active torsions:
REMARK  status: ('A' for Active; 'I' for Inactive)
ROOT
HETATM    1  C1  UNL     1     -34.079  17.259  -1.445  1.00 20.00     0.001 C 
HETATM    2  C2  UNL     1     -32.910  17.083  -2.411  1.00 20.00     0.001 C 
HETATM    3  C3  UNL     1     -35.356  14.386  -5.280  1.00 20.00     0.004 C 
HETATM    4  C4  UNL     1     -36.271  15.366  -6.009  1.00 20.00     0.034 C 
HETATM    5  C5  UNL     1     -35.115  16.213  -1.844  1.00 20.00     0.012 C 
HETATM    6  C6  UNL     1     -33.338  16.017  -3.420  1.00 20.00     0.012 C 
HETATM    7  C7  UNL     1     -35.421  14.585  -3.766  1.00 20.00     0.012 C 
HETATM    8  C8  UNL     1     -36.122  16.768  -5.511  1.00 20.00     0.152 A 
HETATM    9  C9  UNL     1     -35.478  17.075  -4.183  1.00 20.00     0.159 A 
HETATM   10  C10 UNL     1     -34.877  15.966  -3.342  1.00 20.00    -0.012 C 
HETATM   11  O11 UNL     1     -36.901  17.038  -4.330  1.00 20.00    -0.375 OA
ENDROOT
TORSDOF 0
ENDMDL
MODEL 4
REMARK VINA RESULT:      -4.4     17.328     18.245
REMARK  0 active torsions:
REMARK  status: ('A' for Active; 'I' for Inactive)
ROOT
HETATM    1  C1  UNL     1     -21.730  18.274   9.602  1.00 20.00     0.001 C 
HETATM    2  C2  UNL     1     -22.583  17.483   8.612  1.00 20.00     0.001 C 
HETATM    3  C3  UNL     1     -25.291  15.742  11.947  1.00 20.00     0.004 C 
HETATM    4  C4  UNL     1     -26.193  16.911  12.331  1.00 20.00     0.034 C 
HETATM    5  C5  UNL     1     -22.081  17.733  10.984  1.00 20.00     0.012 C 
HETATM    6  C6  UNL     1     -23.491  16.579   9.448  1.00 20.00     0.012 C 
HETATM    7  C7  UNL     1     -23.819  16.151  11.942  1.00 20.00     0.012 C 
HETATM    8  C8  UNL     1     -25.850  18.166  11.593  1.00 20.00     0.152 A 
HETATM    9  C9  UNL     1     -24.523  18.342  10.900  1.00 20.00     0.159 A 
HETATM   10  C10 UNL     1     -23.518  17.207  10.856  1.00 20.00    -0.012 C 
HETATM   11  O11 UNL     1     -24.767  18.901  12.194  1.00 20.00    -0.375 OA
ENDROOT
TORSDOF 0
ENDMDL
MODEL 5
REMARK VINA RESULT:      -4.3      1.714      2.628
REMARK  0 active torsions:
REMARK  status: ('A' for Active; 'I' for Inactive)
ROOT
HETATM    1  C1  UNL     1     -32.956  17.512  -2.846  1.00 20.00     0.001 C 
HETATM    2  C2  UNL     1     -33.790  17.131  -1.624  1.00 20.00     0.001 C 
HETATM    3  C3  UNL     1     -36.996  14.961  -4.174  1.00 20.00     0.004 C 
HETATM    4  C4  UNL     1     -36.323  13.648  -4.564  1.00 20.00     0.034 C 
HETATM    5  C5  UNL     1     -33.845  17.254  -4.058  1.00 20.00     0.012 C 
HETATM    6  C6  UNL     1     -35.102  16.554  -2.158  1.00 20.00     0.012 C 
HETATM    7  C7  UNL     1     -36.095  16.159  -4.475  1.00 20.00     0.012 C 
HETATM    8  C8  UNL     1     -34.911  13.562  -4.080  1.00 20.00     0.152 A 
HETATM    9  C9  UNL     1     -34.142  14.786  -3.652  1.00 20.00     0.159 A 
HETATM   10  C10 UNL     1     -34.812  16.145  -3.616  1.00 20.00    -0.012 C 
HETATM   11  O11 UNL     1     -33.970  14.216  -4.953  1.00 20.00    -0.375 OA
ENDROOT
TORSDOF 0
ENDMDL
MODEL 6
REMARK VINA RESULT:      -4.3      1.635      2.348
REMARK  0 active torsions:
REMARK  status: ('A' for Active; 'I' for Inactive)
ROOT
HETATM    1  C1  UNL     1     -34.879  16.472  -1.439  1.00 20.00     0.001 C 
HETATM    2  C2  UNL     1     -36.025  17.291  -2.030  1.00 20.00     0.001 C 
HETATM    3  C3  UNL     1     -35.180  15.826  -6.346  1.00 20.00     0.004 C 
HETATM    4  C4  UNL     1     -35.723  14.400  -6.359  1.00 20.00     0.034 C 
HETATM    5  C5  UNL     1     -34.036  16.012  -2.624  1.00 20.00     0.012 C 
HETATM    6  C6  UNL     1     -35.887  17.194  -3.550  1.00 20.00     0.012 C 
HETATM    7  C7  UNL     1     -34.256  16.059  -5.151  1.00 20.00     0.012 C 
HETATM    8  C8  UNL     1     -36.236  13.969  -5.023  1.00 20.00     0.152 A 
HETATM    9  C9  UNL     1     -35.861  14.696  -3.756  1.00 20.00     0.159 A 
HETATM   10  C10 UNL     1     -35.011  15.951  -3.809  1.00 20.00    -0.012 C 
HETATM   11  O11 UNL     1     -35.201  13.487  -4.144  1.00 20.00    -0.375 OA
ENDROOT
TORSDOF 0
ENDMDL
MODEL 7
REMARK VINA RESULT:      -4.2      1.689      3.764
REMARK  0 active torsions:
REMARK  status: ('A' for Active; 'I' for Inactive)
ROOT
HETATM    1  C1  UNL     1     -36.234  14.359  -5.226  1.00 20.00     0.001 C 
HETATM    2  C2  UNL     1     -36.863  15.748  -5.316  1.00 20.00     0.001 C 
HETATM    3  C3  UNL     1     -34.620  17.284  -1.561  1.00 20.00     0.004 C 
HETATM    4  C4  UNL     1     -33.194  17.511  -2.056  1.00 20.00     0.034 C 
HETATM    5  C5  UNL     1     -35.591  14.278  -3.845  1.00 20.00     0.012 C 
HETATM    6  C6  UNL     1     -36.475  16.483  -4.032  1.00 20.00     0.012 C 
HETATM    7  C7  UNL     1     -35.129  15.895  -1.946  1.00 20.00     0.012 C 
HETATM    8  C8  UNL     1     -33.011  17.102  -3.483  1.00 20.00     0.152 A 
HETATM    9  C9  UNL     1     -33.990  16.193  -4.180  1.00 20.00     0.159 A 
HETATM   10  C10 UNL     1     -35.250  15.729  -3.476  1.00 20.00    -0.012 C 
HETATM   11  O11 UNL     1     -32.762  15.693  -3.643  1.00 20.00    -0.375 OA
ENDROOT
TORSDOF 0
ENDMDL
MODEL 8
REMARK VINA RESULT:      -4.2      2.165      3.402
REMARK  0 active torsions:
REMARK  status: ('A' for Active; 'I' for Inactive)
ROOT
HETATM    1  C1  UNL     1     -33.191  14.732  -4.225  1.00 20.00     0.001 C 
HETATM    2  C2  UNL     1     -33.538  15.831  -3.223  1.00 20.00     0.001 C 
HETATM    3  C3  UNL     1     -37.499  16.899  -5.381  1.00 20.00     0.004 C 
HETATM    4  C4  UNL     1     -38.441  15.762  -4.997  1.00 20.00     0.034 C 
HETATM    5  C5  UNL     1     -34.136  14.927  -5.406  1.00 20.00     0.012 C 
HETATM    6  C6  UNL     1     -34.751  16.570  -3.792  1.00 20.00     0.012 C 
HETATM    7  C7  UNL     1     -36.166  16.365  -5.905  1.00 20.00     0.012 C 
HETATM    8  C8  UNL     1     -37.768  14.715  -4.168  1.00 20.00     0.152 A 
HETATM    9  C9  UNL     1     -36.266  14.599  -4.103  1.00 20.00     0.159 A 
HETATM   10  C10 UNL     1     -35.382  15.604  -4.815  1.00 20.00    -0.012 C 
HETATM   11  O11 UNL     1     -37.043  13.749  -4.952  1.00 20.00    -0.375 OA
ENDROOT
TORSDOF 0
ENDMDL
MODEL 9
REMARK VINA RESULT:      -4.1      1.449      3.608
REMARK  0 active torsions:
REMARK  status: ('A' for Active; 'I' for Inactive)
ROOT
HETATM    1  C1  UNL     1     -33.416  14.768  -4.328  1.00 20.00     0.001 C 
HETATM    2  C2  UNL     1     -34.796  14.379  -3.803  1.00 20.00     0.001 C 
HETATM    3  C3  UNL     1     -35.105  18.133  -1.101  1.00 20.00     0.004 C 
HETATM    4  C4  UNL     1     -35.407  19.263  -2.082  1.00 20.00     0.034 C 
HETATM    5  C5  UNL     1     -32.918  15.883  -3.415  1.00 20.00     0.012 C 
HETATM    6  C6  UNL     1     -35.117  15.352  -2.667  1.00 20.00     0.012 C 
HETATM    7  C7  UNL     1     -33.904  17.304  -1.560  1.00 20.00     0.012 C 
HETATM    8  C8  UNL     1     -35.417  18.801  -3.504  1.00 20.00     0.152 A 
HETATM    9  C9  UNL     1     -34.784  17.497  -3.919  1.00 20.00     0.159 A 
HETATM   10  C10 UNL     1     -34.188  16.563  -2.884  1.00 20.00    -0.012 C 
HETATM   11  O11 UNL     1     -34.104  18.744  -4.092  1.00 20.00    -0.375 OA
ENDROOT
TORSDOF 0
ENDMDL
