MODEL 1
REMARK VINA RESULT:      -5.2      0.000      0.000
REMARK  0 active torsions:
REMARK  status: ('A' for Active; 'I' for Inactive)
ROOT
HETATM    1  C1  UNL     1     -33.245   6.661   4.448  1.00 20.00     0.117 A 
HETATM    2  C2  UNL     1     -33.920   5.800   3.684  1.00 20.00    -0.042 A 
HETATM    3  C3  UNL     1     -32.288   7.347   3.574  1.00 20.00     0.186 A 
HETATM    4  C4  UNL     1     -34.959   4.898   4.251  1.00 20.00     0.039 C 
HETATM    5  C5  UNL     1     -33.544   5.815   2.238  1.00 20.00     0.049 A 
HETATM    6  C6  UNL     1     -34.867   4.907   5.782  1.00 20.00     0.031 C 
HETATM    7  C7  UNL     1     -34.591   6.319   6.310  1.00 20.00     0.176 C 
HETATM    8  C8  UNL     1     -32.377   6.814   2.160  1.00 20.00     0.062 A 
HETATM    9  C9  UNL     1     -32.615   7.928   1.155  1.00 20.00     0.018 C 
HETATM   10  O10 UNL     1     -31.528   8.223   3.957  1.00 20.00    -0.290 OA
HETATM   11  O11 UNL     1     -33.384   6.895   5.781  1.00 20.00    -0.347 OA
ENDROOT
TORSDOF 0
ENDMDL
MODEL 2
REMARK VINA RESULT:      -4.9     11.518     12.855
REMARK  0 active torsions:
REMARK  status: ('A' for Active; 'I' for Inactive)
ROOT
HETATM    1  C1  UNL     1     -37.170  14.526  -4.648  1.00 20.00     0.117 A 
HETATM    2  C2  UNL     1     -36.896  15.799  -4.941  1.00 20.00    -0.042 A 
HETATM    3  C3  UNL     1     -35.898  13.798  -4.680  1.00 20.00     0.186 A 
HETATM    4  C4  UNL     1     -37.967  16.829  -5.037  1.00 20.00     0.039 C 
HETATM    5  C5  UNL     1     -35.449  16.094  -5.168  1.00 20.00     0.049 A 
HETATM    6  C6  UNL     1     -39.338  16.143  -5.070  1.00 20.00     0.031 C 
HETATM    7  C7  UNL     1     -39.386  14.958  -4.099  1.00 20.00     0.176 C 
HETATM    8  C8  UNL     1     -34.762  14.721  -5.067  1.00 20.00     0.062 A 
HETATM    9  C9  UNL     1     -33.643  14.691  -4.041  1.00 20.00     0.018 C 
HETATM   10  O10 UNL     1     -35.793  12.607  -4.429  1.00 20.00    -0.290 OA
HETATM   11  O11 UNL     1     -38.378  13.967  -4.366  1.00 20.00    -0.347 OA
ENDROOT
TORSDOF 0
ENDMDL
MODEL 3
REMARK VINA RESULT:      -4.9     15.935     16.503
REMARK  0 active torsions:
REMARK  status: ('A' for Active; 'I' for Inactive)
ROOT
HETATM    1  C1  UNL     1     -24.466  18.783   9.847  1.00 20.00     0.117 A 
HETATM    2  C2  UNL     1     -23.818  18.203  10.860  1.00 20.00    -0.042 A 
HETATM    3  C3  UNL     1     -23.539  18.816   8.712  1.00 20.00     0.186 A 
HETATM    4  C4  UNL     1     -24.449  18.034  12.198  1.00 20.00     0.039 C 
HETATM    5  C5  UNL     1     -22.429  17.755  10.543  1.00 20.00     0.049 A 
HETATM    6  C6  UNL     1     -25.728  18.877  12.274  1.00 20.00     0.031 C 
HETATM    7  C7  UNL     1     -26.508  18.818  10.956  1.00 20.00     0.176 C 
HETATM    8  C8  UNL     1     -22.196  18.234   9.100  1.00 20.00     0.062 A 
HETATM    9  C9  UNL     1     -21.779  17.114   8.162  1.00 20.00     0.018 C 
HETATM   10  O10 UNL     1     -23.829  19.262   7.613  1.00 20.00    -0.290 OA
HETATM   11  O11 UNL     1     -25.739  19.262   9.823  1.00 20.00    -0.347 OA
ENDROOT
TORSDOF 0
ENDMDL
MODEL 4
REMARK VINA RESULT:      -4.6     11.578     12.035
REMARK  0 active torsions:
REMARK  status: ('A' for Active; 'I' for Inactive)
ROOT
HETATM    1  C1  UNL     1     -33.922  15.671  -3.221  1.00 20.00     0.117 A 
HETATM    2  C2  UNL     1     -35.154  15.943  -2.783  1.00 20.00    -0.042 A 
HETATM    3  C3  UNL     1     -34.044  14.565  -4.175  1.00 20.00     0.186 A 
HETATM    4  C4  UNL     1     -35.406  16.998  -1.764  1.00 20.00     0.039 C 
HETATM    5  C5  UNL     1     -36.234  15.109  -3.389  1.00 20.00     0.049 A 
HETATM    6  C6  UNL     1     -34.078  17.427  -1.127  1.00 20.00     0.031 C 
HETATM    7  C7  UNL     1     -32.965  17.513  -2.178  1.00 20.00     0.176 C 
HETATM    8  C8  UNL     1     -35.484  14.111  -4.288  1.00 20.00     0.062 A 
HETATM    9  C9  UNL     1     -35.967  14.129  -5.728  1.00 20.00     0.018 C 
HETATM   10  O10 UNL     1     -33.099  14.087  -4.783  1.00 20.00    -0.290 OA
HETATM   11  O11 UNL     1     -32.752  16.275  -2.879  1.00 20.00    -0.347 OA
ENDROOT
TORSDOF 0
ENDMDL
MODEL 5
REMARK VINA RESULT:      -4.5     11.541     12.318
REMARK  0 active torsions:
REMARK  status: ('A' for Active; 'I' for Inactive)
ROOT
HETATM    1  C1  UNL     1     -33.383  16.672  -2.651  1.00 20.00     0.117 A 
HETATM    2  C2  UNL     1     -34.574  16.265  -2.205  1.00 20.00    -0.042 A 
HETATM    3  C3  UNL     1     -32.975  17.799  -1.807  1.00 20.00     0.186 A 
HETATM    4  C4  UNL     1     -35.314  15.150  -2.857  1.00 20.00     0.039 C 
HETATM    5  C5  UNL     1     -35.091  17.015  -1.021  1.00 20.00     0.049 A 
HETATM    6  C6  UNL     1     -34.668  14.826  -4.210  1.00 20.00     0.031 C 
HETATM    7  C7  UNL     1     -33.139  14.890  -4.121  1.00 20.00     0.176 C 
HETATM    8  C8  UNL     1     -34.045  18.117  -0.783  1.00 20.00     0.062 A 
HETATM    9  C9  UNL     1     -33.487  18.111   0.630  1.00 20.00     0.018 C 
HETATM   10  O10 UNL     1     -31.914  18.391  -1.933  1.00 20.00    -0.290 OA
HETATM   11  O11 UNL     1     -32.651  16.170  -3.682  1.00 20.00    -0.347 OA
ENDROOT
TORSDOF 0
ENDMDL
MODEL 6
REMARK VINA RESULT:      -4.4     11.915     12.559
REMARK  0 active torsions:
REMARK  status: ('A' for Active; 'I' for Inactive)
ROOT
HETATM    1  C1  UNL     1     -32.946  17.567  -1.435  1.00 20.00     0.117 A 
HETATM    2  C2  UNL     1     -34.083  17.518  -0.737  1.00 20.00    -0.042 A 
HETATM    3  C3  UNL     1     -32.003  18.376  -0.657  1.00 20.00     0.186 A 
HETATM    4  C4  UNL     1     -35.285  16.805  -1.249  1.00 20.00     0.039 C 
HETATM    5  C5  UNL     1     -34.046  18.233   0.574  1.00 20.00     0.049 A 
HETATM    6  C6  UNL     1     -35.091  16.468  -2.733  1.00 20.00     0.031 C 
HETATM    7  C7  UNL     1     -33.654  16.015  -3.012  1.00 20.00     0.176 C 
HETATM    8  C8  UNL     1     -32.655  18.888   0.610  1.00 20.00     0.062 A 
HETATM    9  C9  UNL     1     -31.854  18.512   1.844  1.00 20.00     0.018 C 
HETATM   10  O10 UNL     1     -30.853  18.597  -1.004  1.00 20.00    -0.290 OA
HETATM   11  O11 UNL     1     -32.668  16.994  -2.638  1.00 20.00    -0.347 OA
ENDROOT
TORSDOF 0
ENDMDL
MODEL 7
REMARK VINA RESULT:      -4.4     11.715     12.841
REMARK  0 active torsions:
REMARK  status: ('A' for Active; 'I' for Inactive)
ROOT
HETATM    1  C1  UNL     1     -35.654  14.910  -4.146  1.00 20.00     0.117 A 
HETATM    2  C2  UNL     1     -35.487  16.219  -3.943  1.00 20.00    -0.042 A 
HETATM    3  C3  UNL     1     -37.098  14.676  -4.249  1.00 20.00     0.186 A 
HETATM    4  C4  UNL     1     -34.137  16.815  -3.752  1.00 20.00     0.039 C 
HETATM    5  C5  UNL     1     -36.750  17.017  -3.917  1.00 20.00     0.049 A 
HETATM    6  C6  UNL     1     -33.111  15.700  -3.515  1.00 20.00     0.031 C 
HETATM    7  C7  UNL     1     -33.385  14.496  -4.423  1.00 20.00     0.176 C 
HETATM    8  C8  UNL     1     -37.865  15.966  -4.050  1.00 20.00     0.062 A 
HETATM    9  C9  UNL     1     -38.806  16.243  -5.210  1.00 20.00     0.018 C 
HETATM   10  O10 UNL     1     -37.593  13.580  -4.463  1.00 20.00    -0.290 OA
HETATM   11  O11 UNL     1     -34.702  13.944  -4.248  1.00 20.00    -0.347 OA
ENDROOT
TORSDOF 0
ENDMDL
MODEL 8
REMARK VINA RESULT:      -4.3     11.487     12.114
REMARK  0 active torsions:
REMARK  status: ('A' for Active; 'I' for Inactive)
ROOT
HETATM    1  C1  UNL     1     -34.833  16.625  -1.832  1.00 20.00     0.117 A 
HETATM    2  C2  UNL     1     -33.596  17.118  -1.925  1.00 20.00    -0.042 A 
HETATM    3  C3  UNL     1     -35.062  15.817  -3.033  1.00 20.00     0.186 A 
HETATM    4  C4  UNL     1     -33.035  18.025  -0.887  1.00 20.00     0.039 C 
HETATM    5  C5  UNL     1     -32.841  16.693  -3.142  1.00 20.00     0.049 A 
HETATM    6  C6  UNL     1     -34.160  18.508   0.037  1.00 20.00     0.031 C 
HETATM    7  C7  UNL     1     -35.145  17.376   0.345  1.00 20.00     0.176 C 
HETATM    8  C8  UNL     1     -33.856  15.864  -3.948  1.00 20.00     0.062 A 
HETATM    9  C9  UNL     1     -33.352  14.471  -4.282  1.00 20.00     0.018 C 
HETATM   10  O10 UNL     1     -36.094  15.200  -3.249  1.00 20.00    -0.290 OA
HETATM   11  O11 UNL     1     -35.742  16.808  -0.835  1.00 20.00    -0.347 OA
ENDROOT
TORSDOF 0
ENDMDL
MODEL 9
REMARK VINA RESULT:      -4.3     11.368     13.596
REMARK  0 active torsions:
REMARK  status: ('A' for Active; 'I' for Inactive)
ROOT
HETATM    1  C1  UNL     1     -34.631  15.215  -5.493  1.00 20.00     0.117 A 
HETATM    2  C2  UNL     1     -34.379  16.525  -5.448  1.00 20.00    -0.042 A 
HETATM    3  C3  UNL     1     -34.464  14.702  -4.130  1.00 20.00     0.186 A 
HETATM    4  C4  UNL     1     -34.418  17.372  -6.672  1.00 20.00     0.039 C 
HETATM    5  C5  UNL     1     -34.053  17.055  -4.091  1.00 20.00     0.049 A 
HETATM    6  C6  UNL     1     -34.461  16.476  -7.916  1.00 20.00     0.031 C 
HETATM    7  C7  UNL     1     -35.374  15.266  -7.694  1.00 20.00     0.176 C 
HETATM    8  C8  UNL     1     -34.033  15.808  -3.191  1.00 20.00     0.062 A 
HETATM    9  C9  UNL     1     -34.965  15.922  -1.996  1.00 20.00     0.018 C 
HETATM   10  O10 UNL     1     -34.647  13.535  -3.818  1.00 20.00    -0.290 OA
HETATM   11  O11 UNL     1     -34.981  14.459  -6.570  1.00 20.00    -0.347 OA
ENDROOT
TORSDOF 0
ENDMDL
