MODEL 1
REMARK VINA RESULT:      -3.9      0.000      0.000
REMARK  2 active torsions:
REMARK  status: ('A' for Active; 'I' for Inactive)
REMARK    1  A    between atoms: C2_2  and  C4_4 
REMARK    2  A    between atoms: C4_4  and  C5_5 
ROOT
HETATM    1  C1  UNL     1     -34.759   4.808   4.960  1.00 20.00     0.147 A 
HETATM    2  C2  UNL     1     -34.239   5.317   3.638  1.00 20.00     0.151 A 
HETATM    3  C3  UNL     1     -34.661   5.581   6.226  1.00 20.00     0.042 C 
HETATM    4  O6  UNL     1     -35.631   5.376   3.974  1.00 20.00    -0.376 OA
ENDROOT
BRANCH   2   5
HETATM    5  C4  UNL     1     -33.580   6.640   3.477  1.00 20.00     0.049 C 
BRANCH   5   6
HETATM    6  C5  UNL     1     -32.474   6.680   2.406  1.00 20.00     0.117 C 
HETATM    7 CL7  UNL     1     -32.657   8.086   1.332  1.00 20.00    -0.130 Cl
ENDBRANCH   5   6
ENDBRANCH   2   5
TORSDOF 2
ENDMDL
MODEL 2
REMARK VINA RESULT:      -3.6      2.925      4.195
REMARK  2 active torsions:
REMARK  status: ('A' for Active; 'I' for Inactive)
REMARK    1  A    between atoms: C2_2  and  C4_4 
REMARK    2  A    between atoms: C4_4  and  C5_5 
ROOT
HETATM    1  C1  UNL     1     -32.308   7.255   1.889  1.00 20.00     0.147 A 
HETATM    2  C2  UNL     1     -32.822   6.365   2.994  1.00 20.00     0.151 A 
HETATM    3  C3  UNL     1     -33.044   8.449   1.396  1.00 20.00     0.042 C 
HETATM    4  O6  UNL     1     -31.820   7.361   3.234  1.00 20.00    -0.376 OA
ENDROOT
BRANCH   2   5
HETATM    5  C4  UNL     1     -34.113   6.597   3.693  1.00 20.00     0.049 C 
BRANCH   5   6
HETATM    6  C5  UNL     1     -34.780   5.326   4.248  1.00 20.00     0.117 C 
HETATM    7 CL7  UNL     1     -34.741   5.291   6.027  1.00 20.00    -0.130 Cl
ENDBRANCH   5   6
ENDBRANCH   2   5
TORSDOF 2
ENDMDL
MODEL 3
REMARK VINA RESULT:      -3.5     11.292     11.969
REMARK  2 active torsions:
REMARK  status: ('A' for Active; 'I' for Inactive)
REMARK    1  A    between atoms: C2_2  and  C4_4 
REMARK    2  A    between atoms: C4_4  and  C5_5 
ROOT
HETATM    1  C1  UNL     1     -36.325  14.021  -5.057  1.00 20.00     0.147 A 
HETATM    2  C2  UNL     1     -35.331  13.973  -3.923  1.00 20.00     0.151 A 
HETATM    3  C3  UNL     1     -35.964  14.428  -6.441  1.00 20.00     0.042 C 
HETATM    4  O6  UNL     1     -35.738  12.788  -4.619  1.00 20.00    -0.376 OA
ENDROOT
BRANCH   2   5
HETATM    5  C4  UNL     1     -33.896  14.328  -4.082  1.00 20.00     0.049 C 
BRANCH   5   6
HETATM    6  C5  UNL     1     -33.489  15.663  -3.433  1.00 20.00     0.117 C 
HETATM    7 CL7  UNL     1     -34.610  16.125  -2.131  1.00 20.00    -0.130 Cl
ENDBRANCH   5   6
ENDBRANCH   2   5
TORSDOF 2
ENDMDL
MODEL 4
REMARK VINA RESULT:      -3.5      2.313      3.415
REMARK  2 active torsions:
REMARK  status: ('A' for Active; 'I' for Inactive)
REMARK    1  A    between atoms: C2_2  and  C4_4 
REMARK    2  A    between atoms: C4_4  and  C5_5 
ROOT
HETATM    1  C1  UNL     1     -33.337   5.170   2.585  1.00 20.00     0.147 A 
HETATM    2  C2  UNL     1     -34.496   4.622   3.382  1.00 20.00     0.151 A 
HETATM    3  C3  UNL     1     -32.857   6.572   2.705  1.00 20.00     0.042 C 
HETATM    4  O6  UNL     1     -33.137   4.363   3.753  1.00 20.00    -0.376 OA
ENDROOT
BRANCH   2   5
HETATM    5  C4  UNL     1     -35.267   5.432   4.361  1.00 20.00     0.049 C 
BRANCH   5   6
HETATM    6  C5  UNL     1     -34.710   5.407   5.795  1.00 20.00     0.117 C 
HETATM    7 CL7  UNL     1     -33.795   6.887   6.167  1.00 20.00    -0.130 Cl
ENDBRANCH   5   6
ENDBRANCH   2   5
TORSDOF 2
ENDMDL
MODEL 5
REMARK VINA RESULT:      -3.5      1.411      1.577
REMARK  2 active torsions:
REMARK  status: ('A' for Active; 'I' for Inactive)
REMARK    1  A    between atoms: C2_2  and  C4_4 
REMARK    2  A    between atoms: C4_4  and  C5_5 
ROOT
HETATM    1  C1  UNL     1     -34.653   6.127   5.619  1.00 20.00     0.147 A 
HETATM    2  C2  UNL     1     -34.057   6.910   4.475  1.00 20.00     0.151 A 
HETATM    3  C3  UNL     1     -34.575   4.646   5.720  1.00 20.00     0.042 C 
HETATM    4  O6  UNL     1     -33.396   6.806   5.742  1.00 20.00    -0.376 OA
ENDROOT
BRANCH   2   5
HETATM    5  C4  UNL     1     -33.336   6.275   3.341  1.00 20.00     0.049 C 
BRANCH   5   6
HETATM    6  C5  UNL     1     -32.173   7.108   2.772  1.00 20.00     0.117 C 
HETATM    7 CL7  UNL     1     -32.643   7.950   1.277  1.00 20.00    -0.130 Cl
ENDBRANCH   5   6
ENDBRANCH   2   5
TORSDOF 2
ENDMDL
MODEL 6
REMARK VINA RESULT:      -3.3     11.703     12.735
REMARK  2 active torsions:
REMARK  status: ('A' for Active; 'I' for Inactive)
REMARK    1  A    between atoms: C2_2  and  C4_4 
REMARK    2  A    between atoms: C4_4  and  C5_5 
ROOT
HETATM    1  C1  UNL     1     -35.506  14.990  -6.353  1.00 20.00     0.147 A 
HETATM    2  C2  UNL     1     -35.895  14.637  -4.939  1.00 20.00     0.151 A 
HETATM    3  C3  UNL     1     -34.095  15.065  -6.817  1.00 20.00     0.042 C 
HETATM    4  O6  UNL     1     -35.954  13.675  -5.999  1.00 20.00    -0.376 OA
ENDROOT
BRANCH   2   5
HETATM    5  C4  UNL     1     -34.903  14.331  -3.874  1.00 20.00     0.049 C 
BRANCH   5   6
HETATM    6  C5  UNL     1     -34.660  15.477  -2.875  1.00 20.00     0.117 C 
HETATM    7 CL7  UNL     1     -33.060  16.218  -3.108  1.00 20.00    -0.130 Cl
ENDBRANCH   5   6
ENDBRANCH   2   5
TORSDOF 2
ENDMDL
MODEL 7
REMARK VINA RESULT:      -3.2     16.894     17.419
REMARK  2 active torsions:
REMARK  status: ('A' for Active; 'I' for Inactive)
REMARK    1  A    between atoms: C2_2  and  C4_4 
REMARK    2  A    between atoms: C4_4  and  C5_5 
ROOT
HETATM    1  C1  UNL     1     -23.121  18.120   8.328  1.00 20.00     0.147 A 
HETATM    2  C2  UNL     1     -22.489  17.797   9.659  1.00 20.00     0.151 A 
HETATM    3  C3  UNL     1     -24.471  18.729   8.193  1.00 20.00     0.042 C 
HETATM    4  O6  UNL     1     -22.133  18.973   8.922  1.00 20.00    -0.376 OA
ENDROOT
BRANCH   2   5
HETATM    5  C4  UNL     1     -23.156  18.055  10.962  1.00 20.00     0.049 C 
BRANCH   5   6
HETATM    6  C5  UNL     1     -23.271  16.825  11.880  1.00 20.00     0.117 C 
HETATM    7 CL7  UNL     1     -24.650  15.797  11.424  1.00 20.00    -0.130 Cl
ENDBRANCH   5   6
ENDBRANCH   2   5
TORSDOF 2
ENDMDL
MODEL 8
REMARK VINA RESULT:      -3.2      8.681      9.157
REMARK  2 active torsions:
REMARK  status: ('A' for Active; 'I' for Inactive)
REMARK    1  A    between atoms: C2_2  and  C4_4 
REMARK    2  A    between atoms: C4_4  and  C5_5 
ROOT
HETATM    1  C1  UNL     1     -41.166   5.459  -0.984  1.00 20.00     0.147 A 
HETATM    2  C2  UNL     1     -41.050   6.542   0.061  1.00 20.00     0.151 A 
HETATM    3  C3  UNL     1     -42.469   4.917  -1.454  1.00 20.00     0.042 C 
HETATM    4  O6  UNL     1     -40.920   6.826  -1.338  1.00 20.00    -0.376 OA
ENDROOT
BRANCH   2   5
HETATM    5  C4  UNL     1     -42.227   7.169   0.718  1.00 20.00     0.049 C 
BRANCH   5   6
HETATM    6  C5  UNL     1     -42.588   8.568   0.189  1.00 20.00     0.117 C 
HETATM    7 CL7  UNL     1     -41.252   9.719   0.423  1.00 20.00    -0.130 Cl
ENDBRANCH   5   6
ENDBRANCH   2   5
TORSDOF 2
ENDMDL
MODEL 9
REMARK VINA RESULT:      -3.1     12.793     13.157
REMARK  2 active torsions:
REMARK  status: ('A' for Active; 'I' for Inactive)
REMARK    1  A    between atoms: C2_2  and  C4_4 
REMARK    2  A    between atoms: C4_4  and  C5_5 
ROOT
HETATM    1  C1  UNL     1     -31.165  19.053   0.326  1.00 20.00     0.147 A 
HETATM    2  C2  UNL     1     -31.843  18.819  -1.001  1.00 20.00     0.151 A 
HETATM    3  C3  UNL     1     -31.570  18.366   1.581  1.00 20.00     0.042 C 
HETATM    4  O6  UNL     1     -30.595  18.196  -0.672  1.00 20.00    -0.376 OA
ENDROOT
BRANCH   2   5
HETATM    5  C4  UNL     1     -32.982  17.880  -1.180  1.00 20.00     0.049 C 
BRANCH   5   6
HETATM    6  C5  UNL     1     -32.978  17.112  -2.514  1.00 20.00     0.117 C 
HETATM    7 CL7  UNL     1     -34.207  15.827  -2.531  1.00 20.00    -0.130 Cl
ENDBRANCH   5   6
ENDBRANCH   2   5
TORSDOF 2
ENDMDL
