MODEL 1
REMARK VINA RESULT:      -3.3      0.000      0.000
REMARK  1 active torsions:
REMARK  status: ('A' for Active; 'I' for Inactive)
REMARK    1  A    between atoms: C2_2  and  C4_4 
ROOT
HETATM    1  C1  UNL     1     -41.271   8.069  -0.705  1.00 20.00     0.171 A 
HETATM    2  C2  UNL     1     -42.025   6.756  -0.800  1.00 20.00     0.175 A 
HETATM    3  C3  UNL     1     -41.700   9.193   0.169  1.00 20.00     0.044 C 
HETATM    4  O5  UNL     1     -42.157   7.784  -1.794  1.00 20.00    -0.352 OA
HETATM    5 CL6  UNL     1     -41.084   5.323  -1.226  1.00 20.00    -0.084 Cl
ENDROOT
BRANCH   2   6
HETATM    6  C4  UNL     1     -43.273   6.502  -0.020  1.00 20.00     0.172 C 
HETATM    7 CL7  UNL     1     -42.931   5.544   1.446  1.00 20.00    -0.126 Cl
ENDBRANCH   2   6
TORSDOF 1
ENDMDL
MODEL 2
REMARK VINA RESULT:      -3.3     23.601     23.967
REMARK  1 active torsions:
REMARK  status: ('A' for Active; 'I' for Inactive)
REMARK    1  A    between atoms: C2_2  and  C4_4 
ROOT
HETATM    1  C1  UNL     1     -23.617  16.748  11.215  1.00 20.00     0.171 A 
HETATM    2  C2  UNL     1     -23.955  18.105  10.627  1.00 20.00     0.175 A 
HETATM    3  C3  UNL     1     -24.644  15.805  11.731  1.00 20.00     0.044 C 
HETATM    4  O5  UNL     1     -23.476  17.956  11.973  1.00 20.00    -0.352 OA
HETATM    5 CL6  UNL     1     -22.835  18.759   9.428  1.00 20.00    -0.084 Cl
ENDROOT
BRANCH   2   6
HETATM    6  C4  UNL     1     -25.362  18.598  10.534  1.00 20.00     0.172 C 
HETATM    7 CL7  UNL     1     -25.924  19.236  12.103  1.00 20.00    -0.126 Cl
ENDBRANCH   2   6
TORSDOF 1
ENDMDL
MODEL 3
REMARK VINA RESULT:      -3.3      9.659      9.870
REMARK  1 active torsions:
REMARK  status: ('A' for Active; 'I' for Inactive)
REMARK    1  A    between atoms: C2_2  and  C4_4 
ROOT
HETATM    1  C1  UNL     1     -32.721   7.857   2.456  1.00 20.00     0.171 A 
HETATM    2  C2  UNL     1     -33.052   6.612   3.258  1.00 20.00     0.175 A 
HETATM    3  C3  UNL     1     -32.590   7.860   0.975  1.00 20.00     0.044 C 
HETATM    4  O5  UNL     1     -31.710   7.112   3.146  1.00 20.00    -0.352 OA
HETATM    5 CL6  UNL     1     -33.888   6.850   4.795  1.00 20.00    -0.084 Cl
ENDROOT
BRANCH   2   6
HETATM    6  C4  UNL     1     -33.262   5.285   2.606  1.00 20.00     0.172 C 
HETATM    7 CL7  UNL     1     -34.180   4.184   3.669  1.00 20.00    -0.126 Cl
ENDBRANCH   2   6
TORSDOF 1
ENDMDL
MODEL 4
REMARK VINA RESULT:      -3.2      1.474      2.458
REMARK  1 active torsions:
REMARK  status: ('A' for Active; 'I' for Inactive)
REMARK    1  A    between atoms: C2_2  and  C4_4 
ROOT
HETATM    1  C1  UNL     1     -41.781   7.795   0.736  1.00 20.00     0.171 A 
HETATM    2  C2  UNL     1     -42.249   6.375   0.475  1.00 20.00     0.175 A 
HETATM    3  C3  UNL     1     -41.463   8.760  -0.349  1.00 20.00     0.044 C 
HETATM    4  O5  UNL     1     -40.889   6.677   0.824  1.00 20.00    -0.352 OA
HETATM    5 CL6  UNL     1     -43.264   5.628   1.711  1.00 20.00    -0.084 Cl
ENDROOT
BRANCH   2   6
HETATM    6  C4  UNL     1     -42.415   5.840  -0.909  1.00 20.00     0.172 C 
HETATM    7 CL7  UNL     1     -40.976   4.917  -1.419  1.00 20.00    -0.126 Cl
ENDBRANCH   2   6
TORSDOF 1
ENDMDL
MODEL 5
REMARK VINA RESULT:      -3.2     10.658     11.428
REMARK  1 active torsions:
REMARK  status: ('A' for Active; 'I' for Inactive)
REMARK    1  A    between atoms: C2_2  and  C4_4 
ROOT
HETATM    1  C1  UNL     1     -34.007  15.194  -5.272  1.00 20.00     0.171 A 
HETATM    2  C2  UNL     1     -34.838  14.560  -4.172  1.00 20.00     0.175 A 
HETATM    3  C3  UNL     1     -34.288  15.000  -6.719  1.00 20.00     0.044 C 
HETATM    4  O5  UNL     1     -33.573  14.016  -4.582  1.00 20.00    -0.352 OA
HETATM    5 CL6  UNL     1     -34.900  15.410  -2.626  1.00 20.00    -0.084 Cl
ENDROOT
BRANCH   2   6
HETATM    6  C4  UNL     1     -36.004  13.676  -4.472  1.00 20.00     0.172 C 
HETATM    7 CL7  UNL     1     -37.543  14.565  -4.307  1.00 20.00    -0.126 Cl
ENDBRANCH   2   6
TORSDOF 1
ENDMDL
MODEL 6
REMARK VINA RESULT:      -3.2      9.661     10.061
REMARK  1 active torsions:
REMARK  status: ('A' for Active; 'I' for Inactive)
REMARK    1  A    between atoms: C2_2  and  C4_4 
ROOT
HETATM    1  C1  UNL     1     -34.416   4.665   4.588  1.00 20.00     0.171 A 
HETATM    2  C2  UNL     1     -34.136   6.154   4.511  1.00 20.00     0.175 A 
HETATM    3  C3  UNL     1     -34.041   3.709   3.512  1.00 20.00     0.044 C 
HETATM    4  O5  UNL     1     -35.433   5.606   4.227  1.00 20.00    -0.352 OA
HETATM    5 CL6  UNL     1     -33.926   7.008   6.042  1.00 20.00    -0.084 Cl
ENDROOT
BRANCH   2   6
HETATM    6  C4  UNL     1     -33.465   6.772   3.328  1.00 20.00     0.172 C 
HETATM    7 CL7  UNL     1     -31.927   7.546   3.793  1.00 20.00    -0.126 Cl
ENDBRANCH   2   6
TORSDOF 1
ENDMDL
MODEL 7
REMARK VINA RESULT:      -3.2     10.692     11.297
REMARK  1 active torsions:
REMARK  status: ('A' for Active; 'I' for Inactive)
REMARK    1  A    between atoms: C2_2  and  C4_4 
ROOT
HETATM    1  C1  UNL     1     -36.260  14.104  -4.963  1.00 20.00     0.171 A 
HETATM    2  C2  UNL     1     -34.913  14.490  -4.379  1.00 20.00     0.175 A 
HETATM    3  C3  UNL     1     -37.554  14.426  -4.305  1.00 20.00     0.044 C 
HETATM    4  O5  UNL     1     -35.446  13.162  -4.255  1.00 20.00    -0.352 OA
HETATM    5 CL6  UNL     1     -33.588  14.736  -5.521  1.00 20.00    -0.084 Cl
ENDROOT
BRANCH   2   6
HETATM    6  C4  UNL     1     -34.793  15.220  -3.082  1.00 20.00     0.172 C 
HETATM    7 CL7  UNL     1     -33.267  16.139  -3.000  1.00 20.00    -0.126 Cl
ENDBRANCH   2   6
TORSDOF 1
ENDMDL
MODEL 8
REMARK VINA RESULT:      -3.2      2.049      3.043
REMARK  1 active torsions:
REMARK  status: ('A' for Active; 'I' for Inactive)
REMARK    1  A    between atoms: C2_2  and  C4_4 
ROOT
HETATM    1  C1  UNL     1     -43.215   7.063   1.051  1.00 20.00     0.171 A 
HETATM    2  C2  UNL     1     -41.932   7.460   0.344  1.00 20.00     0.175 A 
HETATM    3  C3  UNL     1     -43.417   5.732   1.684  1.00 20.00     0.044 C 
HETATM    4  O5  UNL     1     -43.100   7.036  -0.377  1.00 20.00    -0.352 OA
HETATM    5 CL6  UNL     1     -41.533   9.180   0.318  1.00 20.00    -0.084 Cl
ENDROOT
BRANCH   2   6
HETATM    6  C4  UNL     1     -40.773   6.525   0.225  1.00 20.00     0.172 C 
HETATM    7 CL7  UNL     1     -40.973   5.429  -1.168  1.00 20.00    -0.126 Cl
ENDBRANCH   2   6
TORSDOF 1
ENDMDL
MODEL 9
REMARK VINA RESULT:      -3.1     11.150     12.129
REMARK  1 active torsions:
REMARK  status: ('A' for Active; 'I' for Inactive)
REMARK    1  A    between atoms: C2_2  and  C4_4 
ROOT
HETATM    1  C1  UNL     1     -34.078  14.916  -3.543  1.00 20.00     0.171 A 
HETATM    2  C2  UNL     1     -34.870  14.636  -4.806  1.00 20.00     0.175 A 
HETATM    3  C3  UNL     1     -33.226  16.123  -3.367  1.00 20.00     0.044 C 
HETATM    4  O5  UNL     1     -33.614  13.995  -4.537  1.00 20.00    -0.352 OA
HETATM    5 CL6  UNL     1     -36.337  13.668  -4.632  1.00 20.00    -0.084 Cl
ENDROOT
BRANCH   2   6
HETATM    6  C4  UNL     1     -34.841  15.560  -5.979  1.00 20.00     0.172 C 
HETATM    7 CL7  UNL     1     -33.679  14.999  -7.211  1.00 20.00    -0.126 Cl
ENDBRANCH   2   6
TORSDOF 1
ENDMDL
