MODEL 1
REMARK VINA RESULT:      -3.6      0.000      0.000
REMARK  2 active torsions:
REMARK  status: ('A' for Active; 'I' for Inactive)
REMARK    1  A    between atoms: C1_1  and  C4_4 
REMARK    2  A    between atoms: C1_1  and  C5_5 
ROOT
HETATM    1  C1  UNL     1     -23.801  18.235  10.085  1.00 20.00     0.163 C 
HETATM    2  O6  UNL     1     -24.791  18.580   9.436  1.00 20.00    -0.295 OA
ENDROOT
BRANCH   1   3
HETATM    3  C4  UNL     1     -22.397  18.355   9.522  1.00 20.00     0.194 C 
HETATM    4 CL7  UNL     1     -22.165  17.217   8.182  1.00 20.00    -0.122 Cl
ENDBRANCH   1   3
BRANCH   1   5
HETATM    5  C5  UNL     1     -23.953  17.647  11.497  1.00 20.00     0.091 C 
HETATM    6  C2  UNL     1     -22.632  17.733  12.268  1.00 20.00     0.041 C 
HETATM    7  C3  UNL     1     -24.444  16.199  11.480  1.00 20.00     0.041 C 
HETATM    8 CL8  UNL     1     -25.162  18.677  12.331  1.00 20.00    -0.112 Cl
ENDBRANCH   1   5
TORSDOF 2
ENDMDL
MODEL 2
REMARK VINA RESULT:      -3.6      1.367      1.753
REMARK  2 active torsions:
REMARK  status: ('A' for Active; 'I' for Inactive)
REMARK    1  A    between atoms: C1_1  and  C4_4 
REMARK    2  A    between atoms: C1_1  and  C5_5 
ROOT
HETATM    1  C1  UNL     1     -24.008  17.703   9.999  1.00 20.00     0.163 C 
HETATM    2  O6  UNL     1     -24.730  18.488   9.380  1.00 20.00    -0.295 OA
ENDROOT
BRANCH   1   3
HETATM    3  C4  UNL     1     -22.847  16.992   9.328  1.00 20.00     0.194 C 
HETATM    4 CL7  UNL     1     -21.535  18.134   8.982  1.00 20.00    -0.122 Cl
ENDBRANCH   1   3
BRANCH   1   5
HETATM    5  C5  UNL     1     -24.269  17.397  11.483  1.00 20.00     0.091 C 
HETATM    6  C2  UNL     1     -24.638  15.924  11.678  1.00 20.00     0.041 C 
HETATM    7  C3  UNL     1     -25.362  18.284  12.080  1.00 20.00     0.041 C 
HETATM    8 CL8  UNL     1     -22.718  17.708  12.329  1.00 20.00    -0.112 Cl
ENDBRANCH   1   5
TORSDOF 2
ENDMDL
MODEL 3
REMARK VINA RESULT:      -3.6      1.424      1.824
REMARK  2 active torsions:
REMARK  status: ('A' for Active; 'I' for Inactive)
REMARK    1  A    between atoms: C1_1  and  C4_4 
REMARK    2  A    between atoms: C1_1  and  C5_5 
ROOT
HETATM    1  C1  UNL     1     -23.978  17.731  10.033  1.00 20.00     0.163 C 
HETATM    2  O6  UNL     1     -24.757  18.464   9.419  1.00 20.00    -0.295 OA
ENDROOT
BRANCH   1   3
HETATM    3  C4  UNL     1     -22.833  17.023   9.332  1.00 20.00     0.194 C 
HETATM    4 CL7  UNL     1     -21.509  18.155   9.005  1.00 20.00    -0.122 Cl
ENDBRANCH   1   3
BRANCH   1   5
HETATM    5  C5  UNL     1     -24.149  17.489  11.541  1.00 20.00     0.091 C 
HETATM    6  C2  UNL     1     -25.283  18.349  12.106  1.00 20.00     0.041 C 
HETATM    7  C3  UNL     1     -22.864  17.755  12.326  1.00 20.00     0.041 C 
HETATM    8 CL8  UNL     1     -24.607  15.763  11.714  1.00 20.00    -0.112 Cl
ENDBRANCH   1   5
TORSDOF 2
ENDMDL
MODEL 4
REMARK VINA RESULT:      -3.5     23.829     24.549
REMARK  2 active torsions:
REMARK  status: ('A' for Active; 'I' for Inactive)
REMARK    1  A    between atoms: C1_1  and  C4_4 
REMARK    2  A    between atoms: C1_1  and  C5_5 
ROOT
HETATM    1  C1  UNL     1     -42.811   7.343  -0.845  1.00 20.00     0.163 C 
HETATM    2  O6  UNL     1     -43.113   7.770  -1.962  1.00 20.00    -0.295 OA
ENDROOT
BRANCH   1   3
HETATM    3  C4  UNL     1     -42.771   8.251   0.370  1.00 20.00     0.194 C 
HETATM    4 CL7  UNL     1     -41.416   9.388   0.253  1.00 20.00    -0.122 Cl
ENDBRANCH   1   3
BRANCH   1   5
HETATM    5  C5  UNL     1     -42.442   5.865  -0.641  1.00 20.00     0.091 C 
HETATM    6  C2  UNL     1     -40.963   5.624  -0.955  1.00 20.00     0.041 C 
HETATM    7  C3  UNL     1     -43.305   4.925  -1.484  1.00 20.00     0.041 C 
HETATM    8 CL8  UNL     1     -42.714   5.525   1.099  1.00 20.00    -0.112 Cl
ENDBRANCH   1   5
TORSDOF 2
ENDMDL
MODEL 5
REMARK VINA RESULT:      -3.5     16.327     17.179
REMARK  2 active torsions:
REMARK  status: ('A' for Active; 'I' for Inactive)
REMARK    1  A    between atoms: C1_1  and  C4_4 
REMARK    2  A    between atoms: C1_1  and  C5_5 
ROOT
HETATM    1  C1  UNL     1     -33.473   6.367   4.004  1.00 20.00     0.163 C 
HETATM    2  O6  UNL     1     -33.071   7.290   4.716  1.00 20.00    -0.295 OA
ENDROOT
BRANCH   1   3
HETATM    3  C4  UNL     1     -32.930   6.149   2.603  1.00 20.00     0.194 C 
HETATM    4 CL7  UNL     1     -32.533   7.700   1.842  1.00 20.00    -0.122 Cl
ENDBRANCH   1   3
BRANCH   1   5
HETATM    5  C5  UNL     1     -34.561   5.403   4.504  1.00 20.00     0.091 C 
HETATM    6  C2  UNL     1     -35.918   5.744   3.881  1.00 20.00     0.041 C 
HETATM    7  C3  UNL     1     -34.682   5.398   6.028  1.00 20.00     0.041 C 
HETATM    8 CL8  UNL     1     -34.072   3.774   3.937  1.00 20.00    -0.112 Cl
ENDBRANCH   1   5
TORSDOF 2
ENDMDL
MODEL 6
REMARK VINA RESULT:      -3.5     18.352     19.086
REMARK  2 active torsions:
REMARK  status: ('A' for Active; 'I' for Inactive)
REMARK    1  A    between atoms: C1_1  and  C4_4 
REMARK    2  A    between atoms: C1_1  and  C5_5 
ROOT
HETATM    1  C1  UNL     1     -35.088  14.069  -4.256  1.00 20.00     0.163 C 
HETATM    2  O6  UNL     1     -34.563  13.006  -3.917  1.00 20.00    -0.295 OA
ENDROOT
BRANCH   1   3
HETATM    3  C4  UNL     1     -36.295  14.103  -5.176  1.00 20.00     0.194 C 
HETATM    4 CL7  UNL     1     -37.775  14.408  -4.249  1.00 20.00    -0.122 Cl
ENDBRANCH   1   3
BRANCH   1   5
HETATM    5  C5  UNL     1     -34.526  15.415  -3.769  1.00 20.00     0.091 C 
HETATM    6  C2  UNL     1     -32.995  15.411  -3.807  1.00 20.00     0.041 C 
HETATM    7  C3  UNL     1     -35.004  15.774  -2.362  1.00 20.00     0.041 C 
HETATM    8 CL8  UNL     1     -35.117  16.645  -4.933  1.00 20.00    -0.112 Cl
ENDBRANCH   1   5
TORSDOF 2
ENDMDL
MODEL 7
REMARK VINA RESULT:      -3.5     23.784     24.600
REMARK  2 active torsions:
REMARK  status: ('A' for Active; 'I' for Inactive)
REMARK    1  A    between atoms: C1_1  and  C4_4 
REMARK    2  A    between atoms: C1_1  and  C5_5 
ROOT
HETATM    1  C1  UNL     1     -42.902   7.375  -0.820  1.00 20.00     0.163 C 
HETATM    2  O6  UNL     1     -43.164   7.713  -1.976  1.00 20.00    -0.295 OA
ENDROOT
BRANCH   1   3
HETATM    3  C4  UNL     1     -42.886   8.378   0.318  1.00 20.00     0.194 C 
HETATM    4 CL7  UNL     1     -41.412   9.361   0.261  1.00 20.00    -0.122 Cl
ENDBRANCH   1   3
BRANCH   1   5
HETATM    5  C5  UNL     1     -42.559   5.914  -0.486  1.00 20.00     0.091 C 
HETATM    6  C2  UNL     1     -43.417   4.951  -1.313  1.00 20.00     0.041 C 
HETATM    7  C3  UNL     1     -42.724   5.600   1.001  1.00 20.00     0.041 C 
HETATM    8 CL8  UNL     1     -40.844   5.690  -0.958  1.00 20.00    -0.112 Cl
ENDBRANCH   1   5
TORSDOF 2
ENDMDL
MODEL 8
REMARK VINA RESULT:      -3.4     18.365     19.175
REMARK  2 active torsions:
REMARK  status: ('A' for Active; 'I' for Inactive)
REMARK    1  A    between atoms: C1_1  and  C4_4 
REMARK    2  A    between atoms: C1_1  and  C5_5 
ROOT
HETATM    1  C1  UNL     1     -35.112  13.944  -4.354  1.00 20.00     0.163 C 
HETATM    2  O6  UNL     1     -34.726  12.850  -3.936  1.00 20.00    -0.295 OA
ENDROOT
BRANCH   1   3
HETATM    3  C4  UNL     1     -36.352  14.073  -5.221  1.00 20.00     0.194 C 
HETATM    4 CL7  UNL     1     -37.764  14.479  -4.229  1.00 20.00    -0.122 Cl
ENDBRANCH   1   3
BRANCH   1   5
HETATM    5  C5  UNL     1     -34.337  15.230  -4.026  1.00 20.00     0.091 C 
HETATM    6  C2  UNL     1     -34.610  15.678  -2.586  1.00 20.00     0.041 C 
HETATM    7  C3  UNL     1     -34.663  16.372  -4.988  1.00 20.00     0.041 C 
HETATM    8 CL8  UNL     1     -32.600  14.807  -4.167  1.00 20.00    -0.112 Cl
ENDBRANCH   1   5
TORSDOF 2
ENDMDL
MODEL 9
REMARK VINA RESULT:      -3.4     16.247     17.113
REMARK  2 active torsions:
REMARK  status: ('A' for Active; 'I' for Inactive)
REMARK    1  A    between atoms: C1_1  and  C4_4 
REMARK    2  A    between atoms: C1_1  and  C5_5 
ROOT
HETATM    1  C1  UNL     1     -33.345   5.773   3.161  1.00 20.00     0.163 C 
HETATM    2  O6  UNL     1     -33.243   4.881   2.317  1.00 20.00    -0.295 OA
ENDROOT
BRANCH   1   3
HETATM    3  C4  UNL     1     -32.508   7.037   3.088  1.00 20.00     0.194 C 
HETATM    4 CL7  UNL     1     -32.577   7.736   1.460  1.00 20.00    -0.122 Cl
ENDBRANCH   1   3
BRANCH   1   5
HETATM    5  C5  UNL     1     -34.320   5.633   4.341  1.00 20.00     0.091 C 
HETATM    6  C2  UNL     1     -34.171   4.263   5.010  1.00 20.00     0.041 C 
HETATM    7  C3  UNL     1     -35.776   5.845   3.926  1.00 20.00     0.041 C 
HETATM    8 CL8  UNL     1     -33.847   6.895   5.524  1.00 20.00    -0.112 Cl
ENDBRANCH   1   5
TORSDOF 2
ENDMDL
