MODEL 1
REMARK VINA RESULT:      -4.6      0.000      0.000
REMARK  1 active torsions:
REMARK  status: ('A' for Active; 'I' for Inactive)
REMARK    1  A    between atoms: C2_2  and  C3_3 
ROOT
HETATM    1  C1  UNL     1     -35.255  15.386  -2.653  1.00 20.00    -0.016 C 
HETATM    2  C2  UNL     1     -35.036  14.845  -3.854  1.00 20.00    -0.020 C 
HETATM    3  C4  UNL     1     -34.146  16.313  -2.274  1.00 20.00     0.032 C 
HETATM    4  C5  UNL     1     -33.760  15.309  -4.484  1.00 20.00     0.021 C 
HETATM    5  C6  UNL     1     -33.407  16.538  -3.608  1.00 20.00    -0.007 C 
HETATM    6  C7  UNL     1     -32.677  14.234  -4.420  1.00 20.00     0.015 C 
HETATM    7  C8  UNL     1     -33.866  17.841  -4.275  1.00 20.00     0.011 C 
ENDROOT
BRANCH   2   8
HETATM    8  C3  UNL     1     -35.957  13.909  -4.476  1.00 20.00     0.265 C 
HETATM    9  O9  UNL     1     -35.803  12.689  -4.436  1.00 20.00    -0.302 OA
ENDBRANCH   2   8
TORSDOF 1
ENDMDL
MODEL 2
REMARK VINA RESULT:      -4.5      1.210      2.255
REMARK  1 active torsions:
REMARK  status: ('A' for Active; 'I' for Inactive)
REMARK    1  A    between atoms: C2_2  and  C3_3 
ROOT
HETATM    1  C1  UNL     1     -34.083  14.701  -3.711  1.00 20.00    -0.016 C 
HETATM    2  C2  UNL     1     -35.390  14.811  -3.966  1.00 20.00    -0.020 C 
HETATM    3  C4  UNL     1     -33.537  15.977  -3.158  1.00 20.00     0.032 C 
HETATM    4  C5  UNL     1     -35.942  16.162  -3.632  1.00 20.00     0.021 C 
HETATM    5  C6  UNL     1     -34.806  16.759  -2.762  1.00 20.00    -0.007 C 
HETATM    6  C7  UNL     1     -36.195  16.993  -4.888  1.00 20.00     0.015 C 
HETATM    7  C8  UNL     1     -35.108  16.590  -1.268  1.00 20.00     0.011 C 
ENDROOT
BRANCH   2   8
HETATM    8  C3  UNL     1     -36.181  13.718  -4.504  1.00 20.00     0.265 C 
HETATM    9  O9  UNL     1     -35.806  12.547  -4.487  1.00 20.00    -0.302 OA
ENDBRANCH   2   8
TORSDOF 1
ENDMDL
MODEL 3
REMARK VINA RESULT:      -4.5     11.047     11.652
REMARK  1 active torsions:
REMARK  status: ('A' for Active; 'I' for Inactive)
REMARK    1  A    between atoms: C2_2  and  C3_3 
ROOT
HETATM    1  C1  UNL     1     -33.043   7.118   4.512  1.00 20.00    -0.016 C 
HETATM    2  C2  UNL     1     -33.899   6.269   3.936  1.00 20.00    -0.020 C 
HETATM    3  C4  UNL     1     -31.917   7.450   3.587  1.00 20.00     0.032 C 
HETATM    4  C5  UNL     1     -33.504   5.890   2.543  1.00 20.00     0.021 C 
HETATM    5  C6  UNL     1     -32.432   6.962   2.218  1.00 20.00    -0.007 C 
HETATM    6  C7  UNL     1     -32.932   4.476   2.486  1.00 20.00     0.015 C 
HETATM    7  C8  UNL     1     -33.037   8.122   1.417  1.00 20.00     0.011 C 
ENDROOT
BRANCH   2   8
HETATM    8  C3  UNL     1     -35.093   5.782   4.605  1.00 20.00     0.265 C 
HETATM    9  O9  UNL     1     -35.059   5.129   5.648  1.00 20.00    -0.302 OA
ENDBRANCH   2   8
TORSDOF 1
ENDMDL
MODEL 4
REMARK VINA RESULT:      -4.2      1.351      2.497
REMARK  1 active torsions:
REMARK  status: ('A' for Active; 'I' for Inactive)
REMARK    1  A    between atoms: C2_2  and  C3_3 
ROOT
HETATM    1  C1  UNL     1     -35.603  16.115  -5.201  1.00 20.00    -0.016 C 
HETATM    2  C2  UNL     1     -35.999  15.400  -4.144  1.00 20.00    -0.020 C 
HETATM    3  C4  UNL     1     -34.189  16.571  -5.038  1.00 20.00     0.032 C 
HETATM    4  C5  UNL     1     -34.934  15.252  -3.103  1.00 20.00     0.021 C 
HETATM    5  C6  UNL     1     -33.669  15.694  -3.882  1.00 20.00    -0.007 C 
HETATM    6  C7  UNL     1     -35.201  16.147  -1.894  1.00 20.00     0.015 C 
HETATM    7  C8  UNL     1     -32.901  14.480  -4.420  1.00 20.00     0.011 C 
ENDROOT
BRANCH   2   8
HETATM    8  C3  UNL     1     -37.328  14.824  -4.038  1.00 20.00     0.265 C 
HETATM    9  O9  UNL     1     -37.602  13.692  -4.435  1.00 20.00    -0.302 OA
ENDBRANCH   2   8
TORSDOF 1
ENDMDL
MODEL 5
REMARK VINA RESULT:      -4.2     11.330     12.264
REMARK  1 active torsions:
REMARK  status: ('A' for Active; 'I' for Inactive)
REMARK    1  A    between atoms: C2_2  and  C3_3 
ROOT
HETATM    1  C1  UNL     1     -33.209   5.021   2.940  1.00 20.00    -0.016 C 
HETATM    2  C2  UNL     1     -33.193   6.313   3.275  1.00 20.00    -0.020 C 
HETATM    3  C4  UNL     1     -34.153   4.255   3.810  1.00 20.00     0.032 C 
HETATM    4  C5  UNL     1     -34.112   6.638   4.412  1.00 20.00     0.021 C 
HETATM    5  C6  UNL     1     -34.992   5.363   4.478  1.00 20.00    -0.007 C 
HETATM    6  C7  UNL     1     -33.341   6.867   5.710  1.00 20.00     0.015 C 
HETATM    7  C8  UNL     1     -36.317   5.569   3.733  1.00 20.00     0.011 C 
ENDROOT
BRANCH   2   8
HETATM    8  C3  UNL     1     -32.369   7.294   2.589  1.00 20.00     0.265 C 
HETATM    9  O9  UNL     1     -32.640   7.734   1.473  1.00 20.00    -0.302 OA
ENDBRANCH   2   8
TORSDOF 1
ENDMDL
MODEL 6
REMARK VINA RESULT:      -4.1     17.297     18.171
REMARK  1 active torsions:
REMARK  status: ('A' for Active; 'I' for Inactive)
REMARK    1  A    between atoms: C2_2  and  C3_3 
ROOT
HETATM    1  C1  UNL     1     -24.604  18.384   9.765  1.00 20.00    -0.016 C 
HETATM    2  C2  UNL     1     -24.133  17.427  10.569  1.00 20.00    -0.020 C 
HETATM    3  C4  UNL     1     -23.486  19.126   9.108  1.00 20.00     0.032 C 
HETATM    4  C5  UNL     1     -22.638  17.359  10.590  1.00 20.00     0.021 C 
HETATM    5  C6  UNL     1     -22.268  18.214   9.351  1.00 20.00    -0.007 C 
HETATM    6  C7  UNL     1     -22.067  17.946  11.879  1.00 20.00     0.015 C 
HETATM    7  C8  UNL     1     -21.998  17.326   8.130  1.00 20.00     0.011 C 
ENDROOT
BRANCH   2   8
HETATM    8  C3  UNL     1     -24.999  16.543  11.331  1.00 20.00     0.265 C 
HETATM    9  O9  UNL     1     -24.617  15.473  11.803  1.00 20.00    -0.302 OA
ENDBRANCH   2   8
TORSDOF 1
ENDMDL
MODEL 7
REMARK VINA RESULT:      -4.1     16.997     18.245
REMARK  1 active torsions:
REMARK  status: ('A' for Active; 'I' for Inactive)
REMARK    1  A    between atoms: C2_2  and  C3_3 
ROOT
HETATM    1  C1  UNL     1     -25.516  16.935  12.062  1.00 20.00    -0.016 C 
HETATM    2  C2  UNL     1     -25.456  18.147  11.504  1.00 20.00    -0.020 C 
HETATM    3  C4  UNL     1     -24.315  16.122  11.703  1.00 20.00     0.032 C 
HETATM    4  C5  UNL     1     -24.221  18.357  10.685  1.00 20.00     0.021 C 
HETATM    5  C6  UNL     1     -23.333  17.173  11.147  1.00 20.00    -0.007 C 
HETATM    6  C7  UNL     1     -24.520  18.296   9.189  1.00 20.00     0.015 C 
HETATM    7  C8  UNL     1     -22.339  17.617  12.227  1.00 20.00     0.011 C 
ENDROOT
BRANCH   2   8
HETATM    8  C3  UNL     1     -26.490  19.151  11.690  1.00 20.00     0.265 C 
HETATM    9  O9  UNL     1     -27.500  19.212  10.991  1.00 20.00    -0.302 OA
ENDBRANCH   2   8
TORSDOF 1
ENDMDL
MODEL 8
REMARK VINA RESULT:      -4.1      1.073      1.073
REMARK  1 active torsions:
REMARK  status: ('A' for Active; 'I' for Inactive)
REMARK    1  A    between atoms: C2_2  and  C3_3 
ROOT
HETATM    1  C1  UNL     1     -35.757  15.508  -3.285  1.00 20.00    -0.016 C 
HETATM    2  C2  UNL     1     -35.116  15.350  -4.445  1.00 20.00    -0.020 C 
HETATM    3  C4  UNL     1     -34.807  15.893  -2.198  1.00 20.00     0.032 C 
HETATM    4  C5  UNL     1     -33.643  15.599  -4.342  1.00 20.00     0.021 C 
HETATM    5  C6  UNL     1     -33.541  16.314  -2.971  1.00 20.00    -0.007 C 
HETATM    6  C7  UNL     1     -32.849  14.295  -4.365  1.00 20.00     0.015 C 
HETATM    7  C8  UNL     1     -33.489  17.837  -3.145  1.00 20.00     0.011 C 
ENDROOT
BRANCH   2   8
HETATM    8  C3  UNL     1     -35.795  14.983  -5.676  1.00 20.00     0.265 C 
HETATM    9  O9  UNL     1     -35.978  13.815  -6.018  1.00 20.00    -0.302 OA
ENDBRANCH   2   8
TORSDOF 1
ENDMDL
MODEL 9
REMARK VINA RESULT:      -4.0      9.945     11.910
REMARK  1 active torsions:
REMARK  status: ('A' for Active; 'I' for Inactive)
REMARK    1  A    between atoms: C2_2  and  C3_3 
ROOT
HETATM    1  C1  UNL     1     -41.759   7.101   1.074  1.00 20.00    -0.016 C 
HETATM    2  C2  UNL     1     -41.593   7.931   0.041  1.00 20.00    -0.020 C 
HETATM    3  C4  UNL     1     -42.412   5.829   0.637  1.00 20.00     0.032 C 
HETATM    4  C5  UNL     1     -42.096   7.369  -1.252  1.00 20.00     0.021 C 
HETATM    5  C6  UNL     1     -42.267   5.870  -0.898  1.00 20.00    -0.007 C 
HETATM    6  C7  UNL     1     -43.417   8.011  -1.668  1.00 20.00     0.015 C 
HETATM    7  C8  UNL     1     -41.051   5.053  -1.354  1.00 20.00     0.011 C 
ENDROOT
BRANCH   2   8
HETATM    8  C3  UNL     1     -40.976   9.239   0.175  1.00 20.00     0.265 C 
HETATM    9  O9  UNL     1     -41.623  10.272   0.346  1.00 20.00    -0.302 OA
ENDBRANCH   2   8
TORSDOF 1
ENDMDL
