MODEL 1
REMARK VINA RESULT:      -3.7      0.000      0.000
REMARK  2 active torsions:
REMARK  status: ('A' for Active; 'I' for Inactive)
REMARK    1  A    between atoms: C3_3  and  C9_9 
REMARK    2  A    between atoms: C3_3  and  S10_10 
ROOT
HETATM    1  C1  UNL     1     -34.393  15.033  -3.678  1.00 20.00     0.010 A 
HETATM    2  C2  UNL     1     -34.310  16.290  -2.826  1.00 20.00    -0.025 A 
HETATM    3  C3  UNL     1     -35.036  16.317  -4.193  1.00 20.00     0.019 A 
HETATM    4  C4  UNL     1     -33.203  14.400  -4.315  1.00 20.00     0.012 C 
HETATM    5  C5  UNL     1     -35.106  16.282  -1.534  1.00 20.00     0.017 C 
HETATM    6  C6  UNL     1     -32.998  17.025  -2.661  1.00 20.00     0.017 C 
ENDROOT
BRANCH   3   7
HETATM    7  C9  UNL     1     -34.437  17.053  -5.369  1.00 20.00    -0.003 C 
HETATM    8  C7  UNL     1     -34.772  16.351  -6.690  1.00 20.00     0.011 C 
HETATM    9  C8  UNL     1     -34.917  18.508  -5.413  1.00 20.00     0.011 C 
ENDBRANCH   3   7
BRANCH   3  10
HETATM   10  S10 UNL     1     -36.812  16.371  -4.245  1.00 20.00    -0.171 SA
HETATM   11  H28 UNL     1     -36.990  17.331  -3.321  1.00 20.00     0.102 HD
ENDBRANCH   3  10
TORSDOF 2
ENDMDL
MODEL 2
REMARK VINA RESULT:      -3.6      1.636      3.304
REMARK  2 active torsions:
REMARK  status: ('A' for Active; 'I' for Inactive)
REMARK    1  A    between atoms: C3_3  and  C9_9 
REMARK    2  A    between atoms: C3_3  and  S10_10 
ROOT
HETATM    1  C1  UNL     1     -34.986  15.846  -5.622  1.00 20.00     0.010 A 
HETATM    2  C2  UNL     1     -36.266  15.448  -4.904  1.00 20.00    -0.025 A 
HETATM    3  C3  UNL     1     -35.237  16.376  -4.214  1.00 20.00     0.019 A 
HETATM    4  C4  UNL     1     -33.902  14.877  -5.952  1.00 20.00     0.012 C 
HETATM    5  C5  UNL     1     -37.558  16.015  -5.464  1.00 20.00     0.017 C 
HETATM    6  C6  UNL     1     -36.459  14.036  -4.395  1.00 20.00     0.017 C 
ENDROOT
BRANCH   3   7
HETATM    7  C9  UNL     1     -34.409  15.880  -3.052  1.00 20.00    -0.003 C 
HETATM    8  C7  UNL     1     -33.005  16.494  -3.071  1.00 20.00     0.011 C 
HETATM    9  C8  UNL     1     -35.095  16.183  -1.715  1.00 20.00     0.011 C 
ENDBRANCH   3   7
BRANCH   3  10
HETATM   10  S10 UNL     1     -35.588  18.111  -4.052  1.00 20.00    -0.171 SA
HETATM   11  H28 UNL     1     -36.707  18.139  -4.796  1.00 20.00     0.102 HD
ENDBRANCH   3  10
TORSDOF 2
ENDMDL
MODEL 3
REMARK VINA RESULT:      -3.6      1.301      1.765
REMARK  2 active torsions:
REMARK  status: ('A' for Active; 'I' for Inactive)
REMARK    1  A    between atoms: C3_3  and  C9_9 
REMARK    2  A    between atoms: C3_3  and  S10_10 
ROOT
HETATM    1  C1  UNL     1     -35.944  14.918  -3.842  1.00 20.00     0.010 A 
HETATM    2  C2  UNL     1     -34.586  15.555  -3.596  1.00 20.00    -0.025 A 
HETATM    3  C3  UNL     1     -35.583  16.197  -4.591  1.00 20.00     0.019 A 
HETATM    4  C4  UNL     1     -36.116  13.597  -4.512  1.00 20.00     0.012 C 
HETATM    5  C5  UNL     1     -34.366  16.167  -2.225  1.00 20.00     0.017 C 
HETATM    6  C6  UNL     1     -33.323  14.906  -4.118  1.00 20.00     0.017 C 
ENDROOT
BRANCH   3   7
HETATM    7  C9  UNL     1     -35.318  16.164  -6.078  1.00 20.00    -0.003 C 
HETATM    8  C7  UNL     1     -36.627  16.078  -6.871  1.00 20.00     0.011 C 
HETATM    9  C8  UNL     1     -34.515  17.390  -6.524  1.00 20.00     0.011 C 
ENDBRANCH   3   7
BRANCH   3  10
HETATM   10  S10 UNL     1     -36.451  17.678  -4.131  1.00 20.00    -0.171 SA
HETATM   11  H28 UNL     1     -36.832  18.053  -5.364  1.00 20.00     0.102 HD
ENDBRANCH   3  10
TORSDOF 2
ENDMDL
MODEL 4
REMARK VINA RESULT:      -3.6      1.507      3.258
REMARK  2 active torsions:
REMARK  status: ('A' for Active; 'I' for Inactive)
REMARK    1  A    between atoms: C3_3  and  C9_9 
REMARK    2  A    between atoms: C3_3  and  S10_10 
ROOT
HETATM    1  C1  UNL     1     -33.633  15.107  -5.074  1.00 20.00     0.010 A 
HETATM    2  C2  UNL     1     -35.126  14.846  -4.942  1.00 20.00    -0.025 A 
HETATM    3  C3  UNL     1     -34.479  16.067  -4.244  1.00 20.00     0.019 A 
HETATM    4  C4  UNL     1     -32.594  14.213  -4.488  1.00 20.00     0.012 C 
HETATM    5  C5  UNL     1     -35.956  15.030  -6.198  1.00 20.00     0.017 C 
HETATM    6  C6  UNL     1     -35.636  13.692  -4.108  1.00 20.00     0.017 C 
ENDROOT
BRANCH   3   7
HETATM    7  C9  UNL     1     -34.335  16.108  -2.740  1.00 20.00    -0.003 C 
HETATM    8  C7  UNL     1     -33.111  16.932  -2.325  1.00 20.00     0.011 C 
HETATM    9  C8  UNL     1     -35.596  16.674  -2.079  1.00 20.00     0.011 C 
ENDBRANCH   3   7
BRANCH   3  10
HETATM   10  S10 UNL     1     -34.740  17.697  -4.904  1.00 20.00    -0.171 SA
HETATM   11  H28 UNL     1     -36.060  17.590  -5.130  1.00 20.00     0.102 HD
ENDBRANCH   3  10
TORSDOF 2
ENDMDL
MODEL 5
REMARK VINA RESULT:      -3.6      1.551      2.768
REMARK  2 active torsions:
REMARK  status: ('A' for Active; 'I' for Inactive)
REMARK    1  A    between atoms: C3_3  and  C9_9 
REMARK    2  A    between atoms: C3_3  and  S10_10 
ROOT
HETATM    1  C1  UNL     1     -35.373  15.869  -2.808  1.00 20.00     0.010 A 
HETATM    2  C2  UNL     1     -36.102  16.593  -3.929  1.00 20.00    -0.025 A 
HETATM    3  C3  UNL     1     -35.288  15.311  -4.225  1.00 20.00     0.019 A 
HETATM    4  C4  UNL     1     -34.207  16.451  -2.084  1.00 20.00     0.012 C 
HETATM    5  C5  UNL     1     -37.618  16.549  -3.887  1.00 20.00     0.017 C 
HETATM    6  C6  UNL     1     -35.604  17.929  -4.437  1.00 20.00     0.017 C 
ENDROOT
BRANCH   3   7
HETATM    7  C9  UNL     1     -33.991  15.381  -4.997  1.00 20.00    -0.003 C 
HETATM    8  C7  UNL     1     -32.959  14.397  -4.436  1.00 20.00     0.011 C 
HETATM    9  C8  UNL     1     -34.219  15.108  -6.487  1.00 20.00     0.011 C 
ENDBRANCH   3   7
BRANCH   3  10
HETATM   10  S10 UNL     1     -36.139  13.784  -4.548  1.00 20.00    -0.171 SA
HETATM   11  H28 UNL     1     -37.085  13.901  -3.600  1.00 20.00     0.102 HD
ENDBRANCH   3  10
TORSDOF 2
ENDMDL
MODEL 6
REMARK VINA RESULT:      -3.4      1.772      2.881
REMARK  2 active torsions:
REMARK  status: ('A' for Active; 'I' for Inactive)
REMARK    1  A    between atoms: C3_3  and  C9_9 
REMARK    2  A    between atoms: C3_3  and  S10_10 
ROOT
HETATM    1  C1  UNL     1     -35.169  14.257  -3.979  1.00 20.00     0.010 A 
HETATM    2  C2  UNL     1     -34.042  14.913  -4.762  1.00 20.00    -0.025 A 
HETATM    3  C3  UNL     1     -34.960  15.763  -3.853  1.00 20.00     0.019 A 
HETATM    4  C4  UNL     1     -36.365  13.647  -4.628  1.00 20.00     0.012 C 
HETATM    5  C5  UNL     1     -32.630  14.571  -4.324  1.00 20.00     0.017 C 
HETATM    6  C6  UNL     1     -34.131  15.062  -6.265  1.00 20.00     0.017 C 
ENDROOT
BRANCH   3   7
HETATM    7  C9  UNL     1     -35.960  16.726  -4.450  1.00 20.00    -0.003 C 
HETATM    8  C7  UNL     1     -37.209  16.843  -3.570  1.00 20.00     0.011 C 
HETATM    9  C8  UNL     1     -35.336  18.110  -4.661  1.00 20.00     0.011 C 
ENDBRANCH   3   7
BRANCH   3  10
HETATM   10  S10 UNL     1     -34.343  16.368  -2.299  1.00 20.00    -0.171 SA
HETATM   11  H28 UNL     1     -33.033  16.320  -2.595  1.00 20.00     0.102 HD
ENDBRANCH   3  10
TORSDOF 2
ENDMDL
MODEL 7
REMARK VINA RESULT:      -3.3      1.615      3.068
REMARK  2 active torsions:
REMARK  status: ('A' for Active; 'I' for Inactive)
REMARK    1  A    between atoms: C3_3  and  C9_9 
REMARK    2  A    between atoms: C3_3  and  S10_10 
ROOT
HETATM    1  C1  UNL     1     -35.093  17.497  -2.948  1.00 20.00     0.010 A 
HETATM    2  C2  UNL     1     -33.607  17.742  -3.161  1.00 20.00    -0.025 A 
HETATM    3  C3  UNL     1     -34.330  16.605  -3.923  1.00 20.00     0.019 A 
HETATM    4  C4  UNL     1     -35.662  17.005  -1.661  1.00 20.00     0.012 C 
HETATM    5  C5  UNL     1     -33.231  19.028  -3.874  1.00 20.00     0.017 C 
HETATM    6  C6  UNL     1     -32.606  17.399  -2.080  1.00 20.00     0.017 C 
ENDROOT
BRANCH   3   7
HETATM    7  C9  UNL     1     -34.061  15.158  -3.584  1.00 20.00    -0.003 C 
HETATM    8  C7  UNL     1     -35.297  14.289  -3.848  1.00 20.00     0.011 C 
HETATM    9  C8  UNL     1     -32.864  14.618  -4.373  1.00 20.00     0.011 C 
ENDBRANCH   3   7
BRANCH   3  10
HETATM   10  S10 UNL     1     -34.692  16.798  -5.652  1.00 20.00    -0.171 SA
HETATM   11  H28 UNL     1     -33.877  15.835  -6.115  1.00 20.00     0.102 HD
ENDBRANCH   3  10
TORSDOF 2
ENDMDL
MODEL 8
REMARK VINA RESULT:      -3.3      1.903      3.078
REMARK  2 active torsions:
REMARK  status: ('A' for Active; 'I' for Inactive)
REMARK    1  A    between atoms: C3_3  and  C9_9 
REMARK    2  A    between atoms: C3_3  and  S10_10 
ROOT
HETATM    1  C1  UNL     1     -34.499  16.891  -4.875  1.00 20.00     0.010 A 
HETATM    2  C2  UNL     1     -34.371  15.658  -3.992  1.00 20.00    -0.025 A 
HETATM    3  C3  UNL     1     -35.528  15.773  -5.014  1.00 20.00     0.019 A 
HETATM    4  C4  UNL     1     -34.826  18.244  -4.343  1.00 20.00     0.012 C 
HETATM    5  C5  UNL     1     -33.188  14.751  -4.270  1.00 20.00     0.017 C 
HETATM    6  C6  UNL     1     -34.671  15.736  -2.511  1.00 20.00     0.017 C 
ENDROOT
BRANCH   3   7
HETATM    7  C9  UNL     1     -36.950  15.981  -4.548  1.00 20.00    -0.003 C 
HETATM    8  C7  UNL     1     -37.748  16.810  -5.561  1.00 20.00     0.011 C 
HETATM    9  C8  UNL     1     -37.652  14.642  -4.298  1.00 20.00     0.011 C 
ENDBRANCH   3   7
BRANCH   3  10
HETATM   10  S10 UNL     1     -35.481  14.809  -6.507  1.00 20.00    -0.171 SA
HETATM   11  H28 UNL     1     -36.801  14.808  -6.762  1.00 20.00     0.102 HD
ENDBRANCH   3  10
TORSDOF 2
ENDMDL
MODEL 9
REMARK VINA RESULT:      -3.3      1.605      2.389
REMARK  2 active torsions:
REMARK  status: ('A' for Active; 'I' for Inactive)
REMARK    1  A    between atoms: C3_3  and  C9_9 
REMARK    2  A    between atoms: C3_3  and  S10_10 
ROOT
HETATM    1  C1  UNL     1     -33.401  15.808  -3.862  1.00 20.00     0.010 A 
HETATM    2  C2  UNL     1     -34.793  15.211  -3.725  1.00 20.00    -0.025 A 
HETATM    3  C3  UNL     1     -34.434  16.087  -4.949  1.00 20.00     0.019 A 
HETATM    4  C4  UNL     1     -32.871  16.857  -2.945  1.00 20.00     0.012 C 
HETATM    5  C5  UNL     1     -34.897  13.703  -3.864  1.00 20.00     0.017 C 
HETATM    6  C6  UNL     1     -35.760  15.736  -2.687  1.00 20.00     0.017 C 
ENDROOT
BRANCH   3   7
HETATM    7  C9  UNL     1     -35.023  17.470  -5.106  1.00 20.00    -0.003 C 
HETATM    8  C7  UNL     1     -34.047  18.407  -5.827  1.00 20.00     0.011 C 
HETATM    9  C8  UNL     1     -36.356  17.421  -5.860  1.00 20.00     0.011 C 
ENDBRANCH   3   7
BRANCH   3  10
HETATM   10  S10 UNL     1     -34.172  15.323  -6.532  1.00 20.00    -0.171 SA
HETATM   11  H28 UNL     1     -32.836  15.457  -6.578  1.00 20.00     0.102 HD
ENDBRANCH   3  10
TORSDOF 2
ENDMDL
