MODEL 1
REMARK VINA RESULT:      -4.2      0.000      0.000
REMARK  1 active torsions:
REMARK  status: ('A' for Active; 'I' for Inactive)
REMARK    1  A    between atoms: C7_7  and  N9_9 
ROOT
HETATM    1  C1  UNL     1     -24.525  18.916   7.674  1.00 20.00     0.004 A 
HETATM    2  C2  UNL     1     -25.434  19.197   8.613  1.00 20.00     0.042 A 
HETATM    3  C3  UNL     1     -23.265  18.324   8.018  1.00 20.00     0.018 A 
HETATM    4  C4  UNL     1     -22.986  18.046   9.296  1.00 20.00     0.097 A 
HETATM    5  C5  UNL     1     -25.153  18.896  10.062  1.00 20.00     0.106 A 
HETATM    6  N9  UNL     1     -23.889  18.315  10.316  1.00 20.00    -0.324 N 
HETATM    7  S10 UNL     1     -26.326  19.263  11.227  1.00 20.00    -0.060 SA
ENDROOT
BRANCH   6   8
HETATM    8  C7  UNL     1     -23.425  17.960  11.565  1.00 20.00     0.093 C 
HETATM    9  C6  UNL     1     -23.716  16.787  12.140  1.00 20.00    -0.013 C 
HETATM   10  C8  UNL     1     -24.568  15.742  11.499  1.00 20.00     0.037 C 
ENDBRANCH   6   8
TORSDOF 1
ENDMDL
MODEL 2
REMARK VINA RESULT:      -3.9     16.415     18.006
REMARK  1 active torsions:
REMARK  status: ('A' for Active; 'I' for Inactive)
REMARK    1  A    between atoms: C7_7  and  N9_9 
ROOT
HETATM    1  C1  UNL     1     -34.419  16.625  -1.916  1.00 20.00     0.004 A 
HETATM    2  C2  UNL     1     -35.480  15.969  -2.398  1.00 20.00     0.042 A 
HETATM    3  C3  UNL     1     -33.170  16.631  -2.621  1.00 20.00     0.018 A 
HETATM    4  C4  UNL     1     -33.056  15.973  -3.780  1.00 20.00     0.097 A 
HETATM    5  C5  UNL     1     -35.386  15.219  -3.702  1.00 20.00     0.106 A 
HETATM    6  N9  UNL     1     -34.122  15.274  -4.332  1.00 20.00    -0.324 N 
HETATM    7  S10 UNL     1     -36.749  14.401  -4.286  1.00 20.00    -0.060 SA
ENDROOT
BRANCH   6   8
HETATM    8  C7  UNL     1     -33.813  14.661  -5.527  1.00 20.00     0.093 C 
HETATM    9  C6  UNL     1     -34.027  15.239  -6.715  1.00 20.00    -0.013 C 
HETATM   10  C8  UNL     1     -34.619  16.600  -6.876  1.00 20.00     0.037 C 
ENDBRANCH   6   8
TORSDOF 1
ENDMDL
MODEL 3
REMARK VINA RESULT:      -3.7     13.914     15.426
REMARK  1 active torsions:
REMARK  status: ('A' for Active; 'I' for Inactive)
REMARK    1  A    between atoms: C7_7  and  N9_9 
ROOT
HETATM    1  C1  UNL     1     -34.404  15.302  -3.110  1.00 20.00     0.004 A 
HETATM    2  C2  UNL     1     -35.085  15.882  -2.117  1.00 20.00     0.042 A 
HETATM    3  C3  UNL     1     -33.294  15.964  -3.731  1.00 20.00     0.018 A 
HETATM    4  C4  UNL     1     -32.928  17.182  -3.316  1.00 20.00     0.097 A 
HETATM    5  C5  UNL     1     -34.698  17.252  -1.624  1.00 20.00     0.106 A 
HETATM    6  N9  UNL     1     -33.596  17.836  -2.289  1.00 20.00    -0.324 N 
HETATM    7  S10 UNL     1     -35.580  17.958  -0.362  1.00 20.00    -0.060 SA
ENDROOT
BRANCH   6   8
HETATM    8  C7  UNL     1     -33.075  19.080  -2.003  1.00 20.00     0.093 C 
HETATM    9  C6  UNL     1     -32.054  19.261  -1.156  1.00 20.00    -0.013 C 
HETATM   10  C8  UNL     1     -31.374  18.146  -0.433  1.00 20.00     0.037 C 
ENDBRANCH   6   8
TORSDOF 1
ENDMDL
MODEL 4
REMARK VINA RESULT:      -3.5     16.551     17.936
REMARK  1 active torsions:
REMARK  status: ('A' for Active; 'I' for Inactive)
REMARK    1  A    between atoms: C7_7  and  N9_9 
ROOT
HETATM    1  C1  UNL     1     -36.624  14.176  -4.919  1.00 20.00     0.004 A 
HETATM    2  C2  UNL     1     -36.621  15.474  -5.242  1.00 20.00     0.042 A 
HETATM    3  C3  UNL     1     -35.545  13.598  -4.172  1.00 20.00     0.018 A 
HETATM    4  C4  UNL     1     -34.516  14.362  -3.788  1.00 20.00     0.097 A 
HETATM    5  C5  UNL     1     -35.479  16.363  -4.824  1.00 20.00     0.106 A 
HETATM    6  N9  UNL     1     -34.456  15.716  -4.093  1.00 20.00    -0.324 N 
HETATM    7  S10 UNL     1     -35.508  18.002  -5.247  1.00 20.00    -0.060 SA
ENDROOT
BRANCH   6   8
HETATM    8  C7  UNL     1     -33.321  16.335  -3.615  1.00 20.00     0.093 C 
HETATM    9  C6  UNL     1     -33.270  16.928  -2.416  1.00 20.00    -0.013 C 
HETATM   10  C8  UNL     1     -34.426  16.986  -1.473  1.00 20.00     0.037 C 
ENDBRANCH   6   8
TORSDOF 1
ENDMDL
MODEL 5
REMARK VINA RESULT:      -3.5     14.795     15.804
REMARK  1 active torsions:
REMARK  status: ('A' for Active; 'I' for Inactive)
REMARK    1  A    between atoms: C7_7  and  N9_9 
ROOT
HETATM    1  C1  UNL     1     -33.144  16.243  -3.304  1.00 20.00     0.004 A 
HETATM    2  C2  UNL     1     -32.733  17.266  -2.547  1.00 20.00     0.042 A 
HETATM    3  C3  UNL     1     -34.374  15.563  -3.021  1.00 20.00     0.018 A 
HETATM    4  C4  UNL     1     -35.127  15.950  -1.985  1.00 20.00     0.097 A 
HETATM    5  C5  UNL     1     -33.557  17.729  -1.375  1.00 20.00     0.106 A 
HETATM    6  N9  UNL     1     -34.753  17.005  -1.163  1.00 20.00    -0.324 N 
HETATM    7  S10 UNL     1     -33.007  19.029  -0.438  1.00 20.00    -0.060 SA
ENDROOT
BRANCH   6   8
HETATM    8  C7  UNL     1     -35.654  17.256  -0.150  1.00 20.00     0.093 C 
HETATM    9  C6  UNL     1     -36.701  18.075  -0.299  1.00 20.00    -0.013 C 
HETATM   10  C8  UNL     1     -37.007  18.804  -1.566  1.00 20.00     0.037 C 
ENDBRANCH   6   8
TORSDOF 1
ENDMDL
MODEL 6
REMARK VINA RESULT:      -3.4     16.517     17.982
REMARK  1 active torsions:
REMARK  status: ('A' for Active; 'I' for Inactive)
REMARK    1  A    between atoms: C7_7  and  N9_9 
ROOT
HETATM    1  C1  UNL     1     -33.251  17.053  -2.519  1.00 20.00     0.004 A 
HETATM    2  C2  UNL     1     -33.338  17.107  -3.852  1.00 20.00     0.042 A 
HETATM    3  C3  UNL     1     -34.348  16.580  -1.725  1.00 20.00     0.018 A 
HETATM    4  C4  UNL     1     -35.481  16.188  -2.320  1.00 20.00     0.097 A 
HETATM    5  C5  UNL     1     -34.598  16.671  -4.554  1.00 20.00     0.106 A 
HETATM    6  N9  UNL     1     -35.631  16.221  -3.700  1.00 20.00    -0.324 N 
HETATM    7  S10 UNL     1     -34.674  16.751  -6.244  1.00 20.00    -0.060 SA
ENDROOT
BRANCH   6   8
HETATM    8  C7  UNL     1     -36.865  15.779  -4.127  1.00 20.00     0.093 C 
HETATM    9  C6  UNL     1     -37.094  14.512  -4.493  1.00 20.00    -0.013 C 
HETATM   10  C8  UNL     1     -36.048  13.447  -4.481  1.00 20.00     0.037 C 
ENDBRANCH   6   8
TORSDOF 1
ENDMDL
MODEL 7
REMARK VINA RESULT:      -3.4     16.629     18.072
REMARK  1 active torsions:
REMARK  status: ('A' for Active; 'I' for Inactive)
REMARK    1  A    between atoms: C7_7  and  N9_9 
ROOT
HETATM    1  C1  UNL     1     -33.835  17.850  -3.077  1.00 20.00     0.004 A 
HETATM    2  C2  UNL     1     -33.968  17.691  -4.398  1.00 20.00     0.042 A 
HETATM    3  C3  UNL     1     -34.120  16.776  -2.171  1.00 20.00     0.018 A 
HETATM    4  C4  UNL     1     -34.526  15.593  -2.646  1.00 20.00     0.097 A 
HETATM    5  C5  UNL     1     -34.422  16.372  -4.967  1.00 20.00     0.106 A 
HETATM    6  N9  UNL     1     -34.683  15.367  -4.007  1.00 20.00    -0.324 N 
HETATM    7  S10 UNL     1     -34.578  16.203  -6.645  1.00 20.00    -0.060 SA
ENDROOT
BRANCH   6   8
HETATM    8  C7  UNL     1     -35.109  14.090  -4.304  1.00 20.00     0.093 C 
HETATM    9  C6  UNL     1     -36.400  13.773  -4.453  1.00 20.00    -0.013 C 
HETATM   10  C8  UNL     1     -37.514  14.757  -4.314  1.00 20.00     0.037 C 
ENDBRANCH   6   8
TORSDOF 1
ENDMDL
MODEL 8
REMARK VINA RESULT:      -3.4     16.476     17.947
REMARK  1 active torsions:
REMARK  status: ('A' for Active; 'I' for Inactive)
REMARK    1  A    between atoms: C7_7  and  N9_9 
ROOT
HETATM    1  C1  UNL     1     -34.118  17.033  -1.734  1.00 20.00     0.004 A 
HETATM    2  C2  UNL     1     -35.420  17.238  -1.960  1.00 20.00     0.042 A 
HETATM    3  C3  UNL     1     -33.280  16.436  -2.733  1.00 20.00     0.018 A 
HETATM    4  C4  UNL     1     -33.801  16.073  -3.911  1.00 20.00     0.097 A 
HETATM    5  C5  UNL     1     -36.039  16.843  -3.275  1.00 20.00     0.106 A 
HETATM    6  N9  UNL     1     -35.146  16.260  -4.203  1.00 20.00    -0.324 N 
HETATM    7  S10 UNL     1     -37.691  17.118  -3.529  1.00 20.00    -0.060 SA
ENDROOT
BRANCH   6   8
HETATM    8  C7  UNL     1     -35.497  15.825  -5.464  1.00 20.00     0.093 C 
HETATM    9  C6  UNL     1     -35.971  14.596  -5.700  1.00 20.00    -0.013 C 
HETATM   10  C8  UNL     1     -36.169  13.568  -4.635  1.00 20.00     0.037 C 
ENDBRANCH   6   8
TORSDOF 1
ENDMDL
MODEL 9
REMARK VINA RESULT:      -3.4     17.172     18.571
REMARK  1 active torsions:
REMARK  status: ('A' for Active; 'I' for Inactive)
REMARK    1  A    between atoms: C7_7  and  N9_9 
ROOT
HETATM    1  C1  UNL     1     -34.290  16.328  -7.541  1.00 20.00     0.004 A 
HETATM    2  C2  UNL     1     -35.013  17.269  -6.925  1.00 20.00     0.042 A 
HETATM    3  C3  UNL     1     -33.942  15.108  -6.873  1.00 20.00     0.018 A 
HETATM    4  C4  UNL     1     -34.341  14.900  -5.613  1.00 20.00     0.097 A 
HETATM    5  C5  UNL     1     -35.479  17.067  -5.507  1.00 20.00     0.106 A 
HETATM    6  N9  UNL     1     -35.092  15.840  -4.920  1.00 20.00    -0.324 N 
HETATM    7  S10 UNL     1     -36.394  18.279  -4.756  1.00 20.00    -0.060 SA
ENDROOT
BRANCH   6   8
HETATM    8  C7  UNL     1     -35.408  15.450  -3.636  1.00 20.00     0.093 C 
HETATM    9  C6  UNL     1     -34.644  15.750  -2.580  1.00 20.00    -0.013 C 
HETATM   10  C8  UNL     1     -33.375  16.532  -2.672  1.00 20.00     0.037 C 
ENDBRANCH   6   8
TORSDOF 1
ENDMDL
