MODEL 1
REMARK VINA RESULT:      -5.3      0.000      0.000
REMARK  3 active torsions:
REMARK  status: ('A' for Active; 'I' for Inactive)
REMARK    1  A    between atoms: C1_1  and  C9_9 
REMARK    2  A    between atoms: C1_1  and  O11_11 
REMARK    3  A    between atoms: C8_8  and  C9_9 
ROOT
HETATM    1  C2  UNL     1     -33.300  16.730  -2.337  1.00 20.00     0.005 C 
HETATM    2  C3  UNL     1     -34.683  16.607  -1.675  1.00 20.00     0.005 C 
HETATM    3  C4  UNL     1     -34.383  17.423  -4.471  1.00 20.00     0.005 C 
HETATM    4  C5  UNL     1     -35.764  17.301  -3.811  1.00 20.00     0.005 C 
HETATM    5  C6  UNL     1     -33.576  16.300  -3.792  1.00 20.00    -0.010 C 
HETATM    6  C7  UNL     1     -35.577  16.123  -2.836  1.00 20.00    -0.010 C 
HETATM    7  C8  UNL     1     -34.613  15.187  -3.581  1.00 20.00     0.003 C 
ENDROOT
BRANCH   7   8
HETATM    8  C9  UNL     1     -35.155  14.521  -4.837  1.00 20.00     0.115 C 
BRANCH   8   9
HETATM    9  C1  UNL     1     -36.200  13.485  -4.517  1.00 20.00     0.139 C 
HETATM   10  O10 UNL     1     -37.410  13.650  -4.529  1.00 20.00    -0.650 OA
BRANCH   9  11
HETATM   11  O11 UNL     1     -35.601  12.306  -4.202  1.00 20.00    -0.776 OA
HETATM   12  H25 UNL     1     -34.639  12.324  -4.391  1.00 20.00     0.167 HD
ENDBRANCH   9  11
ENDBRANCH   8   9
ENDBRANCH   7   8
TORSDOF 3
ENDMDL
MODEL 2
REMARK VINA RESULT:      -5.1      0.971      1.495
REMARK  3 active torsions:
REMARK  status: ('A' for Active; 'I' for Inactive)
REMARK    1  A    between atoms: C1_1  and  C9_9 
REMARK    2  A    between atoms: C1_1  and  O11_11 
REMARK    3  A    between atoms: C8_8  and  C9_9 
ROOT
HETATM    1  C2  UNL     1     -34.884  17.113  -1.600  1.00 20.00     0.005 C 
HETATM    2  C3  UNL     1     -35.865  17.659  -2.652  1.00 20.00     0.005 C 
HETATM    3  C4  UNL     1     -33.285  16.498  -3.410  1.00 20.00     0.005 C 
HETATM    4  C5  UNL     1     -34.264  17.045  -4.461  1.00 20.00     0.005 C 
HETATM    5  C6  UNL     1     -34.223  15.925  -2.331  1.00 20.00    -0.010 C 
HETATM    6  C7  UNL     1     -35.641  16.717  -3.852  1.00 20.00    -0.010 C 
HETATM    7  C8  UNL     1     -35.409  15.376  -3.137  1.00 20.00     0.003 C 
ENDROOT
BRANCH   7   8
HETATM    8  C9  UNL     1     -35.123  14.177  -4.027  1.00 20.00     0.115 C 
BRANCH   8   9
HETATM    9  C1  UNL     1     -36.306  13.822  -4.889  1.00 20.00     0.139 C 
HETATM   10  O10 UNL     1     -37.453  13.648  -4.506  1.00 20.00    -0.650 OA
BRANCH   9  11
HETATM   11  O11 UNL     1     -35.919  13.716  -6.187  1.00 20.00    -0.776 OA
HETATM   12  H25 UNL     1     -35.242  13.017  -6.310  1.00 20.00     0.167 HD
ENDBRANCH   9  11
ENDBRANCH   8   9
ENDBRANCH   7   8
TORSDOF 3
ENDMDL
MODEL 3
REMARK VINA RESULT:      -5.0      0.991      1.881
REMARK  3 active torsions:
REMARK  status: ('A' for Active; 'I' for Inactive)
REMARK    1  A    between atoms: C1_1  and  C9_9 
REMARK    2  A    between atoms: C1_1  and  O11_11 
REMARK    3  A    between atoms: C8_8  and  C9_9 
ROOT
HETATM    1  C2  UNL     1     -34.403  17.707  -4.415  1.00 20.00     0.005 C 
HETATM    2  C3  UNL     1     -33.211  17.271  -3.547  1.00 20.00     0.005 C 
HETATM    3  C4  UNL     1     -35.972  16.659  -2.788  1.00 20.00     0.005 C 
HETATM    4  C5  UNL     1     -34.781  16.224  -1.919  1.00 20.00     0.005 C 
HETATM    5  C6  UNL     1     -35.410  16.555  -4.218  1.00 20.00    -0.010 C 
HETATM    6  C7  UNL     1     -33.686  15.926  -2.960  1.00 20.00    -0.010 C 
HETATM    7  C8  UNL     1     -34.467  15.345  -4.150  1.00 20.00     0.003 C 
ENDROOT
BRANCH   7   8
HETATM    8  C9  UNL     1     -35.123  13.990  -3.929  1.00 20.00     0.115 C 
BRANCH   8   9
HETATM    9  C1  UNL     1     -36.299  13.780  -4.846  1.00 20.00     0.139 C 
HETATM   10  O10 UNL     1     -37.470  13.688  -4.511  1.00 20.00    -0.650 OA
BRANCH   9  11
HETATM   11  O11 UNL     1     -35.873  13.702  -6.134  1.00 20.00    -0.776 OA
HETATM   12  H25 UNL     1     -35.107  13.097  -6.230  1.00 20.00     0.167 HD
ENDBRANCH   9  11
ENDBRANCH   8   9
ENDBRANCH   7   8
TORSDOF 3
ENDMDL
MODEL 4
REMARK VINA RESULT:      -5.0     16.318     18.028
REMARK  3 active torsions:
REMARK  status: ('A' for Active; 'I' for Inactive)
REMARK    1  A    between atoms: C1_1  and  C9_9 
REMARK    2  A    between atoms: C1_1  and  O11_11 
REMARK    3  A    between atoms: C8_8  and  C9_9 
ROOT
HETATM    1  C2  UNL     1     -24.663  15.778  11.537  1.00 20.00     0.005 C 
HETATM    2  C3  UNL     1     -25.585  16.841  12.158  1.00 20.00     0.005 C 
HETATM    3  C4  UNL     1     -22.737  17.350  11.708  1.00 20.00     0.005 C 
HETATM    4  C5  UNL     1     -23.658  18.411  12.330  1.00 20.00     0.005 C 
HETATM    5  C6  UNL     1     -23.668  16.626  10.717  1.00 20.00    -0.010 C 
HETATM    6  C7  UNL     1     -25.001  18.162  11.618  1.00 20.00    -0.010 C 
HETATM    7  C8  UNL     1     -24.585  17.743  10.199  1.00 20.00     0.003 C 
ENDROOT
BRANCH   7   8
HETATM    8  C9  UNL     1     -23.927  18.815   9.344  1.00 20.00     0.115 C 
BRANCH   8   9
HETATM    9  C1  UNL     1     -24.392  18.755   7.912  1.00 20.00     0.139 C 
HETATM   10  O10 UNL     1     -23.679  18.749   6.921  1.00 20.00    -0.650 OA
BRANCH   9  11
HETATM   11  O11 UNL     1     -25.749  18.708   7.868  1.00 20.00    -0.776 OA
HETATM   12  H25 UNL     1     -26.077  18.482   6.972  1.00 20.00     0.167 HD
ENDBRANCH   9  11
ENDBRANCH   8   9
ENDBRANCH   7   8
TORSDOF 3
ENDMDL
MODEL 5
REMARK VINA RESULT:      -4.6      1.872      1.982
REMARK  3 active torsions:
REMARK  status: ('A' for Active; 'I' for Inactive)
REMARK    1  A    between atoms: C1_1  and  C9_9 
REMARK    2  A    between atoms: C1_1  and  O11_11 
REMARK    3  A    between atoms: C8_8  and  C9_9 
ROOT
HETATM    1  C2  UNL     1     -33.074  17.729  -2.190  1.00 20.00     0.005 C 
HETATM    2  C3  UNL     1     -34.105  17.290  -1.135  1.00 20.00     0.005 C 
HETATM    3  C4  UNL     1     -34.840  17.651  -3.946  1.00 20.00     0.005 C 
HETATM    4  C5  UNL     1     -35.870  17.214  -2.893  1.00 20.00     0.005 C 
HETATM    5  C6  UNL     1     -33.541  16.983  -3.457  1.00 20.00    -0.010 C 
HETATM    6  C7  UNL     1     -35.032  16.350  -1.931  1.00 20.00    -0.010 C 
HETATM    7  C8  UNL     1     -34.023  15.653  -2.857  1.00 20.00     0.003 C 
ENDROOT
BRANCH   7   8
HETATM    8  C9  UNL     1     -34.593  14.639  -3.836  1.00 20.00     0.115 C 
BRANCH   8   9
HETATM    9  C1  UNL     1     -33.656  14.380  -4.987  1.00 20.00     0.139 C 
HETATM   10  O10 UNL     1     -33.850  14.671  -6.157  1.00 20.00    -0.650 OA
BRANCH   9  11
HETATM   11  O11 UNL     1     -32.533  13.761  -4.539  1.00 20.00    -0.776 OA
HETATM   12  H25 UNL     1     -31.741  14.332  -4.628  1.00 20.00     0.167 HD
ENDBRANCH   9  11
ENDBRANCH   8   9
ENDBRANCH   7   8
TORSDOF 3
ENDMDL
MODEL 6
REMARK VINA RESULT:      -4.5      1.527      2.567
REMARK  3 active torsions:
REMARK  status: ('A' for Active; 'I' for Inactive)
REMARK    1  A    between atoms: C1_1  and  C9_9 
REMARK    2  A    between atoms: C1_1  and  O11_11 
REMARK    3  A    between atoms: C8_8  and  C9_9 
ROOT
HETATM    1  C2  UNL     1     -34.042  16.132  -2.433  1.00 20.00     0.005 C 
HETATM    2  C3  UNL     1     -33.480  16.959  -3.602  1.00 20.00     0.005 C 
HETATM    3  C4  UNL     1     -34.358  14.189  -3.961  1.00 20.00     0.005 C 
HETATM    4  C5  UNL     1     -33.796  15.015  -5.128  1.00 20.00     0.005 C 
HETATM    5  C6  UNL     1     -35.100  15.244  -3.119  1.00 20.00    -0.010 C 
HETATM    6  C7  UNL     1     -34.287  16.440  -4.809  1.00 20.00    -0.010 C 
HETATM    7  C8  UNL     1     -35.665  16.212  -4.168  1.00 20.00     0.003 C 
ENDROOT
BRANCH   7   8
HETATM    8  C9  UNL     1     -36.751  15.662  -5.080  1.00 20.00     0.115 C 
BRANCH   8   9
HETATM    9  C1  UNL     1     -37.896  15.074  -4.298  1.00 20.00     0.139 C 
HETATM   10  O10 UNL     1     -38.295  13.921  -4.354  1.00 20.00    -0.650 OA
BRANCH   9  11
HETATM   11  O11 UNL     1     -38.445  16.024  -3.497  1.00 20.00    -0.776 OA
HETATM   12  H25 UNL     1     -37.761  16.528  -3.006  1.00 20.00     0.167 HD
ENDBRANCH   9  11
ENDBRANCH   8   9
ENDBRANCH   7   8
TORSDOF 3
ENDMDL
MODEL 7
REMARK VINA RESULT:      -4.5      1.672      2.560
REMARK  3 active torsions:
REMARK  status: ('A' for Active; 'I' for Inactive)
REMARK    1  A    between atoms: C1_1  and  C9_9 
REMARK    2  A    between atoms: C1_1  and  O11_11 
REMARK    3  A    between atoms: C8_8  and  C9_9 
ROOT
HETATM    1  C2  UNL     1     -35.055  15.827  -2.285  1.00 20.00     0.005 C 
HETATM    2  C3  UNL     1     -33.773  16.647  -2.509  1.00 20.00     0.005 C 
HETATM    3  C4  UNL     1     -34.208  14.076  -3.841  1.00 20.00     0.005 C 
HETATM    4  C5  UNL     1     -32.926  14.894  -4.065  1.00 20.00     0.005 C 
HETATM    5  C6  UNL     1     -35.283  15.164  -3.659  1.00 20.00    -0.010 C 
HETATM    6  C7  UNL     1     -33.427  16.348  -3.982  1.00 20.00    -0.010 C 
HETATM    7  C8  UNL     1     -34.829  16.283  -4.607  1.00 20.00     0.003 C 
ENDROOT
BRANCH   7   8
HETATM    8  C9  UNL     1     -34.891  15.973  -6.095  1.00 20.00     0.115 C 
BRANCH   8   9
HETATM    9  C1  UNL     1     -36.161  15.254  -6.467  1.00 20.00     0.139 C 
HETATM   10  O10 UNL     1     -37.293  15.707  -6.406  1.00 20.00    -0.650 OA
BRANCH   9  11
HETATM   11  O11 UNL     1     -35.873  13.995  -6.889  1.00 20.00    -0.776 OA
HETATM   12  H25 UNL     1     -34.994  13.947  -7.323  1.00 20.00     0.167 HD
ENDBRANCH   9  11
ENDBRANCH   8   9
ENDBRANCH   7   8
TORSDOF 3
ENDMDL
MODEL 8
REMARK VINA RESULT:      -4.5      1.796      2.333
REMARK  3 active torsions:
REMARK  status: ('A' for Active; 'I' for Inactive)
REMARK    1  A    between atoms: C1_1  and  C9_9 
REMARK    2  A    between atoms: C1_1  and  O11_11 
REMARK    3  A    between atoms: C8_8  and  C9_9 
ROOT
HETATM    1  C2  UNL     1     -35.116  16.163  -1.862  1.00 20.00     0.005 C 
HETATM    2  C3  UNL     1     -35.440  17.640  -2.145  1.00 20.00     0.005 C 
HETATM    3  C4  UNL     1     -32.941  16.414  -3.051  1.00 20.00     0.005 C 
HETATM    4  C5  UNL     1     -33.264  17.889  -3.333  1.00 20.00     0.005 C 
HETATM    5  C6  UNL     1     -34.324  15.740  -3.116  1.00 20.00    -0.010 C 
HETATM    6  C7  UNL     1     -34.792  17.876  -3.524  1.00 20.00    -0.010 C 
HETATM    7  C8  UNL     1     -35.059  16.528  -4.211  1.00 20.00     0.003 C 
ENDROOT
BRANCH   7   8
HETATM    8  C9  UNL     1     -34.525  16.374  -5.627  1.00 20.00     0.115 C 
BRANCH   8   9
HETATM    9  C1  UNL     1     -34.456  14.929  -6.047  1.00 20.00     0.139 C 
HETATM   10  O10 UNL     1     -35.400  14.162  -6.157  1.00 20.00    -0.650 OA
BRANCH   9  11
HETATM   11  O11 UNL     1     -33.166  14.580  -6.294  1.00 20.00    -0.776 OA
HETATM   12  H25 UNL     1     -32.734  14.195  -5.502  1.00 20.00     0.167 HD
ENDBRANCH   9  11
ENDBRANCH   8   9
ENDBRANCH   7   8
TORSDOF 3
ENDMDL
MODEL 9
REMARK VINA RESULT:      -4.5      3.892      5.124
REMARK  3 active torsions:
REMARK  status: ('A' for Active; 'I' for Inactive)
REMARK    1  A    between atoms: C1_1  and  C9_9 
REMARK    2  A    between atoms: C1_1  and  O11_11 
REMARK    3  A    between atoms: C8_8  and  C9_9 
ROOT
HETATM    1  C2  UNL     1     -35.055  15.828  -2.295  1.00 20.00     0.005 C 
HETATM    2  C3  UNL     1     -34.009  15.365  -3.324  1.00 20.00     0.005 C 
HETATM    3  C4  UNL     1     -34.973  18.129  -3.249  1.00 20.00     0.005 C 
HETATM    4  C5  UNL     1     -33.930  17.666  -4.278  1.00 20.00     0.005 C 
HETATM    5  C6  UNL     1     -34.631  17.284  -2.007  1.00 20.00    -0.010 C 
HETATM    6  C7  UNL     1     -33.120  16.613  -3.497  1.00 20.00    -0.010 C 
HETATM    7  C8  UNL     1     -33.101  17.163  -2.062  1.00 20.00     0.003 C 
ENDROOT
BRANCH   7   8
HETATM    8  C9  UNL     1     -32.315  18.447  -1.842  1.00 20.00     0.115 C 
BRANCH   8   9
HETATM    9  C1  UNL     1     -31.549  18.421  -0.545  1.00 20.00     0.139 C 
HETATM   10  O10 UNL     1     -30.335  18.353  -0.423  1.00 20.00    -0.650 OA
BRANCH   9  11
HETATM   11  O11 UNL     1     -32.411  18.483   0.503  1.00 20.00    -0.776 OA
HETATM   12  H25 UNL     1     -32.889  19.339   0.532  1.00 20.00     0.167 HD
ENDBRANCH   9  11
ENDBRANCH   8   9
ENDBRANCH   7   8
TORSDOF 3
ENDMDL
