MODEL 1
REMARK VINA RESULT:      -5.1      0.000      0.000
REMARK  1 active torsions:
REMARK  status: ('A' for Active; 'I' for Inactive)
REMARK    1  A    between atoms: C7_7  and  C11_11 
ROOT
HETATM    1  C1  UNL     1     -34.808  13.947  -3.929  1.00 20.00     0.131 C 
HETATM    2  C2  UNL     1     -33.559  14.682  -4.348  1.00 20.00     0.079 C 
HETATM    3  C3  UNL     1     -33.217  15.772  -3.344  1.00 20.00     0.017 C 
HETATM    4  C4  UNL     1     -35.237  17.200  -4.189  1.00 20.00     0.016 A 
HETATM    5  C5  UNL     1     -36.040  14.761  -3.566  1.00 20.00     0.056 C 
HETATM    6  C6  UNL     1     -35.773  16.195  -3.195  1.00 20.00     0.006 A 
HETATM    7  C7  UNL     1     -34.360  16.718  -3.053  1.00 20.00    -0.032 A 
HETATM    8  C8  UNL     1     -37.071  14.660  -4.685  1.00 20.00     0.018 C 
HETATM    9  O12 UNL     1     -34.853  12.715  -3.963  1.00 20.00    -0.298 OA
ENDROOT
BRANCH   7  10
HETATM   10  C11 UNL     1     -34.080  17.690  -1.936  1.00 20.00    -0.014 C 
HETATM   11  C9  UNL     1     -34.801  17.280  -0.644  1.00 20.00     0.010 C 
HETATM   12  C10 UNL     1     -32.574  17.818  -1.671  1.00 20.00     0.010 C 
ENDBRANCH   7  10
TORSDOF 1
ENDMDL
MODEL 2
REMARK VINA RESULT:      -4.9      1.989      3.018
REMARK  1 active torsions:
REMARK  status: ('A' for Active; 'I' for Inactive)
REMARK    1  A    between atoms: C7_7  and  C11_11 
ROOT
HETATM    1  C1  UNL     1     -36.118  15.222  -6.034  1.00 20.00     0.131 C 
HETATM    2  C2  UNL     1     -36.365  14.285  -4.879  1.00 20.00     0.079 C 
HETATM    3  C3  UNL     1     -35.861  14.892  -3.579  1.00 20.00     0.017 C 
HETATM    4  C4  UNL     1     -33.391  14.500  -4.340  1.00 20.00     0.016 A 
HETATM    5  C5  UNL     1     -34.725  15.805  -6.208  1.00 20.00     0.056 C 
HETATM    6  C6  UNL     1     -33.865  15.787  -4.974  1.00 20.00     0.006 A 
HETATM    7  C7  UNL     1     -34.423  15.355  -3.635  1.00 20.00    -0.032 A 
HETATM    8  C8  UNL     1     -34.027  15.128  -7.383  1.00 20.00     0.018 C 
HETATM    9  O12 UNL     1     -37.003  15.442  -6.865  1.00 20.00    -0.298 OA
ENDROOT
BRANCH   7  10
HETATM   10  C11 UNL     1     -33.974  16.110  -2.411  1.00 20.00    -0.014 C 
HETATM   11  C9  UNL     1     -33.212  17.388  -2.790  1.00 20.00     0.010 C 
HETATM   12  C10 UNL     1     -35.163  16.465  -1.507  1.00 20.00     0.010 C 
ENDBRANCH   7  10
TORSDOF 1
ENDMDL
MODEL 3
REMARK VINA RESULT:      -4.6      1.259      1.526
REMARK  1 active torsions:
REMARK  status: ('A' for Active; 'I' for Inactive)
REMARK    1  A    between atoms: C7_7  and  C11_11 
ROOT
HETATM    1  C1  UNL     1     -36.676  14.515  -4.352  1.00 20.00     0.131 C 
HETATM    2  C2  UNL     1     -35.200  14.237  -4.209  1.00 20.00     0.079 C 
HETATM    3  C3  UNL     1     -34.592  15.115  -3.126  1.00 20.00     0.017 C 
HETATM    4  C4  UNL     1     -34.808  17.205  -4.680  1.00 20.00     0.016 A 
HETATM    5  C5  UNL     1     -37.130  15.958  -4.499  1.00 20.00     0.056 C 
HETATM    6  C6  UNL     1     -36.148  16.991  -4.015  1.00 20.00     0.006 A 
HETATM    7  C7  UNL     1     -34.877  16.590  -3.299  1.00 20.00    -0.032 A 
HETATM    8  C8  UNL     1     -37.547  16.221  -5.942  1.00 20.00     0.018 C 
HETATM    9  O12 UNL     1     -37.484  13.587  -4.432  1.00 20.00    -0.298 OA
ENDROOT
BRANCH   7  10
HETATM   10  C11 UNL     1     -34.425  17.440  -2.141  1.00 20.00    -0.014 C 
HETATM   11  C9  UNL     1     -35.124  17.028  -0.838  1.00 20.00     0.010 C 
HETATM   12  C10 UNL     1     -32.903  17.370  -1.957  1.00 20.00     0.010 C 
ENDBRANCH   7  10
TORSDOF 1
ENDMDL
MODEL 4
REMARK VINA RESULT:      -4.5      2.228      4.452
REMARK  1 active torsions:
REMARK  status: ('A' for Active; 'I' for Inactive)
REMARK    1  A    between atoms: C7_7  and  C11_11 
ROOT
HETATM    1  C1  UNL     1     -33.848  17.609  -0.970  1.00 20.00     0.131 C 
HETATM    2  C2  UNL     1     -35.241  17.220  -1.404  1.00 20.00     0.079 C 
HETATM    3  C3  UNL     1     -35.196  16.015  -2.330  1.00 20.00     0.017 C 
HETATM    4  C4  UNL     1     -34.212  17.504  -4.240  1.00 20.00     0.016 A 
HETATM    5  C5  UNL     1     -32.780  17.779  -2.038  1.00 20.00     0.056 C 
HETATM    6  C6  UNL     1     -33.065  17.092  -3.345  1.00 20.00     0.006 A 
HETATM    7  C7  UNL     1     -34.262  16.180  -3.507  1.00 20.00    -0.032 A 
HETATM    8  C8  UNL     1     -32.487  19.262  -2.241  1.00 20.00     0.018 C 
HETATM    9  O12 UNL     1     -33.608  17.864   0.212  1.00 20.00    -0.298 OA
ENDROOT
BRANCH   7  10
HETATM   10  C11 UNL     1     -34.085  14.929  -4.328  1.00 20.00    -0.014 C 
HETATM   11  C9  UNL     1     -32.630  14.441  -4.299  1.00 20.00     0.010 C 
HETATM   12  C10 UNL     1     -35.018  13.809  -3.847  1.00 20.00     0.010 C 
ENDBRANCH   7  10
TORSDOF 1
ENDMDL
MODEL 5
REMARK VINA RESULT:      -4.4      2.245      4.111
REMARK  1 active torsions:
REMARK  status: ('A' for Active; 'I' for Inactive)
REMARK    1  A    between atoms: C7_7  and  C11_11 
ROOT
HETATM    1  C1  UNL     1     -36.218  17.734  -2.345  1.00 20.00     0.131 C 
HETATM    2  C2  UNL     1     -35.631  18.182  -3.661  1.00 20.00     0.079 C 
HETATM    3  C3  UNL     1     -35.176  16.984  -4.480  1.00 20.00     0.017 C 
HETATM    4  C4  UNL     1     -33.163  16.620  -2.854  1.00 20.00     0.016 A 
HETATM    5  C5  UNL     1     -35.422  16.759  -1.493  1.00 20.00     0.056 C 
HETATM    6  C6  UNL     1     -34.376  15.969  -2.231  1.00 20.00     0.006 A 
HETATM    7  C7  UNL     1     -34.251  16.048  -3.737  1.00 20.00    -0.032 A 
HETATM    8  C8  UNL     1     -34.824  17.492  -0.296  1.00 20.00     0.018 C 
HETATM    9  O12 UNL     1     -37.277  18.214  -1.935  1.00 20.00    -0.298 OA
ENDROOT
BRANCH   7  10
HETATM   10  C11 UNL     1     -33.938  14.777  -4.483  1.00 20.00    -0.014 C 
HETATM   11  C9  UNL     1     -34.871  13.635  -4.058  1.00 20.00     0.010 C 
HETATM   12  C10 UNL     1     -34.029  14.984  -6.002  1.00 20.00     0.010 C 
ENDBRANCH   7  10
TORSDOF 1
ENDMDL
MODEL 6
REMARK VINA RESULT:      -4.4      1.575      2.272
REMARK  1 active torsions:
REMARK  status: ('A' for Active; 'I' for Inactive)
REMARK    1  A    between atoms: C7_7  and  C11_11 
ROOT
HETATM    1  C1  UNL     1     -33.383  15.886  -3.354  1.00 20.00     0.131 C 
HETATM    2  C2  UNL     1     -32.965  17.335  -3.411  1.00 20.00     0.079 C 
HETATM    3  C3  UNL     1     -33.038  17.968  -2.030  1.00 20.00     0.017 C 
HETATM    4  C4  UNL     1     -35.650  17.942  -2.142  1.00 20.00     0.016 A 
HETATM    5  C5  UNL     1     -34.689  15.536  -2.661  1.00 20.00     0.056 C 
HETATM    6  C6  UNL     1     -35.198  16.571  -1.694  1.00 20.00     0.006 A 
HETATM    7  C7  UNL     1     -34.373  17.790  -1.343  1.00 20.00    -0.032 A 
HETATM    8  C8  UNL     1     -35.745  15.182  -3.702  1.00 20.00     0.018 C 
HETATM    9  O12 UNL     1     -32.721  15.020  -3.930  1.00 20.00    -0.298 OA
ENDROOT
BRANCH   7  10
HETATM   10  C11 UNL     1     -34.393  18.263   0.087  1.00 20.00    -0.014 C 
HETATM   11  C9  UNL     1     -35.163  17.288   0.989  1.00 20.00     0.010 C 
HETATM   12  C10 UNL     1     -32.971  18.459   0.631  1.00 20.00     0.010 C 
ENDBRANCH   7  10
TORSDOF 1
ENDMDL
MODEL 7
REMARK VINA RESULT:      -4.4      1.376      1.700
REMARK  1 active torsions:
REMARK  status: ('A' for Active; 'I' for Inactive)
REMARK    1  A    between atoms: C7_7  and  C11_11 
ROOT
HETATM    1  C1  UNL     1     -35.590  13.965  -4.548  1.00 20.00     0.131 C 
HETATM    2  C2  UNL     1     -34.344  14.256  -3.749  1.00 20.00     0.079 C 
HETATM    3  C3  UNL     1     -34.561  15.453  -2.837  1.00 20.00     0.017 C 
HETATM    4  C4  UNL     1     -34.510  17.053  -4.903  1.00 20.00     0.016 A 
HETATM    5  C5  UNL     1     -36.254  15.109  -5.296  1.00 20.00     0.056 C 
HETATM    6  C6  UNL     1     -35.907  16.486  -4.799  1.00 20.00     0.006 A 
HETATM    7  C7  UNL     1     -35.077  16.683  -3.549  1.00 20.00    -0.032 A 
HETATM    8  C8  UNL     1     -35.983  14.973  -6.791  1.00 20.00     0.018 C 
HETATM    9  O12 UNL     1     -36.009  12.810  -4.659  1.00 20.00    -0.298 OA
ENDROOT
BRANCH   7  10
HETATM   10  C11 UNL     1     -35.455  17.812  -2.626  1.00 20.00    -0.014 C 
HETATM   11  C9  UNL     1     -36.969  17.849  -2.378  1.00 20.00     0.010 C 
HETATM   12  C10 UNL     1     -34.712  17.710  -1.286  1.00 20.00     0.010 C 
ENDBRANCH   7  10
TORSDOF 1
ENDMDL
MODEL 8
REMARK VINA RESULT:      -4.3      1.407      2.011
REMARK  1 active torsions:
REMARK  status: ('A' for Active; 'I' for Inactive)
REMARK    1  A    between atoms: C7_7  and  C11_11 
ROOT
HETATM    1  C1  UNL     1     -34.121  15.252  -5.254  1.00 20.00     0.131 C 
HETATM    2  C2  UNL     1     -34.520  16.697  -5.428  1.00 20.00     0.079 C 
HETATM    3  C3  UNL     1     -34.074  17.523  -4.232  1.00 20.00     0.017 C 
HETATM    4  C4  UNL     1     -35.925  16.413  -2.759  1.00 20.00     0.016 A 
HETATM    5  C5  UNL     1     -34.471  14.557  -3.949  1.00 20.00     0.056 C 
HETATM    6  C6  UNL     1     -34.741  15.475  -2.787  1.00 20.00     0.006 A 
HETATM    7  C7  UNL     1     -34.524  16.968  -2.900  1.00 20.00    -0.032 A 
HETATM    8  C8  UNL     1     -35.628  13.591  -4.175  1.00 20.00     0.018 C 
HETATM    9  O12 UNL     1     -33.599  14.629  -6.182  1.00 20.00    -0.298 OA
ENDROOT
BRANCH   7  10
HETATM   10  C11 UNL     1     -33.942  17.685  -1.710  1.00 20.00    -0.014 C 
HETATM   11  C9  UNL     1     -32.407  17.711  -1.768  1.00 20.00     0.010 C 
HETATM   12  C10 UNL     1     -34.480  19.118  -1.603  1.00 20.00     0.010 C 
ENDBRANCH   7  10
TORSDOF 1
ENDMDL
MODEL 9
REMARK VINA RESULT:      -4.0      1.658      2.645
REMARK  1 active torsions:
REMARK  status: ('A' for Active; 'I' for Inactive)
REMARK    1  A    between atoms: C7_7  and  C11_11 
ROOT
HETATM    1  C1  UNL     1     -33.689  14.587  -4.449  1.00 20.00     0.131 C 
HETATM    2  C2  UNL     1     -33.270  15.649  -3.462  1.00 20.00     0.079 C 
HETATM    3  C3  UNL     1     -34.485  16.389  -2.925  1.00 20.00     0.017 C 
HETATM    4  C4  UNL     1     -34.786  17.591  -5.227  1.00 20.00     0.016 A 
HETATM    5  C5  UNL     1     -34.633  14.977  -5.575  1.00 20.00     0.056 C 
HETATM    6  C6  UNL     1     -35.432  16.229  -5.336  1.00 20.00     0.006 A 
HETATM    7  C7  UNL     1     -35.392  16.942  -4.001  1.00 20.00    -0.032 A 
HETATM    8  C8  UNL     1     -33.862  15.052  -6.889  1.00 20.00     0.018 C 
HETATM    9  O12 UNL     1     -33.209  13.453  -4.391  1.00 20.00    -0.298 OA
ENDROOT
BRANCH   7  10
HETATM   10  C11 UNL     1     -36.680  17.524  -3.477  1.00 20.00    -0.014 C 
HETATM   11  C9  UNL     1     -37.871  16.601  -3.772  1.00 20.00     0.010 C 
HETATM   12  C10 UNL     1     -36.596  17.797  -1.969  1.00 20.00     0.010 C 
ENDBRANCH   7  10
TORSDOF 1
ENDMDL
