MODEL 1
REMARK VINA RESULT:      -4.9      0.000      0.000
REMARK  3 active torsions:
REMARK  status: ('A' for Active; 'I' for Inactive)
REMARK    1  A    between atoms: C2_2  and  C6_6 
REMARK    2  A    between atoms: C3_3  and  C7_7 
REMARK    3  A    between atoms: C7_7  and  C8_8 
ROOT
HETATM    1  C1  UNL     1     -33.088   5.350   2.629  1.00 20.00     0.100 C 
HETATM    2  C2  UNL     1     -32.752   7.873   2.377  1.00 20.00     0.172 A 
HETATM    3  C3  UNL     1     -33.099   6.659   3.212  1.00 20.00     0.175 A 
HETATM    4  N9  UNL     1     -33.080   4.290   2.157  1.00 20.00    -0.194 NA
HETATM    5  O10 UNL     1     -31.797   7.266   3.253  1.00 20.00    -0.353 OA
ENDROOT
BRANCH   3   6
HETATM    6  C7  UNL     1     -33.880   6.840   4.474  1.00 20.00     0.056 C 
BRANCH   6   7
HETATM    7  C8  UNL     1     -34.893   5.708   4.703  1.00 20.00    -0.000 C 
HETATM    8  C5  UNL     1     -34.767   5.090   6.087  1.00 20.00     0.005 C 
ENDBRANCH   6   7
ENDBRANCH   3   6
BRANCH   2   9
HETATM    9  C6  UNL     1     -32.397   7.802   0.934  1.00 20.00     0.032 C 
HETATM   10  C4  UNL     1     -33.116   8.831   0.096  1.00 20.00     0.007 C 
ENDBRANCH   2   9
TORSDOF 3
ENDMDL
MODEL 2
REMARK VINA RESULT:      -4.4     10.952     11.634
REMARK  3 active torsions:
REMARK  status: ('A' for Active; 'I' for Inactive)
REMARK    1  A    between atoms: C2_2  and  C6_6 
REMARK    2  A    between atoms: C3_3  and  C7_7 
REMARK    3  A    between atoms: C7_7  and  C8_8 
ROOT
HETATM    1  C1  UNL     1     -36.139  14.183  -4.370  1.00 20.00     0.100 C 
HETATM    2  C2  UNL     1     -34.066  15.126  -5.535  1.00 20.00     0.172 A 
HETATM    3  C3  UNL     1     -34.825  14.748  -4.281  1.00 20.00     0.175 A 
HETATM    4  N9  UNL     1     -37.203  13.725  -4.443  1.00 20.00    -0.194 NA
HETATM    5  O10 UNL     1     -33.809  13.900  -4.842  1.00 20.00    -0.353 OA
ENDROOT
BRANCH   3   6
HETATM    6  C7  UNL     1     -34.432  15.365  -2.976  1.00 20.00     0.056 C 
BRANCH   6   7
HETATM    7  C8  UNL     1     -35.532  16.271  -2.403  1.00 20.00    -0.000 C 
HETATM    8  C5  UNL     1     -35.170  16.825  -1.034  1.00 20.00     0.005 C 
ENDBRANCH   6   7
ENDBRANCH   3   6
BRANCH   2   9
HETATM    9  C6  UNL     1     -34.612  14.955  -6.909  1.00 20.00     0.032 C 
HETATM   10  C4  UNL     1     -34.045  15.942  -7.898  1.00 20.00     0.007 C 
ENDBRANCH   2   9
TORSDOF 3
ENDMDL
MODEL 3
REMARK VINA RESULT:      -4.0     11.031     11.934
REMARK  3 active torsions:
REMARK  status: ('A' for Active; 'I' for Inactive)
REMARK    1  A    between atoms: C2_2  and  C6_6 
REMARK    2  A    between atoms: C3_3  and  C7_7 
REMARK    3  A    between atoms: C7_7  and  C8_8 
ROOT
HETATM    1  C1  UNL     1     -35.943  13.906  -4.232  1.00 20.00     0.100 C 
HETATM    2  C2  UNL     1     -37.280  16.072  -3.968  1.00 20.00     0.172 A 
HETATM    3  C3  UNL     1     -36.031  15.246  -3.734  1.00 20.00     0.175 A 
HETATM    4  N9  UNL     1     -35.872  12.820  -4.636  1.00 20.00    -0.194 NA
HETATM    5  O10 UNL     1     -36.110  16.231  -4.779  1.00 20.00    -0.353 OA
ENDROOT
BRANCH   3   6
HETATM    6  C7  UNL     1     -35.102  15.628  -2.626  1.00 20.00     0.056 C 
BRANCH   6   7
HETATM    7  C8  UNL     1     -33.664  15.849  -3.119  1.00 20.00    -0.000 C 
HETATM    8  C5  UNL     1     -33.028  17.088  -2.509  1.00 20.00     0.005 C 
ENDBRANCH   6   7
ENDBRANCH   3   6
BRANCH   2   9
HETATM    9  C6  UNL     1     -38.472  15.565  -4.700  1.00 20.00     0.032 C 
HETATM   10  C4  UNL     1     -39.699  15.460  -3.829  1.00 20.00     0.007 C 
ENDBRANCH   2   9
TORSDOF 3
ENDMDL
MODEL 4
REMARK VINA RESULT:      -4.0     11.097     12.422
REMARK  3 active torsions:
REMARK  status: ('A' for Active; 'I' for Inactive)
REMARK    1  A    between atoms: C2_2  and  C6_6 
REMARK    2  A    between atoms: C3_3  and  C7_7 
REMARK    3  A    between atoms: C7_7  and  C8_8 
ROOT
HETATM    1  C1  UNL     1     -36.001  13.832  -4.661  1.00 20.00     0.100 C 
HETATM    2  C2  UNL     1     -35.593  16.213  -3.820  1.00 20.00     0.172 A 
HETATM    3  C3  UNL     1     -36.154  15.245  -4.840  1.00 20.00     0.175 A 
HETATM    4  N9  UNL     1     -35.877  12.687  -4.515  1.00 20.00    -0.194 NA
HETATM    5  O10 UNL     1     -36.979  15.853  -3.832  1.00 20.00    -0.353 OA
ENDROOT
BRANCH   3   6
HETATM    6  C7  UNL     1     -36.448  15.731  -6.223  1.00 20.00     0.056 C 
BRANCH   6   7
HETATM    7  C8  UNL     1     -35.642  14.978  -7.292  1.00 20.00    -0.000 C 
HETATM    8  C5  UNL     1     -34.231  15.524  -7.443  1.00 20.00     0.005 C 
ENDBRANCH   6   7
ENDBRANCH   3   6
BRANCH   2   9
HETATM    9  C6  UNL     1     -34.856  15.784  -2.600  1.00 20.00     0.032 C 
HETATM   10  C4  UNL     1     -33.639  16.628  -2.318  1.00 20.00     0.007 C 
ENDBRANCH   2   9
TORSDOF 3
ENDMDL
MODEL 5
REMARK VINA RESULT:      -3.9     10.902     11.915
REMARK  3 active torsions:
REMARK  status: ('A' for Active; 'I' for Inactive)
REMARK    1  A    between atoms: C2_2  and  C6_6 
REMARK    2  A    between atoms: C3_3  and  C7_7 
REMARK    3  A    between atoms: C7_7  and  C8_8 
ROOT
HETATM    1  C1  UNL     1     -36.093  14.469  -6.215  1.00 20.00     0.100 C 
HETATM    2  C2  UNL     1     -35.167  14.025  -3.872  1.00 20.00     0.172 A 
HETATM    3  C3  UNL     1     -36.325  14.136  -4.841  1.00 20.00     0.175 A 
HETATM    4  N9  UNL     1     -35.905  14.740  -7.328  1.00 20.00    -0.194 NA
HETATM    5  O10 UNL     1     -35.762  12.867  -4.468  1.00 20.00    -0.353 OA
ENDROOT
BRANCH   3   6
HETATM    6  C7  UNL     1     -37.705  14.354  -4.307  1.00 20.00     0.056 C 
BRANCH   6   7
HETATM    7  C8  UNL     1     -38.257  15.744  -4.663  1.00 20.00    -0.000 C 
HETATM    8  C5  UNL     1     -37.700  16.834  -3.763  1.00 20.00     0.005 C 
ENDBRANCH   6   7
ENDBRANCH   3   6
BRANCH   2   9
HETATM    9  C6  UNL     1     -33.749  14.257  -4.258  1.00 20.00     0.032 C 
HETATM   10  C4  UNL     1     -33.191  15.548  -3.713  1.00 20.00     0.007 C 
ENDBRANCH   2   9
TORSDOF 3
ENDMDL
MODEL 6
REMARK VINA RESULT:      -3.8     11.225     12.429
REMARK  3 active torsions:
REMARK  status: ('A' for Active; 'I' for Inactive)
REMARK    1  A    between atoms: C2_2  and  C6_6 
REMARK    2  A    between atoms: C3_3  and  C7_7 
REMARK    3  A    between atoms: C7_7  and  C8_8 
ROOT
HETATM    1  C1  UNL     1     -37.321  14.446  -4.656  1.00 20.00     0.100 C 
HETATM    2  C2  UNL     1     -35.738  15.430  -6.409  1.00 20.00     0.172 A 
HETATM    3  C3  UNL     1     -35.989  14.618  -5.154  1.00 20.00     0.175 A 
HETATM    4  N9  UNL     1     -38.400  14.306  -4.253  1.00 20.00    -0.194 NA
HETATM    5  O10 UNL     1     -35.783  13.999  -6.435  1.00 20.00    -0.353 OA
ENDROOT
BRANCH   3   6
HETATM    6  C7  UNL     1     -34.864  14.390  -4.196  1.00 20.00     0.056 C 
BRANCH   6   7
HETATM    7  C8  UNL     1     -34.918  15.345  -2.994  1.00 20.00    -0.000 C 
HETATM    8  C5  UNL     1     -33.574  15.999  -2.714  1.00 20.00     0.005 C 
ENDBRANCH   6   7
ENDBRANCH   3   6
BRANCH   2   9
HETATM    9  C6  UNL     1     -36.818  16.095  -7.185  1.00 20.00     0.032 C 
HETATM   10  C4  UNL     1     -36.607  17.581  -7.339  1.00 20.00     0.007 C 
ENDBRANCH   2   9
TORSDOF 3
ENDMDL
MODEL 7
REMARK VINA RESULT:      -3.8      1.014      4.104
REMARK  3 active torsions:
REMARK  status: ('A' for Active; 'I' for Inactive)
REMARK    1  A    between atoms: C2_2  and  C6_6 
REMARK    2  A    between atoms: C3_3  and  C7_7 
REMARK    3  A    between atoms: C7_7  and  C8_8 
ROOT
HETATM    1  C1  UNL     1     -33.123   5.344   2.814  1.00 20.00     0.100 C 
HETATM    2  C2  UNL     1     -33.419   6.847   4.863  1.00 20.00     0.172 A 
HETATM    3  C3  UNL     1     -33.079   6.651   3.401  1.00 20.00     0.175 A 
HETATM    4  N9  UNL     1     -33.159   4.286   2.339  1.00 20.00    -0.194 NA
HETATM    5  O10 UNL     1     -34.369   7.119   3.828  1.00 20.00    -0.353 OA
ENDROOT
BRANCH   3   6
HETATM    6  C7  UNL     1     -32.271   7.692   2.693  1.00 20.00     0.056 C 
BRANCH   6   7
HETATM    7  C8  UNL     1     -32.529   7.703   1.179  1.00 20.00    -0.000 C 
HETATM    8  C5  UNL     1     -32.921   9.080   0.669  1.00 20.00     0.005 C 
ENDBRANCH   6   7
ENDBRANCH   3   6
BRANCH   2   9
HETATM    9  C6  UNL     1     -33.801   5.734   5.773  1.00 20.00     0.032 C 
HETATM   10  C4  UNL     1     -35.196   5.217   5.522  1.00 20.00     0.007 C 
ENDBRANCH   2   9
TORSDOF 3
ENDMDL
MODEL 8
REMARK VINA RESULT:      -3.7     11.402     12.094
REMARK  3 active torsions:
REMARK  status: ('A' for Active; 'I' for Inactive)
REMARK    1  A    between atoms: C2_2  and  C6_6 
REMARK    2  A    between atoms: C3_3  and  C7_7 
REMARK    3  A    between atoms: C7_7  and  C8_8 
ROOT
HETATM    1  C1  UNL     1     -31.797  18.336  -0.470  1.00 20.00     0.100 C 
HETATM    2  C2  UNL     1     -34.068  17.485  -1.285  1.00 20.00     0.172 A 
HETATM    3  C3  UNL     1     -33.219  18.272  -0.308  1.00 20.00     0.175 A 
HETATM    4  N9  UNL     1     -30.645  18.389  -0.602  1.00 20.00    -0.194 NA
HETATM    5  O10 UNL     1     -33.936  18.908  -1.379  1.00 20.00    -0.353 OA
ENDROOT
BRANCH   3   6
HETATM    6  C7  UNL     1     -33.768  18.587   1.047  1.00 20.00     0.056 C 
BRANCH   6   7
HETATM    7  C8  UNL     1     -32.662  18.804   2.091  1.00 20.00    -0.000 C 
HETATM    8  C5  UNL     1     -32.608  17.684   3.117  1.00 20.00     0.005 C 
ENDBRANCH   6   7
ENDBRANCH   3   6
BRANCH   2   9
HETATM    9  C6  UNL     1     -33.506  16.737  -2.442  1.00 20.00     0.032 C 
HETATM   10  C4  UNL     1     -34.386  15.597  -2.892  1.00 20.00     0.007 C 
ENDBRANCH   2   9
TORSDOF 3
ENDMDL
MODEL 9
REMARK VINA RESULT:      -3.7      9.689     10.198
REMARK  3 active torsions:
REMARK  status: ('A' for Active; 'I' for Inactive)
REMARK    1  A    between atoms: C2_2  and  C6_6 
REMARK    2  A    between atoms: C3_3  and  C7_7 
REMARK    3  A    between atoms: C7_7  and  C8_8 
ROOT
HETATM    1  C1  UNL     1     -42.797   5.291   0.446  1.00 20.00     0.100 C 
HETATM    2  C2  UNL     1     -41.303   7.064  -0.636  1.00 20.00     0.172 A 
HETATM    3  C3  UNL     1     -42.033   5.737  -0.681  1.00 20.00     0.175 A 
HETATM    4  N9  UNL     1     -43.417   4.930   1.358  1.00 20.00    -0.194 NA
HETATM    5  O10 UNL     1     -42.569   6.924  -1.290  1.00 20.00    -0.353 OA
ENDROOT
BRANCH   3   6
HETATM    6  C7  UNL     1     -41.604   4.702  -1.671  1.00 20.00     0.056 C 
BRANCH   6   7
HETATM    7  C8  UNL     1     -42.794   3.935  -2.267  1.00 20.00    -0.000 C 
HETATM    8  C5  UNL     1     -42.362   2.922  -3.316  1.00 20.00     0.005 C 
ENDBRANCH   6   7
ENDBRANCH   3   6
BRANCH   2   9
HETATM    9  C6  UNL     1     -41.316   7.968   0.546  1.00 20.00     0.032 C 
HETATM   10  C4  UNL     1     -41.519   9.417   0.179  1.00 20.00     0.007 C 
ENDBRANCH   2   9
TORSDOF 3
ENDMDL
