MODEL 1
REMARK VINA RESULT:      -4.4      0.000      0.000
REMARK  1 active torsions:
REMARK  status: ('A' for Active; 'I' for Inactive)
REMARK    1  A    between atoms: C7_7  and  C10_10 
ROOT
HETATM    1  C1  UNL     1     -33.986  15.175  -5.455  1.00 20.00    -0.018 C 
HETATM    2  C2  UNL     1     -34.666  16.308  -5.204  1.00 20.00    -0.024 C 
HETATM    3  C3  UNL     1     -35.554  13.905  -4.188  1.00 20.00     0.139 C 
HETATM    4  C4  UNL     1     -34.111  15.396  -3.151  1.00 20.00     0.025 C 
HETATM    5  C5  UNL     1     -34.085  14.308  -4.229  1.00 20.00     0.078 C 
HETATM    6  C6  UNL     1     -35.254  16.188  -3.810  1.00 20.00     0.020 C 
HETATM    7  C7  UNL     1     -36.394  15.128  -3.791  1.00 20.00     0.067 C 
HETATM    8  O11 UNL     1     -35.994  12.802  -4.476  1.00 20.00    -0.297 OA
ENDROOT
BRANCH   7   9
HETATM    9  C10 UNL     1     -37.545  15.399  -4.738  1.00 20.00    -0.011 C 
HETATM   10  C8  UNL     1     -38.809  14.660  -4.291  1.00 20.00     0.010 C 
HETATM   11  C9  UNL     1     -37.823  16.902  -4.847  1.00 20.00     0.010 C 
ENDBRANCH   7   9
TORSDOF 1
ENDMDL
MODEL 2
REMARK VINA RESULT:      -4.4      1.584      3.408
REMARK  1 active torsions:
REMARK  status: ('A' for Active; 'I' for Inactive)
REMARK    1  A    between atoms: C7_7  and  C10_10 
ROOT
HETATM    1  C1  UNL     1     -36.476  13.745  -4.822  1.00 20.00    -0.018 C 
HETATM    2  C2  UNL     1     -36.872  14.664  -3.925  1.00 20.00    -0.024 C 
HETATM    3  C3  UNL     1     -34.481  14.972  -5.261  1.00 20.00     0.139 C 
HETATM    4  C4  UNL     1     -36.552  15.782  -5.925  1.00 20.00     0.025 C 
HETATM    5  C5  UNL     1     -35.758  14.472  -5.927  1.00 20.00     0.078 C 
HETATM    6  C6  UNL     1     -36.388  16.017  -4.413  1.00 20.00     0.020 C 
HETATM    7  C7  UNL     1     -34.839  16.113  -4.297  1.00 20.00     0.067 C 
HETATM    8  O11 UNL     1     -33.366  14.504  -5.429  1.00 20.00    -0.297 OA
ENDROOT
BRANCH   7   9
HETATM    9  C10 UNL     1     -34.281  15.917  -2.902  1.00 20.00    -0.011 C 
HETATM   10  C8  UNL     1     -32.915  16.594  -2.757  1.00 20.00     0.010 C 
HETATM   11  C9  UNL     1     -35.250  16.453  -1.844  1.00 20.00     0.010 C 
ENDBRANCH   7   9
TORSDOF 1
ENDMDL
MODEL 3
REMARK VINA RESULT:      -4.4     18.211     19.811
REMARK  1 active torsions:
REMARK  status: ('A' for Active; 'I' for Inactive)
REMARK    1  A    between atoms: C7_7  and  C10_10 
ROOT
HETATM    1  C1  UNL     1     -24.653  18.565  11.952  1.00 20.00    -0.018 C 
HETATM    2  C2  UNL     1     -25.095  18.381  10.696  1.00 20.00    -0.024 C 
HETATM    3  C3  UNL     1     -22.615  17.441  11.445  1.00 20.00     0.139 C 
HETATM    4  C4  UNL     1     -24.624  16.284  11.550  1.00 20.00     0.025 C 
HETATM    5  C5  UNL     1     -23.851  17.351  12.332  1.00 20.00     0.078 C 
HETATM    6  C6  UNL     1     -24.559  17.046  10.215  1.00 20.00     0.020 C 
HETATM    7  C7  UNL     1     -23.020  17.126   9.997  1.00 20.00     0.067 C 
HETATM    8  O11 UNL     1     -21.498  17.763  11.818  1.00 20.00    -0.297 OA
ENDROOT
BRANCH   7   9
HETATM    9  C10 UNL     1     -22.560  18.174   9.004  1.00 20.00    -0.011 C 
HETATM   10  C8  UNL     1     -21.304  17.713   8.261  1.00 20.00     0.010 C 
HETATM   11  C9  UNL     1     -23.672  18.507   8.004  1.00 20.00     0.010 C 
ENDBRANCH   7   9
TORSDOF 1
ENDMDL
MODEL 4
REMARK VINA RESULT:      -4.3      1.737      3.263
REMARK  1 active torsions:
REMARK  status: ('A' for Active; 'I' for Inactive)
REMARK    1  A    between atoms: C7_7  and  C10_10 
ROOT
HETATM    1  C1  UNL     1     -35.474  15.159  -5.909  1.00 20.00    -0.018 C 
HETATM    2  C2  UNL     1     -34.292  14.981  -5.294  1.00 20.00    -0.024 C 
HETATM    3  C3  UNL     1     -36.554  15.525  -3.817  1.00 20.00     0.139 C 
HETATM    4  C4  UNL     1     -35.749  13.427  -4.394  1.00 20.00     0.025 C 
HETATM    5  C5  UNL     1     -36.539  14.583  -5.015  1.00 20.00     0.078 C 
HETATM    6  C6  UNL     1     -34.566  14.311  -3.961  1.00 20.00     0.020 C 
HETATM    7  C7  UNL     1     -35.278  15.299  -2.992  1.00 20.00     0.067 C 
HETATM    8  O11 UNL     1     -37.415  16.359  -3.583  1.00 20.00    -0.297 OA
ENDROOT
BRANCH   7   9
HETATM    9  C10 UNL     1     -34.519  16.577  -2.699  1.00 20.00    -0.011 C 
HETATM   10  C8  UNL     1     -34.815  17.079  -1.284  1.00 20.00     0.010 C 
HETATM   11  C9  UNL     1     -33.012  16.374  -2.882  1.00 20.00     0.010 C 
ENDBRANCH   7   9
TORSDOF 1
ENDMDL
MODEL 5
REMARK VINA RESULT:      -4.2      1.717      2.445
REMARK  1 active torsions:
REMARK  status: ('A' for Active; 'I' for Inactive)
REMARK    1  A    between atoms: C7_7  and  C10_10 
ROOT
HETATM    1  C1  UNL     1     -33.774  17.830  -3.848  1.00 20.00    -0.018 C 
HETATM    2  C2  UNL     1     -35.087  17.806  -3.561  1.00 20.00    -0.024 C 
HETATM    3  C3  UNL     1     -33.620  15.474  -3.529  1.00 20.00     0.139 C 
HETATM    4  C4  UNL     1     -33.992  16.900  -1.736  1.00 20.00     0.025 C 
HETATM    5  C5  UNL     1     -33.104  16.800  -2.981  1.00 20.00     0.078 C 
HETATM    6  C6  UNL     1     -35.308  16.729  -2.516  1.00 20.00     0.020 C 
HETATM    7  C7  UNL     1     -35.097  15.318  -3.139  1.00 20.00     0.067 C 
HETATM    8  O11 UNL     1     -32.976  14.692  -4.210  1.00 20.00    -0.297 OA
ENDROOT
BRANCH   7   9
HETATM    9  C10 UNL     1     -35.996  14.988  -4.313  1.00 20.00    -0.011 C 
HETATM   10  C8  UNL     1     -36.048  13.478  -4.558  1.00 20.00     0.010 C 
HETATM   11  C9  UNL     1     -37.409  15.536  -4.092  1.00 20.00     0.010 C 
ENDBRANCH   7   9
TORSDOF 1
ENDMDL
MODEL 6
REMARK VINA RESULT:      -4.2      2.282      3.259
REMARK  1 active torsions:
REMARK  status: ('A' for Active; 'I' for Inactive)
REMARK    1  A    between atoms: C7_7  and  C10_10 
ROOT
HETATM    1  C1  UNL     1     -35.035  17.262  -2.467  1.00 20.00    -0.018 C 
HETATM    2  C2  UNL     1     -35.133  15.925  -2.363  1.00 20.00    -0.024 C 
HETATM    3  C3  UNL     1     -34.370  17.079  -4.747  1.00 20.00     0.139 C 
HETATM    4  C4  UNL     1     -32.968  16.383  -3.034  1.00 20.00     0.025 C 
HETATM    5  C5  UNL     1     -33.882  17.561  -3.386  1.00 20.00     0.078 C 
HETATM    6  C6  UNL     1     -34.059  15.319  -3.246  1.00 20.00     0.020 C 
HETATM    7  C7  UNL     1     -34.399  15.543  -4.748  1.00 20.00     0.067 C 
HETATM    8  O11 UNL     1     -34.729  17.799  -5.666  1.00 20.00    -0.297 OA
ENDROOT
BRANCH   7   9
HETATM    9  C10 UNL     1     -35.725  14.968  -5.203  1.00 20.00    -0.011 C 
HETATM   10  C8  UNL     1     -35.749  14.779  -6.722  1.00 20.00     0.010 C 
HETATM   11  C9  UNL     1     -36.016  13.638  -4.501  1.00 20.00     0.010 C 
ENDBRANCH   7   9
TORSDOF 1
ENDMDL
MODEL 7
REMARK VINA RESULT:      -4.1      2.670      4.198
REMARK  1 active torsions:
REMARK  status: ('A' for Active; 'I' for Inactive)
REMARK    1  A    between atoms: C7_7  and  C10_10 
ROOT
HETATM    1  C1  UNL     1     -35.741  18.330  -2.677  1.00 20.00    -0.018 C 
HETATM    2  C2  UNL     1     -36.246  17.087  -2.593  1.00 20.00    -0.024 C 
HETATM    3  C3  UNL     1     -33.521  17.468  -2.736  1.00 20.00     0.139 C 
HETATM    4  C4  UNL     1     -34.801  17.340  -0.805  1.00 20.00     0.025 C 
HETATM    5  C5  UNL     1     -34.450  18.346  -1.905  1.00 20.00     0.078 C 
HETATM    6  C6  UNL     1     -35.271  16.251  -1.786  1.00 20.00     0.020 C 
HETATM    7  C7  UNL     1     -33.966  16.005  -2.598  1.00 20.00     0.067 C 
HETATM    8  O11 UNL     1     -32.606  17.872  -3.437  1.00 20.00    -0.297 OA
ENDROOT
BRANCH   7   9
HETATM    9  C10 UNL     1     -34.154  15.306  -3.929  1.00 20.00    -0.011 C 
HETATM   10  C8  UNL     1     -32.850  14.656  -4.396  1.00 20.00     0.010 C 
HETATM   11  C9  UNL     1     -35.267  14.257  -3.845  1.00 20.00     0.010 C 
ENDBRANCH   7   9
TORSDOF 1
ENDMDL
MODEL 8
REMARK VINA RESULT:      -4.1      1.961      2.590
REMARK  1 active torsions:
REMARK  status: ('A' for Active; 'I' for Inactive)
REMARK    1  A    between atoms: C7_7  and  C10_10 
ROOT
HETATM    1  C1  UNL     1     -33.191  15.883  -3.330  1.00 20.00    -0.018 C 
HETATM    2  C2  UNL     1     -34.247  15.995  -2.505  1.00 20.00    -0.024 C 
HETATM    3  C3  UNL     1     -34.612  16.027  -5.237  1.00 20.00     0.139 C 
HETATM    4  C4  UNL     1     -34.650  14.162  -3.857  1.00 20.00     0.025 C 
HETATM    5  C5  UNL     1     -33.636  15.093  -4.530  1.00 20.00     0.078 C 
HETATM    6  C6  UNL     1     -35.421  15.303  -3.171  1.00 20.00     0.020 C 
HETATM    7  C7  UNL     1     -35.901  16.117  -4.407  1.00 20.00     0.067 C 
HETATM    8  O11 UNL     1     -34.382  16.643  -6.266  1.00 20.00    -0.297 OA
ENDROOT
BRANCH   7   9
HETATM    9  C10 UNL     1     -36.331  17.541  -4.117  1.00 20.00    -0.011 C 
HETATM   10  C8  UNL     1     -37.060  18.150  -5.318  1.00 20.00     0.010 C 
HETATM   11  C9  UNL     1     -37.220  17.602  -2.872  1.00 20.00     0.010 C 
ENDBRANCH   7   9
TORSDOF 1
ENDMDL
MODEL 9
REMARK VINA RESULT:      -4.0      2.711      4.323
REMARK  1 active torsions:
REMARK  status: ('A' for Active; 'I' for Inactive)
REMARK    1  A    between atoms: C7_7  and  C10_10 
ROOT
HETATM    1  C1  UNL     1     -35.768  16.520  -4.055  1.00 20.00    -0.018 C 
HETATM    2  C2  UNL     1     -34.605  16.975  -4.553  1.00 20.00    -0.024 C 
HETATM    3  C3  UNL     1     -34.801  16.293  -1.890  1.00 20.00     0.139 C 
HETATM    4  C4  UNL     1     -34.169  14.898  -3.633  1.00 20.00     0.025 C 
HETATM    5  C5  UNL     1     -35.441  15.486  -3.013  1.00 20.00     0.078 C 
HETATM    6  C6  UNL     1     -33.485  16.264  -3.817  1.00 20.00     0.020 C 
HETATM    7  C7  UNL     1     -33.407  16.755  -2.342  1.00 20.00     0.067 C 
HETATM    8  O11 UNL     1     -35.333  16.571  -0.826  1.00 20.00    -0.297 OA
ENDROOT
BRANCH   7   9
HETATM    9  C10 UNL     1     -33.181  18.243  -2.166  1.00 20.00    -0.011 C 
HETATM   10  C8  UNL     1     -32.404  18.531  -0.879  1.00 20.00     0.010 C 
HETATM   11  C9  UNL     1     -32.443  18.831  -3.372  1.00 20.00     0.010 C 
ENDBRANCH   7   9
TORSDOF 1
ENDMDL
