MODEL 1
REMARK VINA RESULT:      -4.8      0.000      0.000
REMARK  1 active torsions:
REMARK  status: ('A' for Active; 'I' for Inactive)
REMARK    1  A    between atoms: C5_5  and  C10_10 
ROOT
HETATM    1  C1  UNL     1     -34.038  14.131  -4.131  1.00 20.00     0.046 C 
HETATM    2  C2  UNL     1     -33.637  15.354  -3.768  1.00 20.00    -0.018 C 
HETATM    3  C3  UNL     1     -35.483  13.814  -4.212  1.00 20.00     0.149 C 
HETATM    4  C4  UNL     1     -36.485  14.877  -3.814  1.00 20.00     0.088 C 
HETATM    5  C5  UNL     1     -34.562  16.503  -3.462  1.00 20.00     0.015 C 
HETATM    6  C6  UNL     1     -35.968  16.298  -4.069  1.00 20.00    -0.003 C 
HETATM    7  C7  UNL     1     -35.979  16.615  -5.571  1.00 20.00     0.011 C 
HETATM    8  O11 UNL     1     -35.840  12.684  -4.543  1.00 20.00    -0.293 OA
ENDROOT
BRANCH   5   9
HETATM    9  C10 UNL     1     -34.623  16.717  -1.947  1.00 20.00    -0.015 C 
HETATM   10  C8  UNL     1     -33.400  17.496  -1.470  1.00 20.00     0.010 C 
HETATM   11  C9  UNL     1     -35.910  17.440  -1.562  1.00 20.00     0.010 C 
ENDBRANCH   5   9
TORSDOF 1
ENDMDL
MODEL 2
REMARK VINA RESULT:      -4.6      1.467      1.979
REMARK  1 active torsions:
REMARK  status: ('A' for Active; 'I' for Inactive)
REMARK    1  A    between atoms: C5_5  and  C10_10 
ROOT
HETATM    1  C1  UNL     1     -35.307  13.817  -3.977  1.00 20.00     0.046 C 
HETATM    2  C2  UNL     1     -34.201  14.560  -4.088  1.00 20.00    -0.018 C 
HETATM    3  C3  UNL     1     -36.581  14.282  -4.573  1.00 20.00     0.149 C 
HETATM    4  C4  UNL     1     -36.617  15.638  -5.247  1.00 20.00     0.088 C 
HETATM    5  C5  UNL     1     -34.118  15.866  -4.834  1.00 20.00     0.015 C 
HETATM    6  C6  UNL     1     -35.266  16.028  -5.857  1.00 20.00    -0.003 C 
HETATM    7  C7  UNL     1     -34.993  15.217  -7.132  1.00 20.00     0.011 C 
HETATM    8  O11 UNL     1     -37.593  13.591  -4.462  1.00 20.00    -0.293 OA
ENDROOT
BRANCH   5   9
HETATM    9  C10 UNL     1     -34.084  17.024  -3.831  1.00 20.00    -0.015 C 
HETATM   10  C8  UNL     1     -33.114  16.714  -2.695  1.00 20.00     0.010 C 
HETATM   11  C9  UNL     1     -33.702  18.324  -4.531  1.00 20.00     0.010 C 
ENDBRANCH   5   9
TORSDOF 1
ENDMDL
MODEL 3
REMARK VINA RESULT:      -4.5      0.933      1.147
REMARK  1 active torsions:
REMARK  status: ('A' for Active; 'I' for Inactive)
REMARK    1  A    between atoms: C5_5  and  C10_10 
ROOT
HETATM    1  C1  UNL     1     -35.398  13.679  -4.179  1.00 20.00     0.046 C 
HETATM    2  C2  UNL     1     -34.290  14.401  -3.977  1.00 20.00    -0.018 C 
HETATM    3  C3  UNL     1     -36.723  14.340  -4.206  1.00 20.00     0.149 C 
HETATM    4  C4  UNL     1     -36.801  15.828  -3.938  1.00 20.00     0.088 C 
HETATM    5  C5  UNL     1     -34.262  15.898  -3.812  1.00 20.00     0.015 C 
HETATM    6  C6  UNL     1     -35.533  16.572  -4.375  1.00 20.00    -0.003 C 
HETATM    7  C7  UNL     1     -35.473  16.684  -5.906  1.00 20.00     0.011 C 
HETATM    8  O11 UNL     1     -37.736  13.665  -4.389  1.00 20.00    -0.293 OA
ENDROOT
BRANCH   5   9
HETATM    9  C10 UNL     1     -34.044  16.242  -2.335  1.00 20.00    -0.015 C 
HETATM   10  C8  UNL     1     -32.939  17.284  -2.190  1.00 20.00     0.010 C 
HETATM   11  C9  UNL     1     -35.342  16.738  -1.706  1.00 20.00     0.010 C 
ENDBRANCH   5   9
TORSDOF 1
ENDMDL
MODEL 4
REMARK VINA RESULT:      -4.5      1.385      2.469
REMARK  1 active torsions:
REMARK  status: ('A' for Active; 'I' for Inactive)
REMARK    1  A    between atoms: C5_5  and  C10_10 
ROOT
HETATM    1  C1  UNL     1     -36.194  14.603  -4.169  1.00 20.00     0.046 C 
HETATM    2  C2  UNL     1     -35.549  14.819  -3.018  1.00 20.00    -0.018 C 
HETATM    3  C3  UNL     1     -35.651  15.138  -5.439  1.00 20.00     0.149 C 
HETATM    4  C4  UNL     1     -34.395  15.983  -5.397  1.00 20.00     0.088 C 
HETATM    5  C5  UNL     1     -34.239  15.553  -2.895  1.00 20.00     0.015 C 
HETATM    6  C6  UNL     1     -33.470  15.603  -4.234  1.00 20.00    -0.003 C 
HETATM    7  C7  UNL     1     -32.762  14.271  -4.521  1.00 20.00     0.011 C 
HETATM    8  O11 UNL     1     -36.255  14.935  -6.492  1.00 20.00    -0.293 OA
ENDROOT
BRANCH   5   9
HETATM    9  C10 UNL     1     -34.492  16.955  -2.333  1.00 20.00    -0.015 C 
HETATM   10  C8  UNL     1     -35.283  16.871  -1.031  1.00 20.00     0.010 C 
HETATM   11  C9  UNL     1     -33.172  17.690  -2.118  1.00 20.00     0.010 C 
ENDBRANCH   5   9
TORSDOF 1
ENDMDL
MODEL 5
REMARK VINA RESULT:      -4.4      1.469      2.078
REMARK  1 active torsions:
REMARK  status: ('A' for Active; 'I' for Inactive)
REMARK    1  A    between atoms: C5_5  and  C10_10 
ROOT
HETATM    1  C1  UNL     1     -34.418  16.521  -5.327  1.00 20.00     0.046 C 
HETATM    2  C2  UNL     1     -35.019  17.019  -4.241  1.00 20.00    -0.018 C 
HETATM    3  C3  UNL     1     -34.160  15.066  -5.434  1.00 20.00     0.149 C 
HETATM    4  C4  UNL     1     -34.528  14.173  -4.269  1.00 20.00     0.088 C 
HETATM    5  C5  UNL     1     -35.519  16.194  -3.084  1.00 20.00     0.015 C 
HETATM    6  C6  UNL     1     -35.721  14.711  -3.469  1.00 20.00    -0.003 C 
HETATM    7  C7  UNL     1     -37.029  14.511  -4.250  1.00 20.00     0.011 C 
HETATM    8  O11 UNL     1     -33.602  14.620  -6.436  1.00 20.00    -0.293 OA
ENDROOT
BRANCH   5   9
HETATM    9  C10 UNL     1     -34.561  16.347  -1.899  1.00 20.00    -0.015 C 
HETATM   10  C8  UNL     1     -33.355  17.192  -2.297  1.00 20.00     0.010 C 
HETATM   11  C9  UNL     1     -35.284  16.963  -0.705  1.00 20.00     0.010 C 
ENDBRANCH   5   9
TORSDOF 1
ENDMDL
MODEL 6
REMARK VINA RESULT:      -4.3      1.167      3.226
REMARK  1 active torsions:
REMARK  status: ('A' for Active; 'I' for Inactive)
REMARK    1  A    between atoms: C5_5  and  C10_10 
ROOT
HETATM    1  C1  UNL     1     -36.924  14.518  -4.689  1.00 20.00     0.046 C 
HETATM    2  C2  UNL     1     -36.877  15.853  -4.749  1.00 20.00    -0.018 C 
HETATM    3  C3  UNL     1     -35.698  13.742  -4.388  1.00 20.00     0.149 C 
HETATM    4  C4  UNL     1     -34.390  14.485  -4.218  1.00 20.00     0.088 C 
HETATM    5  C5  UNL     1     -35.646  16.680  -4.486  1.00 20.00     0.015 C 
HETATM    6  C6  UNL     1     -34.586  15.904  -3.672  1.00 20.00    -0.003 C 
HETATM    7  C7  UNL     1     -34.947  15.864  -2.180  1.00 20.00     0.011 C 
HETATM    8  O11 UNL     1     -35.753  12.514  -4.339  1.00 20.00    -0.293 OA
ENDROOT
BRANCH   5   9
HETATM    9  C10 UNL     1     -35.081  17.189  -5.815  1.00 20.00    -0.015 C 
HETATM   10  C8  UNL     1     -36.214  17.554  -6.769  1.00 20.00     0.010 C 
HETATM   11  C9  UNL     1     -34.164  18.385  -5.581  1.00 20.00     0.010 C 
ENDBRANCH   5   9
TORSDOF 1
ENDMDL
MODEL 7
REMARK VINA RESULT:      -4.2      2.467      4.253
REMARK  1 active torsions:
REMARK  status: ('A' for Active; 'I' for Inactive)
REMARK    1  A    between atoms: C5_5  and  C10_10 
ROOT
HETATM    1  C1  UNL     1     -35.369  16.992  -1.383  1.00 20.00     0.046 C 
HETATM    2  C2  UNL     1     -35.658  16.362  -2.526  1.00 20.00    -0.018 C 
HETATM    3  C3  UNL     1     -33.995  17.483  -1.129  1.00 20.00     0.149 C 
HETATM    4  C4  UNL     1     -32.918  17.198  -2.155  1.00 20.00     0.088 C 
HETATM    5  C5  UNL     1     -34.680  16.132  -3.648  1.00 20.00     0.015 C 
HETATM    6  C6  UNL     1     -33.476  17.098  -3.580  1.00 20.00    -0.003 C 
HETATM    7  C7  UNL     1     -33.847  18.490  -4.113  1.00 20.00     0.011 C 
HETATM    8  O11 UNL     1     -33.740  18.059  -0.072  1.00 20.00    -0.293 OA
ENDROOT
BRANCH   5   9
HETATM    9  C10 UNL     1     -34.233  14.667  -3.641  1.00 20.00    -0.015 C 
HETATM   10  C8  UNL     1     -35.354  13.767  -4.151  1.00 20.00     0.010 C 
HETATM   11  C9  UNL     1     -32.972  14.490  -4.481  1.00 20.00     0.010 C 
ENDBRANCH   5   9
TORSDOF 1
ENDMDL
MODEL 8
REMARK VINA RESULT:      -4.2      2.318      3.399
REMARK  1 active torsions:
REMARK  status: ('A' for Active; 'I' for Inactive)
REMARK    1  A    between atoms: C5_5  and  C10_10 
ROOT
HETATM    1  C1  UNL     1     -33.150  16.624  -2.810  1.00 20.00     0.046 C 
HETATM    2  C2  UNL     1     -32.658  17.727  -2.237  1.00 20.00    -0.018 C 
HETATM    3  C3  UNL     1     -34.442  16.059  -2.353  1.00 20.00     0.149 C 
HETATM    4  C4  UNL     1     -35.152  16.715  -1.188  1.00 20.00     0.088 C 
HETATM    5  C5  UNL     1     -33.347  18.508  -1.149  1.00 20.00     0.015 C 
HETATM    6  C6  UNL     1     -34.865  18.219  -1.095  1.00 20.00    -0.003 C 
HETATM    7  C7  UNL     1     -35.616  18.982  -2.196  1.00 20.00     0.011 C 
HETATM    8  O11 UNL     1     -34.884  15.042  -2.886  1.00 20.00    -0.293 OA
ENDROOT
BRANCH   5   9
HETATM    9  C10 UNL     1     -32.667  18.219   0.193  1.00 20.00    -0.015 C 
HETATM   10  C8  UNL     1     -31.161  18.438   0.083  1.00 20.00     0.010 C 
HETATM   11  C9  UNL     1     -33.263  19.094   1.292  1.00 20.00     0.010 C 
ENDBRANCH   5   9
TORSDOF 1
ENDMDL
MODEL 9
REMARK VINA RESULT:      -4.2      1.374      1.409
REMARK  1 active torsions:
REMARK  status: ('A' for Active; 'I' for Inactive)
REMARK    1  A    between atoms: C5_5  and  C10_10 
ROOT
HETATM    1  C1  UNL     1     -34.677  15.546  -5.685  1.00 20.00     0.046 C 
HETATM    2  C2  UNL     1     -34.417  16.545  -4.836  1.00 20.00    -0.018 C 
HETATM    3  C3  UNL     1     -35.789  14.606  -5.412  1.00 20.00     0.149 C 
HETATM    4  C4  UNL     1     -36.575  14.761  -4.127  1.00 20.00     0.088 C 
HETATM    5  C5  UNL     1     -35.214  16.843  -3.593  1.00 20.00     0.015 C 
HETATM    6  C6  UNL     1     -36.626  16.215  -3.641  1.00 20.00    -0.003 C 
HETATM    7  C7  UNL     1     -37.575  17.045  -4.517  1.00 20.00     0.011 C 
HETATM    8  O11 UNL     1     -36.017  13.688  -6.199  1.00 20.00    -0.293 OA
ENDROOT
BRANCH   5   9
HETATM    9  C10 UNL     1     -34.429  16.379  -2.362  1.00 20.00    -0.015 C 
HETATM   10  C8  UNL     1     -33.033  16.996  -2.360  1.00 20.00     0.010 C 
HETATM   11  C9  UNL     1     -35.181  16.737  -1.084  1.00 20.00     0.010 C 
ENDBRANCH   5   9
TORSDOF 1
ENDMDL
