MODEL 1
REMARK VINA RESULT:      -4.8      0.000      0.000
REMARK  0 active torsions:
REMARK  status: ('A' for Active; 'I' for Inactive)
ROOT
HETATM    1  C1  UNL     1     -34.224  14.072  -3.919  1.00 20.00     0.050 C 
HETATM    2  C2  UNL     1     -33.785  15.258  -3.486  1.00 20.00    -0.014 C 
HETATM    3  C3  UNL     1     -35.638  13.888  -4.326  1.00 20.00     0.188 C 
HETATM    4  C4  UNL     1     -36.145  16.112  -3.281  1.00 20.00     0.064 C 
HETATM    5  C5  UNL     1     -34.643  16.491  -3.307  1.00 20.00    -0.026 C 
HETATM    6  C6  UNL     1     -36.542  15.113  -4.371  1.00 20.00     0.164 C 
HETATM    7  C7  UNL     1     -34.333  17.480  -4.444  1.00 20.00     0.019 C 
HETATM    8  C8  UNL     1     -34.291  17.164  -1.967  1.00 20.00     0.019 C 
HETATM    9  C9  UNL     1     -38.006  14.711  -4.215  1.00 20.00     0.060 C 
HETATM   10  O10 UNL     1     -36.016  12.771  -4.681  1.00 20.00    -0.290 OA
HETATM   11  F11 UNL     1     -36.425  15.721  -5.588  1.00 20.00    -0.235 F 
ENDROOT
TORSDOF 0
ENDMDL
MODEL 2
REMARK VINA RESULT:      -4.7      1.474      1.788
REMARK  0 active torsions:
REMARK  status: ('A' for Active; 'I' for Inactive)
ROOT
HETATM    1  C1  UNL     1     -32.962  15.768  -3.469  1.00 20.00     0.050 C 
HETATM    2  C2  UNL     1     -33.477  16.664  -2.620  1.00 20.00    -0.014 C 
HETATM    3  C3  UNL     1     -33.844  14.863  -4.244  1.00 20.00     0.188 C 
HETATM    4  C4  UNL     1     -35.742  15.573  -2.764  1.00 20.00     0.064 C 
HETATM    5  C5  UNL     1     -34.949  16.825  -2.312  1.00 20.00    -0.026 C 
HETATM    6  C6  UNL     1     -35.350  15.073  -4.157  1.00 20.00     0.164 C 
HETATM    7  C7  UNL     1     -35.464  18.097  -3.006  1.00 20.00     0.019 C 
HETATM    8  C8  UNL     1     -35.133  16.991  -0.792  1.00 20.00     0.019 C 
HETATM    9  C9  UNL     1     -36.096  13.782  -4.486  1.00 20.00     0.060 C 
HETATM   10  O10 UNL     1     -33.333  14.023  -4.985  1.00 20.00    -0.290 OA
HETATM   11  F11 UNL     1     -35.736  16.000  -5.082  1.00 20.00    -0.235 F 
ENDROOT
TORSDOF 0
ENDMDL
MODEL 3
REMARK VINA RESULT:      -4.6      2.239      3.007
REMARK  0 active torsions:
REMARK  status: ('A' for Active; 'I' for Inactive)
ROOT
HETATM    1  C1  UNL     1     -35.928  14.015  -5.259  1.00 20.00     0.050 C 
HETATM    2  C2  UNL     1     -35.150  14.195  -4.187  1.00 20.00    -0.014 C 
HETATM    3  C3  UNL     1     -35.676  14.762  -6.515  1.00 20.00     0.188 C 
HETATM    4  C4  UNL     1     -34.100  16.232  -5.230  1.00 20.00     0.064 C 
HETATM    5  C5  UNL     1     -34.003  15.178  -4.100  1.00 20.00    -0.026 C 
HETATM    6  C6  UNL     1     -34.428  15.630  -6.600  1.00 20.00     0.164 C 
HETATM    7  C7  UNL     1     -32.677  14.400  -4.170  1.00 20.00     0.019 C 
HETATM    8  C8  UNL     1     -34.065  15.912  -2.747  1.00 20.00     0.019 C 
HETATM    9  C9  UNL     1     -34.609  16.738  -7.636  1.00 20.00     0.060 C 
HETATM   10  O10 UNL     1     -36.438  14.599  -7.468  1.00 20.00    -0.290 OA
HETATM   11  F11 UNL     1     -33.370  14.872  -7.011  1.00 20.00    -0.235 F 
ENDROOT
TORSDOF 0
ENDMDL
MODEL 4
REMARK VINA RESULT:      -4.6      1.028      1.156
REMARK  0 active torsions:
REMARK  status: ('A' for Active; 'I' for Inactive)
ROOT
HETATM    1  C1  UNL     1     -35.519  13.983  -3.998  1.00 20.00     0.050 C 
HETATM    2  C2  UNL     1     -34.525  14.808  -3.652  1.00 20.00    -0.014 C 
HETATM    3  C3  UNL     1     -36.893  14.498  -4.213  1.00 20.00     0.188 C 
HETATM    4  C4  UNL     1     -36.163  16.656  -3.161  1.00 20.00     0.064 C 
HETATM    5  C5  UNL     1     -34.676  16.290  -3.390  1.00 20.00    -0.026 C 
HETATM    6  C6  UNL     1     -37.115  16.004  -4.168  1.00 20.00     0.164 C 
HETATM    7  C7  UNL     1     -34.084  17.066  -4.579  1.00 20.00     0.019 C 
HETATM    8  C8  UNL     1     -33.885  16.665  -2.123  1.00 20.00     0.019 C 
HETATM    9  C9  UNL     1     -38.565  16.327  -3.814  1.00 20.00     0.060 C 
HETATM   10  O10 UNL     1     -37.790  13.703  -4.492  1.00 20.00    -0.290 OA
HETATM   11  F11 UNL     1     -36.880  16.537  -5.403  1.00 20.00    -0.235 F 
ENDROOT
TORSDOF 0
ENDMDL
MODEL 5
REMARK VINA RESULT:      -4.5      1.676      2.972
REMARK  0 active torsions:
REMARK  status: ('A' for Active; 'I' for Inactive)
ROOT
HETATM    1  C1  UNL     1     -36.928  14.180  -4.367  1.00 20.00     0.050 C 
HETATM    2  C2  UNL     1     -37.305  15.459  -4.464  1.00 20.00    -0.014 C 
HETATM    3  C3  UNL     1     -35.502  13.821  -4.172  1.00 20.00     0.188 C 
HETATM    4  C4  UNL     1     -34.912  16.197  -4.724  1.00 20.00     0.064 C 
HETATM    5  C5  UNL     1     -36.368  16.647  -4.446  1.00 20.00    -0.026 C 
HETATM    6  C6  UNL     1     -34.500  14.945  -3.943  1.00 20.00     0.164 C 
HETATM    7  C7  UNL     1     -36.488  17.352  -3.084  1.00 20.00     0.019 C 
HETATM    8  C8  UNL     1     -36.786  17.639  -5.547  1.00 20.00     0.019 C 
HETATM    9  C9  UNL     1     -33.094  14.507  -4.348  1.00 20.00     0.060 C 
HETATM   10  O10 UNL     1     -35.188  12.633  -4.128  1.00 20.00    -0.290 OA
HETATM   11  F11 UNL     1     -34.452  15.251  -2.614  1.00 20.00    -0.235 F 
ENDROOT
TORSDOF 0
ENDMDL
MODEL 6
REMARK VINA RESULT:      -4.5      1.868      2.432
REMARK  0 active torsions:
REMARK  status: ('A' for Active; 'I' for Inactive)
ROOT
HETATM    1  C1  UNL     1     -36.020  14.670  -3.816  1.00 20.00     0.050 C 
HETATM    2  C2  UNL     1     -35.517  15.672  -3.086  1.00 20.00    -0.014 C 
HETATM    3  C3  UNL     1     -35.544  14.427  -5.199  1.00 20.00     0.188 C 
HETATM    4  C4  UNL     1     -34.405  16.661  -5.117  1.00 20.00     0.064 C 
HETATM    5  C5  UNL     1     -34.491  16.672  -3.570  1.00 20.00    -0.026 C 
HETATM    6  C6  UNL     1     -34.374  15.252  -5.716  1.00 20.00     0.164 C 
HETATM    7  C7  UNL     1     -33.132  16.338  -2.930  1.00 20.00     0.019 C 
HETATM    8  C8  UNL     1     -34.907  18.084  -3.119  1.00 20.00     0.019 C 
HETATM    9  C9  UNL     1     -34.395  15.324  -7.242  1.00 20.00     0.060 C 
HETATM   10  O10 UNL     1     -36.059  13.521  -5.855  1.00 20.00    -0.290 OA
HETATM   11  F11 UNL     1     -33.200  14.651  -5.364  1.00 20.00    -0.235 F 
ENDROOT
TORSDOF 0
ENDMDL
MODEL 7
REMARK VINA RESULT:      -4.5      1.731      2.070
REMARK  0 active torsions:
REMARK  status: ('A' for Active; 'I' for Inactive)
ROOT
HETATM    1  C1  UNL     1     -35.461  13.989  -4.561  1.00 20.00     0.050 C 
HETATM    2  C2  UNL     1     -34.917  14.491  -3.447  1.00 20.00    -0.014 C 
HETATM    3  C3  UNL     1     -35.782  14.867  -5.712  1.00 20.00     0.188 C 
HETATM    4  C4  UNL     1     -35.408  16.841  -4.209  1.00 20.00     0.064 C 
HETATM    5  C5  UNL     1     -34.627  15.956  -3.205  1.00 20.00    -0.026 C 
HETATM    6  C6  UNL     1     -35.350  16.326  -5.650  1.00 20.00     0.164 C 
HETATM    7  C7  UNL     1     -33.110  16.186  -3.316  1.00 20.00     0.019 C 
HETATM    8  C8  UNL     1     -35.073  16.332  -1.780  1.00 20.00     0.019 C 
HETATM    9  C9  UNL     1     -36.226  17.188  -6.556  1.00 20.00     0.060 C 
HETATM   10  O10 UNL     1     -36.318  14.375  -6.705  1.00 20.00    -0.290 OA
HETATM   11  F11 UNL     1     -34.070  16.443  -6.107  1.00 20.00    -0.235 F 
ENDROOT
TORSDOF 0
ENDMDL
MODEL 8
REMARK VINA RESULT:      -4.5      3.067      4.486
REMARK  0 active torsions:
REMARK  status: ('A' for Active; 'I' for Inactive)
ROOT
HETATM    1  C1  UNL     1     -35.193  16.277  -1.550  1.00 20.00     0.050 C 
HETATM    2  C2  UNL     1     -35.039  15.691  -2.742  1.00 20.00    -0.014 C 
HETATM    3  C3  UNL     1     -34.242  17.316  -1.087  1.00 20.00     0.188 C 
HETATM    4  C4  UNL     1     -32.725  16.657  -2.975  1.00 20.00     0.064 C 
HETATM    5  C5  UNL     1     -33.899  15.955  -3.701  1.00 20.00    -0.026 C 
HETATM    6  C6  UNL     1     -33.171  17.799  -2.057  1.00 20.00     0.164 C 
HETATM    7  C7  UNL     1     -34.423  16.804  -4.872  1.00 20.00     0.019 C 
HETATM    8  C8  UNL     1     -33.388  14.615  -4.263  1.00 20.00     0.019 C 
HETATM    9  C9  UNL     1     -31.973  18.369  -1.300  1.00 20.00     0.060 C 
HETATM   10  O10 UNL     1     -34.392  17.804   0.032  1.00 20.00    -0.290 OA
HETATM   11  F11 UNL     1     -33.672  18.810  -2.824  1.00 20.00    -0.235 F 
ENDROOT
TORSDOF 0
ENDMDL
MODEL 9
REMARK VINA RESULT:      -4.5     10.234     11.748
REMARK  0 active torsions:
REMARK  status: ('A' for Active; 'I' for Inactive)
ROOT
HETATM    1  C1  UNL     1     -43.385   6.633   1.273  1.00 20.00     0.050 C 
HETATM    2  C2  UNL     1     -43.412   7.896   0.834  1.00 20.00    -0.014 C 
HETATM    3  C3  UNL     1     -42.426   5.653   0.709  1.00 20.00     0.188 C 
HETATM    4  C4  UNL     1     -41.946   7.298  -1.124  1.00 20.00     0.064 C 
HETATM    5  C5  UNL     1     -42.551   8.448  -0.281  1.00 20.00    -0.026 C 
HETATM    6  C6  UNL     1     -41.380   6.153  -0.279  1.00 20.00     0.164 C 
HETATM    7  C7  UNL     1     -41.452   9.331   0.334  1.00 20.00     0.019 C 
HETATM    8  C8  UNL     1     -43.417   9.322  -1.206  1.00 20.00     0.019 C 
HETATM    9  C9  UNL     1     -40.900   5.017  -1.179  1.00 20.00     0.060 C 
HETATM   10  O10 UNL     1     -42.458   4.490   1.110  1.00 20.00    -0.290 OA
HETATM   11  F11 UNL     1     -40.288   6.607   0.403  1.00 20.00    -0.235 F 
ENDROOT
TORSDOF 0
ENDMDL
