MODEL 1
REMARK VINA RESULT:      -5.0      0.000      0.000
REMARK  0 active torsions:
REMARK  status: ('A' for Active; 'I' for Inactive)
ROOT
HETATM    1  C1  UNL     1     -34.054  14.091  -4.122  1.00 20.00     0.050 C 
HETATM    2  C2  UNL     1     -33.630  15.283  -3.685  1.00 20.00    -0.014 C 
HETATM    3  C3  UNL     1     -35.501  13.821  -4.292  1.00 20.00     0.188 C 
HETATM    4  C4  UNL     1     -36.000  16.001  -3.177  1.00 20.00     0.064 C 
HETATM    5  C5  UNL     1     -34.518  16.437  -3.274  1.00 20.00    -0.026 C 
HETATM    6  C6  UNL     1     -36.466  14.990  -4.226  1.00 20.00     0.164 C 
HETATM    7  C7  UNL     1     -34.332  17.604  -4.260  1.00 20.00     0.019 C 
HETATM    8  C8  UNL     1     -34.072  16.928  -1.879  1.00 20.00     0.019 C 
HETATM    9  C9  UNL     1     -36.662  15.564  -5.623  1.00 20.00     0.060 C 
HETATM   10  O10 UNL     1     -35.883  12.677  -4.530  1.00 20.00    -0.290 OA
HETATM   11  F11 UNL     1     -37.696  14.544  -3.818  1.00 20.00    -0.235 F 
ENDROOT
TORSDOF 0
ENDMDL
MODEL 2
REMARK VINA RESULT:      -4.7      1.545      1.793
REMARK  0 active torsions:
REMARK  status: ('A' for Active; 'I' for Inactive)
ROOT
HETATM    1  C1  UNL     1     -32.895  15.632  -3.588  1.00 20.00     0.050 C 
HETATM    2  C2  UNL     1     -33.563  16.594  -2.941  1.00 20.00    -0.014 C 
HETATM    3  C3  UNL     1     -33.609  14.449  -4.124  1.00 20.00     0.188 C 
HETATM    4  C4  UNL     1     -35.673  15.203  -2.935  1.00 20.00     0.064 C 
HETATM    5  C5  UNL     1     -35.044  16.584  -2.632  1.00 20.00    -0.026 C 
HETATM    6  C6  UNL     1     -35.125  14.477  -4.166  1.00 20.00     0.164 C 
HETATM    7  C7  UNL     1     -35.739  17.710  -3.417  1.00 20.00     0.019 C 
HETATM    8  C8  UNL     1     -35.235  16.876  -1.128  1.00 20.00     0.019 C 
HETATM    9  C9  UNL     1     -35.584  15.049  -5.501  1.00 20.00     0.060 C 
HETATM   10  O10 UNL     1     -32.966  13.498  -4.565  1.00 20.00    -0.290 OA
HETATM   11  F11 UNL     1     -35.608  13.196  -4.111  1.00 20.00    -0.235 F 
ENDROOT
TORSDOF 0
ENDMDL
MODEL 3
REMARK VINA RESULT:      -4.7      1.542      1.975
REMARK  0 active torsions:
REMARK  status: ('A' for Active; 'I' for Inactive)
ROOT
HETATM    1  C1  UNL     1     -35.025  16.011  -6.011  1.00 20.00     0.050 C 
HETATM    2  C2  UNL     1     -34.578  16.693  -4.950  1.00 20.00    -0.014 C 
HETATM    3  C3  UNL     1     -35.645  14.676  -5.843  1.00 20.00     0.188 C 
HETATM    4  C4  UNL     1     -34.956  14.700  -3.441  1.00 20.00     0.064 C 
HETATM    5  C5  UNL     1     -34.590  16.202  -3.519  1.00 20.00    -0.026 C 
HETATM    6  C6  UNL     1     -36.009  14.220  -4.443  1.00 20.00     0.164 C 
HETATM    7  C7  UNL     1     -35.554  17.067  -2.688  1.00 20.00     0.019 C 
HETATM    8  C8  UNL     1     -33.175  16.380  -2.926  1.00 20.00     0.019 C 
HETATM    9  C9  UNL     1     -37.435  14.648  -4.125  1.00 20.00     0.060 C 
HETATM   10  O10 UNL     1     -35.896  13.992  -6.834  1.00 20.00    -0.290 OA
HETATM   11  F11 UNL     1     -35.998  12.850  -4.391  1.00 20.00    -0.235 F 
ENDROOT
TORSDOF 0
ENDMDL
MODEL 4
REMARK VINA RESULT:      -4.5      2.229      2.943
REMARK  0 active torsions:
REMARK  status: ('A' for Active; 'I' for Inactive)
ROOT
HETATM    1  C1  UNL     1     -34.544  16.692  -5.647  1.00 20.00     0.050 C 
HETATM    2  C2  UNL     1     -34.547  17.436  -4.535  1.00 20.00    -0.014 C 
HETATM    3  C3  UNL     1     -33.994  15.316  -5.632  1.00 20.00     0.188 C 
HETATM    4  C4  UNL     1     -33.144  15.722  -3.317  1.00 20.00     0.064 C 
HETATM    5  C5  UNL     1     -33.971  17.025  -3.197  1.00 20.00    -0.026 C 
HETATM    6  C6  UNL     1     -33.688  14.675  -4.291  1.00 20.00     0.164 C 
HETATM    7  C7  UNL     1     -35.109  16.883  -2.171  1.00 20.00     0.019 C 
HETATM    8  C8  UNL     1     -33.031  18.144  -2.701  1.00 20.00     0.019 C 
HETATM    9  C9  UNL     1     -34.917  13.922  -3.798  1.00 20.00     0.060 C 
HETATM   10  O10 UNL     1     -33.843  14.709  -6.690  1.00 20.00    -0.290 OA
HETATM   11  F11 UNL     1     -32.701  13.737  -4.447  1.00 20.00    -0.235 F 
ENDROOT
TORSDOF 0
ENDMDL
MODEL 5
REMARK VINA RESULT:      -4.4      3.366      4.560
REMARK  0 active torsions:
REMARK  status: ('A' for Active; 'I' for Inactive)
ROOT
HETATM    1  C1  UNL     1     -35.167  16.638  -1.240  1.00 20.00     0.050 C 
HETATM    2  C2  UNL     1     -35.278  15.936  -2.374  1.00 20.00    -0.014 C 
HETATM    3  C3  UNL     1     -33.987  17.500  -0.999  1.00 20.00     0.188 C 
HETATM    4  C4  UNL     1     -32.917  16.541  -3.044  1.00 20.00     0.064 C 
HETATM    5  C5  UNL     1     -34.247  15.880  -3.480  1.00 20.00    -0.026 C 
HETATM    6  C6  UNL     1     -33.050  17.782  -2.158  1.00 20.00     0.164 C 
HETATM    7  C7  UNL     1     -34.820  16.537  -4.748  1.00 20.00     0.019 C 
HETATM    8  C8  UNL     1     -33.959  14.399  -3.810  1.00 20.00     0.019 C 
HETATM    9  C9  UNL     1     -33.508  19.040  -2.886  1.00 20.00     0.060 C 
HETATM   10  O10 UNL     1     -33.817  18.004   0.109  1.00 20.00    -0.290 OA
HETATM   11  F11 UNL     1     -31.795  18.053  -1.677  1.00 20.00    -0.235 F 
ENDROOT
TORSDOF 0
ENDMDL
MODEL 6
REMARK VINA RESULT:      -4.4      1.946      3.176
REMARK  0 active torsions:
REMARK  status: ('A' for Active; 'I' for Inactive)
ROOT
HETATM    1  C1  UNL     1     -36.292  14.039  -4.700  1.00 20.00     0.050 C 
HETATM    2  C2  UNL     1     -36.754  15.185  -5.215  1.00 20.00    -0.014 C 
HETATM    3  C3  UNL     1     -34.913  13.955  -4.165  1.00 20.00     0.188 C 
HETATM    4  C4  UNL     1     -34.458  16.233  -5.085  1.00 20.00     0.064 C 
HETATM    5  C5  UNL     1     -35.962  16.465  -5.369  1.00 20.00    -0.026 C 
HETATM    6  C6  UNL     1     -34.136  15.243  -3.964  1.00 20.00     0.164 C 
HETATM    7  C7  UNL     1     -36.554  17.547  -4.449  1.00 20.00     0.019 C 
HETATM    8  C8  UNL     1     -36.103  16.959  -6.824  1.00 20.00     0.019 C 
HETATM    9  C9  UNL     1     -34.384  15.770  -2.556  1.00 20.00     0.060 C 
HETATM   10  O10 UNL     1     -34.447  12.861  -3.851  1.00 20.00    -0.290 OA
HETATM   11  F11 UNL     1     -32.793  14.984  -4.046  1.00 20.00    -0.235 F 
ENDROOT
TORSDOF 0
ENDMDL
MODEL 7
REMARK VINA RESULT:      -4.4      1.591      1.686
REMARK  0 active torsions:
REMARK  status: ('A' for Active; 'I' for Inactive)
ROOT
HETATM    1  C1  UNL     1     -34.677  14.096  -4.240  1.00 20.00     0.050 C 
HETATM    2  C2  UNL     1     -34.252  14.878  -3.241  1.00 20.00    -0.014 C 
HETATM    3  C3  UNL     1     -35.513  14.652  -5.329  1.00 20.00     0.188 C 
HETATM    4  C4  UNL     1     -35.704  16.785  -4.043  1.00 20.00     0.064 C 
HETATM    5  C5  UNL     1     -34.592  16.342  -3.062  1.00 20.00    -0.026 C 
HETATM    6  C6  UNL     1     -35.650  16.158  -5.438  1.00 20.00     0.164 C 
HETATM    7  C7  UNL     1     -33.318  17.188  -3.227  1.00 20.00     0.019 C 
HETATM    8  C8  UNL     1     -35.111  16.554  -1.624  1.00 20.00     0.019 C 
HETATM    9  C9  UNL     1     -34.551  16.703  -6.341  1.00 20.00     0.060 C 
HETATM   10  O10 UNL     1     -36.034  13.892  -6.145  1.00 20.00    -0.290 OA
HETATM   11  F11 UNL     1     -36.837  16.467  -6.050  1.00 20.00    -0.235 F 
ENDROOT
TORSDOF 0
ENDMDL
MODEL 8
REMARK VINA RESULT:      -4.4      1.801      3.074
REMARK  0 active torsions:
REMARK  status: ('A' for Active; 'I' for Inactive)
ROOT
HETATM    1  C1  UNL     1     -37.102  15.576  -5.491  1.00 20.00     0.050 C 
HETATM    2  C2  UNL     1     -36.248  16.387  -6.127  1.00 20.00    -0.014 C 
HETATM    3  C3  UNL     1     -36.604  14.540  -4.556  1.00 20.00     0.188 C 
HETATM    4  C4  UNL     1     -34.271  15.048  -5.296  1.00 20.00     0.064 C 
HETATM    5  C5  UNL     1     -34.739  16.327  -6.031  1.00 20.00    -0.026 C 
HETATM    6  C6  UNL     1     -35.149  14.592  -4.128  1.00 20.00     0.164 C 
HETATM    7  C7  UNL     1     -34.219  17.601  -5.341  1.00 20.00     0.019 C 
HETATM    8  C8  UNL     1     -34.156  16.298  -7.460  1.00 20.00     0.019 C 
HETATM    9  C9  UNL     1     -35.023  15.437  -2.867  1.00 20.00     0.060 C 
HETATM   10  O10 UNL     1     -37.380  13.697  -4.112  1.00 20.00    -0.290 OA
HETATM   11  F11 UNL     1     -34.726  13.333  -3.791  1.00 20.00    -0.235 F 
ENDROOT
TORSDOF 0
ENDMDL
MODEL 9
REMARK VINA RESULT:      -4.3      2.292      3.086
REMARK  0 active torsions:
REMARK  status: ('A' for Active; 'I' for Inactive)
ROOT
HETATM    1  C1  UNL     1     -34.857  17.701  -4.789  1.00 20.00     0.050 C 
HETATM    2  C2  UNL     1     -34.658  17.910  -3.483  1.00 20.00    -0.014 C 
HETATM    3  C3  UNL     1     -34.441  16.427  -5.421  1.00 20.00     0.188 C 
HETATM    4  C4  UNL     1     -33.287  15.795  -3.297  1.00 20.00     0.064 C 
HETATM    5  C5  UNL     1     -33.968  16.956  -2.533  1.00 20.00    -0.026 C 
HETATM    6  C6  UNL     1     -34.039  15.273  -4.523  1.00 20.00     0.164 C 
HETATM    7  C7  UNL     1     -34.984  16.437  -1.499  1.00 20.00     0.019 C 
HETATM    8  C8  UNL     1     -32.874  17.730  -1.765  1.00 20.00     0.019 C 
HETATM    9  C9  UNL     1     -35.266  14.427  -4.206  1.00 20.00     0.060 C 
HETATM   10  O10 UNL     1     -34.475  16.315  -6.645  1.00 20.00    -0.290 OA
HETATM   11  F11 UNL     1     -33.170  14.452  -5.193  1.00 20.00    -0.235 F 
ENDROOT
TORSDOF 0
ENDMDL
