MODEL 1
REMARK VINA RESULT:      -3.9      0.000      0.000
REMARK  5 active torsions:
REMARK  status: ('A' for Active; 'I' for Inactive)
REMARK    1  A    between atoms: C2_2  and  C6_6 
REMARK    2  A    between atoms: C2_2  and  C8_8 
REMARK    3  A    between atoms: C6_6  and  O11_11 
REMARK    4  A    between atoms: C7_7  and  O10_10 
REMARK    5  A    between atoms: C7_7  and  O11_11 
ROOT
HETATM    1  C1  UNL     1     -34.564  17.658  -5.659  1.00 20.00     0.209 A 
HETATM    2  C2  UNL     1     -34.556  16.232  -5.161  1.00 20.00     0.106 A 
HETATM    3  O9  UNL     1     -35.610  17.144  -4.820  1.00 20.00    -0.372 OA
ENDROOT
BRANCH   2   4
HETATM    4  C6  UNL     1     -34.984  15.131  -6.075  1.00 20.00     0.211 C 
BRANCH   4   5
HETATM    5  O11 UNL     1     -36.360  14.827  -5.853  1.00 20.00    -0.364 OA
BRANCH   5   6
HETATM    6  C7  UNL     1     -36.532  13.814  -4.865  1.00 20.00     0.337 C 
BRANCH   6   7
HETATM    7  O10 UNL     1     -37.865  13.704  -4.367  1.00 20.00    -0.372 OA
HETATM    8  C5  UNL     1     -38.498  14.971  -4.239  1.00 20.00     0.204 C 
ENDBRANCH   6   7
ENDBRANCH   5   6
ENDBRANCH   4   5
ENDBRANCH   2   4
BRANCH   2   9
HETATM    9  C8  UNL     1     -33.665  15.853  -3.981  1.00 20.00     0.016 C 
HETATM   10  C3  UNL     1     -34.495  15.707  -2.707  1.00 20.00     0.012 C 
HETATM   11  C4  UNL     1     -32.904  14.562  -4.276  1.00 20.00     0.012 C 
ENDBRANCH   2   9
TORSDOF 5
ENDMDL
MODEL 2
REMARK VINA RESULT:      -3.8      1.480      2.268
REMARK  5 active torsions:
REMARK  status: ('A' for Active; 'I' for Inactive)
REMARK    1  A    between atoms: C2_2  and  C6_6 
REMARK    2  A    between atoms: C2_2  and  C8_8 
REMARK    3  A    between atoms: C6_6  and  O11_11 
REMARK    4  A    between atoms: C7_7  and  O10_10 
REMARK    5  A    between atoms: C7_7  and  O11_11 
ROOT
HETATM    1  C1  UNL     1     -32.583  14.318  -4.507  1.00 20.00     0.209 A 
HETATM    2  C2  UNL     1     -33.941  14.785  -4.042  1.00 20.00     0.106 A 
HETATM    3  O9  UNL     1     -33.522  14.925  -5.407  1.00 20.00    -0.372 OA
ENDROOT
BRANCH   2   4
HETATM    4  C6  UNL     1     -35.036  13.787  -3.849  1.00 20.00     0.211 C 
BRANCH   4   5
HETATM    5  O11 UNL     1     -35.813  13.685  -5.041  1.00 20.00    -0.364 OA
BRANCH   5   6
HETATM    6  C7  UNL     1     -36.970  14.516  -4.999  1.00 20.00     0.337 C 
BRANCH   6   7
HETATM    7  O10 UNL     1     -38.098  13.915  -4.364  1.00 20.00    -0.372 OA
HETATM    8  C5  UNL     1     -39.155  14.843  -4.157  1.00 20.00     0.204 C 
ENDBRANCH   6   7
ENDBRANCH   5   6
ENDBRANCH   4   5
ENDBRANCH   2   4
BRANCH   2   9
HETATM    9  C8  UNL     1     -34.067  16.112  -3.298  1.00 20.00     0.016 C 
HETATM   10  C3  UNL     1     -34.525  17.218  -4.245  1.00 20.00     0.012 C 
HETATM   11  C4  UNL     1     -35.034  15.978  -2.123  1.00 20.00     0.012 C 
ENDBRANCH   2   9
TORSDOF 5
ENDMDL
MODEL 3
REMARK VINA RESULT:      -3.6      1.256      1.622
REMARK  5 active torsions:
REMARK  status: ('A' for Active; 'I' for Inactive)
REMARK    1  A    between atoms: C2_2  and  C6_6 
REMARK    2  A    between atoms: C2_2  and  C8_8 
REMARK    3  A    between atoms: C6_6  and  O11_11 
REMARK    4  A    between atoms: C7_7  and  O10_10 
REMARK    5  A    between atoms: C7_7  and  O11_11 
ROOT
HETATM    1  C1  UNL     1     -33.577  18.606  -4.282  1.00 20.00     0.209 A 
HETATM    2  C2  UNL     1     -33.991  17.162  -4.437  1.00 20.00     0.106 A 
HETATM    3  O9  UNL     1     -34.877  18.145  -3.884  1.00 20.00    -0.372 OA
ENDROOT
BRANCH   2   4
HETATM    4  C6  UNL     1     -34.414  16.658  -5.779  1.00 20.00     0.211 C 
BRANCH   4   5
HETATM    5  O11 UNL     1     -35.735  16.125  -5.700  1.00 20.00    -0.364 OA
BRANCH   5   6
HETATM    6  C7  UNL     1     -35.919  15.020  -6.581  1.00 20.00     0.337 C 
BRANCH   6   7
HETATM    7  O10 UNL     1     -36.008  13.757  -5.923  1.00 20.00    -0.372 OA
HETATM    8  C5  UNL     1     -36.628  13.858  -4.647  1.00 20.00     0.204 C 
ENDBRANCH   6   7
ENDBRANCH   5   6
ENDBRANCH   4   5
ENDBRANCH   2   4
BRANCH   2   9
HETATM    9  C8  UNL     1     -33.510  16.128  -3.423  1.00 20.00     0.016 C 
HETATM   10  C3  UNL     1     -34.609  15.818  -2.409  1.00 20.00     0.012 C 
HETATM   11  C4  UNL     1     -33.059  14.852  -4.131  1.00 20.00     0.012 C 
ENDBRANCH   2   9
TORSDOF 5
ENDMDL
MODEL 4
REMARK VINA RESULT:      -3.5     16.750     18.397
REMARK  5 active torsions:
REMARK  status: ('A' for Active; 'I' for Inactive)
REMARK    1  A    between atoms: C2_2  and  C6_6 
REMARK    2  A    between atoms: C2_2  and  C8_8 
REMARK    3  A    between atoms: C6_6  and  O11_11 
REMARK    4  A    between atoms: C7_7  and  O10_10 
REMARK    5  A    between atoms: C7_7  and  O11_11 
ROOT
HETATM    1  C1  UNL     1     -22.018  17.028   8.884  1.00 20.00     0.209 A 
HETATM    2  C2  UNL     1     -22.887  18.000   9.646  1.00 20.00     0.106 A 
HETATM    3  O9  UNL     1     -21.458  18.004   9.776  1.00 20.00    -0.372 OA
ENDROOT
BRANCH   2   4
HETATM    4  C6  UNL     1     -23.431  19.204   8.948  1.00 20.00     0.211 C 
BRANCH   4   5
HETATM    5  O11 UNL     1     -23.596  18.923   7.559  1.00 20.00    -0.364 OA
BRANCH   5   6
HETATM    6  C7  UNL     1     -24.921  19.199   7.111  1.00 20.00     0.337 C 
BRANCH   6   7
HETATM    7  O10 UNL     1     -25.151  18.884   5.738  1.00 20.00    -0.372 OA
HETATM    8  C5  UNL     1     -26.536  18.849   5.420  1.00 20.00     0.204 C 
ENDBRANCH   6   7
ENDBRANCH   5   6
ENDBRANCH   4   5
ENDBRANCH   2   4
BRANCH   2   9
HETATM    9  C8  UNL     1     -23.618  17.532  10.902  1.00 20.00     0.016 C 
HETATM   10  C3  UNL     1     -22.794  17.842  12.149  1.00 20.00     0.012 C 
HETATM   11  C4  UNL     1     -24.996  18.183  10.994  1.00 20.00     0.012 C 
ENDBRANCH   2   9
TORSDOF 5
ENDMDL
MODEL 5
REMARK VINA RESULT:      -3.5      1.593      3.685
REMARK  5 active torsions:
REMARK  status: ('A' for Active; 'I' for Inactive)
REMARK    1  A    between atoms: C2_2  and  C6_6 
REMARK    2  A    between atoms: C2_2  and  C8_8 
REMARK    3  A    between atoms: C6_6  and  O11_11 
REMARK    4  A    between atoms: C7_7  and  O10_10 
REMARK    5  A    between atoms: C7_7  and  O11_11 
ROOT
HETATM    1  C1  UNL     1     -36.274  13.690  -4.611  1.00 20.00     0.209 A 
HETATM    2  C2  UNL     1     -35.552  14.991  -4.354  1.00 20.00     0.106 A 
HETATM    3  O9  UNL     1     -35.162  14.110  -5.417  1.00 20.00    -0.372 OA
ENDROOT
BRANCH   2   4
HETATM    4  C6  UNL     1     -36.155  16.274  -4.825  1.00 20.00     0.211 C 
BRANCH   4   5
HETATM    5  O11 UNL     1     -35.578  16.648  -6.074  1.00 20.00    -0.364 OA
BRANCH   5   6
HETATM    6  C7  UNL     1     -34.867  17.880  -5.988  1.00 20.00     0.337 C 
BRANCH   6   7
HETATM    7  O10 UNL     1     -34.953  18.517  -4.714  1.00 20.00    -0.372 OA
HETATM    8  C5  UNL     1     -33.727  19.131  -4.336  1.00 20.00     0.204 C 
ENDBRANCH   6   7
ENDBRANCH   5   6
ENDBRANCH   4   5
ENDBRANCH   2   4
BRANCH   2   9
HETATM    9  C8  UNL     1     -34.533  15.074  -3.220  1.00 20.00     0.016 C 
HETATM   10  C3  UNL     1     -33.161  15.473  -3.758  1.00 20.00     0.012 C 
HETATM   11  C4  UNL     1     -34.998  16.062  -2.152  1.00 20.00     0.012 C 
ENDBRANCH   2   9
TORSDOF 5
ENDMDL
MODEL 6
REMARK VINA RESULT:      -3.5      2.126      3.588
REMARK  5 active torsions:
REMARK  status: ('A' for Active; 'I' for Inactive)
REMARK    1  A    between atoms: C2_2  and  C6_6 
REMARK    2  A    between atoms: C2_2  and  C8_8 
REMARK    3  A    between atoms: C6_6  and  O11_11 
REMARK    4  A    between atoms: C7_7  and  O10_10 
REMARK    5  A    between atoms: C7_7  and  O11_11 
ROOT
HETATM    1  C1  UNL     1     -34.180  15.317  -7.137  1.00 20.00     0.209 A 
HETATM    2  C2  UNL     1     -34.758  15.436  -5.747  1.00 20.00     0.106 A 
HETATM    3  O9  UNL     1     -33.772  14.446  -6.072  1.00 20.00    -0.372 OA
ENDROOT
BRANCH   2   4
HETATM    4  C6  UNL     1     -34.258  16.506  -4.831  1.00 20.00     0.211 C 
BRANCH   4   5
HETATM    5  O11 UNL     1     -33.335  15.949  -3.897  1.00 20.00    -0.364 OA
BRANCH   5   6
HETATM    6  C7  UNL     1     -33.570  16.414  -2.570  1.00 20.00     0.337 C 
BRANCH   6   7
HETATM    7  O10 UNL     1     -34.776  15.925  -1.985  1.00 20.00    -0.372 OA
HETATM    8  C5  UNL     1     -35.392  16.888  -1.139  1.00 20.00     0.204 C 
ENDBRANCH   6   7
ENDBRANCH   5   6
ENDBRANCH   4   5
ENDBRANCH   2   4
BRANCH   2   9
HETATM    9  C8  UNL     1     -36.139  14.856  -5.454  1.00 20.00     0.016 C 
HETATM   10  C3  UNL     1     -36.031  13.667  -4.502  1.00 20.00     0.012 C 
HETATM   11  C4  UNL     1     -37.058  15.927  -4.870  1.00 20.00     0.012 C 
ENDBRANCH   2   9
TORSDOF 5
ENDMDL
MODEL 7
REMARK VINA RESULT:      -3.5      1.781      2.927
REMARK  5 active torsions:
REMARK  status: ('A' for Active; 'I' for Inactive)
REMARK    1  A    between atoms: C2_2  and  C6_6 
REMARK    2  A    between atoms: C2_2  and  C8_8 
REMARK    3  A    between atoms: C6_6  and  O11_11 
REMARK    4  A    between atoms: C7_7  and  O10_10 
REMARK    5  A    between atoms: C7_7  and  O11_11 
ROOT
HETATM    1  C1  UNL     1     -36.216  13.642  -4.564  1.00 20.00     0.209 A 
HETATM    2  C2  UNL     1     -35.560  14.979  -4.315  1.00 20.00     0.106 A 
HETATM    3  O9  UNL     1     -35.129  14.114  -5.375  1.00 20.00    -0.372 OA
ENDROOT
BRANCH   2   4
HETATM    4  C6  UNL     1     -36.229  16.227  -4.791  1.00 20.00     0.211 C 
BRANCH   4   5
HETATM    5  O11 UNL     1     -35.680  16.620  -6.047  1.00 20.00    -0.364 OA
BRANCH   5   6
HETATM    6  C7  UNL     1     -36.679  16.729  -7.058  1.00 20.00     0.337 C 
BRANCH   6   7
HETATM    7  O10 UNL     1     -37.907  16.076  -6.738  1.00 20.00    -0.372 OA
HETATM    8  C5  UNL     1     -39.040  16.830  -7.150  1.00 20.00     0.204 C 
ENDBRANCH   6   7
ENDBRANCH   5   6
ENDBRANCH   4   5
ENDBRANCH   2   4
BRANCH   2   9
HETATM    9  C8  UNL     1     -34.544  15.119  -3.184  1.00 20.00     0.016 C 
HETATM   10  C3  UNL     1     -33.194  15.579  -3.729  1.00 20.00     0.012 C 
HETATM   11  C4  UNL     1     -35.054  16.092  -2.123  1.00 20.00     0.012 C 
ENDBRANCH   2   9
TORSDOF 5
ENDMDL
MODEL 8
REMARK VINA RESULT:      -3.4      1.569      1.798
REMARK  5 active torsions:
REMARK  status: ('A' for Active; 'I' for Inactive)
REMARK    1  A    between atoms: C2_2  and  C6_6 
REMARK    2  A    between atoms: C2_2  and  C8_8 
REMARK    3  A    between atoms: C6_6  and  O11_11 
REMARK    4  A    between atoms: C7_7  and  O10_10 
REMARK    5  A    between atoms: C7_7  and  O11_11 
ROOT
HETATM    1  C1  UNL     1     -35.751  18.213  -4.512  1.00 20.00     0.209 A 
HETATM    2  C2  UNL     1     -35.233  17.084  -3.654  1.00 20.00     0.106 A 
HETATM    3  O9  UNL     1     -36.589  17.543  -3.557  1.00 20.00    -0.372 OA
ENDROOT
BRANCH   2   4
HETATM    4  C6  UNL     1     -35.102  15.715  -4.239  1.00 20.00     0.211 C 
BRANCH   4   5
HETATM    5  O11 UNL     1     -36.063  14.843  -3.647  1.00 20.00    -0.364 OA
BRANCH   5   6
HETATM    6  C7  UNL     1     -36.634  13.950  -4.599  1.00 20.00     0.337 C 
BRANCH   6   7
HETATM    7  O10 UNL     1     -38.033  13.728  -4.427  1.00 20.00    -0.372 OA
HETATM    8  C5  UNL     1     -38.742  14.935  -4.176  1.00 20.00     0.204 C 
ENDBRANCH   6   7
ENDBRANCH   5   6
ENDBRANCH   4   5
ENDBRANCH   2   4
BRANCH   2   9
HETATM    9  C8  UNL     1     -34.387  17.401  -2.423  1.00 20.00     0.016 C 
HETATM   10  C3  UNL     1     -35.100  16.949  -1.151  1.00 20.00     0.012 C 
HETATM   11  C4  UNL     1     -33.014  16.741  -2.532  1.00 20.00     0.012 C 
ENDBRANCH   2   9
TORSDOF 5
ENDMDL
MODEL 9
REMARK VINA RESULT:      -3.4      1.918      3.048
REMARK  5 active torsions:
REMARK  status: ('A' for Active; 'I' for Inactive)
REMARK    1  A    between atoms: C2_2  and  C6_6 
REMARK    2  A    between atoms: C2_2  and  C8_8 
REMARK    3  A    between atoms: C6_6  and  O11_11 
REMARK    4  A    between atoms: C7_7  and  O10_10 
REMARK    5  A    between atoms: C7_7  and  O11_11 
ROOT
HETATM    1  C1  UNL     1     -34.770  13.859  -4.037  1.00 20.00     0.209 A 
HETATM    2  C2  UNL     1     -34.959  15.316  -3.688  1.00 20.00     0.106 A 
HETATM    3  O9  UNL     1     -34.101  14.903  -4.761  1.00 20.00    -0.372 OA
ENDROOT
BRANCH   2   4
HETATM    4  C6  UNL     1     -36.191  16.028  -4.143  1.00 20.00     0.211 C 
BRANCH   4   5
HETATM    5  O11 UNL     1     -35.859  16.961  -5.169  1.00 20.00    -0.364 OA
BRANCH   5   6
HETATM    6  C7  UNL     1     -36.631  16.757  -6.349  1.00 20.00     0.337 C 
BRANCH   6   7
HETATM    7  O10 UNL     1     -36.725  15.393  -6.757  1.00 20.00    -0.372 OA
HETATM    8  C5  UNL     1     -35.863  15.097  -7.848  1.00 20.00     0.204 C 
ENDBRANCH   6   7
ENDBRANCH   5   6
ENDBRANCH   4   5
ENDBRANCH   2   4
BRANCH   2   9
HETATM    9  C8  UNL     1     -34.211  15.907  -2.495  1.00 20.00     0.016 C 
HETATM   10  C3  UNL     1     -33.127  16.873  -2.967  1.00 20.00     0.012 C 
HETATM   11  C4  UNL     1     -35.182  16.612  -1.550  1.00 20.00     0.012 C 
ENDBRANCH   2   9
TORSDOF 5
ENDMDL
