MODEL 1
REMARK VINA RESULT:      -3.9      0.000      0.000
REMARK  1 active torsions:
REMARK  status: ('A' for Active; 'I' for Inactive)
REMARK    1  A    between atoms: C4_4  and  C5_5 
ROOT
HETATM    1  C1  UNL     1     -32.527   6.551   2.750  1.00 20.00     0.015 C 
HETATM    2  C2  UNL     1     -33.520   5.964   3.083  1.00 20.00    -0.083 C 
HETATM    3  C3  UNL     1     -34.701   5.265   3.479  1.00 20.00     0.229 A 
HETATM    4  C4  UNL     1     -34.987   4.958   4.928  1.00 20.00     0.177 A 
HETATM    5  O6  UNL     1     -34.429   3.975   4.052  1.00 20.00    -0.361 OA
ENDROOT
BRANCH   4   6
HETATM    6  C5  UNL     1     -34.094   5.369   6.045  1.00 20.00     0.150 C 
HETATM    7 CL7  UNL     1     -34.046   7.146   6.217  1.00 20.00    -0.128 Cl
ENDBRANCH   4   6
TORSDOF 1
ENDMDL
MODEL 2
REMARK VINA RESULT:      -3.8      2.364      3.156
REMARK  1 active torsions:
REMARK  status: ('A' for Active; 'I' for Inactive)
REMARK    1  A    between atoms: C4_4  and  C5_5 
ROOT
HETATM    1  C1  UNL     1     -33.688   7.308   6.285  1.00 20.00     0.015 C 
HETATM    2  C2  UNL     1     -34.214   6.308   5.876  1.00 20.00    -0.083 C 
HETATM    3  C3  UNL     1     -34.839   5.119   5.389  1.00 20.00     0.229 A 
HETATM    4  C4  UNL     1     -34.591   4.616   3.989  1.00 20.00     0.177 A 
HETATM    5  O6  UNL     1     -35.764   5.367   4.316  1.00 20.00    -0.361 OA
ENDROOT
BRANCH   4   6
HETATM    6  C5  UNL     1     -33.676   5.286   3.026  1.00 20.00     0.150 C 
HETATM    7 CL7  UNL     1     -32.920   4.105   1.920  1.00 20.00    -0.128 Cl
ENDBRANCH   4   6
TORSDOF 1
ENDMDL
MODEL 3
REMARK VINA RESULT:      -3.7      2.086      3.203
REMARK  1 active torsions:
REMARK  status: ('A' for Active; 'I' for Inactive)
REMARK    1  A    between atoms: C4_4  and  C5_5 
ROOT
HETATM    1  C1  UNL     1     -34.825   5.541   5.987  1.00 20.00     0.015 C 
HETATM    2  C2  UNL     1     -34.476   5.104   4.924  1.00 20.00    -0.083 C 
HETATM    3  C3  UNL     1     -34.061   4.584   3.659  1.00 20.00     0.229 A 
HETATM    4  C4  UNL     1     -33.172   5.378   2.735  1.00 20.00     0.177 A 
HETATM    5  O6  UNL     1     -34.589   5.323   2.544  1.00 20.00    -0.361 OA
ENDROOT
BRANCH   4   6
HETATM    6  C5  UNL     1     -32.644   6.730   3.064  1.00 20.00     0.150 C 
HETATM    7 CL7  UNL     1     -32.545   7.761   1.610  1.00 20.00    -0.128 Cl
ENDBRANCH   4   6
TORSDOF 1
ENDMDL
MODEL 4
REMARK VINA RESULT:      -3.6     12.491     13.003
REMARK  1 active torsions:
REMARK  status: ('A' for Active; 'I' for Inactive)
REMARK    1  A    between atoms: C4_4  and  C5_5 
ROOT
HETATM    1  C1  UNL     1     -34.789  16.128  -2.018  1.00 20.00     0.015 C 
HETATM    2  C2  UNL     1     -34.120  15.725  -2.931  1.00 20.00    -0.083 C 
HETATM    3  C3  UNL     1     -33.326  15.244  -4.017  1.00 20.00     0.229 A 
HETATM    4  C4  UNL     1     -33.945  14.862  -5.338  1.00 20.00     0.177 A 
HETATM    5  O6  UNL     1     -33.606  13.876  -4.359  1.00 20.00    -0.361 OA
ENDROOT
BRANCH   4   6
HETATM    6  C5  UNL     1     -35.401  14.975  -5.625  1.00 20.00     0.150 C 
HETATM    7 CL7  UNL     1     -36.316  13.641  -4.869  1.00 20.00    -0.128 Cl
ENDBRANCH   4   6
TORSDOF 1
ENDMDL
MODEL 5
REMARK VINA RESULT:      -3.5     16.571     17.152
REMARK  1 active torsions:
REMARK  status: ('A' for Active; 'I' for Inactive)
REMARK    1  A    between atoms: C4_4  and  C5_5 
ROOT
HETATM    1  C1  UNL     1     -26.174  19.175  11.898  1.00 20.00     0.015 C 
HETATM    2  C2  UNL     1     -25.688  18.077  11.916  1.00 20.00    -0.083 C 
HETATM    3  C3  UNL     1     -25.108  16.771  11.936  1.00 20.00     0.229 A 
HETATM    4  C4  UNL     1     -23.618  16.569  11.812  1.00 20.00     0.177 A 
HETATM    5  O6  UNL     1     -24.490  16.408  10.690  1.00 20.00    -0.361 OA
ENDROOT
BRANCH   4   6
HETATM    6  C5  UNL     1     -22.645  17.687  11.685  1.00 20.00     0.150 C 
HETATM    7 CL7  UNL     1     -22.504  18.236   9.992  1.00 20.00    -0.128 Cl
ENDBRANCH   4   6
TORSDOF 1
ENDMDL
MODEL 6
REMARK VINA RESULT:      -3.4     17.249     17.722
REMARK  1 active torsions:
REMARK  status: ('A' for Active; 'I' for Inactive)
REMARK    1  A    between atoms: C4_4  and  C5_5 
ROOT
HETATM    1  C1  UNL     1     -25.249  19.138   7.925  1.00 20.00     0.015 C 
HETATM    2  C2  UNL     1     -24.145  18.688   8.069  1.00 20.00    -0.083 C 
HETATM    3  C3  UNL     1     -22.831  18.154   8.242  1.00 20.00     0.229 A 
HETATM    4  C4  UNL     1     -22.282  17.838   9.611  1.00 20.00     0.177 A 
HETATM    5  O6  UNL     1     -21.943  19.050   8.931  1.00 20.00    -0.361 OA
ENDROOT
BRANCH   4   6
HETATM    6  C5  UNL     1     -23.054  18.030  10.868  1.00 20.00     0.150 C 
HETATM    7 CL7  UNL     1     -22.028  17.767  12.306  1.00 20.00    -0.128 Cl
ENDBRANCH   4   6
TORSDOF 1
ENDMDL
MODEL 7
REMARK VINA RESULT:      -3.4     12.592     12.732
REMARK  1 active torsions:
REMARK  status: ('A' for Active; 'I' for Inactive)
REMARK    1  A    between atoms: C4_4  and  C5_5 
ROOT
HETATM    1  C1  UNL     1     -34.582  16.005  -2.213  1.00 20.00     0.015 C 
HETATM    2  C2  UNL     1     -34.599  15.293  -3.181  1.00 20.00    -0.083 C 
HETATM    3  C3  UNL     1     -34.619  14.445  -4.331  1.00 20.00     0.229 A 
HETATM    4  C4  UNL     1     -35.915  13.939  -4.913  1.00 20.00     0.177 A 
HETATM    5  O6  UNL     1     -35.115  13.125  -4.051  1.00 20.00    -0.361 OA
ENDROOT
BRANCH   4   6
HETATM    6  C5  UNL     1     -37.254  14.291  -4.367  1.00 20.00     0.150 C 
HETATM    7 CL7  UNL     1     -37.877  15.797  -5.097  1.00 20.00    -0.128 Cl
ENDBRANCH   4   6
TORSDOF 1
ENDMDL
MODEL 8
REMARK VINA RESULT:      -3.4      9.194      9.458
REMARK  1 active torsions:
REMARK  status: ('A' for Active; 'I' for Inactive)
REMARK    1  A    between atoms: C4_4  and  C5_5 
ROOT
HETATM    1  C1  UNL     1     -41.546   9.167   0.322  1.00 20.00     0.015 C 
HETATM    2  C2  UNL     1     -41.425   8.183  -0.356  1.00 20.00    -0.083 C 
HETATM    3  C3  UNL     1     -41.282   7.012  -1.162  1.00 20.00     0.229 A 
HETATM    4  C4  UNL     1     -42.243   5.854  -1.049  1.00 20.00     0.177 A 
HETATM    5  O6  UNL     1     -40.969   5.835  -0.398  1.00 20.00    -0.361 OA
ENDROOT
BRANCH   4   6
HETATM    6  C5  UNL     1     -43.410   5.845  -0.127  1.00 20.00     0.150 C 
HETATM    7 CL7  UNL     1     -42.940   5.305   1.509  1.00 20.00    -0.128 Cl
ENDBRANCH   4   6
TORSDOF 1
ENDMDL
MODEL 9
REMARK VINA RESULT:      -3.4     16.370     16.931
REMARK  1 active torsions:
REMARK  status: ('A' for Active; 'I' for Inactive)
REMARK    1  A    between atoms: C4_4  and  C5_5 
ROOT
HETATM    1  C1  UNL     1     -22.483  18.365   9.363  1.00 20.00     0.015 C 
HETATM    2  C2  UNL     1     -23.203  17.551   9.876  1.00 20.00    -0.083 C 
HETATM    3  C3  UNL     1     -24.058  16.584  10.488  1.00 20.00     0.229 A 
HETATM    4  C4  UNL     1     -24.894  16.924  11.697  1.00 20.00     0.177 A 
HETATM    5  O6  UNL     1     -23.649  16.231  11.820  1.00 20.00    -0.361 OA
ENDROOT
BRANCH   4   6
HETATM    6  C5  UNL     1     -24.917  18.272  12.326  1.00 20.00     0.150 C 
HETATM    7 CL7  UNL     1     -26.260  19.263  11.689  1.00 20.00    -0.128 Cl
ENDBRANCH   4   6
TORSDOF 1
ENDMDL
