MODEL 1
REMARK VINA RESULT:      -4.5      0.000      0.000
REMARK  1 active torsions:
REMARK  status: ('A' for Active; 'I' for Inactive)
REMARK    1  A    between atoms: C5_5  and  C7_7 
ROOT
HETATM    1  C1  UNL     1     -35.184   5.380   5.086  1.00 20.00     0.003 C 
HETATM    2  C2  UNL     1     -34.129   6.149   5.875  1.00 20.00     0.003 C 
HETATM    3  C3  UNL     1     -34.486   5.057   3.763  1.00 20.00     0.041 C 
HETATM    4  C4  UNL     1     -33.467   7.040   4.821  1.00 20.00     0.041 C 
HETATM    5  C5  UNL     1     -33.139   6.704   2.201  1.00 20.00     0.167 A 
HETATM    6  C6  UNL     1     -33.555   6.217   3.570  1.00 20.00     0.088 A 
HETATM    7  O8  UNL     1     -32.286   5.869   2.990  1.00 20.00    -0.368 OA
ENDROOT
BRANCH   5   8
HETATM    8  C7  UNL     1     -32.617   8.077   1.968  1.00 20.00     0.120 C 
HETATM    9 BR9  UNL     1     -33.119   8.708   0.190  1.00 20.00    -0.094 Br
ENDBRANCH   5   8
TORSDOF 1
ENDMDL
MODEL 2
REMARK VINA RESULT:      -3.9     11.188     11.941
REMARK  1 active torsions:
REMARK  status: ('A' for Active; 'I' for Inactive)
REMARK    1  A    between atoms: C5_5  and  C7_7 
ROOT
HETATM    1  C1  UNL     1     -34.843  16.409  -1.991  1.00 20.00     0.003 C 
HETATM    2  C2  UNL     1     -33.381  16.678  -2.337  1.00 20.00     0.003 C 
HETATM    3  C3  UNL     1     -35.174  15.138  -2.777  1.00 20.00     0.041 C 
HETATM    4  C4  UNL     1     -33.293  16.341  -3.826  1.00 20.00     0.041 C 
HETATM    5  C5  UNL     1     -34.686  14.635  -5.322  1.00 20.00     0.167 A 
HETATM    6  C6  UNL     1     -34.302  15.244  -3.993  1.00 20.00     0.088 A 
HETATM    7  O8  UNL     1     -33.759  13.991  -4.443  1.00 20.00    -0.368 OA
ENDROOT
BRANCH   5   8
HETATM    8  C7  UNL     1     -34.101  15.098  -6.609  1.00 20.00     0.120 C 
HETATM    9 BR9  UNL     1     -35.509  15.442  -7.917  1.00 20.00    -0.094 Br
ENDBRANCH   5   8
TORSDOF 1
ENDMDL
MODEL 3
REMARK VINA RESULT:      -3.8      9.362      9.935
REMARK  1 active torsions:
REMARK  status: ('A' for Active; 'I' for Inactive)
REMARK    1  A    between atoms: C5_5  and  C7_7 
ROOT
HETATM    1  C1  UNL     1     -41.539   8.252   0.747  1.00 20.00     0.003 C 
HETATM    2  C2  UNL     1     -41.590   8.726  -0.703  1.00 20.00     0.003 C 
HETATM    3  C3  UNL     1     -41.129   6.781   0.634  1.00 20.00     0.041 C 
HETATM    4  C4  UNL     1     -42.210   7.544  -1.449  1.00 20.00     0.041 C 
HETATM    5  C5  UNL     1     -42.159   4.931  -0.941  1.00 20.00     0.167 A 
HETATM    6  C6  UNL     1     -41.726   6.354  -0.674  1.00 20.00     0.088 A 
HETATM    7  O8  UNL     1     -40.912   5.437  -1.425  1.00 20.00    -0.368 OA
ENDROOT
BRANCH   5   8
HETATM    8  C7  UNL     1     -43.141   4.582  -2.003  1.00 20.00     0.120 C 
HETATM    9 BR9  UNL     1     -42.500   3.069  -3.058  1.00 20.00    -0.094 Br
ENDBRANCH   5   8
TORSDOF 1
ENDMDL
MODEL 4
REMARK VINA RESULT:      -3.8     11.247     11.901
REMARK  1 active torsions:
REMARK  status: ('A' for Active; 'I' for Inactive)
REMARK    1  A    between atoms: C5_5  and  C7_7 
ROOT
HETATM    1  C1  UNL     1     -34.225  16.659  -2.225  1.00 20.00     0.003 C 
HETATM    2  C2  UNL     1     -32.998  16.279  -3.048  1.00 20.00     0.003 C 
HETATM    3  C3  UNL     1     -35.198  15.502  -2.467  1.00 20.00     0.041 C 
HETATM    4  C4  UNL     1     -33.589  15.689  -4.329  1.00 20.00     0.041 C 
HETATM    5  C5  UNL     1     -35.892  14.429  -4.777  1.00 20.00     0.167 A 
HETATM    6  C6  UNL     1     -34.866  15.056  -3.861  1.00 20.00     0.088 A 
HETATM    7  O8  UNL     1     -34.942  13.635  -4.061  1.00 20.00    -0.368 OA
ENDROOT
BRANCH   5   8
HETATM    8  C7  UNL     1     -35.730  14.405  -6.256  1.00 20.00     0.120 C 
HETATM    9 BR9  UNL     1     -36.426  16.049  -7.048  1.00 20.00    -0.094 Br
ENDBRANCH   5   8
TORSDOF 1
ENDMDL
MODEL 5
REMARK VINA RESULT:      -3.7     10.988     11.888
REMARK  1 active torsions:
REMARK  status: ('A' for Active; 'I' for Inactive)
REMARK    1  A    between atoms: C5_5  and  C7_7 
ROOT
HETATM    1  C1  UNL     1     -32.979  17.726  -1.534  1.00 20.00     0.003 C 
HETATM    2  C2  UNL     1     -34.436  17.515  -1.133  1.00 20.00     0.003 C 
HETATM    3  C3  UNL     1     -32.947  17.330  -3.012  1.00 20.00     0.041 C 
HETATM    4  C4  UNL     1     -34.828  16.226  -1.858  1.00 20.00     0.041 C 
HETATM    5  C5  UNL     1     -33.939  15.151  -4.125  1.00 20.00     0.167 A 
HETATM    6  C6  UNL     1     -34.004  16.269  -3.110  1.00 20.00     0.088 A 
HETATM    7  O8  UNL     1     -34.764  16.302  -4.329  1.00 20.00    -0.368 OA
ENDROOT
BRANCH   5   8
HETATM    8  C7  UNL     1     -34.685  13.876  -3.955  1.00 20.00     0.120 C 
HETATM    9 BR9  UNL     1     -36.507  14.052  -4.633  1.00 20.00    -0.094 Br
ENDBRANCH   5   8
TORSDOF 1
ENDMDL
MODEL 6
REMARK VINA RESULT:      -3.7     11.589     12.254
REMARK  1 active torsions:
REMARK  status: ('A' for Active; 'I' for Inactive)
REMARK    1  A    between atoms: C5_5  and  C7_7 
ROOT
HETATM    1  C1  UNL     1     -34.413  15.627  -2.676  1.00 20.00     0.003 C 
HETATM    2  C2  UNL     1     -33.342  16.554  -3.244  1.00 20.00     0.003 C 
HETATM    3  C3  UNL     1     -35.180  16.516  -1.694  1.00 20.00     0.041 C 
HETATM    4  C4  UNL     1     -32.889  17.369  -2.031  1.00 20.00     0.041 C 
HETATM    5  C5  UNL     1     -34.187  18.087   0.180  1.00 20.00     0.167 A 
HETATM    6  C6  UNL     1     -34.133  17.468  -1.198  1.00 20.00     0.088 A 
HETATM    7  O8  UNL     1     -34.606  18.809  -0.982  1.00 20.00    -0.368 OA
ENDROOT
BRANCH   5   8
HETATM    8  C7  UNL     1     -32.982  18.642   0.853  1.00 20.00     0.120 C 
HETATM    9 BR9  UNL     1     -32.849  17.972   2.682  1.00 20.00    -0.094 Br
ENDBRANCH   5   8
TORSDOF 1
ENDMDL
MODEL 7
REMARK VINA RESULT:      -3.6     11.216     11.881
REMARK  1 active torsions:
REMARK  status: ('A' for Active; 'I' for Inactive)
REMARK    1  A    between atoms: C5_5  and  C7_7 
ROOT
HETATM    1  C1  UNL     1     -34.510  14.086  -3.870  1.00 20.00     0.003 C 
HETATM    2  C2  UNL     1     -33.323  14.961  -4.264  1.00 20.00     0.003 C 
HETATM    3  C3  UNL     1     -35.543  15.089  -3.348  1.00 20.00     0.041 C 
HETATM    4  C4  UNL     1     -33.262  16.011  -3.154  1.00 20.00     0.041 C 
HETATM    5  C5  UNL     1     -35.170  17.036  -1.606  1.00 20.00     0.167 A 
HETATM    6  C6  UNL     1     -34.699  16.181  -2.760  1.00 20.00     0.088 A 
HETATM    7  O8  UNL     1     -35.224  17.505  -2.956  1.00 20.00    -0.368 OA
ENDROOT
BRANCH   5   8
HETATM    8  C7  UNL     1     -34.227  17.780  -0.729  1.00 20.00     0.120 C 
HETATM    9 BR9  UNL     1     -34.884  17.816   1.110  1.00 20.00    -0.094 Br
ENDBRANCH   5   8
TORSDOF 1
ENDMDL
MODEL 8
REMARK VINA RESULT:      -3.5     11.181     12.038
REMARK  1 active torsions:
REMARK  status: ('A' for Active; 'I' for Inactive)
REMARK    1  A    between atoms: C5_5  and  C7_7 
ROOT
HETATM    1  C1  UNL     1     -33.426  15.020  -4.205  1.00 20.00     0.003 C 
HETATM    2  C2  UNL     1     -34.644  14.149  -3.907  1.00 20.00     0.003 C 
HETATM    3  C3  UNL     1     -33.399  16.016  -3.044  1.00 20.00     0.041 C 
HETATM    4  C4  UNL     1     -35.682  15.145  -3.386  1.00 20.00     0.041 C 
HETATM    5  C5  UNL     1     -35.398  17.461  -2.104  1.00 20.00     0.167 A 
HETATM    6  C6  UNL     1     -34.848  16.183  -2.695  1.00 20.00     0.088 A 
HETATM    7  O8  UNL     1     -35.107  16.323  -1.288  1.00 20.00    -0.368 OA
ENDROOT
BRANCH   5   8
HETATM    8  C7  UNL     1     -36.840  17.817  -2.178  1.00 20.00     0.120 C 
HETATM    9 BR9  UNL     1     -37.524  18.276  -0.408  1.00 20.00    -0.094 Br
ENDBRANCH   5   8
TORSDOF 1
ENDMDL
MODEL 9
REMARK VINA RESULT:      -3.5     11.186     12.400
REMARK  1 active torsions:
REMARK  status: ('A' for Active; 'I' for Inactive)
REMARK    1  A    between atoms: C5_5  and  C7_7 
ROOT
HETATM    1  C1  UNL     1     -33.525  14.795  -4.525  1.00 20.00     0.003 C 
HETATM    2  C2  UNL     1     -33.916  14.868  -5.999  1.00 20.00     0.003 C 
HETATM    3  C3  UNL     1     -34.735  14.133  -3.861  1.00 20.00     0.041 C 
HETATM    4  C4  UNL     1     -35.399  15.244  -5.961  1.00 20.00     0.041 C 
HETATM    5  C5  UNL     1     -37.282  14.764  -4.142  1.00 20.00     0.167 A 
HETATM    6  C6  UNL     1     -35.888  14.594  -4.701  1.00 20.00     0.088 A 
HETATM    7  O8  UNL     1     -36.913  13.605  -4.894  1.00 20.00    -0.368 OA
ENDROOT
BRANCH   5   8
HETATM    8  C7  UNL     1     -38.303  15.627  -4.795  1.00 20.00     0.120 C 
HETATM    9 BR9  UNL     1     -39.974  15.594  -3.786  1.00 20.00    -0.094 Br
ENDBRANCH   5   8
TORSDOF 1
ENDMDL
