MODEL 1
REMARK VINA RESULT:      -3.8      0.000      0.000
REMARK  1 active torsions:
REMARK  status: ('A' for Active; 'I' for Inactive)
REMARK    1  A    between atoms: C3_3  and  C9_9 
ROOT
HETATM    1  C1  UNL     1     -35.903  16.326  -4.366  1.00 20.00     0.178 C 
HETATM    2  C2  UNL     1     -33.780  14.935  -4.817  1.00 20.00     0.087 C 
HETATM    3  C3  UNL     1     -34.592  15.925  -2.396  1.00 20.00     0.185 C 
HETATM    4  C4  UNL     1     -35.068  15.552  -5.414  1.00 20.00    -0.018 C 
HETATM    5  C5  UNL     1     -35.920  14.400  -5.987  1.00 20.00     0.018 C 
HETATM    6  C6  UNL     1     -34.716  16.507  -6.568  1.00 20.00     0.018 C 
HETATM    7  O10 UNL     1     -35.827  15.695  -3.090  1.00 20.00    -0.374 OA
HETATM    8  S11 UNL     1     -33.098  15.907  -3.444  1.00 20.00    -0.136 SA
ENDROOT
BRANCH   3   9
HETATM    9  C9  UNL     1     -34.668  17.229  -1.611  1.00 20.00     0.017 C 
HETATM   10  C7  UNL     1     -35.393  17.019  -0.282  1.00 20.00     0.013 C 
HETATM   11  C8  UNL     1     -33.270  17.800  -1.372  1.00 20.00     0.013 C 
ENDBRANCH   3   9
TORSDOF 1
ENDMDL
MODEL 2
REMARK VINA RESULT:      -3.8      1.566      1.940
REMARK  1 active torsions:
REMARK  status: ('A' for Active; 'I' for Inactive)
REMARK    1  A    between atoms: C3_3  and  C9_9 
ROOT
HETATM    1  C1  UNL     1     -34.977  16.859  -5.920  1.00 20.00     0.178 C 
HETATM    2  C2  UNL     1     -35.702  14.386  -5.878  1.00 20.00     0.087 C 
HETATM    3  C3  UNL     1     -35.630  16.096  -3.741  1.00 20.00     0.185 C 
HETATM    4  C4  UNL     1     -35.229  15.576  -6.747  1.00 20.00    -0.018 C 
HETATM    5  C5  UNL     1     -36.325  15.858  -7.795  1.00 20.00     0.018 C 
HETATM    6  C6  UNL     1     -33.935  15.208  -7.495  1.00 20.00     0.018 C 
HETATM    7  O10 UNL     1     -35.912  16.964  -4.849  1.00 20.00    -0.374 OA
HETATM    8  S11 UNL     1     -35.036  14.431  -4.190  1.00 20.00    -0.136 SA
ENDROOT
BRANCH   3   9
HETATM    9  C9  UNL     1     -34.648  16.766  -2.788  1.00 20.00     0.017 C 
HETATM   10  C7  UNL     1     -35.114  16.621  -1.339  1.00 20.00     0.013 C 
HETATM   11  C8  UNL     1     -33.246  16.183  -2.957  1.00 20.00     0.013 C 
ENDBRANCH   3   9
TORSDOF 1
ENDMDL
MODEL 3
REMARK VINA RESULT:      -3.7      1.557      2.399
REMARK  1 active torsions:
REMARK  status: ('A' for Active; 'I' for Inactive)
REMARK    1  A    between atoms: C3_3  and  C9_9 
ROOT
HETATM    1  C1  UNL     1     -34.208  14.954  -4.283  1.00 20.00     0.178 C 
HETATM    2  C2  UNL     1     -36.399  16.184  -4.859  1.00 20.00     0.087 C 
HETATM    3  C3  UNL     1     -34.360  17.137  -3.298  1.00 20.00     0.185 C 
HETATM    4  C4  UNL     1     -35.540  14.914  -5.070  1.00 20.00    -0.018 C 
HETATM    5  C5  UNL     1     -35.232  14.799  -6.578  1.00 20.00     0.018 C 
HETATM    6  C6  UNL     1     -36.327  13.661  -4.645  1.00 20.00     0.018 C 
HETATM    7  O10 UNL     1     -33.688  16.280  -4.233  1.00 20.00    -0.374 OA
HETATM    8  S11 UNL     1     -36.171  16.931  -3.220  1.00 20.00    -0.136 SA
ENDROOT
BRANCH   3   9
HETATM    9  C9  UNL     1     -33.752  16.976  -1.910  1.00 20.00     0.017 C 
HETATM   10  C7  UNL     1     -32.561  17.916  -1.729  1.00 20.00     0.013 C 
HETATM   11  C8  UNL     1     -34.800  17.229  -0.827  1.00 20.00     0.013 C 
ENDBRANCH   3   9
TORSDOF 1
ENDMDL
MODEL 4
REMARK VINA RESULT:      -3.7      1.794      2.692
REMARK  1 active torsions:
REMARK  status: ('A' for Active; 'I' for Inactive)
REMARK    1  A    between atoms: C3_3  and  C9_9 
ROOT
HETATM    1  C1  UNL     1     -33.153  15.926  -3.542  1.00 20.00     0.178 C 
HETATM    2  C2  UNL     1     -35.692  16.325  -3.740  1.00 20.00     0.087 C 
HETATM    3  C3  UNL     1     -33.921  17.813  -2.273  1.00 20.00     0.185 C 
HETATM    4  C4  UNL     1     -34.481  15.475  -4.195  1.00 20.00    -0.018 C 
HETATM    5  C5  UNL     1     -34.361  15.609  -5.727  1.00 20.00     0.018 C 
HETATM    6  C6  UNL     1     -34.717  13.991  -3.861  1.00 20.00     0.018 C 
HETATM    7  O10 UNL     1     -33.126  17.341  -3.372  1.00 20.00    -0.374 OA
HETATM    8  S11 UNL     1     -35.518  16.959  -2.048  1.00 20.00    -0.136 SA
ENDROOT
BRANCH   3   9
HETATM    9  C9  UNL     1     -33.112  17.764  -0.983  1.00 20.00     0.017 C 
HETATM   10  C7  UNL     1     -31.823  18.575  -1.121  1.00 20.00     0.013 C 
HETATM   11  C8  UNL     1     -33.940  18.275   0.195  1.00 20.00     0.013 C 
ENDBRANCH   3   9
TORSDOF 1
ENDMDL
MODEL 5
REMARK VINA RESULT:      -3.6      2.266      3.331
REMARK  1 active torsions:
REMARK  status: ('A' for Active; 'I' for Inactive)
REMARK    1  A    between atoms: C3_3  and  C9_9 
ROOT
HETATM    1  C1  UNL     1     -36.864  17.008  -4.079  1.00 20.00     0.178 C 
HETATM    2  C2  UNL     1     -37.888  14.651  -4.294  1.00 20.00     0.087 C 
HETATM    3  C3  UNL     1     -35.375  15.257  -3.388  1.00 20.00     0.185 C 
HETATM    4  C4  UNL     1     -38.116  16.175  -4.447  1.00 20.00    -0.018 C 
HETATM    5  C5  UNL     1     -39.279  16.573  -3.514  1.00 20.00     0.018 C 
HETATM    6  C6  UNL     1     -38.525  16.510  -5.892  1.00 20.00     0.018 C 
HETATM    7  O10 UNL     1     -36.150  16.403  -3.004  1.00 20.00    -0.374 OA
HETATM    8  S11 UNL     1     -36.170  14.156  -4.607  1.00 20.00    -0.136 SA
ENDROOT
BRANCH   3   9
HETATM    9  C9  UNL     1     -34.006  15.697  -3.891  1.00 20.00     0.017 C 
HETATM   10  C7  UNL     1     -33.249  16.459  -2.803  1.00 20.00     0.013 C 
HETATM   11  C8  UNL     1     -33.190  14.494  -4.364  1.00 20.00     0.013 C 
ENDBRANCH   3   9
TORSDOF 1
ENDMDL
MODEL 6
REMARK VINA RESULT:      -3.6      1.500      2.020
REMARK  1 active torsions:
REMARK  status: ('A' for Active; 'I' for Inactive)
REMARK    1  A    between atoms: C3_3  and  C9_9 
ROOT
HETATM    1  C1  UNL     1     -35.157  16.758  -5.308  1.00 20.00     0.178 C 
HETATM    2  C2  UNL     1     -35.871  14.314  -5.711  1.00 20.00     0.087 C 
HETATM    3  C3  UNL     1     -35.623  15.558  -3.283  1.00 20.00     0.185 C 
HETATM    4  C4  UNL     1     -35.476  15.665  -6.355  1.00 20.00    -0.018 C 
HETATM    5  C5  UNL     1     -36.658  16.133  -7.230  1.00 20.00     0.018 C 
HETATM    6  C6  UNL     1     -34.249  15.481  -7.267  1.00 20.00     0.018 C 
HETATM    7  O10 UNL     1     -35.998  16.626  -4.165  1.00 20.00    -0.374 OA
HETATM    8  S11 UNL     1     -35.065  14.030  -4.110  1.00 20.00    -0.136 SA
ENDROOT
BRANCH   3   9
HETATM    9  C9  UNL     1     -34.564  16.039  -2.299  1.00 20.00     0.017 C 
HETATM   10  C7  UNL     1     -33.211  16.198  -2.992  1.00 20.00     0.013 C 
HETATM   11  C8  UNL     1     -34.987  17.356  -1.649  1.00 20.00     0.013 C 
ENDBRANCH   3   9
TORSDOF 1
ENDMDL
MODEL 7
REMARK VINA RESULT:      -3.6      1.595      4.188
REMARK  1 active torsions:
REMARK  status: ('A' for Active; 'I' for Inactive)
REMARK    1  A    between atoms: C3_3  and  C9_9 
ROOT
HETATM    1  C1  UNL     1     -34.318  16.750  -1.613  1.00 20.00     0.178 C 
HETATM    2  C2  UNL     1     -34.297  18.489  -3.516  1.00 20.00     0.087 C 
HETATM    3  C3  UNL     1     -35.400  15.984  -3.613  1.00 20.00     0.185 C 
HETATM    4  C4  UNL     1     -33.921  18.181  -2.046  1.00 20.00    -0.018 C 
HETATM    5  C5  UNL     1     -34.653  19.202  -1.150  1.00 20.00     0.018 C 
HETATM    6  C6  UNL     1     -32.406  18.359  -1.836  1.00 20.00     0.018 C 
HETATM    7  O10 UNL     1     -35.538  16.353  -2.232  1.00 20.00    -0.374 OA
HETATM    8  S11 UNL     1     -34.252  17.020  -4.582  1.00 20.00    -0.136 SA
ENDROOT
BRANCH   3   9
HETATM    9  C9  UNL     1     -35.005  14.516  -3.725  1.00 20.00     0.017 C 
HETATM   10  C7  UNL     1     -36.052  13.733  -4.518  1.00 20.00     0.013 C 
HETATM   11  C8  UNL     1     -33.629  14.373  -4.373  1.00 20.00     0.013 C 
ENDBRANCH   3   9
TORSDOF 1
ENDMDL
MODEL 8
REMARK VINA RESULT:      -3.5      1.347      4.429
REMARK  1 active torsions:
REMARK  status: ('A' for Active; 'I' for Inactive)
REMARK    1  A    between atoms: C3_3  and  C9_9 
ROOT
HETATM    1  C1  UNL     1     -35.649  17.320  -3.498  1.00 20.00     0.178 C 
HETATM    2  C2  UNL     1     -33.362  16.289  -2.902  1.00 20.00     0.087 C 
HETATM    3  C3  UNL     1     -34.732  15.963  -5.251  1.00 20.00     0.185 C 
HETATM    4  C4  UNL     1     -34.515  17.218  -2.450  1.00 20.00    -0.018 C 
HETATM    5  C5  UNL     1     -33.921  18.622  -2.210  1.00 20.00     0.018 C 
HETATM    6  C6  UNL     1     -35.113  16.717  -1.123  1.00 20.00     0.018 C 
HETATM    7  O10 UNL     1     -35.121  17.276  -4.821  1.00 20.00    -0.374 OA
HETATM    8  S11 UNL     1     -33.921  14.938  -3.978  1.00 20.00    -0.136 SA
ENDROOT
BRANCH   3   9
HETATM    9  C9  UNL     1     -35.931  15.225  -5.834  1.00 20.00     0.017 C 
HETATM   10  C7  UNL     1     -35.704  14.903  -7.311  1.00 20.00     0.013 C 
HETATM   11  C8  UNL     1     -36.216  13.946  -5.048  1.00 20.00     0.013 C 
ENDBRANCH   3   9
TORSDOF 1
ENDMDL
MODEL 9
REMARK VINA RESULT:      -3.5      2.402      4.528
REMARK  1 active torsions:
REMARK  status: ('A' for Active; 'I' for Inactive)
REMARK    1  A    between atoms: C3_3  and  C9_9 
ROOT
HETATM    1  C1  UNL     1     -35.155  17.001  -4.251  1.00 20.00     0.178 C 
HETATM    2  C2  UNL     1     -35.185  14.458  -3.830  1.00 20.00     0.087 C 
HETATM    3  C3  UNL     1     -36.481  15.789  -5.842  1.00 20.00     0.185 C 
HETATM    4  C4  UNL     1     -34.626  15.832  -3.387  1.00 20.00    -0.018 C 
HETATM    5  C5  UNL     1     -33.088  15.774  -3.504  1.00 20.00     0.018 C 
HETATM    6  C6  UNL     1     -34.984  16.103  -1.915  1.00 20.00     0.018 C 
HETATM    7  O10 UNL     1     -35.317  16.596  -5.607  1.00 20.00    -0.374 OA
HETATM    8  S11 UNL     1     -36.852  14.566  -4.540  1.00 20.00    -0.136 SA
ENDROOT
BRANCH   3   9
HETATM    9  C9  UNL     1     -37.694  16.678  -6.089  1.00 20.00     0.017 C 
HETATM   10  C7  UNL     1     -38.058  16.696  -7.573  1.00 20.00     0.013 C 
HETATM   11  C8  UNL     1     -38.886  16.213  -5.253  1.00 20.00     0.013 C 
ENDBRANCH   3   9
TORSDOF 1
ENDMDL
