MODEL 1
REMARK VINA RESULT:      -4.6      0.000      0.000
REMARK  0 active torsions:
REMARK  status: ('A' for Active; 'I' for Inactive)
ROOT
HETATM    1  C1  UNL     1     -35.566  13.977  -4.615  1.00 20.00     0.145 C 
HETATM    2  C2  UNL     1     -34.622  14.367  -3.498  1.00 20.00     0.089 C 
HETATM    3  C3  UNL     1     -34.031  16.826  -1.802  1.00 20.00     0.002 C 
HETATM    4  C4  UNL     1     -33.188  16.533  -3.059  1.00 20.00     0.010 C 
HETATM    5  C5  UNL     1     -35.283  16.761  -2.700  1.00 20.00     0.010 C 
HETATM    6  C6  UNL     1     -34.722  16.128  -5.169  1.00 20.00     0.037 C 
HETATM    7  C7  UNL     1     -35.859  15.157  -5.509  1.00 20.00     0.152 C 
HETATM    8  C8  UNL     1     -34.452  15.880  -3.683  1.00 20.00    -0.032 C 
HETATM    9  O9  UNL     1     -36.034  12.853  -4.749  1.00 20.00    -0.296 OA
HETATM   10 CL10 UNL     1     -35.837  14.671  -7.200  1.00 20.00    -0.117 Cl
ENDROOT
TORSDOF 0
ENDMDL
MODEL 2
REMARK VINA RESULT:      -4.6      1.495      1.656
REMARK  0 active torsions:
REMARK  status: ('A' for Active; 'I' for Inactive)
ROOT
HETATM    1  C1  UNL     1     -35.765  13.878  -4.240  1.00 20.00     0.145 C 
HETATM    2  C2  UNL     1     -34.439  14.602  -4.315  1.00 20.00     0.089 C 
HETATM    3  C3  UNL     1     -32.984  16.805  -2.795  1.00 20.00     0.002 C 
HETATM    4  C4  UNL     1     -33.786  17.143  -4.067  1.00 20.00     0.010 C 
HETATM    5  C5  UNL     1     -34.266  16.162  -2.230  1.00 20.00     0.010 C 
HETATM    6  C6  UNL     1     -36.243  16.185  -3.935  1.00 20.00     0.037 C 
HETATM    7  C7  UNL     1     -36.851  14.793  -3.729  1.00 20.00     0.152 C 
HETATM    8  C8  UNL     1     -34.744  15.975  -3.704  1.00 20.00    -0.032 C 
HETATM    9  O9  UNL     1     -35.915  12.700  -4.540  1.00 20.00    -0.296 OA
HETATM   10 CL10 UNL     1     -38.333  14.569  -4.652  1.00 20.00    -0.117 Cl
ENDROOT
TORSDOF 0
ENDMDL
MODEL 3
REMARK VINA RESULT:      -4.6     18.540     19.276
REMARK  0 active torsions:
REMARK  status: ('A' for Active; 'I' for Inactive)
ROOT
HETATM    1  C1  UNL     1     -22.736  17.757  11.754  1.00 20.00     0.145 C 
HETATM    2  C2  UNL     1     -23.941  18.467  12.332  1.00 20.00     0.089 C 
HETATM    3  C3  UNL     1     -26.969  18.141  12.321  1.00 20.00     0.002 C 
HETATM    4  C4  UNL     1     -26.290  19.093  11.316  1.00 20.00     0.010 C 
HETATM    5  C5  UNL     1     -26.047  17.023  11.793  1.00 20.00     0.010 C 
HETATM    6  C6  UNL     1     -24.344  17.878  10.008  1.00 20.00     0.037 C 
HETATM    7  C7  UNL     1     -23.065  17.139  10.417  1.00 20.00     0.152 C 
HETATM    8  C8  UNL     1     -25.061  18.143  11.336  1.00 20.00    -0.032 C 
HETATM    9  O9  UNL     1     -21.652  17.688  12.318  1.00 20.00    -0.296 OA
HETATM   10 CL10 UNL     1     -21.751  17.400   9.275  1.00 20.00    -0.117 Cl
ENDROOT
TORSDOF 0
ENDMDL
MODEL 4
REMARK VINA RESULT:      -4.5     17.957     18.739
REMARK  0 active torsions:
REMARK  status: ('A' for Active; 'I' for Inactive)
ROOT
HETATM    1  C1  UNL     1     -24.620  16.641  11.384  1.00 20.00     0.145 C 
HETATM    2  C2  UNL     1     -23.772  16.285  10.182  1.00 20.00     0.089 C 
HETATM    3  C3  UNL     1     -21.364  17.423   8.704  1.00 20.00     0.002 C 
HETATM    4  C4  UNL     1     -22.791  17.730   8.209  1.00 20.00     0.010 C 
HETATM    5  C5  UNL     1     -21.787  17.976  10.080  1.00 20.00     0.010 C 
HETATM    6  C6  UNL     1     -24.307  18.656  10.163  1.00 20.00     0.037 C 
HETATM    7  C7  UNL     1     -24.725  18.138  11.544  1.00 20.00     0.152 C 
HETATM    8  C8  UNL     1     -23.261  17.643   9.687  1.00 20.00    -0.032 C 
HETATM    9  O9  UNL     1     -25.128  15.812  12.127  1.00 20.00    -0.296 OA
HETATM   10 CL10 UNL     1     -26.372  18.600  11.958  1.00 20.00    -0.117 Cl
ENDROOT
TORSDOF 0
ENDMDL
MODEL 5
REMARK VINA RESULT:      -4.4     17.598     18.463
REMARK  0 active torsions:
REMARK  status: ('A' for Active; 'I' for Inactive)
ROOT
HETATM    1  C1  UNL     1     -25.267  18.820   9.692  1.00 20.00     0.145 C 
HETATM    2  C2  UNL     1     -24.017  18.941   8.847  1.00 20.00     0.089 C 
HETATM    3  C3  UNL     1     -21.514  17.302   8.276  1.00 20.00     0.002 C 
HETATM    4  C4  UNL     1     -21.482  18.417   9.340  1.00 20.00     0.010 C 
HETATM    5  C5  UNL     1     -22.708  16.692   9.038  1.00 20.00     0.010 C 
HETATM    6  C6  UNL     1     -23.456  18.145  11.074  1.00 20.00     0.037 C 
HETATM    7  C7  UNL     1     -24.983  18.068  10.969  1.00 20.00     0.152 C 
HETATM    8  C8  UNL     1     -22.981  18.115   9.618  1.00 20.00    -0.032 C 
HETATM    9  O9  UNL     1     -26.358  19.263   9.358  1.00 20.00    -0.296 OA
HETATM   10 CL10 UNL     1     -25.784  18.842  12.332  1.00 20.00    -0.117 Cl
ENDROOT
TORSDOF 0
ENDMDL
MODEL 6
REMARK VINA RESULT:      -4.3      2.055      2.602
REMARK  0 active torsions:
REMARK  status: ('A' for Active; 'I' for Inactive)
ROOT
HETATM    1  C1  UNL     1     -37.422  14.555  -4.459  1.00 20.00     0.145 C 
HETATM    2  C2  UNL     1     -36.095  13.945  -4.858  1.00 20.00     0.089 C 
HETATM    3  C3  UNL     1     -33.136  14.449  -4.340  1.00 20.00     0.002 C 
HETATM    4  C4  UNL     1     -33.806  15.011  -5.611  1.00 20.00     0.010 C 
HETATM    5  C5  UNL     1     -34.222  15.175  -3.520  1.00 20.00     0.010 C 
HETATM    6  C6  UNL     1     -35.993  16.368  -5.022  1.00 20.00     0.037 C 
HETATM    7  C7  UNL     1     -37.297  16.049  -4.282  1.00 20.00     0.152 C 
HETATM    8  C8  UNL     1     -35.122  15.129  -4.794  1.00 20.00    -0.032 C 
HETATM    9  O9  UNL     1     -38.445  13.904  -4.288  1.00 20.00    -0.296 OA
HETATM   10 CL10 UNL     1     -38.683  16.872  -4.988  1.00 20.00    -0.117 Cl
ENDROOT
TORSDOF 0
ENDMDL
MODEL 7
REMARK VINA RESULT:      -4.3      3.465      4.477
REMARK  0 active torsions:
REMARK  status: ('A' for Active; 'I' for Inactive)
ROOT
HETATM    1  C1  UNL     1     -33.350  17.362  -1.936  1.00 20.00     0.145 C 
HETATM    2  C2  UNL     1     -32.923  16.392  -3.016  1.00 20.00     0.089 C 
HETATM    3  C3  UNL     1     -34.132  15.104  -5.497  1.00 20.00     0.002 C 
HETATM    4  C4  UNL     1     -34.140  14.350  -4.152  1.00 20.00     0.010 C 
HETATM    5  C5  UNL     1     -34.842  16.270  -4.779  1.00 20.00     0.010 C 
HETATM    6  C6  UNL     1     -35.153  15.841  -2.223  1.00 20.00     0.037 C 
HETATM    7  C7  UNL     1     -34.821  17.216  -1.632  1.00 20.00     0.152 C 
HETATM    8  C8  UNL     1     -34.238  15.730  -3.445  1.00 20.00    -0.032 C 
HETATM    9  O9  UNL     1     -32.594  18.165  -1.405  1.00 20.00    -0.296 OA
HETATM   10 CL10 UNL     1     -35.103  17.282   0.104  1.00 20.00    -0.117 Cl
ENDROOT
TORSDOF 0
ENDMDL
MODEL 8
REMARK VINA RESULT:      -4.0      1.683      2.363
REMARK  0 active torsions:
REMARK  status: ('A' for Active; 'I' for Inactive)
ROOT
HETATM    1  C1  UNL     1     -35.566  16.247  -4.974  1.00 20.00     0.145 C 
HETATM    2  C2  UNL     1     -35.280  17.269  -3.895  1.00 20.00     0.089 C 
HETATM    3  C3  UNL     1     -33.193  17.732  -1.725  1.00 20.00     0.002 C 
HETATM    4  C4  UNL     1     -34.524  17.034  -1.382  1.00 20.00     0.010 C 
HETATM    5  C5  UNL     1     -32.983  16.661  -2.816  1.00 20.00     0.010 C 
HETATM    6  C6  UNL     1     -35.002  15.019  -3.020  1.00 20.00     0.037 C 
HETATM    7  C7  UNL     1     -35.131  14.869  -4.540  1.00 20.00     0.152 C 
HETATM    8  C8  UNL     1     -34.531  16.463  -2.827  1.00 20.00    -0.032 C 
HETATM    9  O9  UNL     1     -36.067  16.523  -6.057  1.00 20.00    -0.296 OA
HETATM   10 CL10 UNL     1     -36.337  13.669  -4.992  1.00 20.00    -0.117 Cl
ENDROOT
TORSDOF 0
ENDMDL
MODEL 9
REMARK VINA RESULT:      -4.0      1.903      2.405
REMARK  0 active torsions:
REMARK  status: ('A' for Active; 'I' for Inactive)
ROOT
HETATM    1  C1  UNL     1     -34.702  14.513  -3.931  1.00 20.00     0.145 C 
HETATM    2  C2  UNL     1     -35.532  15.119  -2.820  1.00 20.00     0.089 C 
HETATM    3  C3  UNL     1     -36.148  17.892  -1.721  1.00 20.00     0.002 C 
HETATM    4  C4  UNL     1     -35.040  17.033  -1.077  1.00 20.00     0.010 C 
HETATM    5  C5  UNL     1     -35.419  17.714  -3.068  1.00 20.00     0.010 C 
HETATM    6  C6  UNL     1     -33.333  16.153  -2.890  1.00 20.00     0.037 C 
HETATM    7  C7  UNL     1     -33.452  15.324  -4.173  1.00 20.00     0.152 C 
HETATM    8  C8  UNL     1     -34.785  16.415  -2.479  1.00 20.00    -0.032 C 
HETATM    9  O9  UNL     1     -35.026  13.509  -4.552  1.00 20.00    -0.296 OA
HETATM   10 CL10 UNL     1     -32.066  14.266  -4.414  1.00 20.00    -0.117 Cl
ENDROOT
TORSDOF 0
ENDMDL
