MODEL 1
REMARK VINA RESULT:      -4.1      0.000      0.000
REMARK  1 active torsions:
REMARK  status: ('A' for Active; 'I' for Inactive)
REMARK    1  A    between atoms: C4_4  and  C9_9 
ROOT
HETATM    1  C1  UNL     1     -33.178  16.441  -3.217  1.00 20.00     0.174 C 
HETATM    2  C2  UNL     1     -35.501  16.313  -2.202  1.00 20.00     0.083 C 
HETATM    3  C3  UNL     1     -34.319  15.523  -2.770  1.00 20.00     0.015 C 
HETATM    4  C4  UNL     1     -33.522  18.124  -1.503  1.00 20.00     0.108 C 
HETATM    5  C5  UNL     1     -34.784  14.654  -3.939  1.00 20.00     0.012 C 
HETATM    6  C6  UNL     1     -33.925  19.257  -2.455  1.00 20.00     0.058 C 
HETATM    7  O10 UNL     1     -32.635  17.190  -2.132  1.00 20.00    -0.369 OA
HETATM    8  S11 UNL     1     -35.004  17.327  -0.782  1.00 20.00    -0.131 SA
ENDROOT
BRANCH   4   9
HETATM    9  C9  UNL     1     -32.726  18.721  -0.336  1.00 20.00     0.022 C 
HETATM   10  C7  UNL     1     -33.319  18.271   0.994  1.00 20.00     0.013 C 
HETATM   11  C8  UNL     1     -31.258  18.324  -0.437  1.00 20.00     0.013 C 
ENDBRANCH   4   9
TORSDOF 1
ENDMDL
MODEL 2
REMARK VINA RESULT:      -4.0      3.430      5.114
REMARK  1 active torsions:
REMARK  status: ('A' for Active; 'I' for Inactive)
REMARK    1  A    between atoms: C4_4  and  C9_9 
ROOT
HETATM    1  C1  UNL     1     -37.255  16.223  -5.440  1.00 20.00     0.174 C 
HETATM    2  C2  UNL     1     -35.599  15.456  -7.204  1.00 20.00     0.083 C 
HETATM    3  C3  UNL     1     -36.557  16.565  -6.760  1.00 20.00     0.015 C 
HETATM    4  C4  UNL     1     -35.392  15.004  -4.477  1.00 20.00     0.108 C 
HETATM    5  C5  UNL     1     -37.595  16.827  -7.852  1.00 20.00     0.012 C 
HETATM    6  C6  UNL     1     -36.086  13.637  -4.436  1.00 20.00     0.058 C 
HETATM    7  O10 UNL     1     -36.330  16.082  -4.365  1.00 20.00    -0.369 OA
HETATM    8  S11 UNL     1     -34.320  15.141  -5.956  1.00 20.00    -0.131 SA
ENDROOT
BRANCH   4   9
HETATM    9  C9  UNL     1     -34.476  15.130  -3.253  1.00 20.00     0.022 C 
HETATM   10  C7  UNL     1     -33.115  15.678  -3.663  1.00 20.00     0.013 C 
HETATM   11  C8  UNL     1     -35.124  16.018  -2.196  1.00 20.00     0.013 C 
ENDBRANCH   4   9
TORSDOF 1
ENDMDL
MODEL 3
REMARK VINA RESULT:      -3.9      2.510      3.675
REMARK  1 active torsions:
REMARK  status: ('A' for Active; 'I' for Inactive)
REMARK    1  A    between atoms: C4_4  and  C9_9 
ROOT
HETATM    1  C1  UNL     1     -34.652  16.716  -5.895  1.00 20.00     0.174 C 
HETATM    2  C2  UNL     1     -35.666  14.402  -5.646  1.00 20.00     0.083 C 
HETATM    3  C3  UNL     1     -34.703  15.287  -6.443  1.00 20.00     0.015 C 
HETATM    4  C4  UNL     1     -34.982  16.107  -3.570  1.00 20.00     0.108 C 
HETATM    5  C5  UNL     1     -35.107  15.302  -7.918  1.00 20.00     0.012 C 
HETATM    6  C6  UNL     1     -36.343  16.795  -3.405  1.00 20.00     0.058 C 
HETATM    7  O10 UNL     1     -34.171  16.760  -4.555  1.00 20.00    -0.369 OA
HETATM    8  S11 UNL     1     -35.198  14.318  -3.895  1.00 20.00    -0.131 SA
ENDROOT
BRANCH   4   9
HETATM    9  C9  UNL     1     -34.205  16.228  -2.253  1.00 20.00     0.022 C 
HETATM   10  C7  UNL     1     -33.016  17.166  -2.424  1.00 20.00     0.013 C 
HETATM   11  C8  UNL     1     -35.124  16.715  -1.139  1.00 20.00     0.013 C 
ENDBRANCH   4   9
TORSDOF 1
ENDMDL
MODEL 4
REMARK VINA RESULT:      -3.8      2.293      5.093
REMARK  1 active torsions:
REMARK  status: ('A' for Active; 'I' for Inactive)
REMARK    1  A    between atoms: C4_4  and  C9_9 
ROOT
HETATM    1  C1  UNL     1     -34.416  16.133  -2.243  1.00 20.00     0.174 C 
HETATM    2  C2  UNL     1     -33.738  17.921  -3.913  1.00 20.00     0.083 C 
HETATM    3  C3  UNL     1     -33.262  16.957  -2.824  1.00 20.00     0.015 C 
HETATM    4  C4  UNL     1     -35.683  15.986  -4.306  1.00 20.00     0.108 C 
HETATM    5  C5  UNL     1     -32.557  17.732  -1.711  1.00 20.00     0.012 C 
HETATM    6  C6  UNL     1     -36.891  16.798  -3.823  1.00 20.00     0.058 C 
HETATM    7  O10 UNL     1     -35.032  15.306  -3.226  1.00 20.00    -0.369 OA
HETATM    8  S11 UNL     1     -34.543  17.038  -5.279  1.00 20.00    -0.131 SA
ENDROOT
BRANCH   4   9
HETATM    9  C9  UNL     1     -36.178  14.880  -5.247  1.00 20.00     0.022 C 
HETATM   10  C7  UNL     1     -35.311  14.823  -6.500  1.00 20.00     0.013 C 
HETATM   11  C8  UNL     1     -36.181  13.535  -4.529  1.00 20.00     0.013 C 
ENDBRANCH   4   9
TORSDOF 1
ENDMDL
MODEL 5
REMARK VINA RESULT:      -3.8      1.815      4.448
REMARK  1 active torsions:
REMARK  status: ('A' for Active; 'I' for Inactive)
REMARK    1  A    between atoms: C4_4  and  C9_9 
ROOT
HETATM    1  C1  UNL     1     -35.408  17.102  -0.960  1.00 20.00     0.174 C 
HETATM    2  C2  UNL     1     -33.431  18.303  -2.003  1.00 20.00     0.083 C 
HETATM    3  C3  UNL     1     -34.100  17.855  -0.701  1.00 20.00     0.015 C 
HETATM    4  C4  UNL     1     -34.696  16.062  -3.032  1.00 20.00     0.108 C 
HETATM    5  C5  UNL     1     -34.358  19.065   0.198  1.00 20.00     0.012 C 
HETATM    6  C6  UNL     1     -35.700  16.783  -3.940  1.00 20.00     0.058 C 
HETATM    7  O10 UNL     1     -35.200  15.902  -1.700  1.00 20.00    -0.369 OA
HETATM    8  S11 UNL     1     -33.065  16.893  -3.084  1.00 20.00    -0.131 SA
ENDROOT
BRANCH   4   9
HETATM    9  C9  UNL     1     -34.485  14.639  -3.564  1.00 20.00     0.022 C 
HETATM   10  C7  UNL     1     -35.731  14.158  -4.299  1.00 20.00     0.013 C 
HETATM   11  C8  UNL     1     -33.264  14.588  -4.475  1.00 20.00     0.013 C 
ENDBRANCH   4   9
TORSDOF 1
ENDMDL
MODEL 6
REMARK VINA RESULT:      -3.8      2.100      5.047
REMARK  1 active torsions:
REMARK  status: ('A' for Active; 'I' for Inactive)
REMARK    1  A    between atoms: C4_4  and  C9_9 
ROOT
HETATM    1  C1  UNL     1     -33.158  17.326  -3.330  1.00 20.00     0.174 C 
HETATM    2  C2  UNL     1     -34.881  16.043  -1.978  1.00 20.00     0.083 C 
HETATM    3  C3  UNL     1     -34.231  17.404  -2.240  1.00 20.00     0.015 C 
HETATM    4  C4  UNL     1     -34.256  15.608  -4.643  1.00 20.00     0.108 C 
HETATM    5  C5  UNL     1     -33.629  17.954  -0.946  1.00 20.00     0.012 C 
HETATM    6  C6  UNL     1     -33.188  14.526  -4.437  1.00 20.00     0.058 C 
HETATM    7  O10 UNL     1     -33.697  16.926  -4.587  1.00 20.00    -0.369 OA
HETATM    8  S11 UNL     1     -35.649  15.372  -3.479  1.00 20.00    -0.131 SA
ENDROOT
BRANCH   4   9
HETATM    9  C9  UNL     1     -34.832  15.468  -6.058  1.00 20.00     0.022 C 
HETATM   10  C7  UNL     1     -33.732  15.091  -7.043  1.00 20.00     0.013 C 
HETATM   11  C8  UNL     1     -35.952  14.433  -6.074  1.00 20.00     0.013 C 
ENDBRANCH   4   9
TORSDOF 1
ENDMDL
MODEL 7
REMARK VINA RESULT:      -3.8      1.456      2.017
REMARK  1 active torsions:
REMARK  status: ('A' for Active; 'I' for Inactive)
REMARK    1  A    between atoms: C4_4  and  C9_9 
ROOT
HETATM    1  C1  UNL     1     -33.921  14.991  -4.035  1.00 20.00     0.174 C 
HETATM    2  C2  UNL     1     -36.198  15.932  -3.426  1.00 20.00     0.083 C 
HETATM    3  C3  UNL     1     -35.349  14.668  -3.585  1.00 20.00     0.015 C 
HETATM    4  C4  UNL     1     -33.752  17.099  -2.846  1.00 20.00     0.108 C 
HETATM    5  C5  UNL     1     -36.012  13.715  -4.580  1.00 20.00     0.012 C 
HETATM    6  C6  UNL     1     -33.641  17.988  -4.091  1.00 20.00     0.058 C 
HETATM    7  O10 UNL     1     -33.224  15.787  -3.080  1.00 20.00    -0.369 OA
HETATM    8  S11 UNL     1     -35.472  17.075  -2.219  1.00 20.00    -0.131 SA
ENDROOT
BRANCH   4   9
HETATM    9  C9  UNL     1     -32.882  17.697  -1.734  1.00 20.00     0.022 C 
HETATM   10  C7  UNL     1     -32.225  18.987  -2.210  1.00 20.00     0.013 C 
HETATM   11  C8  UNL     1     -33.718  17.944  -0.483  1.00 20.00     0.013 C 
ENDBRANCH   4   9
TORSDOF 1
ENDMDL
MODEL 8
REMARK VINA RESULT:      -3.8      3.378      5.214
REMARK  1 active torsions:
REMARK  status: ('A' for Active; 'I' for Inactive)
REMARK    1  A    between atoms: C4_4  and  C9_9 
ROOT
HETATM    1  C1  UNL     1     -38.303  14.582  -4.417  1.00 20.00     0.174 C 
HETATM    2  C2  UNL     1     -37.801  16.972  -5.108  1.00 20.00     0.083 C 
HETATM    3  C3  UNL     1     -38.754  16.044  -4.350  1.00 20.00     0.015 C 
HETATM    4  C4  UNL     1     -35.923  15.051  -4.424  1.00 20.00     0.108 C 
HETATM    5  C5  UNL     1     -40.171  16.184  -4.905  1.00 20.00     0.012 C 
HETATM    6  C6  UNL     1     -35.647  14.513  -5.834  1.00 20.00     0.058 C 
HETATM    7  O10 UNL     1     -37.031  14.384  -3.807  1.00 20.00    -0.369 OA
HETATM    8  S11 UNL     1     -36.112  16.872  -4.452  1.00 20.00    -0.131 SA
ENDROOT
BRANCH   4   9
HETATM    9  C9  UNL     1     -34.712  14.744  -3.534  1.00 20.00     0.022 C 
HETATM   10  C7  UNL     1     -33.453  14.604  -4.381  1.00 20.00     0.013 C 
HETATM   11  C8  UNL     1     -34.539  15.833  -2.481  1.00 20.00     0.013 C 
ENDBRANCH   4   9
TORSDOF 1
ENDMDL
MODEL 9
REMARK VINA RESULT:      -3.8      2.392      5.159
REMARK  1 active torsions:
REMARK  status: ('A' for Active; 'I' for Inactive)
REMARK    1  A    between atoms: C4_4  and  C9_9 
ROOT
HETATM    1  C1  UNL     1     -35.676  17.256  -2.528  1.00 20.00     0.174 C 
HETATM    2  C2  UNL     1     -33.289  16.455  -2.851  1.00 20.00     0.083 C 
HETATM    3  C3  UNL     1     -34.408  16.733  -1.845  1.00 20.00     0.015 C 
HETATM    4  C4  UNL     1     -35.410  15.973  -4.569  1.00 20.00     0.108 C 
HETATM    5  C5  UNL     1     -33.928  17.732  -0.791  1.00 20.00     0.012 C 
HETATM    6  C6  UNL     1     -35.206  17.174  -5.501  1.00 20.00     0.058 C 
HETATM    7  O10 UNL     1     -36.224  16.308  -3.439  1.00 20.00    -0.369 OA
HETATM    8  S11 UNL     1     -33.800  15.239  -4.097  1.00 20.00    -0.131 SA
ENDROOT
BRANCH   4   9
HETATM    9  C9  UNL     1     -36.187  14.889  -5.327  1.00 20.00     0.022 C 
HETATM   10  C7  UNL     1     -35.603  14.696  -6.722  1.00 20.00     0.013 C 
HETATM   11  C8  UNL     1     -36.168  13.580  -4.545  1.00 20.00     0.013 C 
ENDBRANCH   4   9
TORSDOF 1
ENDMDL
