MODEL 1
REMARK VINA RESULT:      -5.1      0.000      0.000
REMARK  1 active torsions:
REMARK  status: ('A' for Active; 'I' for Inactive)
REMARK    1  A    between atoms: C9_9  and  C12_12 
ROOT
HETATM    1  C1  UNL     1     -37.480  15.695  -3.902  1.00 20.00     0.012 C 
HETATM    2  C2  UNL     1     -37.594  14.410  -4.248  1.00 20.00     0.052 C 
HETATM    3  C3  UNL     1     -33.390  15.901  -3.172  1.00 20.00    -0.025 C 
HETATM    4  C4  UNL     1     -33.917  14.928  -3.937  1.00 20.00    -0.008 C 
HETATM    5  C5  UNL     1     -35.601  17.114  -3.127  1.00 20.00    -0.014 C 
HETATM    6  C6  UNL     1     -36.106  16.124  -3.875  1.00 20.00    -0.041 C 
HETATM    7  C7  UNL     1     -36.212  13.952  -4.525  1.00 20.00     0.166 C 
HETATM    8  C8  UNL     1     -34.118  17.190  -2.867  1.00 20.00     0.054 C 
HETATM    9  C9  UNL     1     -35.246  15.120  -4.606  1.00 20.00     0.071 C 
HETATM   10  O13 UNL     1     -35.930  12.778  -4.715  1.00 20.00    -0.292 OA
ENDROOT
BRANCH   9  11
HETATM   11  C12 UNL     1     -35.049  15.494  -6.082  1.00 20.00     0.002 C 
HETATM   12  C10 UNL     1     -35.078  17.009  -6.252  1.00 20.00     0.011 C 
HETATM   13  C11 UNL     1     -33.742  14.913  -6.606  1.00 20.00     0.011 C 
ENDBRANCH   9  11
TORSDOF 1
ENDMDL
MODEL 2
REMARK VINA RESULT:      -4.8      2.209      3.870
REMARK  1 active torsions:
REMARK  status: ('A' for Active; 'I' for Inactive)
REMARK    1  A    between atoms: C9_9  and  C12_12 
ROOT
HETATM    1  C1  UNL     1     -32.813  17.386  -2.109  1.00 20.00     0.012 C 
HETATM    2  C2  UNL     1     -33.665  17.741  -1.145  1.00 20.00     0.052 C 
HETATM    3  C3  UNL     1     -34.892  14.200  -3.793  1.00 20.00    -0.025 C 
HETATM    4  C4  UNL     1     -35.519  15.138  -3.061  1.00 20.00    -0.008 C 
HETATM    5  C5  UNL     1     -32.772  15.567  -3.794  1.00 20.00    -0.014 C 
HETATM    6  C6  UNL     1     -33.415  16.478  -3.051  1.00 20.00    -0.041 C 
HETATM    7  C7  UNL     1     -34.944  17.073  -1.483  1.00 20.00     0.166 C 
HETATM    8  C8  UNL     1     -33.527  14.416  -4.407  1.00 20.00     0.054 C 
HETATM    9  C9  UNL     1     -34.917  16.501  -2.888  1.00 20.00     0.071 C 
HETATM   10  O13 UNL     1     -35.901  17.054  -0.723  1.00 20.00    -0.292 OA
ENDROOT
BRANCH   9  11
HETATM   11  C12 UNL     1     -35.586  17.502  -3.841  1.00 20.00     0.002 C 
HETATM   12  C10 UNL     1     -34.789  17.614  -5.136  1.00 20.00     0.011 C 
HETATM   13  C11 UNL     1     -37.024  17.086  -4.122  1.00 20.00     0.011 C 
ENDBRANCH   9  11
TORSDOF 1
ENDMDL
MODEL 3
REMARK VINA RESULT:      -4.7      3.289      5.368
REMARK  1 active torsions:
REMARK  status: ('A' for Active; 'I' for Inactive)
REMARK    1  A    between atoms: C9_9  and  C12_12 
ROOT
HETATM    1  C1  UNL     1     -31.913  18.200  -1.159  1.00 20.00     0.012 C 
HETATM    2  C2  UNL     1     -32.307  18.516   0.077  1.00 20.00     0.052 C 
HETATM    3  C3  UNL     1     -35.047  15.726  -2.325  1.00 20.00    -0.025 C 
HETATM    4  C4  UNL     1     -35.188  16.612  -1.322  1.00 20.00    -0.008 C 
HETATM    5  C5  UNL     1     -32.808  16.716  -2.932  1.00 20.00    -0.014 C 
HETATM    6  C6  UNL     1     -32.966  17.576  -1.917  1.00 20.00    -0.041 C 
HETATM    7  C7  UNL     1     -33.736  18.129   0.146  1.00 20.00     0.166 C 
HETATM    8  C8  UNL     1     -33.946  15.823  -3.356  1.00 20.00     0.054 C 
HETATM    9  C9  UNL     1     -34.291  17.811  -1.231  1.00 20.00     0.071 C 
HETATM   10  O13 UNL     1     -34.373  18.133   1.189  1.00 20.00    -0.292 OA
ENDROOT
BRANCH   9  11
HETATM   11  C12 UNL     1     -35.010  19.055  -1.772  1.00 20.00     0.002 C 
HETATM   12  C10 UNL     1     -34.671  19.263  -3.244  1.00 20.00     0.011 C 
HETATM   13  C11 UNL     1     -36.515  18.926  -1.573  1.00 20.00     0.011 C 
ENDBRANCH   9  11
TORSDOF 1
ENDMDL
MODEL 4
REMARK VINA RESULT:      -4.7      1.502      2.075
REMARK  1 active torsions:
REMARK  status: ('A' for Active; 'I' for Inactive)
REMARK    1  A    between atoms: C9_9  and  C12_12 
ROOT
HETATM    1  C1  UNL     1     -36.182  14.592  -3.659  1.00 20.00     0.012 C 
HETATM    2  C2  UNL     1     -35.672  14.056  -4.770  1.00 20.00     0.052 C 
HETATM    3  C3  UNL     1     -33.021  17.033  -2.496  1.00 20.00    -0.025 C 
HETATM    4  C4  UNL     1     -33.148  16.607  -3.766  1.00 20.00    -0.008 C 
HETATM    5  C5  UNL     1     -35.312  16.142  -1.930  1.00 20.00    -0.014 C 
HETATM    6  C6  UNL     1     -35.406  15.712  -3.196  1.00 20.00    -0.041 C 
HETATM    7  C7  UNL     1     -34.503  14.900  -5.114  1.00 20.00     0.166 C 
HETATM    8  C8  UNL     1     -34.168  17.029  -1.512  1.00 20.00     0.054 C 
HETATM    9  C9  UNL     1     -34.484  16.180  -4.298  1.00 20.00     0.071 C 
HETATM   10  O13 UNL     1     -33.705  14.600  -5.990  1.00 20.00    -0.292 OA
ENDROOT
BRANCH   9  11
HETATM   11  C12 UNL     1     -35.107  17.306  -5.134  1.00 20.00     0.002 C 
HETATM   12  C10 UNL     1     -36.142  18.066  -4.311  1.00 20.00     0.011 C 
HETATM   13  C11 UNL     1     -34.024  18.247  -5.648  1.00 20.00     0.011 C 
ENDBRANCH   9  11
TORSDOF 1
ENDMDL
MODEL 5
REMARK VINA RESULT:      -4.6      1.084      1.233
REMARK  1 active torsions:
REMARK  status: ('A' for Active; 'I' for Inactive)
REMARK    1  A    between atoms: C9_9  and  C12_12 
ROOT
HETATM    1  C1  UNL     1     -38.252  16.807  -3.748  1.00 20.00     0.012 C 
HETATM    2  C2  UNL     1     -38.673  15.611  -4.166  1.00 20.00     0.052 C 
HETATM    3  C3  UNL     1     -34.415  15.833  -2.470  1.00 20.00    -0.025 C 
HETATM    4  C4  UNL     1     -35.082  15.056  -3.343  1.00 20.00    -0.008 C 
HETATM    5  C5  UNL     1     -36.178  17.626  -2.663  1.00 20.00    -0.014 C 
HETATM    6  C6  UNL     1     -36.831  16.826  -3.518  1.00 20.00    -0.041 C 
HETATM    7  C7  UNL     1     -37.452  14.779  -4.277  1.00 20.00     0.166 C 
HETATM    8  C8  UNL     1     -34.786  17.274  -2.205  1.00 20.00     0.054 C 
HETATM    9  C9  UNL     1     -36.195  15.623  -4.174  1.00 20.00     0.071 C 
HETATM   10  O13 UNL     1     -37.488  13.575  -4.483  1.00 20.00    -0.292 OA
ENDROOT
BRANCH   9  11
HETATM   11  C12 UNL     1     -35.694  15.936  -5.591  1.00 20.00     0.002 C 
HETATM   12  C10 UNL     1     -35.237  17.388  -5.683  1.00 20.00     0.011 C 
HETATM   13  C11 UNL     1     -34.567  14.986  -5.976  1.00 20.00     0.011 C 
ENDBRANCH   9  11
TORSDOF 1
ENDMDL
MODEL 6
REMARK VINA RESULT:      -4.5      1.266      3.023
REMARK  1 active torsions:
REMARK  status: ('A' for Active; 'I' for Inactive)
REMARK    1  A    between atoms: C9_9  and  C12_12 
ROOT
HETATM    1  C1  UNL     1     -35.033  14.910  -6.237  1.00 20.00     0.012 C 
HETATM    2  C2  UNL     1     -35.875  13.978  -5.787  1.00 20.00     0.052 C 
HETATM    3  C3  UNL     1     -36.373  18.214  -4.095  1.00 20.00    -0.025 C 
HETATM    4  C4  UNL     1     -36.634  16.960  -3.686  1.00 20.00    -0.008 C 
HETATM    5  C5  UNL     1     -34.788  17.348  -5.855  1.00 20.00    -0.014 C 
HETATM    6  C6  UNL     1     -35.079  16.108  -5.439  1.00 20.00    -0.041 C 
HETATM    7  C7  UNL     1     -36.496  14.560  -4.573  1.00 20.00     0.166 C 
HETATM    8  C8  UNL     1     -35.271  18.544  -5.076  1.00 20.00     0.054 C 
HETATM    9  C9  UNL     1     -35.770  15.817  -4.128  1.00 20.00     0.071 C 
HETATM   10  O13 UNL     1     -37.437  14.037  -3.996  1.00 20.00    -0.292 OA
ENDROOT
BRANCH   9  11
HETATM   11  C12 UNL     1     -34.774  15.444  -3.020  1.00 20.00     0.002 C 
HETATM   12  C10 UNL     1     -33.348  15.752  -3.465  1.00 20.00     0.011 C 
HETATM   13  C11 UNL     1     -35.114  16.182  -1.732  1.00 20.00     0.011 C 
ENDBRANCH   9  11
TORSDOF 1
ENDMDL
MODEL 7
REMARK VINA RESULT:      -4.5      1.872      3.648
REMARK  1 active torsions:
REMARK  status: ('A' for Active; 'I' for Inactive)
REMARK    1  A    between atoms: C9_9  and  C12_12 
ROOT
HETATM    1  C1  UNL     1     -33.154  15.801  -3.385  1.00 20.00     0.012 C 
HETATM    2  C2  UNL     1     -33.261  17.128  -3.286  1.00 20.00     0.052 C 
HETATM    3  C3  UNL     1     -36.992  14.848  -4.676  1.00 20.00    -0.025 C 
HETATM    4  C4  UNL     1     -36.488  16.086  -4.828  1.00 20.00    -0.008 C 
HETATM    5  C5  UNL     1     -34.736  13.979  -3.957  1.00 20.00    -0.014 C 
HETATM    6  C6  UNL     1     -34.263  15.225  -4.100  1.00 20.00    -0.041 C 
HETATM    7  C7  UNL     1     -34.495  17.482  -4.026  1.00 20.00     0.166 C 
HETATM    8  C8  UNL     1     -36.125  13.635  -4.429  1.00 20.00     0.054 C 
HETATM    9  C9  UNL     1     -35.005  16.310  -4.845  1.00 20.00     0.071 C 
HETATM   10  O13 UNL     1     -34.982  18.603  -4.003  1.00 20.00    -0.292 OA
ENDROOT
BRANCH   9  11
HETATM   11  C12 UNL     1     -34.507  16.464  -6.289  1.00 20.00     0.002 C 
HETATM   12  C10 UNL     1     -34.038  15.119  -6.833  1.00 20.00     0.011 C 
HETATM   13  C11 UNL     1     -35.604  17.053  -7.167  1.00 20.00     0.011 C 
ENDBRANCH   9  11
TORSDOF 1
ENDMDL
MODEL 8
REMARK VINA RESULT:      -4.5      1.756      2.827
REMARK  1 active torsions:
REMARK  status: ('A' for Active; 'I' for Inactive)
REMARK    1  A    between atoms: C9_9  and  C12_12 
ROOT
HETATM    1  C1  UNL     1     -34.384  17.795  -5.737  1.00 20.00     0.012 C 
HETATM    2  C2  UNL     1     -35.594  17.478  -6.203  1.00 20.00     0.052 C 
HETATM    3  C3  UNL     1     -34.707  16.392  -1.834  1.00 20.00    -0.025 C 
HETATM    4  C4  UNL     1     -35.513  15.939  -2.811  1.00 20.00    -0.008 C 
HETATM    5  C5  UNL     1     -33.282  17.607  -3.524  1.00 20.00    -0.014 C 
HETATM    6  C6  UNL     1     -34.110  17.156  -4.476  1.00 20.00    -0.041 C 
HETATM    7  C7  UNL     1     -36.158  16.521  -5.221  1.00 20.00     0.166 C 
HETATM    8  C8  UNL     1     -33.398  17.095  -2.111  1.00 20.00     0.054 C 
HETATM    9  C9  UNL     1     -35.098  16.036  -4.249  1.00 20.00     0.071 C 
HETATM   10  O13 UNL     1     -37.321  16.148  -5.254  1.00 20.00    -0.292 OA
ENDROOT
BRANCH   9  11
HETATM   11  C12 UNL     1     -34.561  14.684  -4.740  1.00 20.00     0.002 C 
HETATM   12  C10 UNL     1     -33.076  14.556  -4.419  1.00 20.00     0.011 C 
HETATM   13  C11 UNL     1     -35.353  13.542  -4.116  1.00 20.00     0.011 C 
ENDBRANCH   9  11
TORSDOF 1
ENDMDL
MODEL 9
REMARK VINA RESULT:      -4.4      1.505      3.200
REMARK  1 active torsions:
REMARK  status: ('A' for Active; 'I' for Inactive)
REMARK    1  A    between atoms: C9_9  and  C12_12 
ROOT
HETATM    1  C1  UNL     1     -36.421  13.992  -5.053  1.00 20.00     0.012 C 
HETATM    2  C2  UNL     1     -37.043  14.536  -4.005  1.00 20.00     0.052 C 
HETATM    3  C3  UNL     1     -34.324  17.296  -6.463  1.00 20.00    -0.025 C 
HETATM    4  C4  UNL     1     -34.769  17.237  -5.195  1.00 20.00    -0.008 C 
HETATM    5  C5  UNL     1     -34.931  14.875  -6.827  1.00 20.00    -0.014 C 
HETATM    6  C6  UNL     1     -35.383  14.848  -5.566  1.00 20.00    -0.041 C 
HETATM    7  C7  UNL     1     -36.349  15.822  -3.757  1.00 20.00     0.166 C 
HETATM    8  C8  UNL     1     -34.167  16.071  -7.335  1.00 20.00     0.054 C 
HETATM    9  C9  UNL     1     -35.056  15.915  -4.547  1.00 20.00     0.071 C 
HETATM   10  O13 UNL     1     -36.763  16.656  -2.966  1.00 20.00    -0.292 OA
ENDROOT
BRANCH   9  11
HETATM   11  C12 UNL     1     -33.891  15.506  -3.636  1.00 20.00     0.002 C 
HETATM   12  C10 UNL     1     -32.928  14.592  -4.386  1.00 20.00     0.011 C 
HETATM   13  C11 UNL     1     -33.171  16.741  -3.110  1.00 20.00     0.011 C 
ENDBRANCH   9  11
TORSDOF 1
ENDMDL
