MODEL 1
REMARK VINA RESULT:      -5.0      0.000      0.000
REMARK  2 active torsions:
REMARK  status: ('A' for Active; 'I' for Inactive)
REMARK    1  A    between atoms: C1_1  and  C5_5 
REMARK    2  A    between atoms: C2_2  and  C3_3 
ROOT
HETATM    1  C1  UNL     1     -33.003   5.379   2.804  1.00 20.00     0.134 C 
HETATM    2  C2  UNL     1     -33.922   4.781   3.570  1.00 20.00     0.166 C 
HETATM    3  F7  UNL     1     -34.065   3.438   3.560  1.00 20.00    -0.202 F 
ENDROOT
BRANCH   1   4
HETATM    4  C5  UNL     1     -32.771   6.849   2.748  1.00 20.00     0.410 C 
HETATM    5  F8  UNL     1     -33.913   7.583   2.764  1.00 20.00    -0.167 F 
HETATM    6  F9  UNL     1     -32.096   7.200   1.625  1.00 20.00    -0.167 F 
HETATM    7  F10 UNL     1     -32.023   7.269   3.801  1.00 20.00    -0.167 F 
ENDBRANCH   1   4
BRANCH   2   8
HETATM    8  C3  UNL     1     -34.860   5.475   4.487  1.00 20.00     0.183 C 
HETATM    9  C4  UNL     1     -34.382   5.908   5.849  1.00 20.00     0.099 C 
HETATM   10  O6  UNL     1     -36.016   5.688   4.122  1.00 20.00    -0.290 OA
ENDBRANCH   2   8
TORSDOF 2
ENDMDL
MODEL 2
REMARK VINA RESULT:      -4.8      1.958      3.847
REMARK  2 active torsions:
REMARK  status: ('A' for Active; 'I' for Inactive)
REMARK    1  A    between atoms: C1_1  and  C5_5 
REMARK    2  A    between atoms: C2_2  and  C3_3 
ROOT
HETATM    1  C1  UNL     1     -33.817   6.391   5.181  1.00 20.00     0.134 C 
HETATM    2  C2  UNL     1     -32.979   6.880   4.261  1.00 20.00     0.166 C 
HETATM    3  F7  UNL     1     -32.085   7.840   4.579  1.00 20.00    -0.202 F 
ENDROOT
BRANCH   1   4
HETATM    4  C5  UNL     1     -34.834   5.333   4.926  1.00 20.00     0.410 C 
HETATM    5  F8  UNL     1     -34.309   4.174   4.455  1.00 20.00    -0.167 F 
HETATM    6  F9  UNL     1     -35.756   5.742   4.019  1.00 20.00    -0.167 F 
HETATM    7  F10 UNL     1     -35.513   5.020   6.060  1.00 20.00    -0.167 F 
ENDBRANCH   1   4
BRANCH   2   8
HETATM    8  C3  UNL     1     -32.921   6.456   2.839  1.00 20.00     0.183 C 
HETATM    9  C4  UNL     1     -32.757   7.497   1.761  1.00 20.00     0.099 C 
HETATM   10  O6  UNL     1     -33.007   5.261   2.561  1.00 20.00    -0.290 OA
ENDBRANCH   2   8
TORSDOF 2
ENDMDL
MODEL 3
REMARK VINA RESULT:      -4.8      1.956      3.861
REMARK  2 active torsions:
REMARK  status: ('A' for Active; 'I' for Inactive)
REMARK    1  A    between atoms: C1_1  and  C5_5 
REMARK    2  A    between atoms: C2_2  and  C3_3 
ROOT
HETATM    1  C1  UNL     1     -33.810   6.400   5.174  1.00 20.00     0.134 C 
HETATM    2  C2  UNL     1     -32.970   6.885   4.252  1.00 20.00     0.166 C 
HETATM    3  F7  UNL     1     -32.066   7.836   4.571  1.00 20.00    -0.202 F 
ENDROOT
BRANCH   1   4
HETATM    4  C5  UNL     1     -34.838   5.352   4.918  1.00 20.00     0.410 C 
HETATM    5  F8  UNL     1     -35.767   5.713   3.997  1.00 20.00    -0.167 F 
HETATM    6  F9  UNL     1     -35.512   5.036   6.052  1.00 20.00    -0.167 F 
HETATM    7  F10 UNL     1     -34.268   4.204   4.469  1.00 20.00    -0.167 F 
ENDBRANCH   1   4
BRANCH   2   8
HETATM    8  C3  UNL     1     -32.922   6.466   2.829  1.00 20.00     0.183 C 
HETATM    9  C4  UNL     1     -32.753   7.509   1.754  1.00 20.00     0.099 C 
HETATM   10  O6  UNL     1     -33.018   5.272   2.547  1.00 20.00    -0.290 OA
ENDBRANCH   2   8
TORSDOF 2
ENDMDL
MODEL 4
REMARK VINA RESULT:      -4.6      2.277      3.526
REMARK  2 active torsions:
REMARK  status: ('A' for Active; 'I' for Inactive)
REMARK    1  A    between atoms: C1_1  and  C5_5 
REMARK    2  A    between atoms: C2_2  and  C3_3 
ROOT
HETATM    1  C1  UNL     1     -33.967   5.212   3.791  1.00 20.00     0.134 C 
HETATM    2  C2  UNL     1     -33.125   5.580   2.819  1.00 20.00     0.166 C 
HETATM    3  F7  UNL     1     -32.754   4.707   1.858  1.00 20.00    -0.202 F 
ENDROOT
BRANCH   1   4
HETATM    4  C5  UNL     1     -34.434   6.101   4.891  1.00 20.00     0.410 C 
HETATM    5  F8  UNL     1     -33.456   6.446   5.766  1.00 20.00    -0.167 F 
HETATM    6  F9  UNL     1     -35.419   5.514   5.616  1.00 20.00    -0.167 F 
HETATM    7  F10 UNL     1     -34.946   7.260   4.402  1.00 20.00    -0.167 F 
ENDBRANCH   1   4
BRANCH   2   8
HETATM    8  C3  UNL     1     -32.516   6.925   2.674  1.00 20.00     0.183 C 
HETATM    9  C4  UNL     1     -32.841   7.759   1.461  1.00 20.00     0.099 C 
HETATM   10  O6  UNL     1     -31.754   7.341   3.546  1.00 20.00    -0.290 OA
ENDBRANCH   2   8
TORSDOF 2
ENDMDL
MODEL 5
REMARK VINA RESULT:      -4.5      1.554      2.193
REMARK  2 active torsions:
REMARK  status: ('A' for Active; 'I' for Inactive)
REMARK    1  A    between atoms: C1_1  and  C5_5 
REMARK    2  A    between atoms: C2_2  and  C3_3 
ROOT
HETATM    1  C1  UNL     1     -33.107   7.127   4.548  1.00 20.00     0.134 C 
HETATM    2  C2  UNL     1     -34.100   6.408   5.083  1.00 20.00     0.166 C 
HETATM    3  F7  UNL     1     -34.482   6.601   6.364  1.00 20.00    -0.202 F 
ENDROOT
BRANCH   1   4
HETATM    4  C5  UNL     1     -32.617   6.987   3.148  1.00 20.00     0.410 C 
HETATM    5  F8  UNL     1     -32.550   5.701   2.719  1.00 20.00    -0.167 F 
HETATM    6  F9  UNL     1     -31.375   7.513   3.005  1.00 20.00    -0.167 F 
HETATM    7  F10 UNL     1     -33.424   7.647   2.277  1.00 20.00    -0.167 F 
ENDBRANCH   1   4
BRANCH   2   8
HETATM    8  C3  UNL     1     -34.876   5.357   4.379  1.00 20.00     0.183 C 
HETATM    9  C4  UNL     1     -34.289   3.976   4.231  1.00 20.00     0.099 C 
HETATM   10  O6  UNL     1     -35.988   5.626   3.928  1.00 20.00    -0.290 OA
ENDBRANCH   2   8
TORSDOF 2
ENDMDL
MODEL 6
REMARK VINA RESULT:      -4.4     11.414     12.144
REMARK  2 active torsions:
REMARK  status: ('A' for Active; 'I' for Inactive)
REMARK    1  A    between atoms: C1_1  and  C5_5 
REMARK    2  A    between atoms: C2_2  and  C3_3 
ROOT
HETATM    1  C1  UNL     1     -34.216  15.143  -5.396  1.00 20.00     0.134 C 
HETATM    2  C2  UNL     1     -35.426  14.678  -5.727  1.00 20.00     0.166 C 
HETATM    3  F7  UNL     1     -35.970  14.958  -6.930  1.00 20.00    -0.202 F 
ENDROOT
BRANCH   1   4
HETATM    4  C5  UNL     1     -33.534  14.887  -4.097  1.00 20.00     0.410 C 
HETATM    5  F8  UNL     1     -34.370  14.917  -3.028  1.00 20.00    -0.167 F 
HETATM    6  F9  UNL     1     -32.563  15.804  -3.860  1.00 20.00    -0.167 F 
HETATM    7  F10 UNL     1     -32.934  13.669  -4.088  1.00 20.00    -0.167 F 
ENDBRANCH   1   4
BRANCH   2   8
HETATM    8  C3  UNL     1     -36.289  13.836  -4.861  1.00 20.00     0.183 C 
HETATM    9  C4  UNL     1     -37.542  14.425  -4.266  1.00 20.00     0.099 C 
HETATM   10  O6  UNL     1     -35.969  12.668  -4.643  1.00 20.00    -0.290 OA
ENDBRANCH   2   8
TORSDOF 2
ENDMDL
MODEL 7
REMARK VINA RESULT:      -4.4      8.772      9.450
REMARK  2 active torsions:
REMARK  status: ('A' for Active; 'I' for Inactive)
REMARK    1  A    between atoms: C1_1  and  C5_5 
REMARK    2  A    between atoms: C2_2  and  C3_3 
ROOT
HETATM    1  C1  UNL     1     -41.936   7.324   0.846  1.00 20.00     0.134 C 
HETATM    2  C2  UNL     1     -42.005   6.036   0.493  1.00 20.00     0.166 C 
HETATM    3  F7  UNL     1     -42.170   5.070   1.423  1.00 20.00    -0.202 F 
ENDROOT
BRANCH   1   4
HETATM    4  C5  UNL     1     -41.757   8.456  -0.105  1.00 20.00     0.410 C 
HETATM    5  F8  UNL     1     -40.708   8.297  -0.951  1.00 20.00    -0.167 F 
HETATM    6  F9  UNL     1     -41.555   9.625   0.553  1.00 20.00    -0.167 F 
HETATM    7  F10 UNL     1     -42.859   8.628  -0.879  1.00 20.00    -0.167 F 
ENDBRANCH   1   4
BRANCH   2   8
HETATM    8  C3  UNL     1     -41.912   5.519  -0.896  1.00 20.00     0.183 C 
HETATM    9  C4  UNL     1     -43.168   5.360  -1.713  1.00 20.00     0.099 C 
HETATM   10  O6  UNL     1     -40.810   5.229  -1.360  1.00 20.00    -0.290 OA
ENDBRANCH   2   8
TORSDOF 2
ENDMDL
MODEL 8
REMARK VINA RESULT:      -4.3     11.533     12.146
REMARK  2 active torsions:
REMARK  status: ('A' for Active; 'I' for Inactive)
REMARK    1  A    between atoms: C1_1  and  C5_5 
REMARK    2  A    between atoms: C2_2  and  C3_3 
ROOT
HETATM    1  C1  UNL     1     -35.640  15.625  -3.150  1.00 20.00     0.134 C 
HETATM    2  C2  UNL     1     -36.466  14.872  -3.885  1.00 20.00     0.166 C 
HETATM    3  F7  UNL     1     -37.801  14.915  -3.689  1.00 20.00    -0.202 F 
ENDROOT
BRANCH   1   4
HETATM    4  C5  UNL     1     -34.157  15.646  -3.294  1.00 20.00     0.410 C 
HETATM    5  F8  UNL     1     -33.612  14.421  -3.505  1.00 20.00    -0.167 F 
HETATM    6  F9  UNL     1     -33.561  16.155  -2.187  1.00 20.00    -0.167 F 
HETATM    7  F10 UNL     1     -33.776  16.427  -4.338  1.00 20.00    -0.167 F 
ENDBRANCH   1   4
BRANCH   2   8
HETATM    8  C3  UNL     1     -36.050  13.937  -4.960  1.00 20.00     0.183 C 
HETATM    9  C4  UNL     1     -35.765  14.472  -6.340  1.00 20.00     0.099 C 
HETATM   10  O6  UNL     1     -35.942  12.737  -4.708  1.00 20.00    -0.290 OA
ENDBRANCH   2   8
TORSDOF 2
ENDMDL
MODEL 9
REMARK VINA RESULT:      -4.1      8.898      9.554
REMARK  2 active torsions:
REMARK  status: ('A' for Active; 'I' for Inactive)
REMARK    1  A    between atoms: C1_1  and  C5_5 
REMARK    2  A    between atoms: C2_2  and  C3_3 
ROOT
HETATM    1  C1  UNL     1     -40.954   7.121  -0.603  1.00 20.00     0.134 C 
HETATM    2  C2  UNL     1     -41.360   5.877  -0.881  1.00 20.00     0.166 C 
HETATM    3  F7  UNL     1     -40.469   4.911  -1.190  1.00 20.00    -0.202 F 
ENDROOT
BRANCH   1   4
HETATM    4  C5  UNL     1     -41.859   8.250  -0.251  1.00 20.00     0.410 C 
HETATM    5  F8  UNL     1     -42.827   8.482  -1.173  1.00 20.00    -0.167 F 
HETATM    6  F9  UNL     1     -41.169   9.409  -0.109  1.00 20.00    -0.167 F 
HETATM    7  F10 UNL     1     -42.491   8.024   0.930  1.00 20.00    -0.167 F 
ENDBRANCH   1   4
BRANCH   2   8
HETATM    8  C3  UNL     1     -42.770   5.414  -0.886  1.00 20.00     0.183 C 
HETATM    9  C4  UNL     1     -43.386   4.897   0.388  1.00 20.00     0.099 C 
HETATM   10  O6  UNL     1     -43.417   5.461  -1.932  1.00 20.00    -0.290 OA
ENDBRANCH   2   8
TORSDOF 2
ENDMDL
