MODEL 1
REMARK VINA RESULT:      -4.5      0.000      0.000
REMARK  4 active torsions:
REMARK  status: ('A' for Active; 'I' for Inactive)
REMARK    1  A    between atoms: C1_1  and  C3_3 
REMARK    2  A    between atoms: C2_2  and  C7_7 
REMARK    3  A    between atoms: C2_2  and  C8_8 
REMARK    4  A    between atoms: C3_3  and  C9_9 
ROOT
HETATM    1  C1  UNL     1     -33.940  14.801  -3.932  1.00 20.00     0.164 C 
HETATM    2  C2  UNL     1     -34.059  15.788  -3.025  1.00 20.00    -0.038 C 
HETATM    3  F11 UNL     1     -32.769  14.641  -4.592  1.00 20.00    -0.202 F 
ENDROOT
BRANCH   1   4
HETATM    4  C3  UNL     1     -34.969  13.793  -4.320  1.00 20.00     0.187 C 
HETATM    5  O10 UNL     1     -34.926  12.633  -3.920  1.00 20.00    -0.290 OA
BRANCH   4   6
HETATM    6  C9  UNL     1     -36.088  14.299  -5.212  1.00 20.00     0.082 C 
HETATM    7  C6  UNL     1     -35.586  14.766  -6.567  1.00 20.00     0.013 C 
ENDBRANCH   4   6
ENDBRANCH   1   4
BRANCH   2   8
HETATM    8  C7  UNL     1     -32.975  16.783  -2.673  1.00 20.00     0.033 C 
HETATM    9  C4  UNL     1     -32.973  17.986  -3.606  1.00 20.00     0.010 C 
ENDBRANCH   2   8
BRANCH   2  10
HETATM   10  C8  UNL     1     -35.367  15.964  -2.276  1.00 20.00     0.033 C 
HETATM   11  C5  UNL     1     -35.195  16.752  -0.984  1.00 20.00     0.010 C 
ENDBRANCH   2  10
TORSDOF 4
ENDMDL
MODEL 2
REMARK VINA RESULT:      -4.5     10.910     11.777
REMARK  4 active torsions:
REMARK  status: ('A' for Active; 'I' for Inactive)
REMARK    1  A    between atoms: C1_1  and  C3_3 
REMARK    2  A    between atoms: C2_2  and  C7_7 
REMARK    3  A    between atoms: C2_2  and  C8_8 
REMARK    4  A    between atoms: C3_3  and  C9_9 
ROOT
HETATM    1  C1  UNL     1     -33.093   5.983   2.893  1.00 20.00     0.164 C 
HETATM    2  C2  UNL     1     -33.996   5.932   3.889  1.00 20.00    -0.038 C 
HETATM    3  F11 UNL     1     -32.847   4.871   2.161  1.00 20.00    -0.202 F 
ENDROOT
BRANCH   1   4
HETATM    4  C3  UNL     1     -32.297   7.163   2.446  1.00 20.00     0.187 C 
HETATM    5  O10 UNL     1     -31.495   7.724   3.187  1.00 20.00    -0.290 OA
BRANCH   4   6
HETATM    6  C9  UNL     1     -32.518   7.605   1.010  1.00 20.00     0.082 C 
HETATM    7  C6  UNL     1     -32.948   9.057   0.908  1.00 20.00     0.013 C 
ENDBRANCH   4   6
ENDBRANCH   1   4
BRANCH   2   8
HETATM    8  C7  UNL     1     -34.776   4.701   4.296  1.00 20.00     0.033 C 
HETATM    9  C4  UNL     1     -34.941   4.597   5.806  1.00 20.00     0.010 C 
ENDBRANCH   2   8
BRANCH   2  10
HETATM   10  C8  UNL     1     -34.283   7.179   4.705  1.00 20.00     0.033 C 
HETATM   11  C5  UNL     1     -33.509   7.207   6.016  1.00 20.00     0.010 C 
ENDBRANCH   2  10
TORSDOF 4
ENDMDL
MODEL 3
REMARK VINA RESULT:      -4.4      1.625      1.997
REMARK  4 active torsions:
REMARK  status: ('A' for Active; 'I' for Inactive)
REMARK    1  A    between atoms: C1_1  and  C3_3 
REMARK    2  A    between atoms: C2_2  and  C7_7 
REMARK    3  A    between atoms: C2_2  and  C8_8 
REMARK    4  A    between atoms: C3_3  and  C9_9 
ROOT
HETATM    1  C1  UNL     1     -35.413  14.632  -3.800  1.00 20.00     0.164 C 
HETATM    2  C2  UNL     1     -35.456  15.794  -3.124  1.00 20.00    -0.038 C 
HETATM    3  F11 UNL     1     -34.419  13.749  -3.543  1.00 20.00    -0.202 F 
ENDROOT
BRANCH   1   4
HETATM    4  C3  UNL     1     -36.369  14.146  -4.838  1.00 20.00     0.187 C 
HETATM    5  O10 UNL     1     -37.429  13.604  -4.541  1.00 20.00    -0.290 OA
BRANCH   4   6
HETATM    6  C9  UNL     1     -35.962  14.394  -6.280  1.00 20.00     0.082 C 
HETATM    7  C6  UNL     1     -34.587  15.028  -6.396  1.00 20.00     0.013 C 
ENDBRANCH   4   6
ENDBRANCH   1   4
BRANCH   2   8
HETATM    8  C7  UNL     1     -34.454  16.232  -2.079  1.00 20.00     0.033 C 
HETATM    9  C4  UNL     1     -33.137  16.681  -2.696  1.00 20.00     0.010 C 
ENDBRANCH   2   8
BRANCH   2  10
HETATM   10  C8  UNL     1     -36.574  16.782  -3.402  1.00 20.00     0.033 C 
HETATM   11  C5  UNL     1     -36.183  17.826  -4.439  1.00 20.00     0.010 C 
ENDBRANCH   2  10
TORSDOF 4
ENDMDL
MODEL 4
REMARK VINA RESULT:      -4.2      1.514      2.322
REMARK  4 active torsions:
REMARK  status: ('A' for Active; 'I' for Inactive)
REMARK    1  A    between atoms: C1_1  and  C3_3 
REMARK    2  A    between atoms: C2_2  and  C7_7 
REMARK    3  A    between atoms: C2_2  and  C8_8 
REMARK    4  A    between atoms: C3_3  and  C9_9 
ROOT
HETATM    1  C1  UNL     1     -34.726  15.162  -3.391  1.00 20.00     0.164 C 
HETATM    2  C2  UNL     1     -34.324  16.135  -2.553  1.00 20.00    -0.038 C 
HETATM    3  F11 UNL     1     -35.933  14.579  -3.203  1.00 20.00    -0.202 F 
ENDROOT
BRANCH   1   4
HETATM    4  C3  UNL     1     -33.995  14.618  -4.572  1.00 20.00     0.187 C 
HETATM    5  O10 UNL     1     -33.193  13.694  -4.471  1.00 20.00    -0.290 OA
BRANCH   4   6
HETATM    6  C9  UNL     1     -34.329  15.258  -5.909  1.00 20.00     0.082 C 
HETATM    7  C6  UNL     1     -35.593  14.688  -6.527  1.00 20.00     0.013 C 
ENDBRANCH   4   6
ENDBRANCH   1   4
BRANCH   2   8
HETATM    8  C7  UNL     1     -35.114  16.646  -1.368  1.00 20.00     0.033 C 
HETATM    9  C4  UNL     1     -36.249  17.570  -1.788  1.00 20.00     0.010 C 
ENDBRANCH   2   8
BRANCH   2  10
HETATM   10  C8  UNL     1     -32.976  16.798  -2.767  1.00 20.00     0.033 C 
HETATM   11  C5  UNL     1     -32.618  17.762  -1.644  1.00 20.00     0.010 C 
ENDBRANCH   2  10
TORSDOF 4
ENDMDL
MODEL 5
REMARK VINA RESULT:      -4.2      1.752      2.623
REMARK  4 active torsions:
REMARK  status: ('A' for Active; 'I' for Inactive)
REMARK    1  A    between atoms: C1_1  and  C3_3 
REMARK    2  A    between atoms: C2_2  and  C7_7 
REMARK    3  A    between atoms: C2_2  and  C8_8 
REMARK    4  A    between atoms: C3_3  and  C9_9 
ROOT
HETATM    1  C1  UNL     1     -36.350  15.176  -3.922  1.00 20.00     0.164 C 
HETATM    2  C2  UNL     1     -35.526  15.831  -3.084  1.00 20.00    -0.038 C 
HETATM    3  F11 UNL     1     -37.655  15.529  -3.983  1.00 20.00    -0.202 F 
ENDROOT
BRANCH   1   4
HETATM    4  C3  UNL     1     -36.002  14.067  -4.857  1.00 20.00     0.187 C 
HETATM    5  O10 UNL     1     -35.923  12.901  -4.481  1.00 20.00    -0.290 OA
BRANCH   4   6
HETATM    6  C9  UNL     1     -35.784  14.466  -6.306  1.00 20.00     0.082 C 
HETATM    7  C6  UNL     1     -34.370  14.952  -6.568  1.00 20.00     0.013 C 
ENDBRANCH   4   6
ENDBRANCH   1   4
BRANCH   2   8
HETATM    8  C7  UNL     1     -35.939  16.954  -2.157  1.00 20.00     0.033 C 
HETATM    9  C4  UNL     1     -35.302  16.828  -0.780  1.00 20.00     0.010 C 
ENDBRANCH   2   8
BRANCH   2  10
HETATM   10  C8  UNL     1     -34.060  15.446  -3.020  1.00 20.00     0.033 C 
HETATM   11  C5  UNL     1     -33.143  16.566  -3.493  1.00 20.00     0.010 C 
ENDBRANCH   2  10
TORSDOF 4
ENDMDL
MODEL 6
REMARK VINA RESULT:      -4.0     10.666     11.549
REMARK  4 active torsions:
REMARK  status: ('A' for Active; 'I' for Inactive)
REMARK    1  A    between atoms: C1_1  and  C3_3 
REMARK    2  A    between atoms: C2_2  and  C7_7 
REMARK    3  A    between atoms: C2_2  and  C8_8 
REMARK    4  A    between atoms: C3_3  and  C9_9 
ROOT
HETATM    1  C1  UNL     1     -32.712   7.302   3.653  1.00 20.00     0.164 C 
HETATM    2  C2  UNL     1     -33.623   6.579   4.331  1.00 20.00    -0.038 C 
HETATM    3  F11 UNL     1     -31.819   8.055   4.335  1.00 20.00    -0.202 F 
ENDROOT
BRANCH   1   4
HETATM    4  C3  UNL     1     -32.531   7.379   2.174  1.00 20.00     0.187 C 
HETATM    5  O10 UNL     1     -32.160   6.413   1.513  1.00 20.00    -0.290 OA
BRANCH   4   6
HETATM    6  C9  UNL     1     -32.862   8.716   1.535  1.00 20.00     0.082 C 
HETATM    7  C6  UNL     1     -33.066   8.610   0.034  1.00 20.00     0.013 C 
ENDBRANCH   4   6
ENDBRANCH   1   4
BRANCH   2   8
HETATM    8  C7  UNL     1     -33.758   6.541   5.837  1.00 20.00     0.033 C 
HETATM    9  C4  UNL     1     -34.825   5.557   6.295  1.00 20.00     0.010 C 
ENDBRANCH   2   8
BRANCH   2  10
HETATM   10  C8  UNL     1     -34.620   5.725   3.570  1.00 20.00     0.033 C 
HETATM   11  C5  UNL     1     -34.135   4.294   3.382  1.00 20.00     0.010 C 
ENDBRANCH   2  10
TORSDOF 4
ENDMDL
MODEL 7
REMARK VINA RESULT:      -4.0      1.040      1.252
REMARK  4 active torsions:
REMARK  status: ('A' for Active; 'I' for Inactive)
REMARK    1  A    between atoms: C1_1  and  C3_3 
REMARK    2  A    between atoms: C2_2  and  C7_7 
REMARK    3  A    between atoms: C2_2  and  C8_8 
REMARK    4  A    between atoms: C3_3  and  C9_9 
ROOT
HETATM    1  C1  UNL     1     -33.539  15.403  -3.610  1.00 20.00     0.164 C 
HETATM    2  C2  UNL     1     -34.052  16.284  -2.732  1.00 20.00    -0.038 C 
HETATM    3  F11 UNL     1     -32.196  15.319  -3.760  1.00 20.00    -0.202 F 
ENDROOT
BRANCH   1   4
HETATM    4  C3  UNL     1     -34.283  14.441  -4.474  1.00 20.00     0.187 C 
HETATM    5  O10 UNL     1     -34.701  13.370  -4.044  1.00 20.00    -0.290 OA
BRANCH   4   6
HETATM    6  C9  UNL     1     -34.518  14.885  -5.907  1.00 20.00     0.082 C 
HETATM    7  C6  UNL     1     -35.987  14.857  -6.292  1.00 20.00     0.013 C 
ENDBRANCH   4   6
ENDBRANCH   1   4
BRANCH   2   8
HETATM    8  C7  UNL     1     -33.243  17.237  -1.880  1.00 20.00     0.033 C 
HETATM    9  C4  UNL     1     -32.654  18.381  -2.695  1.00 20.00     0.010 C 
ENDBRANCH   2   8
BRANCH   2  10
HETATM   10  C8  UNL     1     -35.556  16.375  -2.553  1.00 20.00     0.033 C 
HETATM   11  C5  UNL     1     -36.184  17.447  -3.433  1.00 20.00     0.010 C 
ENDBRANCH   2  10
TORSDOF 4
ENDMDL
MODEL 8
REMARK VINA RESULT:      -3.8     15.454     17.026
REMARK  4 active torsions:
REMARK  status: ('A' for Active; 'I' for Inactive)
REMARK    1  A    between atoms: C1_1  and  C3_3 
REMARK    2  A    between atoms: C2_2  and  C7_7 
REMARK    3  A    between atoms: C2_2  and  C8_8 
REMARK    4  A    between atoms: C3_3  and  C9_9 
ROOT
HETATM    1  C1  UNL     1     -24.335  18.549   9.271  1.00 20.00     0.164 C 
HETATM    2  C2  UNL     1     -23.143  18.322   9.852  1.00 20.00    -0.038 C 
HETATM    3  F11 UNL     1     -25.461  18.495  10.021  1.00 20.00    -0.202 F 
ENDROOT
BRANCH   1   4
HETATM    4  C3  UNL     1     -24.602  18.888   7.843  1.00 20.00     0.187 C 
HETATM    5  O10 UNL     1     -23.722  18.840   6.989  1.00 20.00    -0.290 OA
BRANCH   4   6
HETATM    6  C9  UNL     1     -26.035  19.263   7.509  1.00 20.00     0.082 C 
HETATM    7  C6  UNL     1     -26.546  18.556   6.266  1.00 20.00     0.013 C 
ENDBRANCH   4   6
ENDBRANCH   1   4
BRANCH   2   8
HETATM    8  C7  UNL     1     -22.935  17.982  11.312  1.00 20.00     0.033 C 
HETATM    9  C4  UNL     1     -23.544  16.637  11.682  1.00 20.00     0.010 C 
ENDBRANCH   2   8
BRANCH   2  10
HETATM   10  C8  UNL     1     -21.877  18.391   9.018  1.00 20.00     0.033 C 
HETATM   11  C5  UNL     1     -21.352  17.012   8.643  1.00 20.00     0.010 C 
ENDBRANCH   2  10
TORSDOF 4
ENDMDL
MODEL 9
REMARK VINA RESULT:      -3.8     11.199     11.990
REMARK  4 active torsions:
REMARK  status: ('A' for Active; 'I' for Inactive)
REMARK    1  A    between atoms: C1_1  and  C3_3 
REMARK    2  A    between atoms: C2_2  and  C7_7 
REMARK    3  A    between atoms: C2_2  and  C8_8 
REMARK    4  A    between atoms: C3_3  and  C9_9 
ROOT
HETATM    1  C1  UNL     1     -33.476   5.260   2.695  1.00 20.00     0.164 C 
HETATM    2  C2  UNL     1     -32.956   6.501   2.724  1.00 20.00    -0.038 C 
HETATM    3  F11 UNL     1     -33.324   4.501   1.584  1.00 20.00    -0.202 F 
ENDROOT
BRANCH   1   4
HETATM    4  C3  UNL     1     -34.221   4.560   3.781  1.00 20.00     0.187 C 
HETATM    5  O10 UNL     1     -34.035   3.374   4.038  1.00 20.00    -0.290 OA
BRANCH   4   6
HETATM    6  C9  UNL     1     -35.200   5.414   4.568  1.00 20.00     0.082 C 
HETATM    7  C6  UNL     1     -34.907   5.412   6.058  1.00 20.00     0.013 C 
ENDBRANCH   4   6
ENDBRANCH   1   4
BRANCH   2   8
HETATM    8  C7  UNL     1     -32.205   7.158   1.587  1.00 20.00     0.033 C 
HETATM    9  C4  UNL     1     -32.963   8.344   1.007  1.00 20.00     0.010 C 
ENDBRANCH   2   8
BRANCH   2  10
HETATM   10  C8  UNL     1     -33.114   7.351   3.971  1.00 20.00     0.033 C 
HETATM   11  C5  UNL     1     -31.813   8.024   4.386  1.00 20.00     0.010 C 
ENDBRANCH   2  10
TORSDOF 4
ENDMDL
