MODEL 1
REMARK VINA RESULT:      -4.5      0.000      0.000
REMARK  3 active torsions:
REMARK  status: ('A' for Active; 'I' for Inactive)
REMARK    1  A    between atoms: C1_1  and  C5_5 
REMARK    2  A    between atoms: C1_1  and  C6_6 
REMARK    3  A    between atoms: C4_4  and  C5_5 
ROOT
HETATM    1  C1  UNL     1     -34.198   4.604   3.667  1.00 20.00     0.137 C 
HETATM    2  O7  UNL     1     -34.118   3.407   3.947  1.00 20.00    -0.297 OA
ENDROOT
BRANCH   1   3
HETATM    3  C5  UNL     1     -33.313   5.257   2.621  1.00 20.00     0.083 C 
BRANCH   3   4
HETATM    4  C4  UNL     1     -33.219   6.744   2.755  1.00 20.00    -0.008 A 
HETATM    5  C2  UNL     1     -31.922   7.388   3.157  1.00 20.00     0.005 A 
HETATM    6  C3  UNL     1     -32.437   7.546   1.753  1.00 20.00     0.005 A 
ENDBRANCH   3   4
ENDBRANCH   1   3
BRANCH   1   7
HETATM    7  C6  UNL     1     -35.214   5.487   4.339  1.00 20.00     0.163 C 
HETATM    8 BR8  UNL     1     -34.508   5.917   6.087  1.00 20.00    -0.089 Br
ENDBRANCH   1   7
TORSDOF 3
ENDMDL
MODEL 2
REMARK VINA RESULT:      -4.3      2.986      4.077
REMARK  3 active torsions:
REMARK  status: ('A' for Active; 'I' for Inactive)
REMARK    1  A    between atoms: C1_1  and  C5_5 
REMARK    2  A    between atoms: C1_1  and  C6_6 
REMARK    3  A    between atoms: C4_4  and  C5_5 
ROOT
HETATM    1  C1  UNL     1     -32.504   6.980   2.822  1.00 20.00     0.137 C 
HETATM    2  O7  UNL     1     -31.806   7.676   3.561  1.00 20.00    -0.297 OA
ENDROOT
BRANCH   1   3
HETATM    3  C5  UNL     1     -33.425   5.897   3.354  1.00 20.00     0.083 C 
BRANCH   3   4
HETATM    4  C4  UNL     1     -34.368   6.376   4.413  1.00 20.00    -0.008 A 
HETATM    5  C2  UNL     1     -34.867   5.428   5.468  1.00 20.00     0.005 A 
HETATM    6  C3  UNL     1     -33.900   6.520   5.834  1.00 20.00     0.005 A 
ENDBRANCH   3   4
ENDBRANCH   1   3
BRANCH   1   7
HETATM    7  C6  UNL     1     -32.501   7.193   1.333  1.00 20.00     0.163 C 
HETATM    8 BR8  UNL     1     -32.932   9.054   1.036  1.00 20.00    -0.089 Br
ENDBRANCH   1   7
TORSDOF 3
ENDMDL
MODEL 3
REMARK VINA RESULT:      -4.2      1.663      2.261
REMARK  3 active torsions:
REMARK  status: ('A' for Active; 'I' for Inactive)
REMARK    1  A    between atoms: C1_1  and  C5_5 
REMARK    2  A    between atoms: C1_1  and  C6_6 
REMARK    3  A    between atoms: C4_4  and  C5_5 
ROOT
HETATM    1  C1  UNL     1     -33.115   6.218   2.910  1.00 20.00     0.137 C 
HETATM    2  O7  UNL     1     -33.178   5.062   2.489  1.00 20.00    -0.297 OA
ENDROOT
BRANCH   1   3
HETATM    3  C5  UNL     1     -32.385   7.319   2.163  1.00 20.00     0.083 C 
BRANCH   3   4
HETATM    4  C4  UNL     1     -33.266   8.117   1.254  1.00 20.00    -0.008 A 
HETATM    5  C2  UNL     1     -32.869   9.506   0.840  1.00 20.00     0.005 A 
HETATM    6  C3  UNL     1     -32.845   8.386  -0.163  1.00 20.00     0.005 A 
ENDBRANCH   3   4
ENDBRANCH   1   3
BRANCH   1   7
HETATM    7  C6  UNL     1     -33.796   6.609   4.194  1.00 20.00     0.163 C 
HETATM    8 BR8  UNL     1     -34.940   5.131   4.690  1.00 20.00    -0.089 Br
ENDBRANCH   1   7
TORSDOF 3
ENDMDL
MODEL 4
REMARK VINA RESULT:      -4.2      2.586      4.005
REMARK  3 active torsions:
REMARK  status: ('A' for Active; 'I' for Inactive)
REMARK    1  A    between atoms: C1_1  and  C5_5 
REMARK    2  A    between atoms: C1_1  and  C6_6 
REMARK    3  A    between atoms: C4_4  and  C5_5 
ROOT
HETATM    1  C1  UNL     1     -32.896   6.609   2.891  1.00 20.00     0.137 C 
HETATM    2  O7  UNL     1     -33.196   5.627   2.211  1.00 20.00    -0.297 OA
ENDROOT
BRANCH   1   3
HETATM    3  C5  UNL     1     -33.389   6.796   4.315  1.00 20.00     0.083 C 
BRANCH   3   4
HETATM    4  C4  UNL     1     -34.662   6.068   4.611  1.00 20.00    -0.008 A 
HETATM    5  C2  UNL     1     -34.672   4.567   4.703  1.00 20.00     0.005 A 
HETATM    6  C3  UNL     1     -34.857   5.398   5.943  1.00 20.00     0.005 A 
ENDBRANCH   3   4
ENDBRANCH   1   3
BRANCH   1   7
HETATM    7  C6  UNL     1     -31.987   7.677   2.346  1.00 20.00     0.163 C 
HETATM    8 BR8  UNL     1     -32.883   8.441   0.812  1.00 20.00    -0.089 Br
ENDBRANCH   1   7
TORSDOF 3
ENDMDL
MODEL 5
REMARK VINA RESULT:      -4.0     11.903     12.166
REMARK  3 active torsions:
REMARK  status: ('A' for Active; 'I' for Inactive)
REMARK    1  A    between atoms: C1_1  and  C5_5 
REMARK    2  A    between atoms: C1_1  and  C6_6 
REMARK    3  A    between atoms: C4_4  and  C5_5 
ROOT
HETATM    1  C1  UNL     1     -36.039  13.820  -4.503  1.00 20.00     0.137 C 
HETATM    2  O7  UNL     1     -35.869  12.601  -4.498  1.00 20.00    -0.297 OA
ENDROOT
BRANCH   1   3
HETATM    3  C5  UNL     1     -34.893  14.803  -4.658  1.00 20.00     0.083 C 
BRANCH   3   4
HETATM    4  C4  UNL     1     -34.124  15.034  -3.395  1.00 20.00    -0.008 A 
HETATM    5  C2  UNL     1     -33.457  16.358  -3.145  1.00 20.00     0.005 A 
HETATM    6  C3  UNL     1     -34.663  15.959  -2.339  1.00 20.00     0.005 A 
ENDBRANCH   3   4
ENDBRANCH   1   3
BRANCH   1   7
HETATM    7  C6  UNL     1     -37.420  14.407  -4.384  1.00 20.00     0.163 C 
HETATM    8 BR8  UNL     1     -37.357  16.150  -5.220  1.00 20.00    -0.089 Br
ENDBRANCH   1   7
TORSDOF 3
ENDMDL
MODEL 6
REMARK VINA RESULT:      -3.9     11.936     12.440
REMARK  3 active torsions:
REMARK  status: ('A' for Active; 'I' for Inactive)
REMARK    1  A    between atoms: C1_1  and  C5_5 
REMARK    2  A    between atoms: C1_1  and  C6_6 
REMARK    3  A    between atoms: C4_4  and  C5_5 
ROOT
HETATM    1  C1  UNL     1     -35.972  14.018  -4.914  1.00 20.00     0.137 C 
HETATM    2  O7  UNL     1     -35.945  12.834  -4.575  1.00 20.00    -0.297 OA
ENDROOT
BRANCH   1   3
HETATM    3  C5  UNL     1     -36.059  15.152  -3.908  1.00 20.00     0.083 C 
BRANCH   3   4
HETATM    4  C4  UNL     1     -34.962  15.139  -2.891  1.00 20.00    -0.008 A 
HETATM    5  C2  UNL     1     -33.824  16.116  -2.993  1.00 20.00     0.005 A 
HETATM    6  C3  UNL     1     -34.841  16.259  -1.895  1.00 20.00     0.005 A 
ENDBRANCH   3   4
ENDBRANCH   1   3
BRANCH   1   7
HETATM    7  C6  UNL     1     -35.890  14.408  -6.365  1.00 20.00     0.163 C 
HETATM    8 BR8  UNL     1     -34.115  15.122  -6.649  1.00 20.00    -0.089 Br
ENDBRANCH   1   7
TORSDOF 3
ENDMDL
MODEL 7
REMARK VINA RESULT:      -3.9      2.382      3.571
REMARK  3 active torsions:
REMARK  status: ('A' for Active; 'I' for Inactive)
REMARK    1  A    between atoms: C1_1  and  C5_5 
REMARK    2  A    between atoms: C1_1  and  C6_6 
REMARK    3  A    between atoms: C4_4  and  C5_5 
ROOT
HETATM    1  C1  UNL     1     -33.353   5.403   2.835  1.00 20.00     0.137 C 
HETATM    2  O7  UNL     1     -32.984   4.819   1.815  1.00 20.00    -0.297 OA
ENDROOT
BRANCH   1   3
HETATM    3  C5  UNL     1     -34.280   4.761   3.851  1.00 20.00     0.083 C 
BRANCH   3   4
HETATM    4  C4  UNL     1     -34.878   5.734   4.818  1.00 20.00    -0.008 A 
HETATM    5  C2  UNL     1     -35.051   5.357   6.263  1.00 20.00     0.005 A 
HETATM    6  C3  UNL     1     -34.020   6.379   5.870  1.00 20.00     0.005 A 
ENDBRANCH   3   4
ENDBRANCH   1   3
BRANCH   1   7
HETATM    7  C6  UNL     1     -32.871   6.794   3.144  1.00 20.00     0.163 C 
HETATM    8 BR8  UNL     1     -32.546   7.661   1.447  1.00 20.00    -0.089 Br
ENDBRANCH   1   7
TORSDOF 3
ENDMDL
MODEL 8
REMARK VINA RESULT:      -3.8      8.663      9.267
REMARK  3 active torsions:
REMARK  status: ('A' for Active; 'I' for Inactive)
REMARK    1  A    between atoms: C1_1  and  C5_5 
REMARK    2  A    between atoms: C1_1  and  C6_6 
REMARK    3  A    between atoms: C4_4  and  C5_5 
ROOT
HETATM    1  C1  UNL     1     -41.488   5.669  -0.490  1.00 20.00     0.137 C 
HETATM    2  O7  UNL     1     -40.704   5.162  -1.293  1.00 20.00    -0.297 OA
ENDROOT
BRANCH   1   3
HETATM    3  C5  UNL     1     -41.131   6.890   0.338  1.00 20.00     0.083 C 
BRANCH   3   4
HETATM    4  C4  UNL     1     -41.355   8.187  -0.375  1.00 20.00    -0.008 A 
HETATM    5  C2  UNL     1     -42.637   8.946  -0.181  1.00 20.00     0.005 A 
HETATM    6  C3  UNL     1     -41.353   9.481   0.390  1.00 20.00     0.005 A 
ENDBRANCH   3   4
ENDBRANCH   1   3
BRANCH   1   7
HETATM    7  C6  UNL     1     -42.874   5.112  -0.308  1.00 20.00     0.163 C 
HETATM    8 BR8  UNL     1     -43.417   5.550   1.496  1.00 20.00    -0.089 Br
ENDBRANCH   1   7
TORSDOF 3
ENDMDL
MODEL 9
REMARK VINA RESULT:      -3.7     16.241     16.940
REMARK  3 active torsions:
REMARK  status: ('A' for Active; 'I' for Inactive)
REMARK    1  A    between atoms: C1_1  and  C5_5 
REMARK    2  A    between atoms: C1_1  and  C6_6 
REMARK    3  A    between atoms: C4_4  and  C5_5 
ROOT
HETATM    1  C1  UNL     1     -22.998  17.965   8.281  1.00 20.00     0.137 C 
HETATM    2  O7  UNL     1     -22.345  17.890   7.240  1.00 20.00    -0.297 OA
ENDROOT
BRANCH   1   3
HETATM    3  C5  UNL     1     -22.906  16.919   9.378  1.00 20.00     0.083 C 
BRANCH   3   4
HETATM    4  C4  UNL     1     -23.823  17.175  10.532  1.00 20.00    -0.008 A 
HETATM    5  C2  UNL     1     -24.439  16.026  11.280  1.00 20.00     0.005 A 
HETATM    6  C3  UNL     1     -23.379  16.868  11.935  1.00 20.00     0.005 A 
ENDBRANCH   3   4
ENDBRANCH   1   3
BRANCH   1   7
HETATM    7  C6  UNL     1     -23.914  19.131   8.535  1.00 20.00     0.163 C 
HETATM    8 BR8  UNL     1     -25.194  19.159   7.086  1.00 20.00    -0.089 Br
ENDBRANCH   1   7
TORSDOF 3
ENDMDL
