MODEL 1
REMARK VINA RESULT:      -3.9      0.000      0.000
REMARK  0 active torsions:
REMARK  status: ('A' for Active; 'I' for Inactive)
ROOT
HETATM    1  C1  UNL     1     -32.927  16.994  -2.500  1.00 20.00     0.001 C 
HETATM    2  C2  UNL     1     -34.057  17.202  -1.496  1.00 20.00     0.001 C 
HETATM    3  C3  UNL     1     -33.417  15.929  -3.481  1.00 20.00     0.011 C 
HETATM    4  C4  UNL     1     -35.135  16.188  -1.865  1.00 20.00     0.011 C 
HETATM    5  C5  UNL     1     -35.590  17.100  -4.190  1.00 20.00     0.096 C 
HETATM    6  C6  UNL     1     -35.617  14.636  -3.805  1.00 20.00     0.096 C 
HETATM    7  C7  UNL     1     -34.956  15.953  -3.374  1.00 20.00    -0.022 C 
HETATM    8  S8  UNL     1     -35.671  16.594  -5.931  1.00 20.00    -0.097 SA
HETATM    9  S9  UNL     1     -35.618  14.572  -5.615  1.00 20.00    -0.097 SA
ENDROOT
TORSDOF 0
ENDMDL
MODEL 2
REMARK VINA RESULT:      -3.7      2.379      3.558
REMARK  0 active torsions:
REMARK  status: ('A' for Active; 'I' for Inactive)
ROOT
HETATM    1  C1  UNL     1     -35.221  14.775  -3.375  1.00 20.00     0.001 C 
HETATM    2  C2  UNL     1     -33.968  14.645  -4.236  1.00 20.00     0.001 C 
HETATM    3  C3  UNL     1     -34.929  15.877  -2.357  1.00 20.00     0.011 C 
HETATM    4  C4  UNL     1     -32.949  15.610  -3.637  1.00 20.00     0.011 C 
HETATM    5  C5  UNL     1     -34.301  17.722  -4.030  1.00 20.00     0.096 C 
HETATM    6  C6  UNL     1     -32.965  17.485  -1.937  1.00 20.00     0.096 C 
HETATM    7  C7  UNL     1     -33.792  16.714  -2.977  1.00 20.00    -0.022 C 
HETATM    8  S8  UNL     1     -34.964  19.174  -3.167  1.00 20.00    -0.097 SA
HETATM    9  S9  UNL     1     -33.921  18.935  -1.421  1.00 20.00    -0.097 SA
ENDROOT
TORSDOF 0
ENDMDL
MODEL 3
REMARK VINA RESULT:      -3.6      2.317      3.283
REMARK  0 active torsions:
REMARK  status: ('A' for Active; 'I' for Inactive)
ROOT
HETATM    1  C1  UNL     1     -34.552  14.703  -3.792  1.00 20.00     0.001 C 
HETATM    2  C2  UNL     1     -33.214  15.410  -3.987  1.00 20.00     0.001 C 
HETATM    3  C3  UNL     1     -35.225  15.383  -2.599  1.00 20.00     0.011 C 
HETATM    4  C4  UNL     1     -33.105  16.418  -2.847  1.00 20.00     0.011 C 
HETATM    5  C5  UNL     1     -35.142  17.789  -3.493  1.00 20.00     0.096 C 
HETATM    6  C6  UNL     1     -34.645  17.379  -1.084  1.00 20.00     0.096 C 
HETATM    7  C7  UNL     1     -34.559  16.770  -2.491  1.00 20.00    -0.022 C 
HETATM    8  S8  UNL     1     -36.701  18.433  -2.823  1.00 20.00    -0.097 SA
HETATM    9  S9  UNL     1     -36.321  18.026  -0.852  1.00 20.00    -0.097 SA
ENDROOT
TORSDOF 0
ENDMDL
MODEL 4
REMARK VINA RESULT:      -3.5     17.375     18.550
REMARK  0 active torsions:
REMARK  status: ('A' for Active; 'I' for Inactive)
ROOT
HETATM    1  C1  UNL     1     -26.263  18.515  12.332  1.00 20.00     0.001 C 
HETATM    2  C2  UNL     1     -26.579  17.022  12.306  1.00 20.00     0.001 C 
HETATM    3  C3  UNL     1     -24.742  18.633  12.233  1.00 20.00     0.011 C 
HETATM    4  C4  UNL     1     -25.229  16.312  12.285  1.00 20.00     0.011 C 
HETATM    5  C5  UNL     1     -24.441  17.276  10.073  1.00 20.00     0.096 C 
HETATM    6  C6  UNL     1     -22.809  16.963  11.933  1.00 20.00     0.096 C 
HETATM    7  C7  UNL     1     -24.270  17.305  11.607  1.00 20.00    -0.022 C 
HETATM    8  S8  UNL     1     -23.057  18.177   9.321  1.00 20.00    -0.097 SA
HETATM    9  S9  UNL     1     -21.744  17.982  10.881  1.00 20.00    -0.097 SA
ENDROOT
TORSDOF 0
ENDMDL
MODEL 5
REMARK VINA RESULT:      -3.5      1.222      2.021
REMARK  0 active torsions:
REMARK  status: ('A' for Active; 'I' for Inactive)
ROOT
HETATM    1  C1  UNL     1     -34.445  17.800  -2.955  1.00 20.00     0.001 C 
HETATM    2  C2  UNL     1     -33.340  16.925  -2.370  1.00 20.00     0.001 C 
HETATM    3  C3  UNL     1     -34.816  17.178  -4.301  1.00 20.00     0.011 C 
HETATM    4  C4  UNL     1     -33.035  15.874  -3.432  1.00 20.00     0.011 C 
HETATM    5  C5  UNL     1     -35.341  14.814  -3.445  1.00 20.00     0.096 C 
HETATM    6  C6  UNL     1     -34.091  15.071  -5.588  1.00 20.00     0.096 C 
HETATM    7  C7  UNL     1     -34.348  15.711  -4.215  1.00 20.00    -0.022 C 
HETATM    8  S8  UNL     1     -36.701  14.365  -4.561  1.00 20.00    -0.097 SA
HETATM    9  S9  UNL     1     -35.692  14.650  -6.321  1.00 20.00    -0.097 SA
ENDROOT
TORSDOF 0
ENDMDL
MODEL 6
REMARK VINA RESULT:      -3.5      1.915      3.359
REMARK  0 active torsions:
REMARK  status: ('A' for Active; 'I' for Inactive)
ROOT
HETATM    1  C1  UNL     1     -36.799  14.822  -3.872  1.00 20.00     0.001 C 
HETATM    2  C2  UNL     1     -35.872  13.746  -4.431  1.00 20.00     0.001 C 
HETATM    3  C3  UNL     1     -35.898  15.865  -3.212  1.00 20.00     0.011 C 
HETATM    4  C4  UNL     1     -34.464  14.146  -3.999  1.00 20.00     0.011 C 
HETATM    5  C5  UNL     1     -34.409  16.357  -5.246  1.00 20.00     0.096 C 
HETATM    6  C6  UNL     1     -33.355  16.186  -2.992  1.00 20.00     0.096 C 
HETATM    7  C7  UNL     1     -34.513  15.677  -3.864  1.00 20.00    -0.022 C 
HETATM    8  S8  UNL     1     -34.105  18.129  -4.998  1.00 20.00    -0.097 SA
HETATM    9  S9  UNL     1     -33.308  17.992  -3.116  1.00 20.00    -0.097 SA
ENDROOT
TORSDOF 0
ENDMDL
MODEL 7
REMARK VINA RESULT:      -3.4      2.631      3.589
REMARK  0 active torsions:
REMARK  status: ('A' for Active; 'I' for Inactive)
ROOT
HETATM    1  C1  UNL     1     -34.534  16.275  -5.674  1.00 20.00     0.001 C 
HETATM    2  C2  UNL     1     -34.015  14.878  -5.347  1.00 20.00     0.001 C 
HETATM    3  C3  UNL     1     -35.046  16.861  -4.358  1.00 20.00     0.011 C 
HETATM    4  C4  UNL     1     -34.323  14.655  -3.870  1.00 20.00     0.011 C 
HETATM    5  C5  UNL     1     -32.889  16.558  -2.996  1.00 20.00     0.096 C 
HETATM    6  C6  UNL     1     -35.081  16.067  -1.911  1.00 20.00     0.096 C 
HETATM    7  C7  UNL     1     -34.329  16.062  -3.251  1.00 20.00    -0.022 C 
HETATM    8  S8  UNL     1     -32.965  18.038  -1.947  1.00 20.00    -0.097 SA
HETATM    9  S9  UNL     1     -34.799  17.669  -1.114  1.00 20.00    -0.097 SA
ENDROOT
TORSDOF 0
ENDMDL
MODEL 8
REMARK VINA RESULT:      -3.3      1.063      2.188
REMARK  0 active torsions:
REMARK  status: ('A' for Active; 'I' for Inactive)
ROOT
HETATM    1  C1  UNL     1     -34.481  16.836  -1.613  1.00 20.00     0.001 C 
HETATM    2  C2  UNL     1     -33.113  16.886  -2.285  1.00 20.00     0.001 C 
HETATM    3  C3  UNL     1     -35.510  16.755  -2.740  1.00 20.00     0.011 C 
HETATM    4  C4  UNL     1     -33.387  16.927  -3.785  1.00 20.00     0.011 C 
HETATM    5  C5  UNL     1     -34.558  14.678  -3.914  1.00 20.00     0.096 C 
HETATM    6  C6  UNL     1     -35.382  16.578  -5.303  1.00 20.00     0.096 C 
HETATM    7  C7  UNL     1     -34.737  16.211  -3.959  1.00 20.00    -0.022 C 
HETATM    8  S8  UNL     1     -36.096  13.900  -4.482  1.00 20.00    -0.097 SA
HETATM    9  S9  UNL     1     -36.806  15.489  -5.562  1.00 20.00    -0.097 SA
ENDROOT
TORSDOF 0
ENDMDL
MODEL 9
REMARK VINA RESULT:      -3.3     11.542     12.782
REMARK  0 active torsions:
REMARK  status: ('A' for Active; 'I' for Inactive)
ROOT
HETATM    1  C1  UNL     1     -42.891   9.039  -0.085  1.00 20.00     0.001 C 
HETATM    2  C2  UNL     1     -41.368   8.978  -0.006  1.00 20.00     0.001 C 
HETATM    3  C3  UNL     1     -43.340   7.725  -0.724  1.00 20.00     0.011 C 
HETATM    4  C4  UNL     1     -40.968   7.672  -0.686  1.00 20.00     0.011 C 
HETATM    5  C5  UNL     1     -42.183   6.135   0.928  1.00 20.00     0.096 C 
HETATM    6  C6  UNL     1     -42.144   5.585  -1.504  1.00 20.00     0.096 C 
HETATM    7  C7  UNL     1     -42.176   6.740  -0.492  1.00 20.00    -0.022 C 
HETATM    8  S8  UNL     1     -43.397   4.787   0.976  1.00 20.00    -0.097 SA
HETATM    9  S9  UNL     1     -43.417   4.387  -1.032  1.00 20.00    -0.097 SA
ENDROOT
TORSDOF 0
ENDMDL
