MODEL 1
REMARK VINA RESULT:      -4.6      0.000      0.000
REMARK  0 active torsions:
REMARK  status: ('A' for Active; 'I' for Inactive)
ROOT
HETATM    1  C1  UNL     1     -22.432  17.229   8.290  1.00 20.00     0.218 C 
HETATM    2  C2  UNL     1     -23.483  18.319   8.332  1.00 20.00     0.105 C 
HETATM    3  C3  UNL     1     -23.907  18.408   9.804  1.00 20.00     0.040 C 
HETATM    4  C4  UNL     1     -23.329  16.959  11.889  1.00 20.00     0.033 A 
HETATM    5  C5  UNL     1     -24.423  16.239  11.158  1.00 20.00     0.033 A 
HETATM    6  C6  UNL     1     -23.452  17.104  10.396  1.00 20.00     0.033 A 
HETATM    7  N7  UNL     1     -22.500  16.546   9.495  1.00 20.00    -0.352 N 
HETATM    8  O8  UNL     1     -21.701  16.990   7.342  1.00 20.00    -0.274 OA
HETATM    9  H17 UNL     1     -21.932  15.734   9.710  1.00 20.00     0.163 HD
ENDROOT
TORSDOF 0
ENDMDL
MODEL 2
REMARK VINA RESULT:      -4.4     17.985     18.790
REMARK  0 active torsions:
REMARK  status: ('A' for Active; 'I' for Inactive)
ROOT
HETATM    1  C1  UNL     1     -37.203  14.305  -4.170  1.00 20.00     0.218 C 
HETATM    2  C2  UNL     1     -35.960  13.618  -4.697  1.00 20.00     0.105 C 
HETATM    3  C3  UNL     1     -34.805  14.192  -3.865  1.00 20.00     0.040 C 
HETATM    4  C4  UNL     1     -34.690  16.104  -2.102  1.00 20.00     0.033 A 
HETATM    5  C5  UNL     1     -34.631  16.761  -3.450  1.00 20.00     0.033 A 
HETATM    6  C6  UNL     1     -35.367  15.457  -3.280  1.00 20.00     0.033 A 
HETATM    7  N7  UNL     1     -36.785  15.376  -3.396  1.00 20.00    -0.352 N 
HETATM    8  O8  UNL     1     -38.352  13.979  -4.427  1.00 20.00    -0.274 OA
HETATM    9  H17 UNL     1     -37.422  16.034  -2.959  1.00 20.00     0.163 HD
ENDROOT
TORSDOF 0
ENDMDL
MODEL 3
REMARK VINA RESULT:      -4.4     16.078     16.789
REMARK  0 active torsions:
REMARK  status: ('A' for Active; 'I' for Inactive)
ROOT
HETATM    1  C1  UNL     1     -34.509   5.569   4.832  1.00 20.00     0.218 C 
HETATM    2  C2  UNL     1     -34.423   4.528   3.735  1.00 20.00     0.105 C 
HETATM    3  C3  UNL     1     -33.295   5.011   2.814  1.00 20.00     0.040 C 
HETATM    4  C4  UNL     1     -31.889   7.202   2.758  1.00 20.00     0.033 A 
HETATM    5  C5  UNL     1     -33.185   7.507   2.064  1.00 20.00     0.033 A 
HETATM    6  C6  UNL     1     -33.141   6.467   3.154  1.00 20.00     0.033 A 
HETATM    7  N7  UNL     1     -33.781   6.671   4.411  1.00 20.00    -0.352 N 
HETATM    8  O8  UNL     1     -35.142   5.451   5.869  1.00 20.00    -0.274 OA
HETATM    9  H17 UNL     1     -33.713   7.533   4.942  1.00 20.00     0.163 HD
ENDROOT
TORSDOF 0
ENDMDL
MODEL 4
REMARK VINA RESULT:      -4.3     16.087     16.686
REMARK  0 active torsions:
REMARK  status: ('A' for Active; 'I' for Inactive)
ROOT
HETATM    1  C1  UNL     1     -33.011   6.454   2.810  1.00 20.00     0.218 C 
HETATM    2  C2  UNL     1     -33.156   4.977   2.508  1.00 20.00     0.105 C 
HETATM    3  C3  UNL     1     -34.174   4.459   3.533  1.00 20.00     0.040 C 
HETATM    4  C4  UNL     1     -35.321   5.572   5.589  1.00 20.00     0.033 A 
HETATM    5  C5  UNL     1     -33.965   5.120   6.047  1.00 20.00     0.033 A 
HETATM    6  C6  UNL     1     -34.181   5.510   4.607  1.00 20.00     0.033 A 
HETATM    7  N7  UNL     1     -33.588   6.679   4.050  1.00 20.00    -0.352 N 
HETATM    8  O8  UNL     1     -32.449   7.269   2.094  1.00 20.00    -0.274 OA
HETATM    9  H17 UNL     1     -33.587   7.582   4.513  1.00 20.00     0.163 HD
ENDROOT
TORSDOF 0
ENDMDL
MODEL 5
REMARK VINA RESULT:      -4.2      2.120      3.215
REMARK  0 active torsions:
REMARK  status: ('A' for Active; 'I' for Inactive)
ROOT
HETATM    1  C1  UNL     1     -24.248  16.518  10.861  1.00 20.00     0.218 C 
HETATM    2  C2  UNL     1     -24.667  17.971  10.768  1.00 20.00     0.105 C 
HETATM    3  C3  UNL     1     -23.919  18.525   9.548  1.00 20.00     0.040 C 
HETATM    4  C4  UNL     1     -22.090  17.508   7.999  1.00 20.00     0.033 A 
HETATM    5  C5  UNL     1     -21.382  18.020   9.219  1.00 20.00     0.033 A 
HETATM    6  C6  UNL     1     -22.807  17.540   9.322  1.00 20.00     0.033 A 
HETATM    7  N7  UNL     1     -23.148  16.354  10.033  1.00 20.00    -0.352 N 
HETATM    8  O8  UNL     1     -24.774  15.677  11.573  1.00 20.00    -0.274 OA
HETATM    9  H17 UNL     1     -22.640  15.481   9.945  1.00 20.00     0.163 HD
ENDROOT
TORSDOF 0
ENDMDL
MODEL 6
REMARK VINA RESULT:      -4.1     17.098     17.876
REMARK  0 active torsions:
REMARK  status: ('A' for Active; 'I' for Inactive)
ROOT
HETATM    1  C1  UNL     1     -35.392  13.882  -4.081  1.00 20.00     0.218 C 
HETATM    2  C2  UNL     1     -34.012  14.408  -4.419  1.00 20.00     0.105 C 
HETATM    3  C3  UNL     1     -33.729  15.490  -3.369  1.00 20.00     0.040 C 
HETATM    4  C4  UNL     1     -35.204  16.562  -1.509  1.00 20.00     0.033 A 
HETATM    5  C5  UNL     1     -35.546  17.269  -2.788  1.00 20.00     0.033 A 
HETATM    6  C6  UNL     1     -35.086  15.834  -2.822  1.00 20.00     0.033 A 
HETATM    7  N7  UNL     1     -35.965  14.774  -3.188  1.00 20.00    -0.352 N 
HETATM    8  O8  UNL     1     -35.898  12.876  -4.552  1.00 20.00    -0.274 OA
HETATM    9  H17 UNL     1     -36.911  14.682  -2.833  1.00 20.00     0.163 HD
ENDROOT
TORSDOF 0
ENDMDL
MODEL 7
REMARK VINA RESULT:      -4.0     17.403     18.230
REMARK  0 active torsions:
REMARK  status: ('A' for Active; 'I' for Inactive)
ROOT
HETATM    1  C1  UNL     1     -35.703  13.709  -4.234  1.00 20.00     0.218 C 
HETATM    2  C2  UNL     1     -36.771  14.783  -4.228  1.00 20.00     0.105 C 
HETATM    3  C3  UNL     1     -36.011  16.101  -4.031  1.00 20.00     0.040 C 
HETATM    4  C4  UNL     1     -33.512  16.628  -3.520  1.00 20.00     0.033 A 
HETATM    5  C5  UNL     1     -34.156  16.290  -2.207  1.00 20.00     0.033 A 
HETATM    6  C6  UNL     1     -34.678  15.676  -3.480  1.00 20.00     0.033 A 
HETATM    7  N7  UNL     1     -34.537  14.285  -3.754  1.00 20.00    -0.352 N 
HETATM    8  O8  UNL     1     -35.874  12.546  -4.567  1.00 20.00    -0.274 OA
HETATM    9  H17 UNL     1     -33.675  13.770  -3.612  1.00 20.00     0.163 HD
ENDROOT
TORSDOF 0
ENDMDL
MODEL 8
REMARK VINA RESULT:      -4.0     22.937     23.488
REMARK  0 active torsions:
REMARK  status: ('A' for Active; 'I' for Inactive)
ROOT
HETATM    1  C1  UNL     1     -41.182   5.760  -0.783  1.00 20.00     0.218 C 
HETATM    2  C2  UNL     1     -41.741   5.565   0.611  1.00 20.00     0.105 C 
HETATM    3  C3  UNL     1     -42.543   6.841   0.900  1.00 20.00     0.040 C 
HETATM    4  C4  UNL     1     -42.813   9.080  -0.401  1.00 20.00     0.033 A 
HETATM    5  C5  UNL     1     -41.528   9.184   0.367  1.00 20.00     0.033 A 
HETATM    6  C6  UNL     1     -42.021   7.837  -0.096  1.00 20.00     0.033 A 
HETATM    7  N7  UNL     1     -41.341   7.098  -1.107  1.00 20.00    -0.352 N 
HETATM    8  O8  UNL     1     -40.656   4.890  -1.460  1.00 20.00    -0.274 OA
HETATM    9  H17 UNL     1     -41.008   7.508  -1.973  1.00 20.00     0.163 HD
ENDROOT
TORSDOF 0
ENDMDL
MODEL 9
REMARK VINA RESULT:      -3.9      2.836      3.747
REMARK  0 active torsions:
REMARK  status: ('A' for Active; 'I' for Inactive)
ROOT
HETATM    1  C1  UNL     1     -25.255  18.618  11.325  1.00 20.00     0.218 C 
HETATM    2  C2  UNL     1     -24.407  17.866  12.330  1.00 20.00     0.105 C 
HETATM    3  C3  UNL     1     -23.011  17.791  11.697  1.00 20.00     0.040 C 
HETATM    4  C4  UNL     1     -22.109  18.462   9.348  1.00 20.00     0.033 A 
HETATM    5  C5  UNL     1     -22.736  17.107   9.195  1.00 20.00     0.033 A 
HETATM    6  C6  UNL     1     -23.254  18.063  10.239  1.00 20.00     0.033 A 
HETATM    7  N7  UNL     1     -24.545  18.657  10.135  1.00 20.00    -0.352 N 
HETATM    8  O8  UNL     1     -26.372  19.062  11.538  1.00 20.00    -0.274 OA
HETATM    9  H17 UNL     1     -24.908  19.065   9.280  1.00 20.00     0.163 HD
ENDROOT
TORSDOF 0
ENDMDL
