MODEL 1
REMARK VINA RESULT:      -4.0      0.000      0.000
REMARK  1 active torsions:
REMARK  status: ('A' for Active; 'I' for Inactive)
REMARK    1  A    between atoms: C4_4  and  C7_7 
ROOT
HETATM    1  C1  UNL     1     -36.480  14.105  -4.284  1.00 20.00     0.075 C 
HETATM    2  C2  UNL     1     -34.293  14.753  -5.275  1.00 20.00     0.105 C 
HETATM    3  C3  UNL     1     -35.048  14.318  -4.026  1.00 20.00     0.164 C 
HETATM    4  C4  UNL     1     -34.546  17.023  -3.840  1.00 20.00     0.113 C 
HETATM    5  N8  UNL     1     -37.610  13.937  -4.487  1.00 20.00    -0.196 NA
HETATM    6  S9  UNL     1     -34.656  16.502  -5.578  1.00 20.00    -0.151 SA
HETATM    7  S10 UNL     1     -34.789  15.585  -2.742  1.00 20.00    -0.133 SA
ENDROOT
BRANCH   4   8
HETATM    8  C7  UNL     1     -33.185  17.649  -3.569  1.00 20.00     0.001 C 
HETATM    9  C5  UNL     1     -33.162  19.110  -4.016  1.00 20.00     0.011 C 
HETATM   10  C6  UNL     1     -32.824  17.537  -2.088  1.00 20.00     0.011 C 
ENDBRANCH   4   8
TORSDOF 1
ENDMDL
MODEL 2
REMARK VINA RESULT:      -4.0      1.656      2.083
REMARK  1 active torsions:
REMARK  status: ('A' for Active; 'I' for Inactive)
REMARK    1  A    between atoms: C4_4  and  C7_7 
ROOT
HETATM    1  C1  UNL     1     -37.265  14.630  -4.492  1.00 20.00     0.075 C 
HETATM    2  C2  UNL     1     -36.312  16.927  -4.423  1.00 20.00     0.105 C 
HETATM    3  C3  UNL     1     -36.048  15.444  -4.645  1.00 20.00     0.164 C 
HETATM    4  C4  UNL     1     -35.091  16.133  -2.153  1.00 20.00     0.113 C 
HETATM    5  N8  UNL     1     -38.224  13.989  -4.371  1.00 20.00    -0.196 NA
HETATM    6  S9  UNL     1     -36.466  17.216  -2.641  1.00 20.00    -0.151 SA
HETATM    7  S10 UNL     1     -34.752  14.921  -3.476  1.00 20.00    -0.133 SA
ENDROOT
BRANCH   4   8
HETATM    8  C7  UNL     1     -33.842  16.963  -1.889  1.00 20.00     0.001 C 
HETATM    9  C5  UNL     1     -32.882  16.890  -3.076  1.00 20.00     0.011 C 
HETATM   10  C6  UNL     1     -34.212  18.416  -1.589  1.00 20.00     0.011 C 
ENDBRANCH   4   8
TORSDOF 1
ENDMDL
MODEL 3
REMARK VINA RESULT:      -3.9      1.277      2.018
REMARK  1 active torsions:
REMARK  status: ('A' for Active; 'I' for Inactive)
REMARK    1  A    between atoms: C4_4  and  C7_7 
ROOT
HETATM    1  C1  UNL     1     -36.825  14.755  -4.462  1.00 20.00     0.075 C 
HETATM    2  C2  UNL     1     -36.389  16.868  -3.223  1.00 20.00     0.105 C 
HETATM    3  C3  UNL     1     -36.179  16.077  -4.507  1.00 20.00     0.164 C 
HETATM    4  C4  UNL     1     -33.841  16.001  -3.048  1.00 20.00     0.113 C 
HETATM    5  N8  UNL     1     -37.333  13.713  -4.426  1.00 20.00    -0.196 NA
HETATM    6  S9  UNL     1     -35.279  16.199  -1.956  1.00 20.00    -0.151 SA
HETATM    7  S10 UNL     1     -34.385  15.926  -4.789  1.00 20.00    -0.133 SA
ENDROOT
BRANCH   4   8
HETATM    8  C7  UNL     1     -32.881  17.169  -2.862  1.00 20.00     0.001 C 
HETATM    9  C5  UNL     1     -33.109  18.233  -3.935  1.00 20.00     0.011 C 
HETATM   10  C6  UNL     1     -33.031  17.775  -1.467  1.00 20.00     0.011 C 
ENDBRANCH   4   8
TORSDOF 1
ENDMDL
MODEL 4
REMARK VINA RESULT:      -3.9      1.802      2.075
REMARK  1 active torsions:
REMARK  status: ('A' for Active; 'I' for Inactive)
REMARK    1  A    between atoms: C4_4  and  C7_7 
ROOT
HETATM    1  C1  UNL     1     -36.055  14.685  -6.164  1.00 20.00     0.075 C 
HETATM    2  C2  UNL     1     -34.937  13.805  -4.123  1.00 20.00     0.105 C 
HETATM    3  C3  UNL     1     -36.032  14.696  -4.693  1.00 20.00     0.164 C 
HETATM    4  C4  UNL     1     -33.969  16.304  -3.823  1.00 20.00     0.113 C 
HETATM    5  N8  UNL     1     -36.072  14.676  -7.324  1.00 20.00    -0.196 NA
HETATM    6  S9  UNL     1     -33.353  14.666  -4.307  1.00 20.00    -0.151 SA
HETATM    7  S10 UNL     1     -35.779  16.382  -4.049  1.00 20.00    -0.133 SA
ENDROOT
BRANCH   4   8
HETATM    8  C7  UNL     1     -33.624  16.582  -2.366  1.00 20.00     0.001 C 
HETATM    9  C5  UNL     1     -32.792  17.858  -2.240  1.00 20.00     0.011 C 
HETATM   10  C6  UNL     1     -34.893  16.685  -1.519  1.00 20.00     0.011 C 
ENDBRANCH   4   8
TORSDOF 1
ENDMDL
MODEL 5
REMARK VINA RESULT:      -3.9      2.107      2.708
REMARK  1 active torsions:
REMARK  status: ('A' for Active; 'I' for Inactive)
REMARK    1  A    between atoms: C4_4  and  C7_7 
ROOT
HETATM    1  C1  UNL     1     -35.661  15.226  -7.038  1.00 20.00     0.075 C 
HETATM    2  C2  UNL     1     -35.614  17.129  -5.436  1.00 20.00     0.105 C 
HETATM    3  C3  UNL     1     -34.815  16.057  -6.167  1.00 20.00     0.164 C 
HETATM    4  C4  UNL     1     -35.141  15.262  -3.548  1.00 20.00     0.113 C 
HETATM    5  N8  UNL     1     -36.328  14.570  -7.724  1.00 20.00    -0.196 NA
HETATM    6  S9  UNL     1     -36.508  16.338  -4.072  1.00 20.00    -0.151 SA
HETATM    7  S10 UNL     1     -33.956  15.045  -4.919  1.00 20.00    -0.133 SA
ENDROOT
BRANCH   4   8
HETATM    8  C7  UNL     1     -34.429  15.871  -2.348  1.00 20.00     0.001 C 
HETATM    9  C5  UNL     1     -33.144  16.576  -2.781  1.00 20.00     0.011 C 
HETATM   10  C6  UNL     1     -35.349  16.843  -1.609  1.00 20.00     0.011 C 
ENDBRANCH   4   8
TORSDOF 1
ENDMDL
MODEL 6
REMARK VINA RESULT:      -3.7      1.488      1.975
REMARK  1 active torsions:
REMARK  status: ('A' for Active; 'I' for Inactive)
REMARK    1  A    between atoms: C4_4  and  C7_7 
ROOT
HETATM    1  C1  UNL     1     -35.991  13.938  -4.236  1.00 20.00     0.075 C 
HETATM    2  C2  UNL     1     -35.012  15.589  -2.654  1.00 20.00     0.105 C 
HETATM    3  C3  UNL     1     -36.094  15.298  -3.685  1.00 20.00     0.164 C 
HETATM    4  C4  UNL     1     -34.188  16.907  -4.858  1.00 20.00     0.113 C 
HETATM    5  N8  UNL     1     -35.908  12.865  -4.672  1.00 20.00    -0.196 NA
HETATM    6  S9  UNL     1     -33.458  15.899  -3.534  1.00 20.00    -0.151 SA
HETATM    7  S10 UNL     1     -35.974  16.555  -4.999  1.00 20.00    -0.133 SA
ENDROOT
BRANCH   4   8
HETATM    8  C7  UNL     1     -33.981  18.387  -4.560  1.00 20.00     0.001 C 
HETATM    9  C5  UNL     1     -35.284  19.032  -4.090  1.00 20.00     0.011 C 
HETATM   10  C6  UNL     1     -32.881  18.579  -3.516  1.00 20.00     0.011 C 
ENDBRANCH   4   8
TORSDOF 1
ENDMDL
MODEL 7
REMARK VINA RESULT:      -3.6      2.447      3.067
REMARK  1 active torsions:
REMARK  status: ('A' for Active; 'I' for Inactive)
REMARK    1  A    between atoms: C4_4  and  C7_7 
ROOT
HETATM    1  C1  UNL     1     -38.486  16.280  -5.889  1.00 20.00     0.075 C 
HETATM    2  C2  UNL     1     -37.785  14.591  -4.203  1.00 20.00     0.105 C 
HETATM    3  C3  UNL     1     -38.051  16.060  -4.501  1.00 20.00     0.164 C 
HETATM    4  C4  UNL     1     -35.323  15.665  -4.449  1.00 20.00     0.113 C 
HETATM    5  N8  UNL     1     -38.828  16.454  -6.984  1.00 20.00    -0.196 NA
HETATM    6  S9  UNL     1     -36.189  14.144  -4.936  1.00 20.00    -0.151 SA
HETATM    7  S10 UNL     1     -36.532  16.995  -4.128  1.00 20.00    -0.133 SA
ENDROOT
BRANCH   4   8
HETATM    8  C7  UNL     1     -34.493  15.415  -3.197  1.00 20.00     0.001 C 
HETATM    9  C5  UNL     1     -33.053  15.883  -3.400  1.00 20.00     0.011 C 
HETATM   10  C6  UNL     1     -35.117  16.112  -1.988  1.00 20.00     0.011 C 
ENDBRANCH   4   8
TORSDOF 1
ENDMDL
MODEL 8
REMARK VINA RESULT:      -3.6      1.716      2.106
REMARK  1 active torsions:
REMARK  status: ('A' for Active; 'I' for Inactive)
REMARK    1  A    between atoms: C4_4  and  C7_7 
ROOT
HETATM    1  C1  UNL     1     -36.056  14.511  -5.789  1.00 20.00     0.075 C 
HETATM    2  C2  UNL     1     -34.631  14.263  -3.765  1.00 20.00     0.105 C 
HETATM    3  C3  UNL     1     -35.993  14.648  -4.326  1.00 20.00     0.164 C 
HETATM    4  C4  UNL     1     -34.636  16.959  -3.681  1.00 20.00     0.113 C 
HETATM    5  N8  UNL     1     -36.104  14.403  -6.944  1.00 20.00    -0.196 NA
HETATM    6  S9  UNL     1     -33.478  15.622  -4.095  1.00 20.00    -0.151 SA
HETATM    7  S10 UNL     1     -36.355  16.357  -3.806  1.00 20.00    -0.133 SA
ENDROOT
BRANCH   4   8
HETATM    8  C7  UNL     1     -34.371  17.459  -2.267  1.00 20.00     0.001 C 
HETATM    9  C5  UNL     1     -35.174  16.652  -1.248  1.00 20.00     0.011 C 
HETATM   10  C6  UNL     1     -32.878  17.397  -1.942  1.00 20.00     0.011 C 
ENDBRANCH   4   8
TORSDOF 1
ENDMDL
MODEL 9
REMARK VINA RESULT:      -3.6      2.184      2.810
REMARK  1 active torsions:
REMARK  status: ('A' for Active; 'I' for Inactive)
REMARK    1  A    between atoms: C4_4  and  C7_7 
ROOT
HETATM    1  C1  UNL     1     -38.566  15.940  -5.293  1.00 20.00     0.075 C 
HETATM    2  C2  UNL     1     -36.936  14.254  -4.463  1.00 20.00     0.105 C 
HETATM    3  C3  UNL     1     -37.676  15.555  -4.186  1.00 20.00     0.164 C 
HETATM    4  C4  UNL     1     -35.072  16.163  -4.852  1.00 20.00     0.113 C 
HETATM    5  N8  UNL     1     -39.266  16.244  -6.167  1.00 20.00    -0.196 NA
HETATM    6  S9  UNL     1     -35.590  14.603  -5.626  1.00 20.00    -0.151 SA
HETATM    7  S10 UNL     1     -36.437  16.849  -3.854  1.00 20.00    -0.133 SA
ENDROOT
BRANCH   4   8
HETATM    8  C7  UNL     1     -33.857  15.927  -3.964  1.00 20.00     0.001 C 
HETATM    9  C5  UNL     1     -34.256  15.935  -2.489  1.00 20.00     0.011 C 
HETATM   10  C6  UNL     1     -33.172  14.609  -4.325  1.00 20.00     0.011 C 
ENDBRANCH   4   8
TORSDOF 1
ENDMDL
