MODEL 1
REMARK VINA RESULT:      -4.3      0.000      0.000
REMARK  4 active torsions:
REMARK  status: ('A' for Active; 'I' for Inactive)
REMARK    1  A    between atoms: C1_1  and  C5_5 
REMARK       I    between atoms: C1_1  and  N9_9 
REMARK    2  A    between atoms: C6_6  and  C8_8 
REMARK    3  A    between atoms: C7_7  and  N9_9 
REMARK    4  A    between atoms: C8_8  and  N9_9 
ROOT
HETATM    1  C1  UNL     1     -33.827   6.548   4.482  1.00 20.00     0.219 C 
HETATM    2  N9  UNL     1     -33.284   6.489   3.194  1.00 20.00    -0.353 N 
HETATM    3  O10 UNL     1     -33.470   7.369   5.331  1.00 20.00    -0.273 OA
ENDROOT
BRANCH   2   4
HETATM    4  C7  UNL     1     -33.721   5.509   2.206  1.00 20.00     0.121 C 
HETATM    5  C4  UNL     1     -32.972   4.229   2.351  1.00 20.00     0.026 C 
ENDBRANCH   2   4
BRANCH   2   6
HETATM    6  C8  UNL     1     -32.239   7.404   2.742  1.00 20.00     0.125 C 
BRANCH   6   7
HETATM    7  C6  UNL     1     -32.312   7.674   1.243  1.00 20.00     0.015 C 
HETATM    8  C3  UNL     1     -32.953   9.015   0.918  1.00 20.00     0.006 C 
ENDBRANCH   6   7
ENDBRANCH   2   6
BRANCH   1   9
HETATM    9  C5  UNL     1     -34.908   5.525   4.804  1.00 20.00     0.098 C 
HETATM   10  C2  UNL     1     -34.781   4.961   6.210  1.00 20.00     0.014 C 
ENDBRANCH   1   9
TORSDOF 4
ENDMDL
MODEL 2
REMARK VINA RESULT:      -3.7     11.057     12.047
REMARK  4 active torsions:
REMARK  status: ('A' for Active; 'I' for Inactive)
REMARK    1  A    between atoms: C1_1  and  C5_5 
REMARK       I    between atoms: C1_1  and  N9_9 
REMARK    2  A    between atoms: C6_6  and  C8_8 
REMARK    3  A    between atoms: C7_7  and  N9_9 
REMARK    4  A    between atoms: C8_8  and  N9_9 
ROOT
HETATM    1  C1  UNL     1     -37.108  14.733  -4.148  1.00 20.00     0.219 C 
HETATM    2  N9  UNL     1     -35.816  15.099  -3.758  1.00 20.00    -0.353 N 
HETATM    3  O10 UNL     1     -37.391  13.620  -4.601  1.00 20.00    -0.273 OA
ENDROOT
BRANCH   2   4
HETATM    4  C7  UNL     1     -35.506  16.421  -3.225  1.00 20.00     0.121 C 
HETATM    5  C4  UNL     1     -35.077  16.340  -1.801  1.00 20.00     0.026 C 
ENDBRANCH   2   4
BRANCH   2   6
HETATM    6  C8  UNL     1     -34.680  14.186  -3.855  1.00 20.00     0.125 C 
BRANCH   6   7
HETATM    7  C6  UNL     1     -33.565  14.736  -4.736  1.00 20.00     0.015 C 
HETATM    8  C3  UNL     1     -33.995  14.916  -6.185  1.00 20.00     0.006 C 
ENDBRANCH   6   7
ENDBRANCH   2   6
BRANCH   1   9
HETATM    9  C5  UNL     1     -38.186  15.796  -3.987  1.00 20.00     0.098 C 
HETATM   10  C2  UNL     1     -39.592  15.226  -4.089  1.00 20.00     0.014 C 
ENDBRANCH   1   9
TORSDOF 4
ENDMDL
MODEL 3
REMARK VINA RESULT:      -3.6     11.709     12.668
REMARK  4 active torsions:
REMARK  status: ('A' for Active; 'I' for Inactive)
REMARK    1  A    between atoms: C1_1  and  C5_5 
REMARK       I    between atoms: C1_1  and  N9_9 
REMARK    2  A    between atoms: C6_6  and  C8_8 
REMARK    3  A    between atoms: C7_7  and  N9_9 
REMARK    4  A    between atoms: C8_8  and  N9_9 
ROOT
HETATM    1  C1  UNL     1     -31.548  18.383   0.014  1.00 20.00     0.219 C 
HETATM    2  N9  UNL     1     -32.903  18.287  -0.318  1.00 20.00    -0.353 N 
HETATM    3  O10 UNL     1     -30.646  18.446  -0.827  1.00 20.00    -0.273 OA
ENDROOT
BRANCH   2   4
HETATM    4  C7  UNL     1     -33.952  18.213   0.693  1.00 20.00     0.121 C 
HETATM    5  C4  UNL     1     -35.243  18.741   0.168  1.00 20.00     0.026 C 
ENDBRANCH   2   4
BRANCH   2   6
HETATM    6  C8  UNL     1     -33.371  18.253  -1.701  1.00 20.00     0.125 C 
BRANCH   6   7
HETATM    7  C6  UNL     1     -33.197  16.880  -2.341  1.00 20.00     0.015 C 
HETATM    8  C3  UNL     1     -34.482  16.067  -2.347  1.00 20.00     0.006 C 
ENDBRANCH   6   7
ENDBRANCH   2   6
BRANCH   1   9
HETATM    9  C5  UNL     1     -31.220  18.405   1.500  1.00 20.00     0.098 C 
HETATM   10  C2  UNL     1     -29.949  19.180   1.809  1.00 20.00     0.014 C 
ENDBRANCH   1   9
TORSDOF 4
ENDMDL
MODEL 4
REMARK VINA RESULT:      -3.6     11.446     12.817
REMARK  4 active torsions:
REMARK  status: ('A' for Active; 'I' for Inactive)
REMARK    1  A    between atoms: C1_1  and  C5_5 
REMARK       I    between atoms: C1_1  and  N9_9 
REMARK    2  A    between atoms: C6_6  and  C8_8 
REMARK    3  A    between atoms: C7_7  and  N9_9 
REMARK    4  A    between atoms: C8_8  and  N9_9 
ROOT
HETATM    1  C1  UNL     1     -33.875  14.951  -4.995  1.00 20.00     0.219 C 
HETATM    2  N9  UNL     1     -33.925  16.128  -4.241  1.00 20.00    -0.353 N 
HETATM    3  O10 UNL     1     -33.640  13.842  -4.507  1.00 20.00    -0.273 OA
ENDROOT
BRANCH   2   4
HETATM    4  C7  UNL     1     -34.205  17.428  -4.839  1.00 20.00     0.121 C 
HETATM    5  C4  UNL     1     -33.349  18.491  -4.240  1.00 20.00     0.026 C 
ENDBRANCH   2   4
BRANCH   2   6
HETATM    6  C8  UNL     1     -33.700  16.144  -2.798  1.00 20.00     0.125 C 
BRANCH   6   7
HETATM    7  C6  UNL     1     -34.995  16.006  -2.006  1.00 20.00     0.015 C 
HETATM    8  C3  UNL     1     -35.115  17.030  -0.888  1.00 20.00     0.006 C 
ENDBRANCH   6   7
ENDBRANCH   2   6
BRANCH   1   9
HETATM    9  C5  UNL     1     -34.130  15.098  -6.489  1.00 20.00     0.098 C 
HETATM   10  C2  UNL     1     -35.560  14.758  -6.876  1.00 20.00     0.014 C 
ENDBRANCH   1   9
TORSDOF 4
ENDMDL
MODEL 5
REMARK VINA RESULT:      -3.6     11.332     12.541
REMARK  4 active torsions:
REMARK  status: ('A' for Active; 'I' for Inactive)
REMARK    1  A    between atoms: C1_1  and  C5_5 
REMARK       I    between atoms: C1_1  and  N9_9 
REMARK    2  A    between atoms: C6_6  and  C8_8 
REMARK    3  A    between atoms: C7_7  and  N9_9 
REMARK    4  A    between atoms: C8_8  and  N9_9 
ROOT
HETATM    1  C1  UNL     1     -34.699  14.682  -4.026  1.00 20.00     0.219 C 
HETATM    2  N9  UNL     1     -35.606  15.135  -4.990  1.00 20.00    -0.353 N 
HETATM    3  O10 UNL     1     -34.057  13.635  -4.138  1.00 20.00    -0.273 OA
ENDROOT
BRANCH   2   4
HETATM    4  C7  UNL     1     -36.355  16.377  -4.835  1.00 20.00     0.121 C 
HETATM    5  C4  UNL     1     -37.801  16.107  -4.601  1.00 20.00     0.026 C 
ENDBRANCH   2   4
BRANCH   2   6
HETATM    6  C8  UNL     1     -35.871  14.399  -6.223  1.00 20.00     0.125 C 
BRANCH   6   7
HETATM    7  C6  UNL     1     -35.417  15.160  -7.463  1.00 20.00     0.015 C 
HETATM    8  C3  UNL     1     -33.904  15.291  -7.553  1.00 20.00     0.006 C 
ENDBRANCH   6   7
ENDBRANCH   2   6
BRANCH   1   9
HETATM    9  C5  UNL     1     -34.533  15.560  -2.794  1.00 20.00     0.098 C 
HETATM   10  C2  UNL     1     -33.269  16.403  -2.840  1.00 20.00     0.014 C 
ENDBRANCH   1   9
TORSDOF 4
ENDMDL
MODEL 6
REMARK VINA RESULT:      -3.5     11.324     12.899
REMARK  4 active torsions:
REMARK  status: ('A' for Active; 'I' for Inactive)
REMARK    1  A    between atoms: C1_1  and  C5_5 
REMARK       I    between atoms: C1_1  and  N9_9 
REMARK    2  A    between atoms: C6_6  and  C8_8 
REMARK    3  A    between atoms: C7_7  and  N9_9 
REMARK    4  A    between atoms: C8_8  and  N9_9 
ROOT
HETATM    1  C1  UNL     1     -34.534  14.938  -5.895  1.00 20.00     0.219 C 
HETATM    2  N9  UNL     1     -35.344  15.095  -4.766  1.00 20.00    -0.353 N 
HETATM    3  O10 UNL     1     -33.399  14.454  -5.853  1.00 20.00    -0.273 OA
ENDROOT
BRANCH   2   4
HETATM    4  C7  UNL     1     -36.682  15.670  -4.838  1.00 20.00     0.121 C 
HETATM    5  C4  UNL     1     -37.709  14.707  -4.348  1.00 20.00     0.026 C 
ENDBRANCH   2   4
BRANCH   2   6
HETATM    6  C8  UNL     1     -34.911  14.696  -3.429  1.00 20.00     0.125 C 
BRANCH   6   7
HETATM    7  C6  UNL     1     -34.619  15.892  -2.531  1.00 20.00     0.015 C 
HETATM    8  C3  UNL     1     -33.263  16.523  -2.812  1.00 20.00     0.006 C 
ENDBRANCH   6   7
ENDBRANCH   2   6
BRANCH   1   9
HETATM    9  C5  UNL     1     -35.126  15.404  -7.218  1.00 20.00     0.098 C 
HETATM   10  C2  UNL     1     -34.267  16.449  -7.909  1.00 20.00     0.014 C 
ENDBRANCH   1   9
TORSDOF 4
ENDMDL
MODEL 7
REMARK VINA RESULT:      -3.5     11.502     12.701
REMARK  4 active torsions:
REMARK  status: ('A' for Active; 'I' for Inactive)
REMARK    1  A    between atoms: C1_1  and  C5_5 
REMARK       I    between atoms: C1_1  and  N9_9 
REMARK    2  A    between atoms: C6_6  and  C8_8 
REMARK    3  A    between atoms: C7_7  and  N9_9 
REMARK    4  A    between atoms: C8_8  and  N9_9 
ROOT
HETATM    1  C1  UNL     1     -37.807  14.935  -4.363  1.00 20.00     0.219 C 
HETATM    2  N9  UNL     1     -36.685  15.709  -4.049  1.00 20.00    -0.353 N 
HETATM    3  O10 UNL     1     -37.797  13.701  -4.381  1.00 20.00    -0.273 OA
ENDROOT
BRANCH   2   4
HETATM    4  C7  UNL     1     -36.720  17.166  -4.035  1.00 20.00     0.121 C 
HETATM    5  C4  UNL     1     -36.085  17.732  -5.258  1.00 20.00     0.026 C 
ENDBRANCH   2   4
BRANCH   2   6
HETATM    6  C8  UNL     1     -35.394  15.115  -3.710  1.00 20.00     0.125 C 
BRANCH   6   7
HETATM    7  C6  UNL     1     -34.762  15.759  -2.482  1.00 20.00     0.015 C 
HETATM    8  C3  UNL     1     -33.388  16.347  -2.767  1.00 20.00     0.006 C 
ENDBRANCH   6   7
ENDBRANCH   2   6
BRANCH   1   9
HETATM    9  C5  UNL     1     -39.080  15.700  -4.696  1.00 20.00     0.098 C 
HETATM   10  C2  UNL     1     -40.137  15.580  -3.610  1.00 20.00     0.014 C 
ENDBRANCH   1   9
TORSDOF 4
ENDMDL
MODEL 8
REMARK VINA RESULT:      -3.5     11.290     12.005
REMARK  4 active torsions:
REMARK  status: ('A' for Active; 'I' for Inactive)
REMARK    1  A    between atoms: C1_1  and  C5_5 
REMARK       I    between atoms: C1_1  and  N9_9 
REMARK    2  A    between atoms: C6_6  and  C8_8 
REMARK    3  A    between atoms: C7_7  and  N9_9 
REMARK    4  A    between atoms: C8_8  and  N9_9 
ROOT
HETATM    1  C1  UNL     1     -34.116  15.964  -2.958  1.00 20.00     0.219 C 
HETATM    2  N9  UNL     1     -34.722  15.321  -4.041  1.00 20.00    -0.353 N 
HETATM    3  O10 UNL     1     -32.929  16.303  -2.946  1.00 20.00    -0.273 OA
ENDROOT
BRANCH   2   4
HETATM    4  C7  UNL     1     -36.126  14.930  -4.032  1.00 20.00     0.121 C 
HETATM    5  C4  UNL     1     -36.303  13.549  -4.564  1.00 20.00     0.026 C 
ENDBRANCH   2   4
BRANCH   2   6
HETATM    6  C8  UNL     1     -33.993  14.993  -5.264  1.00 20.00     0.125 C 
BRANCH   6   7
HETATM    7  C6  UNL     1     -34.327  15.939  -6.412  1.00 20.00     0.015 C 
HETATM    8  C3  UNL     1     -33.968  15.363  -7.773  1.00 20.00     0.006 C 
ENDBRANCH   6   7
ENDBRANCH   2   6
BRANCH   1   9
HETATM    9  C5  UNL     1     -35.007  16.237  -1.754  1.00 20.00     0.098 C 
HETATM   10  C2  UNL     1     -34.535  17.425  -0.932  1.00 20.00     0.014 C 
ENDBRANCH   1   9
TORSDOF 4
ENDMDL
MODEL 9
REMARK VINA RESULT:      -3.5     11.402     12.456
REMARK  4 active torsions:
REMARK  status: ('A' for Active; 'I' for Inactive)
REMARK    1  A    between atoms: C1_1  and  C5_5 
REMARK       I    between atoms: C1_1  and  N9_9 
REMARK    2  A    between atoms: C6_6  and  C8_8 
REMARK    3  A    between atoms: C7_7  and  N9_9 
REMARK    4  A    between atoms: C8_8  and  N9_9 
ROOT
HETATM    1  C1  UNL     1     -33.658  16.873  -2.345  1.00 20.00     0.219 C 
HETATM    2  N9  UNL     1     -33.516  17.738  -1.255  1.00 20.00    -0.353 N 
HETATM    3  O10 UNL     1     -32.887  16.863  -3.309  1.00 20.00    -0.273 OA
ENDROOT
BRANCH   2   4
HETATM    4  C7  UNL     1     -34.440  17.733  -0.127  1.00 20.00     0.121 C 
HETATM    5  C4  UNL     1     -34.887  19.114   0.209  1.00 20.00     0.026 C 
ENDBRANCH   2   4
BRANCH   2   6
HETATM    6  C8  UNL     1     -32.432  18.713  -1.166  1.00 20.00     0.125 C 
BRANCH   6   7
HETATM    7  C6  UNL     1     -31.186  18.138  -0.503  1.00 20.00     0.015 C 
HETATM    8  C3  UNL     1     -31.039  18.568   0.949  1.00 20.00     0.006 C 
ENDBRANCH   6   7
ENDBRANCH   2   6
BRANCH   1   9
HETATM    9  C5  UNL     1     -34.840  15.915  -2.293  1.00 20.00     0.098 C 
HETATM   10  C2  UNL     1     -34.816  14.893  -3.418  1.00 20.00     0.014 C 
ENDBRANCH   1   9
TORSDOF 4
ENDMDL
