MODEL 1
REMARK VINA RESULT:      -5.0      0.000      0.000
REMARK  1 active torsions:
REMARK  status: ('A' for Active; 'I' for Inactive)
REMARK    1  A    between atoms: C2_2  and  C7_7 
ROOT
HETATM    1  C3  UNL     1     -33.999   5.195   3.524  1.00 20.00     0.034 C 
HETATM    2  C4  UNL     1     -33.279   6.985   5.125  1.00 20.00     0.034 C 
HETATM    3  C5  UNL     1     -35.038   4.782   4.560  1.00 20.00     0.168 C 
HETATM    4  C6  UNL     1     -34.358   6.473   6.073  1.00 20.00     0.168 C 
HETATM    5  C7  UNL     1     -33.649   6.670   3.682  1.00 20.00     0.011 C 
HETATM    6  O8  UNL     1     -34.580   5.077   5.879  1.00 20.00    -0.391 OA
ENDROOT
BRANCH   5   7
HETATM    7  C2  UNL     1     -32.450   6.971   2.806  1.00 20.00    -0.032 C 
HETATM    8  C1  UNL     1     -32.502   7.709   1.692  1.00 20.00     0.007 C 
ENDBRANCH   5   7
TORSDOF 1
ENDMDL
MODEL 2
REMARK VINA RESULT:      -4.4      1.025      1.929
REMARK  1 active torsions:
REMARK  status: ('A' for Active; 'I' for Inactive)
REMARK    1  A    between atoms: C2_2  and  C7_7 
ROOT
HETATM    1  C3  UNL     1     -34.064   6.760   4.623  1.00 20.00     0.034 C 
HETATM    2  C4  UNL     1     -33.490   5.216   2.733  1.00 20.00     0.034 C 
HETATM    3  C5  UNL     1     -34.674   5.556   5.331  1.00 20.00     0.168 C 
HETATM    4  C6  UNL     1     -34.131   4.096   3.546  1.00 20.00     0.168 C 
HETATM    5  C7  UNL     1     -32.974   6.312   3.657  1.00 20.00     0.011 C 
HETATM    6  O8  UNL     1     -35.166   4.609   4.384  1.00 20.00    -0.391 OA
ENDROOT
BRANCH   5   7
HETATM    7  C2  UNL     1     -32.573   7.501   2.807  1.00 20.00    -0.032 C 
HETATM    8  C1  UNL     1     -32.533   7.487   1.471  1.00 20.00     0.007 C 
ENDBRANCH   5   7
TORSDOF 1
ENDMDL
MODEL 3
REMARK VINA RESULT:      -4.0      1.774      3.755
REMARK  1 active torsions:
REMARK  status: ('A' for Active; 'I' for Inactive)
REMARK    1  A    between atoms: C2_2  and  C7_7 
ROOT
HETATM    1  C3  UNL     1     -32.962   7.140   4.150  1.00 20.00     0.034 C 
HETATM    2  C4  UNL     1     -34.093   4.947   3.703  1.00 20.00     0.034 C 
HETATM    3  C5  UNL     1     -32.517   7.129   2.693  1.00 20.00     0.168 C 
HETATM    4  C6  UNL     1     -33.586   5.057   2.270  1.00 20.00     0.168 C 
HETATM    5  C7  UNL     1     -34.243   6.332   4.320  1.00 20.00     0.011 C 
HETATM    6  O8  UNL     1     -32.362   5.791   2.222  1.00 20.00    -0.391 OA
ENDROOT
BRANCH   5   7
HETATM    7  C2  UNL     1     -34.509   6.166   5.802  1.00 20.00    -0.032 C 
HETATM    8  C1  UNL     1     -34.833   5.005   6.380  1.00 20.00     0.007 C 
ENDBRANCH   5   7
TORSDOF 1
ENDMDL
MODEL 4
REMARK VINA RESULT:      -4.0      1.843      3.779
REMARK  1 active torsions:
REMARK  status: ('A' for Active; 'I' for Inactive)
REMARK    1  A    between atoms: C2_2  and  C7_7 
ROOT
HETATM    1  C3  UNL     1     -33.261   7.016   5.149  1.00 20.00     0.034 C 
HETATM    2  C4  UNL     1     -33.478   5.823   2.954  1.00 20.00     0.034 C 
HETATM    3  C5  UNL     1     -32.329   7.995   4.446  1.00 20.00     0.168 C 
HETATM    4  C6  UNL     1     -32.534   6.869   2.372  1.00 20.00     0.168 C 
HETATM    5  C7  UNL     1     -34.229   6.395   4.149  1.00 20.00     0.011 C 
HETATM    6  O8  UNL     1     -31.640   7.356   3.373  1.00 20.00    -0.391 OA
ENDROOT
BRANCH   5   7
HETATM    7  C2  UNL     1     -34.962   5.261   4.837  1.00 20.00    -0.032 C 
HETATM    8  C1  UNL     1     -34.820   4.952   6.130  1.00 20.00     0.007 C 
ENDBRANCH   5   7
TORSDOF 1
ENDMDL
MODEL 5
REMARK VINA RESULT:      -4.0     11.837     12.252
REMARK  1 active torsions:
REMARK  status: ('A' for Active; 'I' for Inactive)
REMARK    1  A    between atoms: C2_2  and  C7_7 
ROOT
HETATM    1  C3  UNL     1     -35.736  15.238  -3.400  1.00 20.00     0.034 C 
HETATM    2  C4  UNL     1     -33.286  15.749  -3.558  1.00 20.00     0.034 C 
HETATM    3  C5  UNL     1     -35.480  14.062  -4.335  1.00 20.00     0.168 C 
HETATM    4  C6  UNL     1     -33.165  14.544  -4.484  1.00 20.00     0.168 C 
HETATM    5  C7  UNL     1     -34.473  15.578  -2.618  1.00 20.00     0.011 C 
HETATM    6  O8  UNL     1     -34.380  14.336  -5.203  1.00 20.00    -0.391 OA
ENDROOT
BRANCH   5   7
HETATM    7  C2  UNL     1     -34.700  16.890  -1.895  1.00 20.00    -0.032 C 
HETATM    8  C1  UNL     1     -35.280  16.993  -0.694  1.00 20.00     0.007 C 
ENDBRANCH   5   7
TORSDOF 1
ENDMDL
MODEL 6
REMARK VINA RESULT:      -3.9      1.167      1.504
REMARK  1 active torsions:
REMARK  status: ('A' for Active; 'I' for Inactive)
REMARK    1  A    between atoms: C2_2  and  C7_7 
ROOT
HETATM    1  C3  UNL     1     -34.552   4.727   4.295  1.00 20.00     0.034 C 
HETATM    2  C4  UNL     1     -33.241   6.841   4.611  1.00 20.00     0.034 C 
HETATM    3  C5  UNL     1     -35.199   5.008   5.646  1.00 20.00     0.168 C 
HETATM    4  C6  UNL     1     -33.961   7.006   5.945  1.00 20.00     0.168 C 
HETATM    5  C7  UNL     1     -34.094   6.028   3.646  1.00 20.00     0.011 C 
HETATM    6  O8  UNL     1     -34.308   5.734   6.492  1.00 20.00    -0.391 OA
ENDROOT
BRANCH   5   7
HETATM    7  C2  UNL     1     -33.247   5.684   2.437  1.00 20.00    -0.032 C 
HETATM    8  C1  UNL     1     -32.979   4.435   2.041  1.00 20.00     0.007 C 
ENDBRANCH   5   7
TORSDOF 1
ENDMDL
MODEL 7
REMARK VINA RESULT:      -3.9     11.710     12.767
REMARK  1 active torsions:
REMARK  status: ('A' for Active; 'I' for Inactive)
REMARK    1  A    between atoms: C2_2  and  C7_7 
ROOT
HETATM    1  C3  UNL     1     -34.312  15.456  -5.787  1.00 20.00     0.034 C 
HETATM    2  C4  UNL     1     -35.117  14.147  -3.805  1.00 20.00     0.034 C 
HETATM    3  C5  UNL     1     -35.542  14.953  -6.532  1.00 20.00     0.168 C 
HETATM    4  C6  UNL     1     -36.304  13.717  -4.659  1.00 20.00     0.168 C 
HETATM    5  C7  UNL     1     -34.577  15.488  -4.286  1.00 20.00     0.011 C 
HETATM    6  O8  UNL     1     -35.944  13.675  -6.040  1.00 20.00    -0.391 OA
ENDROOT
BRANCH   5   7
HETATM    7  C2  UNL     1     -33.264  15.754  -3.577  1.00 20.00    -0.032 C 
HETATM    8  C1  UNL     1     -33.083  16.726  -2.676  1.00 20.00     0.007 C 
ENDBRANCH   5   7
TORSDOF 1
ENDMDL
MODEL 8
REMARK VINA RESULT:      -3.9     15.515     16.471
REMARK  1 active torsions:
REMARK  status: ('A' for Active; 'I' for Inactive)
REMARK    1  A    between atoms: C2_2  and  C7_7 
ROOT
HETATM    1  C3  UNL     1     -22.966  16.967   9.496  1.00 20.00     0.034 C 
HETATM    2  C4  UNL     1     -24.800  18.670   9.350  1.00 20.00     0.034 C 
HETATM    3  C5  UNL     1     -22.327  17.653   8.295  1.00 20.00     0.168 C 
HETATM    4  C6  UNL     1     -24.060  19.263   8.156  1.00 20.00     0.168 C 
HETATM    5  C7  UNL     1     -23.825  17.954  10.276  1.00 20.00     0.011 C 
HETATM    6  O8  UNL     1     -23.322  18.254   7.467  1.00 20.00    -0.391 OA
ENDROOT
BRANCH   5   7
HETATM    7  C2  UNL     1     -24.626  17.180  11.303  1.00 20.00    -0.032 C 
HETATM    8  C1  UNL     1     -24.556  15.855  11.464  1.00 20.00     0.007 C 
ENDBRANCH   5   7
TORSDOF 1
ENDMDL
MODEL 9
REMARK VINA RESULT:      -3.8     16.592     17.142
REMARK  1 active torsions:
REMARK  status: ('A' for Active; 'I' for Inactive)
REMARK    1  A    between atoms: C2_2  and  C7_7 
ROOT
HETATM    1  C3  UNL     1     -24.724  18.842   9.610  1.00 20.00     0.034 C 
HETATM    2  C4  UNL     1     -22.854  17.943  11.019  1.00 20.00     0.034 C 
HETATM    3  C5  UNL     1     -23.764  18.793   8.427  1.00 20.00     0.168 C 
HETATM    4  C6  UNL     1     -21.997  17.944   9.758  1.00 20.00     0.168 C 
HETATM    5  C7  UNL     1     -24.328  17.808  10.657  1.00 20.00     0.011 C 
HETATM    6  O8  UNL     1     -22.416  18.973   8.862  1.00 20.00    -0.391 OA
ENDROOT
BRANCH   5   7
HETATM    7  C2  UNL     1     -25.149  18.058  11.907  1.00 20.00    -0.032 C 
HETATM    8  C1  UNL     1     -26.135  18.958  11.988  1.00 20.00     0.007 C 
ENDBRANCH   5   7
TORSDOF 1
ENDMDL
