MODEL 1
REMARK VINA RESULT:      -5.4      0.000      0.000
REMARK  0 active torsions:
REMARK  status: ('A' for Active; 'I' for Inactive)
ROOT
HETATM    1  C1  UNL     1     -32.737  16.245  -3.256  1.00 20.00     0.017 A 
HETATM    2  C2  UNL     1     -33.513  15.242  -3.838  1.00 20.00     0.025 A 
HETATM    3  C3  UNL     1     -35.412  15.837  -2.429  1.00 20.00     0.032 A 
HETATM    4  C4  UNL     1     -33.329  17.016  -2.272  1.00 20.00     0.016 A 
HETATM    5  C5  UNL     1     -34.640  16.830  -1.846  1.00 20.00    -0.038 A 
HETATM    6  C6  UNL     1     -34.842  15.040  -3.429  1.00 20.00     0.034 A 
HETATM    7  C7  UNL     1     -32.755  18.118  -1.520  1.00 20.00     0.160 A 
HETATM    8  C8  UNL     1     -33.790  18.682  -0.578  1.00 20.00     0.093 A 
HETATM    9  C9  UNL     1     -35.043  17.795  -0.766  1.00 20.00     0.023 A 
HETATM   10  C10 UNL     1     -35.440  17.090   0.527  1.00 20.00     0.015 C 
HETATM   11  O11 UNL     1     -31.611  18.517  -1.655  1.00 20.00    -0.292 OA
HETATM   12 CL12 UNL     1     -35.780  13.798  -4.166  1.00 20.00    -0.084 Cl
ENDROOT
TORSDOF 0
ENDMDL
MODEL 2
REMARK VINA RESULT:      -5.2      2.802      4.265
REMARK  0 active torsions:
REMARK  status: ('A' for Active; 'I' for Inactive)
ROOT
HETATM    1  C1  UNL     1     -33.076  16.192  -3.519  1.00 20.00     0.017 A 
HETATM    2  C2  UNL     1     -33.121  16.919  -2.329  1.00 20.00     0.025 A 
HETATM    3  C3  UNL     1     -35.449  16.283  -1.980  1.00 20.00     0.032 A 
HETATM    4  C4  UNL     1     -34.228  15.530  -3.902  1.00 20.00     0.016 A 
HETATM    5  C5  UNL     1     -35.406  15.564  -3.165  1.00 20.00    -0.038 A 
HETATM    6  C6  UNL     1     -34.299  16.963  -1.563  1.00 20.00     0.034 A 
HETATM    7  C7  UNL     1     -34.446  14.704  -5.077  1.00 20.00     0.160 A 
HETATM    8  C8  UNL     1     -35.853  14.158  -5.058  1.00 20.00     0.093 A 
HETATM    9  C9  UNL     1     -36.512  14.766  -3.797  1.00 20.00     0.023 A 
HETATM   10  C10 UNL     1     -37.724  15.622  -4.147  1.00 20.00     0.015 C 
HETATM   11  O11 UNL     1     -33.602  14.489  -5.930  1.00 20.00    -0.292 OA
HETATM   12 CL12 UNL     1     -34.327  17.866  -0.097  1.00 20.00    -0.084 Cl
ENDROOT
TORSDOF 0
ENDMDL
MODEL 3
REMARK VINA RESULT:      -5.0      3.416      4.694
REMARK  0 active torsions:
REMARK  status: ('A' for Active; 'I' for Inactive)
ROOT
HETATM    1  C1  UNL     1     -33.825  14.682  -3.870  1.00 20.00     0.017 A 
HETATM    2  C2  UNL     1     -33.074  15.803  -3.514  1.00 20.00     0.025 A 
HETATM    3  C3  UNL     1     -35.084  17.181  -3.455  1.00 20.00     0.032 A 
HETATM    4  C4  UNL     1     -35.190  14.850  -4.007  1.00 20.00     0.016 A 
HETATM    5  C5  UNL     1     -35.830  16.069  -3.814  1.00 20.00    -0.038 A 
HETATM    6  C6  UNL     1     -33.699  17.044  -3.306  1.00 20.00     0.034 A 
HETATM    7  C7  UNL     1     -36.191  13.857  -4.357  1.00 20.00     0.160 A 
HETATM    8  C8  UNL     1     -37.559  14.494  -4.352  1.00 20.00     0.093 A 
HETATM    9  C9  UNL     1     -37.315  15.987  -4.027  1.00 20.00     0.023 A 
HETATM   10  C10 UNL     1     -37.796  16.899  -5.151  1.00 20.00     0.015 C 
HETATM   11  O11 UNL     1     -35.942  12.689  -4.601  1.00 20.00    -0.292 OA
HETATM   12 CL12 UNL     1     -32.749  18.412  -2.864  1.00 20.00    -0.084 Cl
ENDROOT
TORSDOF 0
ENDMDL
MODEL 4
REMARK VINA RESULT:      -5.0      1.690      2.726
REMARK  0 active torsions:
REMARK  status: ('A' for Active; 'I' for Inactive)
ROOT
HETATM    1  C1  UNL     1     -35.569  15.786  -2.297  1.00 20.00     0.017 A 
HETATM    2  C2  UNL     1     -35.148  15.173  -3.477  1.00 20.00     0.025 A 
HETATM    3  C3  UNL     1     -33.010  16.339  -3.369  1.00 20.00     0.032 A 
HETATM    4  C4  UNL     1     -34.690  16.662  -1.688  1.00 20.00     0.016 A 
HETATM    5  C5  UNL     1     -33.430  16.954  -2.199  1.00 20.00    -0.038 A 
HETATM    6  C6  UNL     1     -33.877  15.446  -4.009  1.00 20.00     0.034 A 
HETATM    7  C7  UNL     1     -34.873  17.418  -0.460  1.00 20.00     0.160 A 
HETATM    8  C8  UNL     1     -33.626  18.216  -0.167  1.00 20.00     0.093 A 
HETATM    9  C9  UNL     1     -32.672  17.937  -1.352  1.00 20.00     0.023 A 
HETATM   10  C10 UNL     1     -32.322  19.212  -2.111  1.00 20.00     0.015 C 
HETATM   11  O11 UNL     1     -35.884  17.387   0.219  1.00 20.00    -0.292 OA
HETATM   12 CL12 UNL     1     -33.380  14.673  -5.466  1.00 20.00    -0.084 Cl
ENDROOT
TORSDOF 0
ENDMDL
MODEL 5
REMARK VINA RESULT:      -4.9      3.575      4.951
REMARK  0 active torsions:
REMARK  status: ('A' for Active; 'I' for Inactive)
ROOT
HETATM    1  C1  UNL     1     -38.168  14.515  -4.307  1.00 20.00     0.017 A 
HETATM    2  C2  UNL     1     -39.024  15.600  -4.116  1.00 20.00     0.025 A 
HETATM    3  C3  UNL     1     -37.144  17.032  -3.518  1.00 20.00     0.032 A 
HETATM    4  C4  UNL     1     -36.818  14.727  -4.095  1.00 20.00     0.016 A 
HETATM    5  C5  UNL     1     -36.293  15.953  -3.702  1.00 20.00    -0.038 A 
HETATM    6  C6  UNL     1     -38.517  16.850  -3.726  1.00 20.00     0.034 A 
HETATM    7  C7  UNL     1     -35.723  13.782  -4.231  1.00 20.00     0.160 A 
HETATM    8  C8  UNL     1     -34.417  14.475  -3.931  1.00 20.00     0.093 A 
HETATM    9  C9  UNL     1     -34.800  15.921  -3.538  1.00 20.00     0.023 A 
HETATM   10  C10 UNL     1     -34.362  16.258  -2.116  1.00 20.00     0.015 C 
HETATM   11  O11 UNL     1     -35.862  12.614  -4.551  1.00 20.00    -0.292 OA
HETATM   12 CL12 UNL     1     -39.596  18.174  -3.500  1.00 20.00    -0.084 Cl
ENDROOT
TORSDOF 0
ENDMDL
MODEL 6
REMARK VINA RESULT:      -4.9      2.965      4.784
REMARK  0 active torsions:
REMARK  status: ('A' for Active; 'I' for Inactive)
ROOT
HETATM    1  C1  UNL     1     -35.602  16.434  -1.758  1.00 20.00     0.017 A 
HETATM    2  C2  UNL     1     -34.717  17.271  -1.078  1.00 20.00     0.025 A 
HETATM    3  C3  UNL     1     -32.967  16.818  -2.713  1.00 20.00     0.032 A 
HETATM    4  C4  UNL     1     -35.136  15.812  -2.901  1.00 20.00     0.016 A 
HETATM    5  C5  UNL     1     -33.844  15.982  -3.386  1.00 20.00    -0.038 A 
HETATM    6  C6  UNL     1     -33.409  17.464  -1.552  1.00 20.00     0.034 A 
HETATM    7  C7  UNL     1     -35.845  14.909  -3.791  1.00 20.00     0.160 A 
HETATM    8  C8  UNL     1     -34.941  14.509  -4.931  1.00 20.00     0.093 A 
HETATM    9  C9  UNL     1     -33.586  15.195  -4.641  1.00 20.00     0.023 A 
HETATM   10  C10 UNL     1     -32.459  14.181  -4.472  1.00 20.00     0.015 C 
HETATM   11  O11 UNL     1     -36.999  14.552  -3.628  1.00 20.00    -0.292 OA
HETATM   12 CL12 UNL     1     -32.338  18.505  -0.695  1.00 20.00    -0.084 Cl
ENDROOT
TORSDOF 0
ENDMDL
MODEL 7
REMARK VINA RESULT:      -4.8      3.513      5.361
REMARK  0 active torsions:
REMARK  status: ('A' for Active; 'I' for Inactive)
ROOT
HETATM    1  C1  UNL     1     -34.674  15.097  -3.015  1.00 20.00     0.017 A 
HETATM    2  C2  UNL     1     -34.015  16.236  -2.551  1.00 20.00     0.025 A 
HETATM    3  C3  UNL     1     -34.077  17.229  -4.776  1.00 20.00     0.032 A 
HETATM    4  C4  UNL     1     -35.014  15.062  -4.354  1.00 20.00     0.016 A 
HETATM    5  C5  UNL     1     -34.726  16.095  -5.239  1.00 20.00    -0.038 A 
HETATM    6  C6  UNL     1     -33.719  17.296  -3.424  1.00 20.00     0.034 A 
HETATM    7  C7  UNL     1     -35.705  14.012  -5.083  1.00 20.00     0.160 A 
HETATM    8  C8  UNL     1     -35.889  14.432  -6.521  1.00 20.00     0.093 A 
HETATM    9  C9  UNL     1     -35.198  15.811  -6.638  1.00 20.00     0.023 A 
HETATM   10  C10 UNL     1     -34.055  15.791  -7.647  1.00 20.00     0.015 C 
HETATM   11  O11 UNL     1     -36.080  12.965  -4.586  1.00 20.00    -0.292 OA
HETATM   12 CL12 UNL     1     -32.908  18.692  -2.825  1.00 20.00    -0.084 Cl
ENDROOT
TORSDOF 0
ENDMDL
MODEL 8
REMARK VINA RESULT:      -4.8      2.635      3.781
REMARK  0 active torsions:
REMARK  status: ('A' for Active; 'I' for Inactive)
ROOT
HETATM    1  C1  UNL     1     -36.181  13.904  -4.502  1.00 20.00     0.017 A 
HETATM    2  C2  UNL     1     -37.488  14.388  -4.438  1.00 20.00     0.025 A 
HETATM    3  C3  UNL     1     -36.704  16.503  -3.512  1.00 20.00     0.032 A 
HETATM    4  C4  UNL     1     -35.171  14.742  -4.065  1.00 20.00     0.016 A 
HETATM    5  C5  UNL     1     -35.405  16.021  -3.570  1.00 20.00    -0.038 A 
HETATM    6  C6  UNL     1     -37.748  15.679  -3.948  1.00 20.00     0.034 A 
HETATM    7  C7  UNL     1     -33.740  14.493  -4.032  1.00 20.00     0.160 A 
HETATM    8  C8  UNL     1     -33.026  15.714  -3.508  1.00 20.00     0.093 A 
HETATM    9  C9  UNL     1     -34.143  16.725  -3.160  1.00 20.00     0.023 A 
HETATM   10  C10 UNL     1     -34.134  17.094  -1.680  1.00 20.00     0.015 C 
HETATM   11  O11 UNL     1     -33.219  13.451  -4.391  1.00 20.00    -0.292 OA
HETATM   12 CL12 UNL     1     -39.371  16.253  -3.883  1.00 20.00    -0.084 Cl
ENDROOT
TORSDOF 0
ENDMDL
MODEL 9
REMARK VINA RESULT:      -4.6      2.802      3.825
REMARK  0 active torsions:
REMARK  status: ('A' for Active; 'I' for Inactive)
ROOT
HETATM    1  C1  UNL     1     -33.278  17.901  -1.203  1.00 20.00     0.017 A 
HETATM    2  C2  UNL     1     -34.668  17.793  -1.174  1.00 20.00     0.025 A 
HETATM    3  C3  UNL     1     -34.700  18.321   1.206  1.00 20.00     0.032 A 
HETATM    4  C4  UNL     1     -32.640  18.218  -0.018  1.00 20.00     0.016 A 
HETATM    5  C5  UNL     1     -33.318  18.423   1.178  1.00 20.00    -0.038 A 
HETATM    6  C6  UNL     1     -35.375  18.003   0.022  1.00 20.00     0.034 A 
HETATM    7  C7  UNL     1     -31.219  18.399   0.223  1.00 20.00     0.160 A 
HETATM    8  C8  UNL     1     -30.994  18.774   1.667  1.00 20.00     0.093 A 
HETATM    9  C9  UNL     1     -32.397  18.752   2.320  1.00 20.00     0.023 A 
HETATM   10  C10 UNL     1     -32.481  17.733   3.451  1.00 20.00     0.015 C 
HETATM   11  O11 UNL     1     -30.358  18.273  -0.631  1.00 20.00    -0.292 OA
HETATM   12 CL12 UNL     1     -37.092  17.866   0.030  1.00 20.00    -0.084 Cl
ENDROOT
TORSDOF 0
ENDMDL
