MODEL 1
REMARK VINA RESULT:      -3.7      0.000      0.000
REMARK  3 active torsions:
REMARK  status: ('A' for Active; 'I' for Inactive)
REMARK    1  A    between atoms: C1_1  and  C3_3 
REMARK    2  A    between atoms: C2_2  and  C3_3 
REMARK    3  A    between atoms: C2_2  and  S6_6 
ROOT
HETATM    1  C3  UNL     1     -35.632  14.963  -4.433  1.00 20.00     0.192 C 
HETATM    2 CL7  UNL     1     -33.958  14.433  -4.049  1.00 20.00    -0.113 Cl
ENDROOT
BRANCH   1   3
HETATM    3  C1  UNL     1     -36.457  13.668  -4.488  1.00 20.00     0.192 C 
HETATM    4  O4  UNL     1     -35.769  12.607  -4.521  1.00 20.00    -0.647 OA
HETATM    5  O5  UNL     1     -37.711  13.807  -4.498  1.00 20.00    -0.647 OA
ENDBRANCH   1   3
BRANCH   1   6
HETATM    6  C2  UNL     1     -36.054  16.006  -3.405  1.00 20.00     0.102 C 
BRANCH   6   7
HETATM    7  S6  UNL     1     -34.772  16.239  -2.134  1.00 20.00    -0.180 SA
HETATM    8  H11 UNL     1     -35.440  15.622  -1.150  1.00 20.00     0.101 HD
ENDBRANCH   6   7
ENDBRANCH   1   6
TORSDOF 3
ENDMDL
MODEL 2
REMARK VINA RESULT:      -3.7      0.066      1.222
REMARK  3 active torsions:
REMARK  status: ('A' for Active; 'I' for Inactive)
REMARK    1  A    between atoms: C1_1  and  C3_3 
REMARK    2  A    between atoms: C2_2  and  C3_3 
REMARK    3  A    between atoms: C2_2  and  S6_6 
ROOT
HETATM    1  C3  UNL     1     -35.652  14.977  -4.455  1.00 20.00     0.192 C 
HETATM    2 CL7  UNL     1     -33.972  14.491  -4.042  1.00 20.00    -0.113 Cl
ENDROOT
BRANCH   1   3
HETATM    3  C1  UNL     1     -36.447  13.663  -4.495  1.00 20.00     0.192 C 
HETATM    4  O4  UNL     1     -37.704  13.809  -4.498  1.00 20.00    -0.647 OA
HETATM    5  O5  UNL     1     -35.767  12.600  -4.516  1.00 20.00    -0.647 OA
ENDBRANCH   1   3
BRANCH   1   6
HETATM    6  C2  UNL     1     -36.109  16.029  -3.452  1.00 20.00     0.102 C 
BRANCH   6   7
HETATM    7  S6  UNL     1     -34.907  16.219  -2.098  1.00 20.00    -0.180 SA
HETATM    8  H11 UNL     1     -35.599  15.506  -1.200  1.00 20.00     0.101 HD
ENDBRANCH   6   7
ENDBRANCH   1   6
TORSDOF 3
ENDMDL
MODEL 3
REMARK VINA RESULT:      -3.7      1.079      1.128
REMARK  3 active torsions:
REMARK  status: ('A' for Active; 'I' for Inactive)
REMARK    1  A    between atoms: C1_1  and  C3_3 
REMARK    2  A    between atoms: C2_2  and  C3_3 
REMARK    3  A    between atoms: C2_2  and  S6_6 
ROOT
HETATM    1  C3  UNL     1     -35.564  14.907  -4.534  1.00 20.00     0.192 C 
HETATM    2 CL7  UNL     1     -34.794  14.904  -6.157  1.00 20.00    -0.113 Cl
ENDROOT
BRANCH   1   3
HETATM    3  C1  UNL     1     -36.423  13.634  -4.498  1.00 20.00     0.192 C 
HETATM    4  O4  UNL     1     -35.762  12.555  -4.478  1.00 20.00    -0.647 OA
HETATM    5  O5  UNL     1     -37.673  13.805  -4.495  1.00 20.00    -0.647 OA
ENDBRANCH   1   3
BRANCH   1   6
HETATM    6  C2  UNL     1     -34.468  15.029  -3.482  1.00 20.00     0.102 C 
BRANCH   6   7
HETATM    7  S6  UNL     1     -34.955  16.168  -2.148  1.00 20.00    -0.180 SA
HETATM    8  H11 UNL     1     -34.434  17.267  -2.709  1.00 20.00     0.101 HD
ENDBRANCH   6   7
ENDBRANCH   1   6
TORSDOF 3
ENDMDL
MODEL 4
REMARK VINA RESULT:      -3.5      2.148      2.473
REMARK  3 active torsions:
REMARK  status: ('A' for Active; 'I' for Inactive)
REMARK    1  A    between atoms: C1_1  and  C3_3 
REMARK    2  A    between atoms: C2_2  and  C3_3 
REMARK    3  A    between atoms: C2_2  and  S6_6 
ROOT
HETATM    1  C3  UNL     1     -35.506  14.857  -4.666  1.00 20.00     0.192 C 
HETATM    2 CL7  UNL     1     -34.917  15.231  -3.010  1.00 20.00    -0.113 Cl
ENDROOT
BRANCH   1   3
HETATM    3  C1  UNL     1     -36.365  13.593  -4.508  1.00 20.00     0.192 C 
HETATM    4  O4  UNL     1     -37.611  13.805  -4.473  1.00 20.00    -0.647 OA
HETATM    5  O5  UNL     1     -35.738  12.500  -4.428  1.00 20.00    -0.647 OA
ENDBRANCH   1   3
BRANCH   1   6
HETATM    6  C2  UNL     1     -36.200  16.096  -5.220  1.00 20.00     0.102 C 
BRANCH   6   7
HETATM    7  S6  UNL     1     -36.261  16.061  -7.040  1.00 20.00    -0.180 SA
HETATM    8  H11 UNL     1     -37.597  16.072  -7.132  1.00 20.00     0.101 HD
ENDBRANCH   6   7
ENDBRANCH   1   6
TORSDOF 3
ENDMDL
MODEL 5
REMARK VINA RESULT:      -3.5      1.873      1.875
REMARK  3 active torsions:
REMARK  status: ('A' for Active; 'I' for Inactive)
REMARK    1  A    between atoms: C1_1  and  C3_3 
REMARK    2  A    between atoms: C2_2  and  C3_3 
REMARK    3  A    between atoms: C2_2  and  S6_6 
ROOT
HETATM    1  C3  UNL     1     -35.445  14.847  -4.668  1.00 20.00     0.192 C 
HETATM    2 CL7  UNL     1     -34.861  15.206  -3.007  1.00 20.00    -0.113 Cl
ENDROOT
BRANCH   1   3
HETATM    3  C1  UNL     1     -36.356  13.620  -4.513  1.00 20.00     0.192 C 
HETATM    4  O4  UNL     1     -35.742  12.516  -4.437  1.00 20.00    -0.647 OA
HETATM    5  O5  UNL     1     -37.597  13.848  -4.484  1.00 20.00    -0.647 OA
ENDBRANCH   1   3
BRANCH   1   6
HETATM    6  C2  UNL     1     -36.081  16.110  -5.237  1.00 20.00     0.102 C 
BRANCH   6   7
HETATM    7  S6  UNL     1     -34.951  16.962  -6.381  1.00 20.00    -0.180 SA
HETATM    8  H11 UNL     1     -35.870  17.210  -7.323  1.00 20.00     0.101 HD
ENDBRANCH   6   7
ENDBRANCH   1   6
TORSDOF 3
ENDMDL
MODEL 6
REMARK VINA RESULT:      -3.5      2.441      2.845
REMARK  3 active torsions:
REMARK  status: ('A' for Active; 'I' for Inactive)
REMARK    1  A    between atoms: C1_1  and  C3_3 
REMARK    2  A    between atoms: C2_2  and  C3_3 
REMARK    3  A    between atoms: C2_2  and  S6_6 
ROOT
HETATM    1  C3  UNL     1     -35.762  15.016  -4.774  1.00 20.00     0.192 C 
HETATM    2 CL7  UNL     1     -36.690  15.860  -6.061  1.00 20.00    -0.113 Cl
ENDROOT
BRANCH   1   3
HETATM    3  C1  UNL     1     -36.500  13.687  -4.558  1.00 20.00     0.192 C 
HETATM    4  O4  UNL     1     -37.754  13.797  -4.425  1.00 20.00    -0.647 OA
HETATM    5  O5  UNL     1     -35.783  12.648  -4.533  1.00 20.00    -0.647 OA
ENDBRANCH   1   3
BRANCH   1   6
HETATM    6  C2  UNL     1     -34.304  14.931  -5.210  1.00 20.00     0.102 C 
BRANCH   6   7
HETATM    7  S6  UNL     1     -34.129  15.234  -6.997  1.00 20.00    -0.180 SA
HETATM    8  H11 UNL     1     -35.441  15.222  -7.267  1.00 20.00     0.101 HD
ENDBRANCH   6   7
ENDBRANCH   1   6
TORSDOF 3
ENDMDL
MODEL 7
REMARK VINA RESULT:      -3.3     19.229     19.555
REMARK  3 active torsions:
REMARK  status: ('A' for Active; 'I' for Inactive)
REMARK    1  A    between atoms: C1_1  and  C3_3 
REMARK    2  A    between atoms: C2_2  and  C3_3 
REMARK    3  A    between atoms: C2_2  and  S6_6 
ROOT
HETATM    1  C3  UNL     1     -23.184  17.767  10.426  1.00 20.00     0.192 C 
HETATM    2 CL7  UNL     1     -22.196  17.751  11.927  1.00 20.00    -0.113 Cl
ENDROOT
BRANCH   1   3
HETATM    3  C1  UNL     1     -22.164  17.839   9.279  1.00 20.00     0.192 C 
HETATM    4  O4  UNL     1     -21.927  16.731   8.717  1.00 20.00    -0.647 OA
HETATM    5  O5  UNL     1     -21.683  18.979   9.032  1.00 20.00    -0.647 OA
ENDBRANCH   1   3
BRANCH   1   6
HETATM    6  C2  UNL     1     -24.112  16.559  10.448  1.00 20.00     0.102 C 
BRANCH   6   7
HETATM    7  S6  UNL     1     -25.118  16.525  11.965  1.00 20.00    -0.180 SA
HETATM    8  H11 UNL     1     -25.885  15.491  11.598  1.00 20.00     0.101 HD
ENDBRANCH   6   7
ENDBRANCH   1   6
TORSDOF 3
ENDMDL
MODEL 8
REMARK VINA RESULT:      -3.3     11.633     11.989
REMARK  3 active torsions:
REMARK  status: ('A' for Active; 'I' for Inactive)
REMARK    1  A    between atoms: C1_1  and  C3_3 
REMARK    2  A    between atoms: C2_2  and  C3_3 
REMARK    3  A    between atoms: C2_2  and  S6_6 
ROOT
HETATM    1  C3  UNL     1     -34.071   6.552   3.866  1.00 20.00     0.192 C 
HETATM    2 CL7  UNL     1     -33.224   7.180   5.321  1.00 20.00    -0.113 Cl
ENDROOT
BRANCH   1   3
HETATM    3  C1  UNL     1     -32.958   6.273   2.846  1.00 20.00     0.192 C 
HETATM    4  O4  UNL     1     -32.909   5.077   2.435  1.00 20.00    -0.647 OA
HETATM    5  O5  UNL     1     -32.224   7.253   2.539  1.00 20.00    -0.647 OA
ENDBRANCH   1   3
BRANCH   1   6
HETATM    6  C2  UNL     1     -34.934   5.368   4.286  1.00 20.00     0.102 C 
BRANCH   6   7
HETATM    7  S6  UNL     1     -34.767   5.026   6.066  1.00 20.00    -0.180 SA
HETATM    8  H11 UNL     1     -35.341   3.816   6.028  1.00 20.00     0.101 HD
ENDBRANCH   6   7
ENDBRANCH   1   6
TORSDOF 3
ENDMDL
MODEL 9
REMARK VINA RESULT:      -3.2     11.453     11.776
REMARK  3 active torsions:
REMARK  status: ('A' for Active; 'I' for Inactive)
REMARK    1  A    between atoms: C1_1  and  C3_3 
REMARK    2  A    between atoms: C2_2  and  C3_3 
REMARK    3  A    between atoms: C2_2  and  S6_6 
ROOT
HETATM    1  C3  UNL     1     -33.747   5.917   3.055  1.00 20.00     0.192 C 
HETATM    2 CL7  UNL     1     -33.100   4.370   2.408  1.00 20.00    -0.113 Cl
ENDROOT
BRANCH   1   3
HETATM    3  C1  UNL     1     -34.382   5.549   4.405  1.00 20.00     0.192 C 
HETATM    4  O4  UNL     1     -34.983   4.435   4.417  1.00 20.00    -0.647 OA
HETATM    5  O5  UNL     1     -34.239   6.389   5.336  1.00 20.00    -0.647 OA
ENDBRANCH   1   3
BRANCH   1   6
HETATM    6  C2  UNL     1     -32.615   6.937   3.083  1.00 20.00     0.102 C 
BRANCH   6   7
HETATM    7  S6  UNL     1     -32.497   7.837   1.505  1.00 20.00    -0.180 SA
HETATM    8  H11 UNL     1     -31.820   6.882   0.853  1.00 20.00     0.101 HD
ENDBRANCH   6   7
ENDBRANCH   1   6
TORSDOF 3
ENDMDL
