MODEL 1
REMARK VINA RESULT:      -4.1      0.000      0.000
REMARK  2 active torsions:
REMARK  status: ('A' for Active; 'I' for Inactive)
REMARK    1  A    between atoms: C5_5  and  C6_6 
REMARK    2  A    between atoms: C6_6  and  C7_7 
ROOT
HETATM    1  C1  UNL     1     -35.342  13.808  -4.314  1.00 20.00     0.068 C 
HETATM    2  C3  UNL     1     -34.973  16.098  -5.142  1.00 20.00     0.031 C 
HETATM    3  C4  UNL     1     -33.072  14.732  -4.267  1.00 20.00     0.031 C 
HETATM    4  C7  UNL     1     -34.568  15.052  -4.092  1.00 20.00     0.042 C 
HETATM    5  N8  UNL     1     -35.947  12.833  -4.488  1.00 20.00    -0.196 NA
ENDROOT
BRANCH   4   6
HETATM    6  C6  UNL     1     -34.792  15.573  -2.648  1.00 20.00     0.023 C 
BRANCH   6   7
HETATM    7  C5  UNL     1     -33.845  16.694  -2.198  1.00 20.00    -0.003 C 
HETATM    8  C2  UNL     1     -34.416  17.454  -1.010  1.00 20.00     0.005 C 
ENDBRANCH   6   7
ENDBRANCH   4   6
TORSDOF 2
ENDMDL
MODEL 2
REMARK VINA RESULT:      -3.9      1.068      1.430
REMARK  2 active torsions:
REMARK  status: ('A' for Active; 'I' for Inactive)
REMARK    1  A    between atoms: C5_5  and  C6_6 
REMARK    2  A    between atoms: C6_6  and  C7_7 
ROOT
HETATM    1  C1  UNL     1     -35.718  13.907  -4.322  1.00 20.00     0.068 C 
HETATM    2  C3  UNL     1     -36.889  16.025  -3.868  1.00 20.00     0.031 C 
HETATM    3  C4  UNL     1     -34.806  15.986  -5.249  1.00 20.00     0.031 C 
HETATM    4  C7  UNL     1     -35.520  15.349  -4.042  1.00 20.00     0.042 C 
HETATM    5  N8  UNL     1     -35.872  12.778  -4.542  1.00 20.00    -0.196 NA
ENDROOT
BRANCH   4   6
HETATM    6  C6  UNL     1     -34.626  15.534  -2.789  1.00 20.00     0.023 C 
BRANCH   6   7
HETATM    7  C5  UNL     1     -33.272  16.212  -3.041  1.00 20.00    -0.003 C 
HETATM    8  C2  UNL     1     -33.069  17.400  -2.112  1.00 20.00     0.005 C 
ENDBRANCH   6   7
ENDBRANCH   4   6
TORSDOF 2
ENDMDL
MODEL 3
REMARK VINA RESULT:      -3.8      0.869      1.059
REMARK  2 active torsions:
REMARK  status: ('A' for Active; 'I' for Inactive)
REMARK    1  A    between atoms: C5_5  and  C6_6 
REMARK    2  A    between atoms: C6_6  and  C7_7 
ROOT
HETATM    1  C1  UNL     1     -35.611  13.881  -4.557  1.00 20.00     0.068 C 
HETATM    2  C3  UNL     1     -35.896  16.300  -4.920  1.00 20.00     0.031 C 
HETATM    3  C4  UNL     1     -34.003  15.060  -5.981  1.00 20.00     0.031 C 
HETATM    4  C7  UNL     1     -34.884  15.161  -4.722  1.00 20.00     0.042 C 
HETATM    5  N8  UNL     1     -36.181  12.878  -4.428  1.00 20.00    -0.196 NA
ENDROOT
BRANCH   4   6
HETATM    6  C6  UNL     1     -33.965  15.417  -3.500  1.00 20.00     0.023 C 
BRANCH   6   7
HETATM    7  C5  UNL     1     -34.668  15.969  -2.252  1.00 20.00    -0.003 C 
HETATM    8  C2  UNL     1     -33.949  17.196  -1.712  1.00 20.00     0.005 C 
ENDBRANCH   6   7
ENDBRANCH   4   6
TORSDOF 2
ENDMDL
MODEL 4
REMARK VINA RESULT:      -3.8      1.155      3.379
REMARK  2 active torsions:
REMARK  status: ('A' for Active; 'I' for Inactive)
REMARK    1  A    between atoms: C5_5  and  C6_6 
REMARK    2  A    between atoms: C6_6  and  C7_7 
ROOT
HETATM    1  C1  UNL     1     -35.296  13.720  -4.291  1.00 20.00     0.068 C 
HETATM    2  C3  UNL     1     -32.961  14.501  -4.284  1.00 20.00     0.031 C 
HETATM    3  C4  UNL     1     -34.672  15.574  -2.813  1.00 20.00     0.031 C 
HETATM    4  C7  UNL     1     -34.435  14.922  -4.188  1.00 20.00     0.042 C 
HETATM    5  N8  UNL     1     -35.971  12.780  -4.371  1.00 20.00    -0.196 NA
ENDROOT
BRANCH   4   6
HETATM    6  C6  UNL     1     -34.812  15.948  -5.288  1.00 20.00     0.023 C 
BRANCH   6   7
HETATM    7  C5  UNL     1     -35.181  15.345  -6.651  1.00 20.00    -0.003 C 
HETATM    8  C2  UNL     1     -33.998  15.376  -7.606  1.00 20.00     0.005 C 
ENDBRANCH   6   7
ENDBRANCH   4   6
TORSDOF 2
ENDMDL
MODEL 5
REMARK VINA RESULT:      -3.7      1.072      1.177
REMARK  2 active torsions:
REMARK  status: ('A' for Active; 'I' for Inactive)
REMARK    1  A    between atoms: C5_5  and  C6_6 
REMARK    2  A    between atoms: C6_6  and  C7_7 
ROOT
HETATM    1  C1  UNL     1     -34.646  14.258  -3.777  1.00 20.00     0.068 C 
HETATM    2  C3  UNL     1     -35.168  16.524  -4.585  1.00 20.00     0.031 C 
HETATM    3  C4  UNL     1     -33.054  16.068  -3.334  1.00 20.00     0.031 C 
HETATM    4  C7  UNL     1     -34.545  15.699  -3.449  1.00 20.00     0.042 C 
HETATM    5  N8  UNL     1     -34.724  13.128  -4.034  1.00 20.00    -0.196 NA
ENDROOT
BRANCH   4   6
HETATM    6  C6  UNL     1     -35.229  15.988  -2.088  1.00 20.00     0.023 C 
BRANCH   6   7
HETATM    7  C5  UNL     1     -34.596  17.116  -1.260  1.00 20.00    -0.003 C 
HETATM    8  C2  UNL     1     -35.298  17.275   0.080  1.00 20.00     0.005 C 
ENDBRANCH   6   7
ENDBRANCH   4   6
TORSDOF 2
ENDMDL
MODEL 6
REMARK VINA RESULT:      -3.7     10.871     12.235
REMARK  2 active torsions:
REMARK  status: ('A' for Active; 'I' for Inactive)
REMARK    1  A    between atoms: C5_5  and  C6_6 
REMARK    2  A    between atoms: C6_6  and  C7_7 
ROOT
HETATM    1  C1  UNL     1     -42.830   5.566   0.549  1.00 20.00     0.068 C 
HETATM    2  C3  UNL     1     -43.272   4.956  -1.795  1.00 20.00     0.031 C 
HETATM    3  C4  UNL     1     -40.941   5.389  -1.004  1.00 20.00     0.031 C 
HETATM    4  C7  UNL     1     -42.414   5.812  -0.852  1.00 20.00     0.042 C 
HETATM    5  N8  UNL     1     -43.154   5.372   1.647  1.00 20.00    -0.196 NA
ENDROOT
BRANCH   4   6
HETATM    6  C6  UNL     1     -42.527   7.322  -1.186  1.00 20.00     0.023 C 
BRANCH   6   7
HETATM    7  C5  UNL     1     -41.302   8.171  -0.820  1.00 20.00    -0.003 C 
HETATM    8  C2  UNL     1     -41.616   9.129   0.320  1.00 20.00     0.005 C 
ENDBRANCH   6   7
ENDBRANCH   4   6
TORSDOF 2
ENDMDL
MODEL 7
REMARK VINA RESULT:      -3.6     11.458     12.211
REMARK  2 active torsions:
REMARK  status: ('A' for Active; 'I' for Inactive)
REMARK    1  A    between atoms: C5_5  and  C6_6 
REMARK    2  A    between atoms: C6_6  and  C7_7 
ROOT
HETATM    1  C1  UNL     1     -33.952   6.373   5.173  1.00 20.00     0.068 C 
HETATM    2  C3  UNL     1     -35.851   5.643   3.785  1.00 20.00     0.031 C 
HETATM    3  C4  UNL     1     -34.099   4.016   4.514  1.00 20.00     0.031 C 
HETATM    4  C7  UNL     1     -34.351   5.469   4.069  1.00 20.00     0.042 C 
HETATM    5  N8  UNL     1     -33.640   7.080   6.038  1.00 20.00    -0.196 NA
ENDROOT
BRANCH   4   6
HETATM    6  C6  UNL     1     -33.492   5.751   2.808  1.00 20.00     0.023 C 
BRANCH   6   7
HETATM    7  C5  UNL     1     -32.548   6.957   2.912  1.00 20.00    -0.003 C 
HETATM    8  C2  UNL     1     -32.519   7.747   1.613  1.00 20.00     0.005 C 
ENDBRANCH   6   7
ENDBRANCH   4   6
TORSDOF 2
ENDMDL
MODEL 8
REMARK VINA RESULT:      -3.6     10.542     12.098
REMARK  2 active torsions:
REMARK  status: ('A' for Active; 'I' for Inactive)
REMARK    1  A    between atoms: C5_5  and  C6_6 
REMARK    2  A    between atoms: C6_6  and  C7_7 
ROOT
HETATM    1  C1  UNL     1     -41.649   9.112   0.193  1.00 20.00     0.068 C 
HETATM    2  C3  UNL     1     -41.169   7.004  -0.985  1.00 20.00     0.031 C 
HETATM    3  C4  UNL     1     -43.417   8.082  -1.156  1.00 20.00     0.031 C 
HETATM    4  C7  UNL     1     -42.227   7.811  -0.217  1.00 20.00     0.042 C 
HETATM    5  N8  UNL     1     -41.197  10.132   0.514  1.00 20.00    -0.196 NA
ENDROOT
BRANCH   4   6
HETATM    6  C6  UNL     1     -42.746   7.040   1.024  1.00 20.00     0.023 C 
BRANCH   6   7
HETATM    7  C5  UNL     1     -42.339   5.562   1.099  1.00 20.00    -0.003 C 
HETATM    8  C2  UNL     1     -43.417   4.663   0.511  1.00 20.00     0.005 C 
ENDBRANCH   6   7
ENDBRANCH   4   6
TORSDOF 2
ENDMDL
MODEL 9
REMARK VINA RESULT:      -3.6      1.725      2.373
REMARK  2 active torsions:
REMARK  status: ('A' for Active; 'I' for Inactive)
REMARK    1  A    between atoms: C5_5  and  C6_6 
REMARK    2  A    between atoms: C6_6  and  C7_7 
ROOT
HETATM    1  C1  UNL     1     -34.469  14.884  -5.714  1.00 20.00     0.068 C 
HETATM    2  C3  UNL     1     -36.276  13.735  -4.496  1.00 20.00     0.031 C 
HETATM    3  C4  UNL     1     -36.269  16.224  -4.727  1.00 20.00     0.031 C 
HETATM    4  C7  UNL     1     -35.378  14.981  -4.547  1.00 20.00     0.042 C 
HETATM    5  N8  UNL     1     -33.758  14.809  -6.628  1.00 20.00    -0.196 NA
ENDROOT
BRANCH   4   6
HETATM    6  C6  UNL     1     -34.558  15.150  -3.242  1.00 20.00     0.023 C 
BRANCH   6   7
HETATM    7  C5  UNL     1     -33.236  15.916  -3.390  1.00 20.00    -0.003 C 
HETATM    8  C2  UNL     1     -33.149  17.064  -2.396  1.00 20.00     0.005 C 
ENDBRANCH   6   7
ENDBRANCH   4   6
TORSDOF 2
ENDMDL
