MODEL 1
REMARK VINA RESULT:      -4.6      0.000      0.000
REMARK  1 active torsions:
REMARK  status: ('A' for Active; 'I' for Inactive)
REMARK    1  A    between atoms: C1_1  and  C6_6 
ROOT
HETATM    1  C2  UNL     1     -34.429  16.038  -2.272  1.00 20.00     0.005 C 
HETATM    2  C3  UNL     1     -35.789  16.267  -2.946  1.00 20.00     0.006 C 
HETATM    3  C4  UNL     1     -33.710  14.565  -4.163  1.00 20.00     0.016 C 
HETATM    4  C5  UNL     1     -34.083  16.901  -4.464  1.00 20.00     0.010 C 
HETATM    5  C6  UNL     1     -35.053  14.779  -4.874  1.00 20.00     0.051 C 
HETATM    6  C7  UNL     1     -33.469  15.918  -3.467  1.00 20.00    -0.013 C 
HETATM    7  C8  UNL     1     -35.447  16.206  -4.447  1.00 20.00    -0.003 C 
ENDROOT
BRANCH   5   8
HETATM    8  C1  UNL     1     -36.077  13.741  -4.533  1.00 20.00     0.236 C 
HETATM    9  O9  UNL     1     -35.824  12.544  -4.454  1.00 20.00    -0.306 OA
ENDBRANCH   5   8
TORSDOF 1
ENDMDL
MODEL 2
REMARK VINA RESULT:      -4.6     10.235     11.680
REMARK  1 active torsions:
REMARK  status: ('A' for Active; 'I' for Inactive)
REMARK    1  A    between atoms: C1_1  and  C6_6 
ROOT
HETATM    1  C2  UNL     1     -43.368   5.949  -0.085  1.00 20.00     0.005 C 
HETATM    2  C3  UNL     1     -42.411   6.322   1.055  1.00 20.00     0.006 C 
HETATM    3  C4  UNL     1     -42.288   7.640  -1.581  1.00 20.00     0.016 C 
HETATM    4  C5  UNL     1     -41.122   5.698  -0.833  1.00 20.00     0.010 C 
HETATM    5  C6  UNL     1     -41.305   8.033  -0.469  1.00 20.00     0.051 C 
HETATM    6  C7  UNL     1     -42.498   6.133  -1.339  1.00 20.00    -0.013 C 
HETATM    7  C8  UNL     1     -41.121   6.717   0.311  1.00 20.00    -0.003 C 
ENDROOT
BRANCH   5   8
HETATM    8  C1  UNL     1     -41.786   9.172   0.373  1.00 20.00     0.236 C 
HETATM    9  O9  UNL     1     -41.258  10.280   0.376  1.00 20.00    -0.306 OA
ENDBRANCH   5   8
TORSDOF 1
ENDMDL
MODEL 3
REMARK VINA RESULT:      -4.5      0.896      1.823
REMARK  1 active torsions:
REMARK  status: ('A' for Active; 'I' for Inactive)
REMARK    1  A    between atoms: C1_1  and  C6_6 
ROOT
HETATM    1  C2  UNL     1     -34.871  17.391  -4.236  1.00 20.00     0.005 C 
HETATM    2  C3  UNL     1     -34.383  16.368  -5.271  1.00 20.00     0.006 C 
HETATM    3  C4  UNL     1     -35.219  15.567  -2.558  1.00 20.00     0.016 C 
HETATM    4  C5  UNL     1     -33.042  16.165  -3.327  1.00 20.00     0.010 C 
HETATM    5  C6  UNL     1     -34.726  14.515  -3.561  1.00 20.00     0.051 C 
HETATM    6  C7  UNL     1     -34.368  16.802  -2.907  1.00 20.00    -0.013 C 
HETATM    7  C8  UNL     1     -33.698  15.295  -4.403  1.00 20.00    -0.003 C 
ENDROOT
BRANCH   5   8
HETATM    8  C1  UNL     1     -35.828  13.902  -4.368  1.00 20.00     0.236 C 
HETATM    9  O9  UNL     1     -35.924  12.696  -4.572  1.00 20.00    -0.306 OA
ENDBRANCH   5   8
TORSDOF 1
ENDMDL
MODEL 4
REMARK VINA RESULT:      -4.4      1.103      1.960
REMARK  1 active torsions:
REMARK  status: ('A' for Active; 'I' for Inactive)
REMARK    1  A    between atoms: C1_1  and  C6_6 
ROOT
HETATM    1  C2  UNL     1     -34.100  17.089  -4.480  1.00 20.00     0.005 C 
HETATM    2  C3  UNL     1     -34.542  16.086  -5.555  1.00 20.00     0.006 C 
HETATM    3  C4  UNL     1     -34.874  15.538  -2.675  1.00 20.00     0.016 C 
HETATM    4  C5  UNL     1     -33.030  14.998  -4.088  1.00 20.00     0.010 C 
HETATM    5  C6  UNL     1     -35.318  14.504  -3.719  1.00 20.00     0.051 C 
HETATM    6  C7  UNL     1     -33.636  16.180  -3.330  1.00 20.00    -0.013 C 
HETATM    7  C8  UNL     1     -34.318  14.723  -4.870  1.00 20.00    -0.003 C 
ENDROOT
BRANCH   5   8
HETATM    8  C1  UNL     1     -36.750  14.649  -4.126  1.00 20.00     0.236 C 
HETATM    9  O9  UNL     1     -37.456  13.704  -4.461  1.00 20.00    -0.306 OA
ENDBRANCH   5   8
TORSDOF 1
ENDMDL
MODEL 5
REMARK VINA RESULT:      -4.3     10.312     11.368
REMARK  1 active torsions:
REMARK  status: ('A' for Active; 'I' for Inactive)
REMARK    1  A    between atoms: C1_1  and  C6_6 
ROOT
HETATM    1  C2  UNL     1     -43.417   8.412  -1.062  1.00 20.00     0.005 C 
HETATM    2  C3  UNL     1     -42.079   8.070  -1.732  1.00 20.00     0.006 C 
HETATM    3  C4  UNL     1     -42.760   7.113   0.973  1.00 20.00     0.016 C 
HETATM    4  C5  UNL     1     -41.631   9.118   0.346  1.00 20.00     0.010 C 
HETATM    5  C6  UNL     1     -41.407   6.759   0.342  1.00 20.00     0.051 C 
HETATM    6  C7  UNL     1     -43.038   8.525   0.424  1.00 20.00    -0.013 C 
HETATM    7  C8  UNL     1     -41.106   7.985  -0.541  1.00 20.00    -0.003 C 
ENDROOT
BRANCH   5   8
HETATM    8  C1  UNL     1     -41.422   5.464  -0.407  1.00 20.00     0.236 C 
HETATM    9  O9  UNL     1     -40.554   5.138  -1.210  1.00 20.00    -0.306 OA
ENDBRANCH   5   8
TORSDOF 1
ENDMDL
MODEL 6
REMARK VINA RESULT:      -4.3     10.145     11.965
REMARK  1 active torsions:
REMARK  status: ('A' for Active; 'I' for Inactive)
REMARK    1  A    between atoms: C1_1  and  C6_6 
ROOT
HETATM    1  C2  UNL     1     -42.523   5.873  -1.224  1.00 20.00     0.005 C 
HETATM    2  C3  UNL     1     -43.416   7.096  -0.972  1.00 20.00     0.006 C 
HETATM    3  C4  UNL     1     -40.881   6.688   0.481  1.00 20.00     0.016 C 
HETATM    4  C5  UNL     1     -43.075   5.978   1.091  1.00 20.00     0.010 C 
HETATM    5  C6  UNL     1     -41.753   7.918   0.770  1.00 20.00     0.051 C 
HETATM    6  C7  UNL     1     -41.920   5.596   0.164  1.00 20.00    -0.013 C 
HETATM    7  C8  UNL     1     -43.181   7.396   0.521  1.00 20.00    -0.003 C 
ENDROOT
BRANCH   5   8
HETATM    8  C1  UNL     1     -41.392   9.109  -0.061  1.00 20.00     0.236 C 
HETATM    9  O9  UNL     1     -41.395  10.258   0.369  1.00 20.00    -0.306 OA
ENDBRANCH   5   8
TORSDOF 1
ENDMDL
MODEL 7
REMARK VINA RESULT:      -4.3     17.362     18.587
REMARK  1 active torsions:
REMARK  status: ('A' for Active; 'I' for Inactive)
REMARK    1  A    between atoms: C1_1  and  C6_6 
ROOT
HETATM    1  C2  UNL     1     -23.109  18.108  12.332  1.00 20.00     0.005 C 
HETATM    2  C3  UNL     1     -22.408  17.674  11.037  1.00 20.00     0.006 C 
HETATM    3  C4  UNL     1     -25.258  18.432  11.090  1.00 20.00     0.016 C 
HETATM    4  C5  UNL     1     -24.289  16.272  11.378  1.00 20.00     0.010 C 
HETATM    5  C6  UNL     1     -24.596  17.992   9.777  1.00 20.00     0.051 C 
HETATM    6  C7  UNL     1     -24.538  17.571  12.145  1.00 20.00    -0.013 C 
HETATM    7  C8  UNL     1     -23.535  16.979  10.248  1.00 20.00    -0.003 C 
ENDROOT
BRANCH   5   8
HETATM    8  C1  UNL     1     -24.035  19.131   8.985  1.00 20.00     0.236 C 
HETATM    9  O9  UNL     1     -23.521  18.995   7.879  1.00 20.00    -0.306 OA
ENDBRANCH   5   8
TORSDOF 1
ENDMDL
MODEL 8
REMARK VINA RESULT:      -4.2     17.833     18.774
REMARK  1 active torsions:
REMARK  status: ('A' for Active; 'I' for Inactive)
REMARK    1  A    between atoms: C1_1  and  C6_6 
ROOT
HETATM    1  C2  UNL     1     -23.807  16.150  11.986  1.00 20.00     0.005 C 
HETATM    2  C3  UNL     1     -24.367  16.125  10.558  1.00 20.00     0.006 C 
HETATM    3  C4  UNL     1     -22.202  17.963  11.353  1.00 20.00     0.016 C 
HETATM    4  C5  UNL     1     -24.558  18.332  11.400  1.00 20.00     0.010 C 
HETATM    5  C6  UNL     1     -22.744  17.976   9.917  1.00 20.00     0.051 C 
HETATM    6  C7  UNL     1     -23.452  17.632  12.190  1.00 20.00    -0.013 C 
HETATM    7  C8  UNL     1     -24.224  17.590  10.102  1.00 20.00    -0.003 C 
ENDROOT
BRANCH   5   8
HETATM    8  C1  UNL     1     -21.994  17.070   8.991  1.00 20.00     0.236 C 
HETATM    9  O9  UNL     1     -22.269  16.942   7.802  1.00 20.00    -0.306 OA
ENDBRANCH   5   8
TORSDOF 1
ENDMDL
MODEL 9
REMARK VINA RESULT:      -4.2     10.233     11.539
REMARK  1 active torsions:
REMARK  status: ('A' for Active; 'I' for Inactive)
REMARK    1  A    between atoms: C1_1  and  C6_6 
ROOT
HETATM    1  C2  UNL     1     -43.321   8.031   0.399  1.00 20.00     0.005 C 
HETATM    2  C3  UNL     1     -43.328   7.860  -1.126  1.00 20.00     0.006 C 
HETATM    3  C4  UNL     1     -41.390   6.451   0.594  1.00 20.00     0.016 C 
HETATM    4  C5  UNL     1     -41.169   8.578  -0.462  1.00 20.00     0.010 C 
HETATM    5  C6  UNL     1     -41.357   6.263  -0.929  1.00 20.00     0.051 C 
HETATM    6  C7  UNL     1     -41.828   7.919   0.750  1.00 20.00    -0.013 C 
HETATM    7  C8  UNL     1     -41.841   7.627  -1.457  1.00 20.00    -0.003 C 
ENDROOT
BRANCH   5   8
HETATM    8  C1  UNL     1     -42.180   5.106  -1.402  1.00 20.00     0.236 C 
HETATM    9  O9  UNL     1     -41.743   4.219  -2.129  1.00 20.00    -0.306 OA
ENDBRANCH   5   8
TORSDOF 1
ENDMDL
