MODEL 1
REMARK VINA RESULT:      -4.4      0.000      0.000
REMARK  0 active torsions:
REMARK  status: ('A' for Active; 'I' for Inactive)
ROOT
HETATM    1  C1  UNL     1     -36.721  14.653  -4.199  1.00 20.00     0.066 C 
HETATM    2  C2  UNL     1     -33.091  14.698  -4.330  1.00 20.00     0.034 C 
HETATM    3  C3  UNL     1     -34.026  14.943  -5.516  1.00 20.00     0.036 C 
HETATM    4  C4  UNL     1     -34.863  15.493  -2.736  1.00 20.00     0.053 C 
HETATM    5  C5  UNL     1     -35.830  15.774  -3.896  1.00 20.00     0.124 C 
HETATM    6  C6  UNL     1     -33.504  15.807  -3.366  1.00 20.00     0.123 C 
HETATM    7  C7  UNL     1     -34.860  16.132  -5.029  1.00 20.00     0.139 C 
HETATM    8  N8  UNL     1     -37.428  13.766  -4.439  1.00 20.00    -0.197 NA
HETATM    9  O9  UNL     1     -33.852  16.868  -4.287  1.00 20.00    -0.379 OA
ENDROOT
TORSDOF 0
ENDMDL
MODEL 2
REMARK VINA RESULT:      -4.3      1.445      2.298
REMARK  0 active torsions:
REMARK  status: ('A' for Active; 'I' for Inactive)
ROOT
HETATM    1  C1  UNL     1     -37.204  14.045  -4.551  1.00 20.00     0.066 C 
HETATM    2  C2  UNL     1     -34.315  16.225  -4.242  1.00 20.00     0.034 C 
HETATM    3  C3  UNL     1     -34.823  15.265  -3.165  1.00 20.00     0.036 C 
HETATM    4  C4  UNL     1     -35.322  14.783  -6.037  1.00 20.00     0.053 C 
HETATM    5  C5  UNL     1     -35.834  13.780  -4.993  1.00 20.00     0.124 C 
HETATM    6  C6  UNL     1     -34.020  15.274  -5.400  1.00 20.00     0.123 C 
HETATM    7  C7  UNL     1     -34.779  13.916  -3.888  1.00 20.00     0.139 C 
HETATM    8  N8  UNL     1     -38.290  14.253  -4.200  1.00 20.00    -0.197 NA
HETATM    9  O9  UNL     1     -33.582  14.092  -4.691  1.00 20.00    -0.379 OA
ENDROOT
TORSDOF 0
ENDMDL
MODEL 3
REMARK VINA RESULT:      -4.3     10.933     11.997
REMARK  0 active torsions:
REMARK  status: ('A' for Active; 'I' for Inactive)
ROOT
HETATM    1  C1  UNL     1     -42.025   9.195   0.239  1.00 20.00     0.066 C 
HETATM    2  C2  UNL     1     -41.229   5.872  -0.994  1.00 20.00     0.034 C 
HETATM    3  C3  UNL     1     -41.062   6.347   0.450  1.00 20.00     0.036 C 
HETATM    4  C4  UNL     1     -43.051   7.562  -1.366  1.00 20.00     0.053 C 
HETATM    5  C5  UNL     1     -42.935   8.058   0.082  1.00 20.00     0.124 C 
HETATM    6  C6  UNL     1     -42.725   6.073  -1.223  1.00 20.00     0.123 C 
HETATM    7  C7  UNL     1     -42.484   6.786   0.812  1.00 20.00     0.139 C 
HETATM    8  N8  UNL     1     -41.305  10.095   0.364  1.00 20.00    -0.197 NA
HETATM    9  O9  UNL     1     -43.254   5.788   0.093  1.00 20.00    -0.379 OA
ENDROOT
TORSDOF 0
ENDMDL
MODEL 4
REMARK VINA RESULT:      -4.3     17.884     19.012
REMARK  0 active torsions:
REMARK  status: ('A' for Active; 'I' for Inactive)
ROOT
HETATM    1  C1  UNL     1     -23.376  18.089   8.784  1.00 20.00     0.066 C 
HETATM    2  C2  UNL     1     -24.227  18.329  12.308  1.00 20.00     0.034 C 
HETATM    3  C3  UNL     1     -25.119  17.734  11.217  1.00 20.00     0.036 C 
HETATM    4  C4  UNL     1     -22.176  17.777  10.965  1.00 20.00     0.053 C 
HETATM    5  C5  UNL     1     -23.029  17.151   9.853  1.00 20.00     0.124 C 
HETATM    6  C6  UNL     1     -22.986  17.443  12.220  1.00 20.00     0.123 C 
HETATM    7  C7  UNL     1     -24.232  16.624  10.644  1.00 20.00     0.139 C 
HETATM    8  N8  UNL     1     -23.651  18.832   7.937  1.00 20.00    -0.197 NA
HETATM    9  O9  UNL     1     -23.571  16.171  11.854  1.00 20.00    -0.379 OA
ENDROOT
TORSDOF 0
ENDMDL
MODEL 5
REMARK VINA RESULT:      -4.1     10.717     12.133
REMARK  0 active torsions:
REMARK  status: ('A' for Active; 'I' for Inactive)
ROOT
HETATM    1  C1  UNL     1     -41.712   9.027  -0.134  1.00 20.00     0.066 C 
HETATM    2  C2  UNL     1     -42.292   5.583   0.866  1.00 20.00     0.034 C 
HETATM    3  C3  UNL     1     -43.304   6.725   0.983  1.00 20.00     0.036 C 
HETATM    4  C4  UNL     1     -41.152   6.756  -1.041  1.00 20.00     0.053 C 
HETATM    5  C5  UNL     1     -42.157   7.915  -0.976  1.00 20.00     0.124 C 
HETATM    6  C6  UNL     1     -42.015   5.559  -0.635  1.00 20.00     0.123 C 
HETATM    7  C7  UNL     1     -43.417   7.205  -0.467  1.00 20.00     0.139 C 
HETATM    8  N8  UNL     1     -41.360   9.908   0.533  1.00 20.00    -0.197 NA
HETATM    9  O9  UNL     1     -43.305   5.940  -1.168  1.00 20.00    -0.379 OA
ENDROOT
TORSDOF 0
ENDMDL
MODEL 6
REMARK VINA RESULT:      -4.1      2.479      3.177
REMARK  0 active torsions:
REMARK  status: ('A' for Active; 'I' for Inactive)
ROOT
HETATM    1  C1  UNL     1     -33.360  16.973  -3.593  1.00 20.00     0.066 C 
HETATM    2  C2  UNL     1     -35.522  14.797  -5.540  1.00 20.00     0.034 C 
HETATM    3  C3  UNL     1     -34.035  15.039  -5.804  1.00 20.00     0.036 C 
HETATM    4  C4  UNL     1     -35.204  15.341  -3.107  1.00 20.00     0.053 C 
HETATM    5  C5  UNL     1     -33.701  15.575  -3.320  1.00 20.00     0.124 C 
HETATM    6  C6  UNL     1     -35.503  14.233  -4.120  1.00 20.00     0.123 C 
HETATM    7  C7  UNL     1     -33.398  14.616  -4.478  1.00 20.00     0.139 C 
HETATM    8  N8  UNL     1     -33.090  18.080  -3.809  1.00 20.00    -0.197 NA
HETATM    9  O9  UNL     1     -34.256  13.500  -4.123  1.00 20.00    -0.379 OA
ENDROOT
TORSDOF 0
ENDMDL
MODEL 7
REMARK VINA RESULT:      -4.1      1.116      1.736
REMARK  0 active torsions:
REMARK  status: ('A' for Active; 'I' for Inactive)
ROOT
HETATM    1  C1  UNL     1     -35.873  13.935  -4.636  1.00 20.00     0.066 C 
HETATM    2  C2  UNL     1     -34.216  16.240  -2.369  1.00 20.00     0.034 C 
HETATM    3  C3  UNL     1     -33.554  15.522  -3.546  1.00 20.00     0.036 C 
HETATM    4  C4  UNL     1     -36.451  16.101  -3.508  1.00 20.00     0.053 C 
HETATM    5  C5  UNL     1     -35.829  15.396  -4.722  1.00 20.00     0.124 C 
HETATM    6  C6  UNL     1     -35.322  17.032  -3.062  1.00 20.00     0.123 C 
HETATM    7  C7  UNL     1     -34.412  15.983  -4.729  1.00 20.00     0.139 C 
HETATM    8  N8  UNL     1     -35.908  12.778  -4.568  1.00 20.00    -0.197 NA
HETATM    9  O9  UNL     1     -34.694  17.349  -4.327  1.00 20.00    -0.379 OA
ENDROOT
TORSDOF 0
ENDMDL
MODEL 8
REMARK VINA RESULT:      -4.0     18.363     18.898
REMARK  0 active torsions:
REMARK  status: ('A' for Active; 'I' for Inactive)
ROOT
HETATM    1  C1  UNL     1     -26.352  18.707  11.672  1.00 20.00     0.066 C 
HETATM    2  C2  UNL     1     -23.939  16.451  10.161  1.00 20.00     0.034 C 
HETATM    3  C3  UNL     1     -23.826  17.976  10.200  1.00 20.00     0.036 C 
HETATM    4  C4  UNL     1     -25.351  16.477  12.239  1.00 20.00     0.053 C 
HETATM    5  C5  UNL     1     -25.249  18.007  12.332  1.00 20.00     0.124 C 
HETATM    6  C6  UNL     1     -23.992  16.099  11.646  1.00 20.00     0.123 C 
HETATM    7  C7  UNL     1     -23.874  18.265  11.704  1.00 20.00     0.139 C 
HETATM    8  N8  UNL     1     -27.226  19.263  11.150  1.00 20.00    -0.197 NA
HETATM    9  O9  UNL     1     -23.137  17.121  12.210  1.00 20.00    -0.379 OA
ENDROOT
TORSDOF 0
ENDMDL
MODEL 9
REMARK VINA RESULT:      -4.0     11.003     12.078
REMARK  0 active torsions:
REMARK  status: ('A' for Active; 'I' for Inactive)
ROOT
HETATM    1  C1  UNL     1     -42.346   5.284  -1.301  1.00 20.00     0.066 C 
HETATM    2  C2  UNL     1     -43.284   8.392   0.330  1.00 20.00     0.034 C 
HETATM    3  C3  UNL     1     -43.233   7.017   0.999  1.00 20.00     0.036 C 
HETATM    4  C4  UNL     1     -41.559   7.667  -1.347  1.00 20.00     0.053 C 
HETATM    5  C5  UNL     1     -41.459   6.280  -0.697  1.00 20.00     0.124 C 
HETATM    6  C6  UNL     1     -41.843   8.567  -0.143  1.00 20.00     0.123 C 
HETATM    7  C7  UNL     1     -41.778   6.600   0.769  1.00 20.00     0.139 C 
HETATM    8  N8  UNL     1     -43.049   4.496  -1.780  1.00 20.00    -0.197 NA
HETATM    9  O9  UNL     1     -41.116   7.884   0.905  1.00 20.00    -0.379 OA
ENDROOT
TORSDOF 0
ENDMDL
