MODEL 1
REMARK VINA RESULT:      -3.1      0.000      0.000
REMARK  0 active torsions:
REMARK  status: ('A' for Active; 'I' for Inactive)
ROOT
HETATM    1  C1  UNL     1     -34.250   6.400   6.040  1.00 20.00     0.148 A 
HETATM    2  C2  UNL     1     -34.858   4.668   4.552  1.00 20.00     0.148 A 
HETATM    3  C3  UNL     1     -33.500   7.078   5.165  1.00 20.00     0.074 A 
HETATM    4  C4  UNL     1     -34.179   5.143   3.502  1.00 20.00     0.074 A 
HETATM    5  O5  UNL     1     -34.928   5.232   5.801  1.00 20.00    -0.334 OA
HETATM    6  S6  UNL     1     -33.241   6.593   3.527  1.00 20.00    -0.110 SA
ENDROOT
TORSDOF 0
ENDMDL
MODEL 2
REMARK VINA RESULT:      -3.1      1.786      2.583
REMARK  0 active torsions:
REMARK  status: ('A' for Active; 'I' for Inactive)
ROOT
HETATM    1  C1  UNL     1     -33.156   6.713   3.748  1.00 20.00     0.148 A 
HETATM    2  C2  UNL     1     -33.903   6.689   5.990  1.00 20.00     0.148 A 
HETATM    3  C3  UNL     1     -33.843   5.633   3.361  1.00 20.00     0.074 A 
HETATM    4  C4  UNL     1     -34.677   5.606   5.866  1.00 20.00     0.074 A 
HETATM    5  O5  UNL     1     -33.146   7.268   5.002  1.00 20.00    -0.334 OA
HETATM    6  S6  UNL     1     -34.872   4.713   4.400  1.00 20.00    -0.110 SA
ENDROOT
TORSDOF 0
ENDMDL
MODEL 3
REMARK VINA RESULT:      -3.0      1.765      2.128
REMARK  0 active torsions:
REMARK  status: ('A' for Active; 'I' for Inactive)
ROOT
HETATM    1  C1  UNL     1     -33.972   6.646   6.021  1.00 20.00     0.148 A 
HETATM    2  C2  UNL     1     -33.156   6.753   3.806  1.00 20.00     0.148 A 
HETATM    3  C3  UNL     1     -34.718   5.551   5.841  1.00 20.00     0.074 A 
HETATM    4  C4  UNL     1     -33.807   5.670   3.367  1.00 20.00     0.074 A 
HETATM    5  O5  UNL     1     -33.199   7.271   5.076  1.00 20.00    -0.334 OA
HETATM    6  S6  UNL     1     -34.848   4.699   4.345  1.00 20.00    -0.110 SA
ENDROOT
TORSDOF 0
ENDMDL
MODEL 4
REMARK VINA RESULT:      -3.0      1.864      2.152
REMARK  0 active torsions:
REMARK  status: ('A' for Active; 'I' for Inactive)
ROOT
HETATM    1  C1  UNL     1     -33.255   7.088   4.477  1.00 20.00     0.148 A 
HETATM    2  C2  UNL     1     -33.973   5.188   3.270  1.00 20.00     0.148 A 
HETATM    3  C3  UNL     1     -33.850   6.754   5.627  1.00 20.00     0.074 A 
HETATM    4  C4  UNL     1     -34.653   4.632   4.278  1.00 20.00     0.074 A 
HETATM    5  O5  UNL     1     -33.280   6.371   3.308  1.00 20.00    -0.334 OA
HETATM    6  S6  UNL     1     -34.787   5.321   5.856  1.00 20.00    -0.110 SA
ENDROOT
TORSDOF 0
ENDMDL
MODEL 5
REMARK VINA RESULT:      -3.0      1.702      2.443
REMARK  0 active torsions:
REMARK  status: ('A' for Active; 'I' for Inactive)
ROOT
HETATM    1  C1  UNL     1     -34.759   4.603   4.384  1.00 20.00     0.148 A 
HETATM    2  C2  UNL     1     -33.380   6.177   3.286  1.00 20.00     0.148 A 
HETATM    3  C3  UNL     1     -34.796   5.245   5.556  1.00 20.00     0.074 A 
HETATM    4  C4  UNL     1     -33.255   7.004   4.330  1.00 20.00     0.074 A 
HETATM    5  O5  UNL     1     -34.092   5.005   3.255  1.00 20.00    -0.334 OA
HETATM    6  S6  UNL     1     -33.988   6.739   5.872  1.00 20.00    -0.110 SA
ENDROOT
TORSDOF 0
ENDMDL
MODEL 6
REMARK VINA RESULT:      -3.0      1.069      2.221
REMARK  0 active torsions:
REMARK  status: ('A' for Active; 'I' for Inactive)
ROOT
HETATM    1  C1  UNL     1     -34.131   4.219   3.307  1.00 20.00     0.148 A 
HETATM    2  C2  UNL     1     -34.730   5.542   5.172  1.00 20.00     0.148 A 
HETATM    3  C3  UNL     1     -33.359   5.142   2.725  1.00 20.00     0.074 A 
HETATM    4  C4  UNL     1     -34.027   6.620   4.808  1.00 20.00     0.074 A 
HETATM    5  O5  UNL     1     -34.817   4.356   4.487  1.00 20.00    -0.334 OA
HETATM    6  S6  UNL     1     -33.076   6.720   3.369  1.00 20.00    -0.110 SA
ENDROOT
TORSDOF 0
ENDMDL
MODEL 7
REMARK VINA RESULT:      -3.0     16.579     16.785
REMARK  0 active torsions:
REMARK  status: ('A' for Active; 'I' for Inactive)
ROOT
HETATM    1  C1  UNL     1     -22.264  17.393   8.109  1.00 20.00     0.148 A 
HETATM    2  C2  UNL     1     -24.127  18.801   7.745  1.00 20.00     0.148 A 
HETATM    3  C3  UNL     1     -22.626  16.999   9.335  1.00 20.00     0.074 A 
HETATM    4  C4  UNL     1     -24.707  18.572   8.927  1.00 20.00     0.074 A 
HETATM    5  O5  UNL     1     -22.948  18.261   7.296  1.00 20.00    -0.334 OA
HETATM    6  S6  UNL     1     -24.061  17.525  10.140  1.00 20.00    -0.110 SA
ENDROOT
TORSDOF 0
ENDMDL
MODEL 8
REMARK VINA RESULT:      -2.9     16.582     16.794
REMARK  0 active torsions:
REMARK  status: ('A' for Active; 'I' for Inactive)
ROOT
HETATM    1  C1  UNL     1     -24.154  18.786   7.812  1.00 20.00     0.148 A 
HETATM    2  C2  UNL     1     -22.216  17.451   8.032  1.00 20.00     0.148 A 
HETATM    3  C3  UNL     1     -24.659  18.495   9.016  1.00 20.00     0.074 A 
HETATM    4  C4  UNL     1     -22.495  17.004   9.261  1.00 20.00     0.074 A 
HETATM    5  O5  UNL     1     -22.980  18.311   7.284  1.00 20.00    -0.334 OA
HETATM    6  S6  UNL     1     -23.906  17.440  10.157  1.00 20.00    -0.110 SA
ENDROOT
TORSDOF 0
ENDMDL
MODEL 9
REMARK VINA RESULT:      -2.8     17.045     17.475
REMARK  0 active torsions:
REMARK  status: ('A' for Active; 'I' for Inactive)
ROOT
HETATM    1  C1  UNL     1     -22.576  17.697  11.915  1.00 20.00     0.148 A 
HETATM    2  C2  UNL     1     -23.012  18.266   9.663  1.00 20.00     0.148 A 
HETATM    3  C3  UNL     1     -23.843  17.798  12.330  1.00 20.00     0.074 A 
HETATM    4  C4  UNL     1     -24.330  18.434   9.815  1.00 20.00     0.074 A 
HETATM    5  O5  UNL     1     -22.116  17.911  10.640  1.00 20.00    -0.334 OA
HETATM    6  S6  UNL     1     -25.169  18.230  11.311  1.00 20.00    -0.110 SA
ENDROOT
TORSDOF 0
ENDMDL
