MODEL 1
REMARK VINA RESULT:      -3.6      0.000      0.000
REMARK  2 active torsions:
REMARK  status: ('A' for Active; 'I' for Inactive)
REMARK    1  A    between atoms: C5_5  and  O8_8 
REMARK    2  A    between atoms: C6_6  and  O8_8 
ROOT
HETATM    1  C1  UNL     1     -35.417  13.841  -4.227  1.00 20.00     0.097 C 
HETATM    2  C3  UNL     1     -33.322  15.118  -4.020  1.00 20.00     0.062 C 
HETATM    3  C4  UNL     1     -35.465  16.260  -4.681  1.00 20.00     0.062 C 
HETATM    4  C6  UNL     1     -34.841  15.141  -3.848  1.00 20.00     0.141 C 
HETATM    5  N7  UNL     1     -35.873  12.816  -4.527  1.00 20.00    -0.194 NA
ENDROOT
BRANCH   4   6
HETATM    6  O8  UNL     1     -35.135  15.384  -2.473  1.00 20.00    -0.367 OA
BRANCH   6   7
HETATM    7  C5  UNL     1     -34.459  16.537  -1.996  1.00 20.00     0.165 C 
HETATM    8  C2  UNL     1     -35.160  17.043  -0.754  1.00 20.00     0.033 C 
ENDBRANCH   6   7
ENDBRANCH   4   6
TORSDOF 2
ENDMDL
MODEL 2
REMARK VINA RESULT:      -3.6      1.724      3.305
REMARK  2 active torsions:
REMARK  status: ('A' for Active; 'I' for Inactive)
REMARK    1  A    between atoms: C5_5  and  O8_8 
REMARK    2  A    between atoms: C6_6  and  O8_8 
ROOT
HETATM    1  C1  UNL     1     -35.360  13.743  -4.288  1.00 20.00     0.097 C 
HETATM    2  C3  UNL     1     -34.696  15.596  -2.807  1.00 20.00     0.062 C 
HETATM    3  C4  UNL     1     -33.022  14.515  -4.346  1.00 20.00     0.062 C 
HETATM    4  C6  UNL     1     -34.485  14.920  -4.163  1.00 20.00     0.141 C 
HETATM    5  N7  UNL     1     -36.049  12.815  -4.388  1.00 20.00    -0.194 NA
ENDROOT
BRANCH   4   6
HETATM    6  O8  UNL     1     -34.826  15.852  -5.189  1.00 20.00    -0.367 OA
BRANCH   6   7
HETATM    7  C5  UNL     1     -34.428  15.380  -6.467  1.00 20.00     0.165 C 
HETATM    8  C2  UNL     1     -34.339  16.553  -7.419  1.00 20.00     0.033 C 
ENDBRANCH   6   7
ENDBRANCH   4   6
TORSDOF 2
ENDMDL
MODEL 3
REMARK VINA RESULT:      -3.6      2.398      3.782
REMARK  2 active torsions:
REMARK  status: ('A' for Active; 'I' for Inactive)
REMARK    1  A    between atoms: C5_5  and  O8_8 
REMARK    2  A    between atoms: C6_6  and  O8_8 
ROOT
HETATM    1  C1  UNL     1     -36.938  14.324  -4.545  1.00 20.00     0.097 C 
HETATM    2  C3  UNL     1     -35.696  16.415  -4.928  1.00 20.00     0.062 C 
HETATM    3  C4  UNL     1     -34.634  14.496  -3.693  1.00 20.00     0.062 C 
HETATM    4  C6  UNL     1     -35.606  14.894  -4.804  1.00 20.00     0.141 C 
HETATM    5  N7  UNL     1     -37.987  13.873  -4.341  1.00 20.00    -0.194 NA
ENDROOT
BRANCH   4   6
HETATM    6  O8  UNL     1     -35.119  14.369  -6.038  1.00 20.00    -0.367 OA
BRANCH   6   7
HETATM    7  C5  UNL     1     -33.910  15.001  -6.428  1.00 20.00     0.165 C 
HETATM    8  C2  UNL     1     -33.969  15.309  -7.908  1.00 20.00     0.033 C 
ENDBRANCH   6   7
ENDBRANCH   4   6
TORSDOF 2
ENDMDL
MODEL 4
REMARK VINA RESULT:      -3.6      1.070      1.087
REMARK  2 active torsions:
REMARK  status: ('A' for Active; 'I' for Inactive)
REMARK    1  A    between atoms: C5_5  and  O8_8 
REMARK    2  A    between atoms: C6_6  and  O8_8 
ROOT
HETATM    1  C1  UNL     1     -35.430  13.802  -4.566  1.00 20.00     0.097 C 
HETATM    2  C3  UNL     1     -33.084  14.530  -4.395  1.00 20.00     0.062 C 
HETATM    3  C4  UNL     1     -34.594  15.463  -6.180  1.00 20.00     0.062 C 
HETATM    4  C6  UNL     1     -34.514  14.940  -4.745  1.00 20.00     0.141 C 
HETATM    5  N7  UNL     1     -36.153  12.905  -4.425  1.00 20.00    -0.194 NA
ENDROOT
BRANCH   4   6
HETATM    6  O8  UNL     1     -34.913  15.987  -3.861  1.00 20.00    -0.367 OA
BRANCH   6   7
HETATM    7  C5  UNL     1     -34.221  15.910  -2.625  1.00 20.00     0.165 C 
HETATM    8  C2  UNL     1     -35.094  16.491  -1.533  1.00 20.00     0.033 C 
ENDBRANCH   6   7
ENDBRANCH   4   6
TORSDOF 2
ENDMDL
MODEL 5
REMARK VINA RESULT:      -3.5     17.716     18.417
REMARK  2 active torsions:
REMARK  status: ('A' for Active; 'I' for Inactive)
REMARK    1  A    between atoms: C5_5  and  O8_8 
REMARK    2  A    between atoms: C6_6  and  O8_8 
ROOT
HETATM    1  C1  UNL     1     -25.309  18.284  11.776  1.00 20.00     0.097 C 
HETATM    2  C3  UNL     1     -22.942  17.713  12.146  1.00 20.00     0.062 C 
HETATM    3  C4  UNL     1     -24.626  15.925  11.598  1.00 20.00     0.062 C 
HETATM    4  C6  UNL     1     -24.218  17.381  11.373  1.00 20.00     0.141 C 
HETATM    5  N7  UNL     1     -26.169  18.995  12.093  1.00 20.00    -0.194 NA
ENDROOT
BRANCH   4   6
HETATM    6  O8  UNL     1     -23.965  17.569   9.981  1.00 20.00    -0.367 OA
BRANCH   6   7
HETATM    7  C5  UNL     1     -22.618  17.950   9.749  1.00 20.00     0.165 C 
HETATM    8  C2  UNL     1     -22.148  17.334   8.449  1.00 20.00     0.033 C 
ENDBRANCH   6   7
ENDBRANCH   4   6
TORSDOF 2
ENDMDL
MODEL 6
REMARK VINA RESULT:      -3.5      1.235      1.390
REMARK  2 active torsions:
REMARK  status: ('A' for Active; 'I' for Inactive)
REMARK    1  A    between atoms: C5_5  and  O8_8 
REMARK    2  A    between atoms: C6_6  and  O8_8 
ROOT
HETATM    1  C1  UNL     1     -35.576  13.888  -4.295  1.00 20.00     0.097 C 
HETATM    2  C3  UNL     1     -34.526  15.904  -5.244  1.00 20.00     0.062 C 
HETATM    3  C4  UNL     1     -36.479  16.091  -3.667  1.00 20.00     0.062 C 
HETATM    4  C6  UNL     1     -35.227  15.293  -4.030  1.00 20.00     0.141 C 
HETATM    5  N7  UNL     1     -35.853  12.781  -4.503  1.00 20.00    -0.194 NA
ENDROOT
BRANCH   4   6
HETATM    6  O8  UNL     1     -34.328  15.336  -2.922  1.00 20.00    -0.367 OA
BRANCH   6   7
HETATM    7  C5  UNL     1     -33.239  16.210  -3.174  1.00 20.00     0.165 C 
HETATM    8  C2  UNL     1     -33.184  17.258  -2.084  1.00 20.00     0.033 C 
ENDBRANCH   6   7
ENDBRANCH   4   6
TORSDOF 2
ENDMDL
MODEL 7
REMARK VINA RESULT:      -3.4     10.083     11.392
REMARK  2 active torsions:
REMARK  status: ('A' for Active; 'I' for Inactive)
REMARK    1  A    between atoms: C5_5  and  O8_8 
REMARK    2  A    between atoms: C6_6  and  O8_8 
ROOT
HETATM    1  C1  UNL     1     -41.723   9.167   0.123  1.00 20.00     0.097 C 
HETATM    2  C3  UNL     1     -42.777   7.090   0.921  1.00 20.00     0.062 C 
HETATM    3  C4  UNL     1     -43.363   8.047  -1.332  1.00 20.00     0.062 C 
HETATM    4  C6  UNL     1     -42.257   7.860  -0.293  1.00 20.00     0.141 C 
HETATM    5  N7  UNL     1     -41.301  10.197   0.450  1.00 20.00    -0.194 NA
ENDROOT
BRANCH   4   6
HETATM    6  O8  UNL     1     -41.202   7.106  -0.888  1.00 20.00    -0.367 OA
BRANCH   6   7
HETATM    7  C5  UNL     1     -41.133   5.797  -0.345  1.00 20.00     0.165 C 
HETATM    8  C2  UNL     1     -41.127   4.793  -1.478  1.00 20.00     0.033 C 
ENDBRANCH   6   7
ENDBRANCH   4   6
TORSDOF 2
ENDMDL
MODEL 8
REMARK VINA RESULT:      -3.4      1.359      2.793
REMARK  2 active torsions:
REMARK  status: ('A' for Active; 'I' for Inactive)
REMARK    1  A    between atoms: C5_5  and  O8_8 
REMARK    2  A    between atoms: C6_6  and  O8_8 
ROOT
HETATM    1  C1  UNL     1     -35.347  13.833  -4.269  1.00 20.00     0.097 C 
HETATM    2  C3  UNL     1     -34.994  15.611  -2.601  1.00 20.00     0.062 C 
HETATM    3  C4  UNL     1     -33.143  14.927  -4.164  1.00 20.00     0.062 C 
HETATM    4  C6  UNL     1     -34.653  15.104  -4.003  1.00 20.00     0.141 C 
HETATM    5  N7  UNL     1     -35.893  12.832  -4.479  1.00 20.00    -0.194 NA
ENDROOT
BRANCH   4   6
HETATM    6  O8  UNL     1     -35.098  16.072  -4.953  1.00 20.00    -0.367 OA
BRANCH   6   7
HETATM    7  C5  UNL     1     -36.437  16.467  -4.700  1.00 20.00     0.165 C 
HETATM    8  C2  UNL     1     -37.178  16.569  -6.016  1.00 20.00     0.033 C 
ENDBRANCH   6   7
ENDBRANCH   4   6
TORSDOF 2
ENDMDL
MODEL 9
REMARK VINA RESULT:      -3.3     10.927     11.982
REMARK  2 active torsions:
REMARK  status: ('A' for Active; 'I' for Inactive)
REMARK    1  A    between atoms: C5_5  and  O8_8 
REMARK    2  A    between atoms: C6_6  and  O8_8 
ROOT
HETATM    1  C1  UNL     1     -42.818   5.616   0.602  1.00 20.00     0.097 C 
HETATM    2  C3  UNL     1     -40.961   5.498  -1.011  1.00 20.00     0.062 C 
HETATM    3  C4  UNL     1     -43.339   5.141  -1.757  1.00 20.00     0.062 C 
HETATM    4  C6  UNL     1     -42.422   5.889  -0.789  1.00 20.00     0.141 C 
HETATM    5  N7  UNL     1     -43.131   5.401   1.699  1.00 20.00    -0.194 NA
ENDROOT
BRANCH   4   6
HETATM    6  O8  UNL     1     -42.557   7.289  -1.033  1.00 20.00    -0.367 OA
BRANCH   6   7
HETATM    7  C5  UNL     1     -41.336   7.973  -0.799  1.00 20.00     0.165 C 
HETATM    8  C2  UNL     1     -41.585   9.113   0.165  1.00 20.00     0.033 C 
ENDBRANCH   6   7
ENDBRANCH   4   6
TORSDOF 2
ENDMDL
