MODEL 1
REMARK VINA RESULT:      -4.3      0.000      0.000
REMARK  3 active torsions:
REMARK  status: ('A' for Active; 'I' for Inactive)
REMARK    1  A    between atoms: C1_1  and  C5_5 
REMARK    2  A    between atoms: C2_2  and  C6_6 
REMARK    3  A    between atoms: C6_6  and  O7_7 
ROOT
HETATM    1  C3  UNL     1     -34.419   5.951   5.885  1.00 20.00     0.060 C 
HETATM    2  C4  UNL     1     -34.232   3.961   4.363  1.00 20.00     0.060 C 
HETATM    3  C6  UNL     1     -34.568   5.448   4.449  1.00 20.00     0.114 C 
ENDROOT
BRANCH   3   4
HETATM    4  C2  UNL     1     -33.703   6.220   3.539  1.00 20.00    -0.068 C 
HETATM    5  C1  UNL     1     -32.999   6.848   2.795  1.00 20.00    -0.088 C 
BRANCH   5   6
HETATM    6  C5  UNL     1     -32.141   7.613   1.896  1.00 20.00     0.208 C 
HETATM    7 CL8  UNL     1     -33.147   8.733   0.955  1.00 20.00    -0.117 Cl
ENDBRANCH   5   6
ENDBRANCH   3   4
BRANCH   3   8
HETATM    8  O7  UNL     1     -35.932   5.601   4.053  1.00 20.00    -0.378 OA
HETATM    9  H17 UNL     1     -36.237   4.724   3.780  1.00 20.00     0.211 HD
ENDBRANCH   3   8
TORSDOF 3
ENDMDL
MODEL 2
REMARK VINA RESULT:      -3.8     11.219     12.072
REMARK  3 active torsions:
REMARK  status: ('A' for Active; 'I' for Inactive)
REMARK    1  A    between atoms: C1_1  and  C5_5 
REMARK    2  A    between atoms: C2_2  and  C6_6 
REMARK    3  A    between atoms: C6_6  and  O7_7 
ROOT
HETATM    1  C3  UNL     1     -34.030  15.028  -5.969  1.00 20.00     0.060 C 
HETATM    2  C4  UNL     1     -35.152  13.844  -4.059  1.00 20.00     0.060 C 
HETATM    3  C6  UNL     1     -33.863  14.505  -4.543  1.00 20.00     0.114 C 
ENDROOT
BRANCH   3   4
HETATM    4  C2  UNL     1     -33.475  15.597  -3.633  1.00 20.00    -0.068 C 
HETATM    5  C1  UNL     1     -33.161  16.489  -2.892  1.00 20.00    -0.088 C 
BRANCH   5   6
HETATM    6  C5  UNL     1     -32.774  17.570  -1.990  1.00 20.00     0.208 C 
HETATM    7 CL8  UNL     1     -34.015  17.742  -0.734  1.00 20.00    -0.117 Cl
ENDBRANCH   5   6
ENDBRANCH   3   4
BRANCH   3   8
HETATM    8  O7  UNL     1     -32.844  13.503  -4.543  1.00 20.00    -0.378 OA
HETATM    9  H17 UNL     1     -32.180  13.789  -3.899  1.00 20.00     0.211 HD
ENDBRANCH   3   8
TORSDOF 3
ENDMDL
MODEL 3
REMARK VINA RESULT:      -3.7     11.535     11.828
REMARK  3 active torsions:
REMARK  status: ('A' for Active; 'I' for Inactive)
REMARK    1  A    between atoms: C1_1  and  C5_5 
REMARK    2  A    between atoms: C2_2  and  C6_6 
REMARK    3  A    between atoms: C6_6  and  O7_7 
ROOT
HETATM    1  C3  UNL     1     -35.872  14.389  -6.184  1.00 20.00     0.060 C 
HETATM    2  C4  UNL     1     -37.570  14.360  -4.334  1.00 20.00     0.060 C 
HETATM    3  C6  UNL     1     -36.111  14.099  -4.702  1.00 20.00     0.114 C 
ENDROOT
BRANCH   3   4
HETATM    4  C2  UNL     1     -35.218  14.918  -3.864  1.00 20.00    -0.068 C 
HETATM    5  C1  UNL     1     -34.492  15.585  -3.178  1.00 20.00    -0.088 C 
BRANCH   5   6
HETATM    6  C5  UNL     1     -33.607  16.398  -2.350  1.00 20.00     0.208 C 
HETATM    7 CL8  UNL     1     -34.560  17.150  -1.056  1.00 20.00    -0.117 Cl
ENDBRANCH   5   6
ENDBRANCH   3   4
BRANCH   3   8
HETATM    8  O7  UNL     1     -35.852  12.715  -4.463  1.00 20.00    -0.378 OA
HETATM    9  H17 UNL     1     -34.954  12.546  -4.784  1.00 20.00     0.211 HD
ENDBRANCH   3   8
TORSDOF 3
ENDMDL
MODEL 4
REMARK VINA RESULT:      -3.6     16.036     16.459
REMARK  3 active torsions:
REMARK  status: ('A' for Active; 'I' for Inactive)
REMARK    1  A    between atoms: C1_1  and  C5_5 
REMARK    2  A    between atoms: C2_2  and  C6_6 
REMARK    3  A    between atoms: C6_6  and  O7_7 
ROOT
HETATM    1  C3  UNL     1     -24.522  16.384  11.276  1.00 20.00     0.060 C 
HETATM    2  C4  UNL     1     -25.703  18.488  11.974  1.00 20.00     0.060 C 
HETATM    3  C6  UNL     1     -24.532  17.910  11.182  1.00 20.00     0.114 C 
ENDROOT
BRANCH   3   4
HETATM    4  C2  UNL     1     -24.604  18.342   9.775  1.00 20.00    -0.068 C 
HETATM    5  C1  UNL     1     -24.660  18.694   8.628  1.00 20.00    -0.088 C 
BRANCH   5   6
HETATM    6  C5  UNL     1     -24.733  19.124   7.235  1.00 20.00     0.208 C 
HETATM    7 CL8  UNL     1     -26.325  18.690   6.583  1.00 20.00    -0.117 Cl
ENDBRANCH   5   6
ENDBRANCH   3   4
BRANCH   3   8
HETATM    8  O7  UNL     1     -23.331  18.409  11.772  1.00 20.00    -0.378 OA
HETATM    9  H17 UNL     1     -22.854  18.873  11.069  1.00 20.00     0.211 HD
ENDBRANCH   3   8
TORSDOF 3
ENDMDL
MODEL 5
REMARK VINA RESULT:      -3.4     11.612     12.577
REMARK  3 active torsions:
REMARK  status: ('A' for Active; 'I' for Inactive)
REMARK    1  A    between atoms: C1_1  and  C5_5 
REMARK    2  A    between atoms: C2_2  and  C6_6 
REMARK    3  A    between atoms: C6_6  and  O7_7 
ROOT
HETATM    1  C3  UNL     1     -34.284  16.689  -5.026  1.00 20.00     0.060 C 
HETATM    2  C4  UNL     1     -34.755  14.809  -3.428  1.00 20.00     0.060 C 
HETATM    3  C6  UNL     1     -33.738  15.863  -3.861  1.00 20.00     0.114 C 
ENDROOT
BRANCH   3   4
HETATM    4  C2  UNL     1     -33.391  16.736  -2.726  1.00 20.00    -0.068 C 
HETATM    5  C1  UNL     1     -33.107  17.445  -1.799  1.00 20.00    -0.088 C 
BRANCH   5   6
HETATM    6  C5  UNL     1     -32.767  18.310  -0.674  1.00 20.00     0.208 C 
HETATM    7 CL8  UNL     1     -31.015  18.235  -0.400  1.00 20.00    -0.117 Cl
ENDBRANCH   5   6
ENDBRANCH   3   4
BRANCH   3   8
HETATM    8  O7  UNL     1     -32.570  15.171  -4.303  1.00 20.00    -0.378 OA
HETATM    9  H17 UNL     1     -31.817  15.609  -3.881  1.00 20.00     0.211 HD
ENDBRANCH   3   8
TORSDOF 3
ENDMDL
MODEL 6
REMARK VINA RESULT:      -3.4     15.892     16.461
REMARK  3 active torsions:
REMARK  status: ('A' for Active; 'I' for Inactive)
REMARK    1  A    between atoms: C1_1  and  C5_5 
REMARK    2  A    between atoms: C2_2  and  C6_6 
REMARK    3  A    between atoms: C6_6  and  O7_7 
ROOT
HETATM    1  C3  UNL     1     -21.971  18.377   9.464  1.00 20.00     0.060 C 
HETATM    2  C4  UNL     1     -23.725  16.642   9.937  1.00 20.00     0.060 C 
HETATM    3  C6  UNL     1     -23.468  18.116   9.634  1.00 20.00     0.114 C 
ENDROOT
BRANCH   3   4
HETATM    4  C2  UNL     1     -24.205  18.526   8.426  1.00 20.00    -0.068 C 
HETATM    5  C1  UNL     1     -24.808  18.858   7.442  1.00 20.00    -0.088 C 
BRANCH   5   6
HETATM    6  C5  UNL     1     -25.537  19.263   6.243  1.00 20.00     0.208 C 
HETATM    7 CL8  UNL     1     -27.273  19.015   6.514  1.00 20.00    -0.117 Cl
ENDBRANCH   5   6
ENDBRANCH   3   4
BRANCH   3   8
HETATM    8  O7  UNL     1     -23.935  18.869  10.754  1.00 20.00    -0.378 OA
HETATM    9  H17 UNL     1     -23.819  18.304  11.531  1.00 20.00     0.211 HD
ENDBRANCH   3   8
TORSDOF 3
ENDMDL
MODEL 7
REMARK VINA RESULT:      -3.4     12.175     13.203
REMARK  3 active torsions:
REMARK  status: ('A' for Active; 'I' for Inactive)
REMARK    1  A    between atoms: C1_1  and  C5_5 
REMARK    2  A    between atoms: C2_2  and  C6_6 
REMARK    3  A    between atoms: C6_6  and  O7_7 
ROOT
HETATM    1  C3  UNL     1     -34.425  16.589  -7.241  1.00 20.00     0.060 C 
HETATM    2  C4  UNL     1     -35.642  14.554  -6.415  1.00 20.00     0.060 C 
HETATM    3  C6  UNL     1     -34.346  15.358  -6.339  1.00 20.00     0.114 C 
ENDROOT
BRANCH   3   4
HETATM    4  C2  UNL     1     -34.070  15.753  -4.947  1.00 20.00    -0.068 C 
HETATM    5  C1  UNL     1     -33.847  16.073  -3.811  1.00 20.00    -0.088 C 
BRANCH   5   6
HETATM    6  C5  UNL     1     -33.574  16.468  -2.432  1.00 20.00     0.208 C 
HETATM    7 CL8  UNL     1     -35.078  16.362  -1.496  1.00 20.00    -0.117 Cl
ENDBRANCH   5   6
ENDBRANCH   3   4
BRANCH   3   8
HETATM    8  O7  UNL     1     -33.294  14.516  -6.812  1.00 20.00    -0.378 OA
HETATM    9  H17 UNL     1     -33.485  13.627  -6.479  1.00 20.00     0.211 HD
ENDBRANCH   3   8
TORSDOF 3
ENDMDL
MODEL 8
REMARK VINA RESULT:      -3.3     16.332     17.120
REMARK  3 active torsions:
REMARK  status: ('A' for Active; 'I' for Inactive)
REMARK    1  A    between atoms: C1_1  and  C5_5 
REMARK    2  A    between atoms: C2_2  and  C6_6 
REMARK    3  A    between atoms: C6_6  and  O7_7 
ROOT
HETATM    1  C3  UNL     1     -23.715  16.550  10.153  1.00 20.00     0.060 C 
HETATM    2  C4  UNL     1     -22.863  17.906  12.088  1.00 20.00     0.060 C 
HETATM    3  C6  UNL     1     -23.684  17.934  10.801  1.00 20.00     0.114 C 
ENDROOT
BRANCH   3   4
HETATM    4  C2  UNL     1     -25.052  18.407  11.078  1.00 20.00    -0.068 C 
HETATM    5  C1  UNL     1     -26.167  18.791  11.301  1.00 20.00    -0.088 C 
BRANCH   5   6
HETATM    6  C5  UNL     1     -27.522  19.263  11.576  1.00 20.00     0.208 C 
HETATM    7 CL8  UNL     1     -28.478  17.917  12.226  1.00 20.00    -0.117 Cl
ENDBRANCH   5   6
ENDBRANCH   3   4
BRANCH   3   8
HETATM    8  O7  UNL     1     -23.040  18.841   9.904  1.00 20.00    -0.378 OA
HETATM    9  H17 UNL     1     -23.605  19.626   9.857  1.00 20.00     0.211 HD
ENDBRANCH   3   8
TORSDOF 3
ENDMDL
MODEL 9
REMARK VINA RESULT:      -3.3     11.682     12.535
REMARK  3 active torsions:
REMARK  status: ('A' for Active; 'I' for Inactive)
REMARK    1  A    between atoms: C1_1  and  C5_5 
REMARK    2  A    between atoms: C2_2  and  C6_6 
REMARK    3  A    between atoms: C6_6  and  O7_7 
ROOT
HETATM    1  C3  UNL     1     -35.037  14.746  -3.701  1.00 20.00     0.060 C 
HETATM    2  C4  UNL     1     -35.666  14.499  -6.121  1.00 20.00     0.060 C 
HETATM    3  C6  UNL     1     -36.032  14.131  -4.685  1.00 20.00     0.114 C 
ENDROOT
BRANCH   3   4
HETATM    4  C2  UNL     1     -37.404  14.573  -4.377  1.00 20.00    -0.068 C 
HETATM    5  C1  UNL     1     -38.522  14.933  -4.125  1.00 20.00    -0.088 C 
BRANCH   5   6
HETATM    6  C5  UNL     1     -39.882  15.368  -3.822  1.00 20.00     0.208 C 
HETATM    7 CL8  UNL     1     -40.953  14.870  -5.146  1.00 20.00    -0.117 Cl
ENDBRANCH   5   6
ENDBRANCH   3   4
BRANCH   3   8
HETATM    8  O7  UNL     1     -35.956  12.708  -4.577  1.00 20.00    -0.378 OA
HETATM    9  H17 UNL     1     -35.733  12.379  -5.460  1.00 20.00     0.211 HD
ENDBRANCH   3   8
TORSDOF 3
ENDMDL
