MODEL 1
REMARK VINA RESULT:      -4.1      0.000      0.000
REMARK  2 active torsions:
REMARK  status: ('A' for Active; 'I' for Inactive)
REMARK    1  A    between atoms: C2_2  and  C5_5 
REMARK    2  A    between atoms: C3_3  and  C6_6 
ROOT
HETATM    1  C1  UNL     1     -33.742   4.129   3.828  1.00 20.00     0.204 C 
HETATM    2  C2  UNL     1     -34.784   5.119   4.291  1.00 20.00     0.162 C 
HETATM    3  C3  UNL     1     -33.656   5.993   2.541  1.00 20.00     0.260 C 
HETATM    4  O7  UNL     1     -33.429   4.577   2.507  1.00 20.00    -0.359 OA
HETATM    5  O8  UNL     1     -34.294   6.358   3.772  1.00 20.00    -0.353 OA
ENDROOT
BRANCH   2   6
HETATM    6  C5  UNL     1     -34.937   5.193   5.794  1.00 20.00     0.148 C 
HETATM    7 CL9  UNL     1     -34.198   6.680   6.425  1.00 20.00    -0.128 Cl
ENDBRANCH   2   6
BRANCH   3   8
HETATM    8  C6  UNL     1     -32.336   6.730   2.421  1.00 20.00     0.056 C 
HETATM    9  C4  UNL     1     -32.432   7.909   1.500  1.00 20.00     0.010 C 
ENDBRANCH   3   8
TORSDOF 2
ENDMDL
MODEL 2
REMARK VINA RESULT:      -4.0     16.329     17.158
REMARK  2 active torsions:
REMARK  status: ('A' for Active; 'I' for Inactive)
REMARK    1  A    between atoms: C2_2  and  C5_5 
REMARK    2  A    between atoms: C3_3  and  C6_6 
ROOT
HETATM    1  C1  UNL     1     -23.185  17.701  12.279  1.00 20.00     0.204 C 
HETATM    2  C2  UNL     1     -24.116  16.686  11.661  1.00 20.00     0.162 C 
HETATM    3  C3  UNL     1     -22.715  17.470  10.074  1.00 20.00     0.260 C 
HETATM    4  O7  UNL     1     -22.112  17.775  11.339  1.00 20.00    -0.359 OA
HETATM    5  O8  UNL     1     -24.060  17.011  10.271  1.00 20.00    -0.353 OA
ENDROOT
BRANCH   2   6
HETATM    6  C5  UNL     1     -25.539  16.765  12.172  1.00 20.00     0.148 C 
HETATM    7 CL9  UNL     1     -26.103  18.450  12.185  1.00 20.00    -0.128 Cl
ENDBRANCH   2   6
BRANCH   3   8
HETATM    8  C6  UNL     1     -22.730  18.707   9.197  1.00 20.00     0.056 C 
HETATM    9  C4  UNL     1     -24.124  19.153   8.877  1.00 20.00     0.010 C 
ENDBRANCH   3   8
TORSDOF 2
ENDMDL
MODEL 3
REMARK VINA RESULT:      -3.9     16.284     17.247
REMARK  2 active torsions:
REMARK  status: ('A' for Active; 'I' for Inactive)
REMARK    1  A    between atoms: C2_2  and  C5_5 
REMARK    2  A    between atoms: C3_3  and  C6_6 
ROOT
HETATM    1  C1  UNL     1     -23.921  16.486  10.175  1.00 20.00     0.204 C 
HETATM    2  C2  UNL     1     -22.962  17.515  10.724  1.00 20.00     0.162 C 
HETATM    3  C3  UNL     1     -24.631  17.190  12.209  1.00 20.00     0.260 C 
HETATM    4  O7  UNL     1     -24.635  16.053  11.335  1.00 20.00    -0.359 OA
HETATM    5  O8  UNL     1     -23.758  18.203  11.691  1.00 20.00    -0.353 OA
ENDROOT
BRANCH   2   6
HETATM    6  C5  UNL     1     -22.434  18.479   9.684  1.00 20.00     0.148 C 
HETATM    7 CL9  UNL     1     -23.770  19.177   8.744  1.00 20.00    -0.128 Cl
ENDBRANCH   2   6
BRANCH   3   8
HETATM    8  C6  UNL     1     -26.035  17.751  12.332  1.00 20.00     0.056 C 
HETATM    9  C4  UNL     1     -26.116  19.172  11.860  1.00 20.00     0.010 C 
ENDBRANCH   3   8
TORSDOF 2
ENDMDL
MODEL 4
REMARK VINA RESULT:      -3.7      1.572      2.201
REMARK  2 active torsions:
REMARK  status: ('A' for Active; 'I' for Inactive)
REMARK    1  A    between atoms: C2_2  and  C5_5 
REMARK    2  A    between atoms: C3_3  and  C6_6 
ROOT
HETATM    1  C1  UNL     1     -32.967   6.965   4.321  1.00 20.00     0.204 C 
HETATM    2  C2  UNL     1     -33.487   5.794   3.524  1.00 20.00     0.162 C 
HETATM    3  C3  UNL     1     -32.448   7.236   2.131  1.00 20.00     0.260 C 
HETATM    4  O7  UNL     1     -31.987   7.542   3.455  1.00 20.00    -0.359 OA
HETATM    5  O8  UNL     1     -33.549   6.319   2.196  1.00 20.00    -0.353 OA
ENDROOT
BRANCH   2   6
HETATM    6  C5  UNL     1     -34.848   5.303   3.968  1.00 20.00     0.148 C 
HETATM    7 CL9  UNL     1     -34.907   5.144   5.736  1.00 20.00    -0.128 Cl
ENDBRANCH   2   6
BRANCH   3   8
HETATM    8  C6  UNL     1     -32.893   8.507   1.433  1.00 20.00     0.056 C 
HETATM    9  C4  UNL     1     -32.964   8.336  -0.054  1.00 20.00     0.010 C 
ENDBRANCH   3   8
TORSDOF 2
ENDMDL
MODEL 5
REMARK VINA RESULT:      -3.6     16.676     17.069
REMARK  2 active torsions:
REMARK  status: ('A' for Active; 'I' for Inactive)
REMARK    1  A    between atoms: C2_2  and  C5_5 
REMARK    2  A    between atoms: C3_3  and  C6_6 
ROOT
HETATM    1  C1  UNL     1     -24.537  18.438   9.679  1.00 20.00     0.204 C 
HETATM    2  C2  UNL     1     -24.210  18.129  11.121  1.00 20.00     0.162 C 
HETATM    3  C3  UNL     1     -22.300  18.159   9.916  1.00 20.00     0.260 C 
HETATM    4  O7  UNL     1     -23.283  18.862   9.143  1.00 20.00    -0.359 OA
HETATM    5  O8  UNL     1     -22.929  17.502  11.026  1.00 20.00    -0.353 OA
ENDROOT
BRANCH   2   6
HETATM    6  C5  UNL     1     -25.206  17.210  11.794  1.00 20.00     0.148 C 
HETATM    7 CL9  UNL     1     -24.616  15.534  11.782  1.00 20.00    -0.128 Cl
ENDBRANCH   2   6
BRANCH   3   8
HETATM    8  C6  UNL     1     -21.603  17.127   9.051  1.00 20.00     0.056 C 
HETATM    9  C4  UNL     1     -21.768  17.415   7.590  1.00 20.00     0.010 C 
ENDBRANCH   3   8
TORSDOF 2
ENDMDL
MODEL 6
REMARK VINA RESULT:      -3.6     12.305     13.166
REMARK  2 active torsions:
REMARK  status: ('A' for Active; 'I' for Inactive)
REMARK    1  A    between atoms: C2_2  and  C5_5 
REMARK    2  A    between atoms: C3_3  and  C6_6 
ROOT
HETATM    1  C1  UNL     1     -36.701  15.291  -5.130  1.00 20.00     0.204 C 
HETATM    2  C2  UNL     1     -35.802  14.429  -5.984  1.00 20.00     0.162 C 
HETATM    3  C3  UNL     1     -35.002  14.471  -3.872  1.00 20.00     0.260 C 
HETATM    4  O7  UNL     1     -36.374  14.887  -3.799  1.00 20.00    -0.359 OA
HETATM    5  O8  UNL     1     -34.580  14.416  -5.242  1.00 20.00    -0.353 OA
ENDROOT
BRANCH   2   6
HETATM    6  C5  UNL     1     -35.575  14.971  -7.378  1.00 20.00     0.148 C 
HETATM    7 CL9  UNL     1     -33.845  15.255  -7.663  1.00 20.00    -0.128 Cl
ENDBRANCH   2   6
BRANCH   3   8
HETATM    8  C6  UNL     1     -34.125  15.448  -3.114  1.00 20.00     0.056 C 
HETATM    9  C4  UNL     1     -34.870  16.129  -2.006  1.00 20.00     0.010 C 
ENDBRANCH   3   8
TORSDOF 2
ENDMDL
MODEL 7
REMARK VINA RESULT:      -3.6     16.085     17.021
REMARK  2 active torsions:
REMARK  status: ('A' for Active; 'I' for Inactive)
REMARK    1  A    between atoms: C2_2  and  C5_5 
REMARK    2  A    between atoms: C3_3  and  C6_6 
ROOT
HETATM    1  C1  UNL     1     -22.157  18.417   9.931  1.00 20.00     0.204 C 
HETATM    2  C2  UNL     1     -23.012  17.255  10.378  1.00 20.00     0.162 C 
HETATM    3  C3  UNL     1     -23.845  18.091   8.454  1.00 20.00     0.260 C 
HETATM    4  O7  UNL     1     -22.491  18.555   8.549  1.00 20.00    -0.359 OA
HETATM    5  O8  UNL     1     -24.244  17.488   9.692  1.00 20.00    -0.353 OA
ENDROOT
BRANCH   2   6
HETATM    6  C5  UNL     1     -23.237  17.197  11.874  1.00 20.00     0.148 C 
HETATM    7 CL9  UNL     1     -24.649  18.173  12.331  1.00 20.00    -0.128 Cl
ENDBRANCH   2   6
BRANCH   3   8
HETATM    8  C6  UNL     1     -24.768  19.253   8.141  1.00 20.00     0.056 C 
HETATM    9  C4  UNL     1     -25.744  18.919   7.054  1.00 20.00     0.010 C 
ENDBRANCH   3   8
TORSDOF 2
ENDMDL
MODEL 8
REMARK VINA RESULT:      -3.6     11.726     12.434
REMARK  2 active torsions:
REMARK  status: ('A' for Active; 'I' for Inactive)
REMARK    1  A    between atoms: C2_2  and  C5_5 
REMARK    2  A    between atoms: C3_3  and  C6_6 
ROOT
HETATM    1  C1  UNL     1     -34.438  14.842  -5.675  1.00 20.00     0.204 C 
HETATM    2  C2  UNL     1     -33.981  14.586  -4.259  1.00 20.00     0.162 C 
HETATM    3  C3  UNL     1     -36.093  13.824  -4.507  1.00 20.00     0.260 C 
HETATM    4  O7  UNL     1     -35.546  13.953  -5.827  1.00 20.00    -0.359 OA
HETATM    5  O8  UNL     1     -35.215  14.437  -3.552  1.00 20.00    -0.353 OA
ENDROOT
BRANCH   2   6
HETATM    6  C5  UNL     1     -33.158  15.709  -3.666  1.00 20.00     0.148 C 
HETATM    7 CL9  UNL     1     -33.953  16.370  -2.221  1.00 20.00    -0.128 Cl
ENDBRANCH   2   6
BRANCH   3   8
HETATM    8  C6  UNL     1     -37.451  14.495  -4.443  1.00 20.00     0.056 C 
HETATM    9  C4  UNL     1     -37.355  15.917  -3.980  1.00 20.00     0.010 C 
ENDBRANCH   3   8
TORSDOF 2
ENDMDL
MODEL 9
REMARK VINA RESULT:      -3.6     12.013     12.704
REMARK  2 active torsions:
REMARK  status: ('A' for Active; 'I' for Inactive)
REMARK    1  A    between atoms: C2_2  and  C5_5 
REMARK    2  A    between atoms: C3_3  and  C6_6 
ROOT
HETATM    1  C1  UNL     1     -33.406  14.424  -4.544  1.00 20.00     0.204 C 
HETATM    2  C2  UNL     1     -34.331  15.303  -5.350  1.00 20.00     0.162 C 
HETATM    3  C3  UNL     1     -33.439  16.513  -3.665  1.00 20.00     0.260 C 
HETATM    4  O7  UNL     1     -32.597  15.364  -3.834  1.00 20.00    -0.359 OA
HETATM    5  O8  UNL     1     -34.638  16.358  -4.436  1.00 20.00    -0.353 OA
ENDROOT
BRANCH   2   6
HETATM    6  C5  UNL     1     -35.595  14.608  -5.808  1.00 20.00     0.148 C 
HETATM    7 CL9  UNL     1     -36.226  13.552  -4.526  1.00 20.00    -0.128 Cl
ENDBRANCH   2   6
BRANCH   3   8
HETATM    8  C6  UNL     1     -33.800  16.678  -2.202  1.00 20.00     0.056 C 
HETATM    9  C4  UNL     1     -35.191  16.204  -1.909  1.00 20.00     0.010 C 
ENDBRANCH   3   8
TORSDOF 2
ENDMDL
