MODEL 1
REMARK VINA RESULT:      -4.7      0.000      0.000
REMARK  2 active torsions:
REMARK  status: ('A' for Active; 'I' for Inactive)
REMARK    1  A    between atoms: C6_6  and  C9_9 
REMARK    2  A    between atoms: C6_6  and  C10_10 
ROOT
HETATM    1  C1  UNL     1     -33.863  14.111  -4.223  1.00 20.00     0.047 C 
HETATM    2  C2  UNL     1     -33.370  15.299  -3.854  1.00 20.00    -0.014 C 
HETATM    3  C3  UNL     1     -35.321  13.850  -4.154  1.00 20.00     0.149 C 
HETATM    4  C4  UNL     1     -36.239  14.979  -3.743  1.00 20.00     0.084 C 
HETATM    5  C5  UNL     1     -35.546  15.921  -2.766  1.00 20.00     0.021 C 
HETATM    6  C6  UNL     1     -34.190  16.442  -3.292  1.00 20.00    -0.023 C 
HETATM    7  O11 UNL     1     -35.760  12.752  -4.489  1.00 20.00    -0.293 OA
ENDROOT
BRANCH   6   8
HETATM    8  C9  UNL     1     -33.429  17.092  -2.123  1.00 20.00     0.009 C 
HETATM    9  C7  UNL     1     -34.337  17.376  -0.977  1.00 20.00     0.006 C 
ENDBRANCH   6   8
BRANCH   6  10
HETATM   10  C10 UNL     1     -34.397  17.495  -4.395  1.00 20.00     0.009 C 
HETATM   11  C8  UNL     1     -33.357  18.558  -4.326  1.00 20.00     0.006 C 
ENDBRANCH   6  10
TORSDOF 2
ENDMDL
MODEL 2
REMARK VINA RESULT:      -4.6      1.625      2.239
REMARK  2 active torsions:
REMARK  status: ('A' for Active; 'I' for Inactive)
REMARK    1  A    between atoms: C6_6  and  C9_9 
REMARK    2  A    between atoms: C6_6  and  C10_10 
ROOT
HETATM    1  C1  UNL     1     -36.219  13.601  -4.431  1.00 20.00     0.047 C 
HETATM    2  C2  UNL     1     -34.994  14.140  -4.419  1.00 20.00    -0.014 C 
HETATM    3  C3  UNL     1     -37.419  14.467  -4.343  1.00 20.00     0.149 C 
HETATM    4  C4  UNL     1     -37.230  15.966  -4.327  1.00 20.00     0.084 C 
HETATM    5  C5  UNL     1     -35.917  16.347  -3.654  1.00 20.00     0.021 C 
HETATM    6  C6  UNL     1     -34.698  15.617  -4.259  1.00 20.00    -0.023 C 
HETATM    7  O11 UNL     1     -38.539  13.958  -4.347  1.00 20.00    -0.293 OA
ENDROOT
BRANCH   6   8
HETATM    8  C9  UNL     1     -33.498  15.799  -3.313  1.00 20.00     0.009 C 
HETATM    9  C7  UNL     1     -33.824  16.734  -2.200  1.00 20.00     0.006 C 
ENDBRANCH   6   8
BRANCH   6  10
HETATM   10  C10 UNL     1     -34.336  16.202  -5.636  1.00 20.00     0.009 C 
HETATM   11  C8  UNL     1     -33.933  15.131  -6.588  1.00 20.00     0.006 C 
ENDBRANCH   6  10
TORSDOF 2
ENDMDL
MODEL 3
REMARK VINA RESULT:      -4.5     10.739     12.848
REMARK  2 active torsions:
REMARK  status: ('A' for Active; 'I' for Inactive)
REMARK    1  A    between atoms: C6_6  and  C9_9 
REMARK    2  A    between atoms: C6_6  and  C10_10 
ROOT
HETATM    1  C1  UNL     1     -40.959   8.027   0.704  1.00 20.00     0.047 C 
HETATM    2  C2  UNL     1     -41.178   6.733   0.439  1.00 20.00    -0.014 C 
HETATM    3  C3  UNL     1     -41.805   9.073   0.080  1.00 20.00     0.149 C 
HETATM    4  C4  UNL     1     -42.965   8.642  -0.788  1.00 20.00     0.084 C 
HETATM    5  C5  UNL     1     -42.662   7.328  -1.497  1.00 20.00     0.021 C 
HETATM    6  C6  UNL     1     -42.220   6.210  -0.528  1.00 20.00    -0.023 C 
HETATM    7  O11 UNL     1     -41.588  10.258   0.326  1.00 20.00    -0.293 OA
ENDROOT
BRANCH   6   8
HETATM    8  C9  UNL     1     -41.620   5.056  -1.352  1.00 20.00     0.009 C 
HETATM    9  C7  UNL     1     -42.685   4.259  -2.021  1.00 20.00     0.006 C 
ENDBRANCH   6   8
BRANCH   6  10
HETATM   10  C10 UNL     1     -43.417   5.674   0.276  1.00 20.00     0.009 C 
HETATM   11  C8  UNL     1     -42.972   5.028   1.541  1.00 20.00     0.006 C 
ENDBRANCH   6  10
TORSDOF 2
ENDMDL
MODEL 4
REMARK VINA RESULT:      -4.5      0.802      2.522
REMARK  2 active torsions:
REMARK  status: ('A' for Active; 'I' for Inactive)
REMARK    1  A    between atoms: C6_6  and  C9_9 
REMARK    2  A    between atoms: C6_6  and  C10_10 
ROOT
HETATM    1  C1  UNL     1     -36.613  14.804  -4.053  1.00 20.00     0.047 C 
HETATM    2  C2  UNL     1     -36.280  16.032  -3.637  1.00 20.00    -0.014 C 
HETATM    3  C3  UNL     1     -35.567  13.775  -4.265  1.00 20.00     0.149 C 
HETATM    4  C4  UNL     1     -34.136  14.117  -3.920  1.00 20.00     0.084 C 
HETATM    5  C5  UNL     1     -33.857  15.600  -4.139  1.00 20.00     0.021 C 
HETATM    6  C6  UNL     1     -34.863  16.514  -3.405  1.00 20.00    -0.023 C 
HETATM    7  O11 UNL     1     -35.886  12.654  -4.655  1.00 20.00    -0.293 OA
ENDROOT
BRANCH   6   8
HETATM    8  C9  UNL     1     -34.713  17.945  -3.952  1.00 20.00     0.009 C 
HETATM    9  C7  UNL     1     -34.707  17.957  -5.442  1.00 20.00     0.006 C 
ENDBRANCH   6   8
BRANCH   6  10
HETATM   10  C10 UNL     1     -34.586  16.531  -1.892  1.00 20.00     0.009 C 
HETATM   11  C8  UNL     1     -33.480  17.470  -1.556  1.00 20.00     0.006 C 
ENDBRANCH   6  10
TORSDOF 2
ENDMDL
MODEL 5
REMARK VINA RESULT:      -4.5      1.174      1.505
REMARK  2 active torsions:
REMARK  status: ('A' for Active; 'I' for Inactive)
REMARK    1  A    between atoms: C6_6  and  C9_9 
REMARK    2  A    between atoms: C6_6  and  C10_10 
ROOT
HETATM    1  C1  UNL     1     -33.068  15.479  -3.745  1.00 20.00     0.047 C 
HETATM    2  C2  UNL     1     -32.965  16.662  -3.126  1.00 20.00    -0.014 C 
HETATM    3  C3  UNL     1     -34.338  14.716  -3.696  1.00 20.00     0.149 C 
HETATM    4  C4  UNL     1     -35.531  15.341  -3.011  1.00 20.00     0.084 C 
HETATM    5  C5  UNL     1     -35.095  16.244  -1.863  1.00 20.00     0.021 C 
HETATM    6  C6  UNL     1     -34.056  17.302  -2.293  1.00 20.00    -0.023 C 
HETATM    7  O11 UNL     1     -34.416  13.627  -4.262  1.00 20.00    -0.293 OA
ENDROOT
BRANCH   6   8
HETATM    8  C9  UNL     1     -33.436  17.923  -1.029  1.00 20.00     0.009 C 
HETATM    9  C7  UNL     1     -31.976  18.161  -1.202  1.00 20.00     0.006 C 
ENDBRANCH   6   8
BRANCH   6  10
HETATM   10  C10 UNL     1     -34.719  18.419  -3.119  1.00 20.00     0.009 C 
HETATM   11  C8  UNL     1     -33.852  18.840  -4.253  1.00 20.00     0.006 C 
ENDBRANCH   6  10
TORSDOF 2
ENDMDL
MODEL 6
REMARK VINA RESULT:      -4.4      2.384      3.963
REMARK  2 active torsions:
REMARK  status: ('A' for Active; 'I' for Inactive)
REMARK    1  A    between atoms: C6_6  and  C9_9 
REMARK    2  A    between atoms: C6_6  and  C10_10 
ROOT
HETATM    1  C1  UNL     1     -34.986  16.671  -1.406  1.00 20.00     0.047 C 
HETATM    2  C2  UNL     1     -35.397  15.864  -2.391  1.00 20.00    -0.014 C 
HETATM    3  C3  UNL     1     -33.709  17.414  -1.529  1.00 20.00     0.149 C 
HETATM    4  C4  UNL     1     -32.932  17.306  -2.821  1.00 20.00     0.084 C 
HETATM    5  C5  UNL     1     -33.131  15.941  -3.469  1.00 20.00     0.021 C 
HETATM    6  C6  UNL     1     -34.620  15.577  -3.658  1.00 20.00    -0.023 C 
HETATM    7  O11 UNL     1     -33.339  18.146  -0.613  1.00 20.00    -0.293 OA
ENDROOT
BRANCH   6   8
HETATM    8  C9  UNL     1     -34.719  14.078  -3.992  1.00 20.00     0.009 C 
HETATM    9  C7  UNL     1     -36.102  13.704  -4.397  1.00 20.00     0.006 C 
ENDBRANCH   6   8
BRANCH   6  10
HETATM   10  C10 UNL     1     -35.239  16.383  -4.814  1.00 20.00     0.009 C 
HETATM   11  C8  UNL     1     -34.393  16.311  -6.036  1.00 20.00     0.006 C 
ENDBRANCH   6  10
TORSDOF 2
ENDMDL
MODEL 7
REMARK VINA RESULT:      -4.3      1.407      2.966
REMARK  2 active torsions:
REMARK  status: ('A' for Active; 'I' for Inactive)
REMARK    1  A    between atoms: C6_6  and  C9_9 
REMARK    2  A    between atoms: C6_6  and  C10_10 
ROOT
HETATM    1  C1  UNL     1     -37.364  15.922  -3.904  1.00 20.00     0.047 C 
HETATM    2  C2  UNL     1     -36.278  16.676  -3.699  1.00 20.00    -0.014 C 
HETATM    3  C3  UNL     1     -37.226  14.491  -4.266  1.00 20.00     0.149 C 
HETATM    4  C4  UNL     1     -35.841  13.888  -4.313  1.00 20.00     0.084 C 
HETATM    5  C5  UNL     1     -34.805  14.923  -4.731  1.00 20.00     0.021 C 
HETATM    6  C6  UNL     1     -34.849  16.201  -3.864  1.00 20.00    -0.023 C 
HETATM    7  O11 UNL     1     -38.233  13.812  -4.459  1.00 20.00    -0.293 OA
ENDROOT
BRANCH   6   8
HETATM    8  C9  UNL     1     -34.023  17.296  -4.564  1.00 20.00     0.009 C 
HETATM    9  C7  UNL     1     -34.486  17.513  -5.962  1.00 20.00     0.006 C 
ENDBRANCH   6   8
BRANCH   6  10
HETATM   10  C10 UNL     1     -34.248  15.942  -2.472  1.00 20.00     0.009 C 
HETATM   11  C8  UNL     1     -34.940  16.746  -1.427  1.00 20.00     0.006 C 
ENDBRANCH   6  10
TORSDOF 2
ENDMDL
MODEL 8
REMARK VINA RESULT:      -4.3      1.609      2.916
REMARK  2 active torsions:
REMARK  status: ('A' for Active; 'I' for Inactive)
REMARK    1  A    between atoms: C6_6  and  C9_9 
REMARK    2  A    between atoms: C6_6  and  C10_10 
ROOT
HETATM    1  C1  UNL     1     -36.231  16.838  -5.139  1.00 20.00     0.047 C 
HETATM    2  C2  UNL     1     -35.147  16.887  -4.356  1.00 20.00    -0.014 C 
HETATM    3  C3  UNL     1     -37.114  15.647  -5.122  1.00 20.00     0.149 C 
HETATM    4  C4  UNL     1     -36.810  14.535  -4.144  1.00 20.00     0.084 C 
HETATM    5  C5  UNL     1     -35.312  14.426  -3.884  1.00 20.00     0.021 C 
HETATM    6  C6  UNL     1     -34.678  15.767  -3.451  1.00 20.00    -0.023 C 
HETATM    7  O11 UNL     1     -38.102  15.611  -5.852  1.00 20.00    -0.293 OA
ENDROOT
BRANCH   6   8
HETATM    8  C9  UNL     1     -33.148  15.638  -3.546  1.00 20.00     0.009 C 
HETATM    9  C7  UNL     1     -32.754  14.484  -4.401  1.00 20.00     0.006 C 
ENDBRANCH   6   8
BRANCH   6  10
HETATM   10  C10 UNL     1     -35.057  16.109  -2.000  1.00 20.00     0.009 C 
HETATM   11  C8  UNL     1     -34.146  17.141  -1.433  1.00 20.00     0.006 C 
ENDBRANCH   6  10
TORSDOF 2
ENDMDL
MODEL 9
REMARK VINA RESULT:      -4.3      1.100      2.444
REMARK  2 active torsions:
REMARK  status: ('A' for Active; 'I' for Inactive)
REMARK    1  A    between atoms: C6_6  and  C9_9 
REMARK    2  A    between atoms: C6_6  and  C10_10 
ROOT
HETATM    1  C1  UNL     1     -35.827  16.035  -5.179  1.00 20.00     0.047 C 
HETATM    2  C2  UNL     1     -35.299  16.812  -4.227  1.00 20.00    -0.014 C 
HETATM    3  C3  UNL     1     -35.530  14.583  -5.212  1.00 20.00     0.149 C 
HETATM    4  C4  UNL     1     -34.694  13.990  -4.102  1.00 20.00     0.084 C 
HETATM    5  C5  UNL     1     -33.683  15.002  -3.575  1.00 20.00     0.021 C 
HETATM    6  C6  UNL     1     -34.334  16.339  -3.158  1.00 20.00    -0.023 C 
HETATM    7  O11 UNL     1     -36.016  13.882  -6.098  1.00 20.00    -0.293 OA
ENDROOT
BRANCH   6   8
HETATM    8  C9  UNL     1     -33.223  17.388  -2.972  1.00 20.00     0.009 C 
HETATM    9  C7  UNL     1     -33.231  18.387  -4.076  1.00 20.00     0.006 C 
ENDBRANCH   6   8
BRANCH   6  10
HETATM   10  C10 UNL     1     -35.099  16.188  -1.832  1.00 20.00     0.009 C 
HETATM   11  C8  UNL     1     -34.741  17.271  -0.875  1.00 20.00     0.006 C 
ENDBRANCH   6  10
TORSDOF 2
ENDMDL
