MODEL 1
REMARK VINA RESULT:      -5.0      0.000      0.000
REMARK  1 active torsions:
REMARK  status: ('A' for Active; 'I' for Inactive)
REMARK    1  A    between atoms: C1_1  and  C5_5 
ROOT
HETATM    1  C2  UNL     1     -33.356  16.252  -2.831  1.00 20.00     0.006 C 
HETATM    2  C3  UNL     1     -32.933  15.437  -4.064  1.00 20.00     0.011 C 
HETATM    3  C4  UNL     1     -35.608  15.216  -2.893  1.00 20.00     0.017 C 
HETATM    4  C5  UNL     1     -35.159  14.357  -4.095  1.00 20.00     0.056 C 
HETATM    5  C6  UNL     1     -34.846  16.546  -3.110  1.00 20.00    -0.005 C 
HETATM    6  C7  UNL     1     -34.250  15.346  -4.895  1.00 20.00    -0.027 C 
HETATM    7  C8  UNL     1     -34.895  16.746  -4.645  1.00 20.00    -0.036 C 
HETATM    8  C9  UNL     1     -33.980  14.959  -6.339  1.00 20.00     0.016 C 
HETATM    9  C10 UNL     1     -34.065  17.946  -5.153  1.00 20.00     0.016 C 
HETATM   10  C11 UNL     1     -36.316  16.968  -5.197  1.00 20.00     0.016 C 
ENDROOT
BRANCH   4  11
HETATM   11  C1  UNL     1     -36.324  13.765  -4.832  1.00 20.00     0.236 C 
HETATM   12  O12 UNL     1     -37.463  13.732  -4.380  1.00 20.00    -0.306 OA
ENDBRANCH   4  11
TORSDOF 1
ENDMDL
MODEL 2
REMARK VINA RESULT:      -4.9      1.089      2.253
REMARK  1 active torsions:
REMARK  status: ('A' for Active; 'I' for Inactive)
REMARK    1  A    between atoms: C1_1  and  C5_5 
ROOT
HETATM    1  C2  UNL     1     -33.296  14.598  -5.319  1.00 20.00     0.006 C 
HETATM    2  C3  UNL     1     -34.184  15.680  -5.956  1.00 20.00     0.011 C 
HETATM    3  C4  UNL     1     -35.263  13.638  -4.154  1.00 20.00     0.017 C 
HETATM    4  C5  UNL     1     -36.159  14.691  -4.841  1.00 20.00     0.056 C 
HETATM    5  C6  UNL     1     -33.936  14.403  -3.928  1.00 20.00    -0.005 C 
HETATM    6  C7  UNL     1     -35.246  15.960  -4.848  1.00 20.00    -0.027 C 
HETATM    7  C8  UNL     1     -34.401  15.829  -3.541  1.00 20.00    -0.036 C 
HETATM    8  C9  UNL     1     -35.964  17.278  -5.077  1.00 20.00     0.016 C 
HETATM    9  C10 UNL     1     -33.252  16.853  -3.404  1.00 20.00     0.016 C 
HETATM   10  C11 UNL     1     -35.168  15.891  -2.207  1.00 20.00     0.016 C 
ENDROOT
BRANCH   4  11
HETATM   11  C1  UNL     1     -37.493  14.823  -4.167  1.00 20.00     0.236 C 
HETATM   12  O12 UNL     1     -38.402  14.013  -4.304  1.00 20.00    -0.306 OA
ENDBRANCH   4  11
TORSDOF 1
ENDMDL
MODEL 3
REMARK VINA RESULT:      -4.8      1.180      1.577
REMARK  1 active torsions:
REMARK  status: ('A' for Active; 'I' for Inactive)
REMARK    1  A    between atoms: C1_1  and  C5_5 
ROOT
HETATM    1  C2  UNL     1     -35.362  17.329  -2.186  1.00 20.00     0.006 C 
HETATM    2  C3  UNL     1     -34.248  16.272  -2.264  1.00 20.00     0.011 C 
HETATM    3  C4  UNL     1     -36.834  15.912  -3.589  1.00 20.00     0.017 C 
HETATM    4  C5  UNL     1     -35.734  14.830  -3.617  1.00 20.00     0.056 C 
HETATM    5  C6  UNL     1     -36.025  17.232  -3.576  1.00 20.00    -0.005 C 
HETATM    6  C7  UNL     1     -34.425  15.680  -3.696  1.00 20.00    -0.027 C 
HETATM    7  C8  UNL     1     -34.837  16.939  -4.525  1.00 20.00    -0.036 C 
HETATM    8  C9  UNL     1     -33.187  14.928  -4.152  1.00 20.00     0.016 C 
HETATM    9  C10 UNL     1     -33.776  18.060  -4.575  1.00 20.00     0.016 C 
HETATM   10  C11 UNL     1     -35.254  16.703  -5.988  1.00 20.00     0.016 C 
ENDROOT
BRANCH   4  11
HETATM   11  C1  UNL     1     -35.956  13.828  -4.711  1.00 20.00     0.236 C 
HETATM   12  O12 UNL     1     -35.873  12.616  -4.545  1.00 20.00    -0.306 OA
ENDBRANCH   4  11
TORSDOF 1
ENDMDL
MODEL 4
REMARK VINA RESULT:      -4.5      1.317      1.953
REMARK  1 active torsions:
REMARK  status: ('A' for Active; 'I' for Inactive)
REMARK    1  A    between atoms: C1_1  and  C5_5 
ROOT
HETATM    1  C2  UNL     1     -33.673  16.274  -2.485  1.00 20.00     0.006 C 
HETATM    2  C3  UNL     1     -33.486  17.111  -3.762  1.00 20.00     0.011 C 
HETATM    3  C4  UNL     1     -34.716  14.453  -3.807  1.00 20.00     0.017 C 
HETATM    4  C5  UNL     1     -34.474  15.273  -5.092  1.00 20.00     0.056 C 
HETATM    5  C6  UNL     1     -35.008  15.543  -2.747  1.00 20.00    -0.005 C 
HETATM    6  C7  UNL     1     -34.739  16.737  -4.613  1.00 20.00    -0.027 C 
HETATM    7  C8  UNL     1     -35.847  16.588  -3.523  1.00 20.00    -0.036 C 
HETATM    8  C9  UNL     1     -34.990  17.748  -5.719  1.00 20.00     0.016 C 
HETATM    9  C10 UNL     1     -36.151  17.875  -2.724  1.00 20.00     0.016 C 
HETATM   10  C11 UNL     1     -37.217  16.062  -3.989  1.00 20.00     0.016 C 
ENDROOT
BRANCH   4  11
HETATM   11  C1  UNL     1     -35.301  14.778  -6.241  1.00 20.00     0.236 C 
HETATM   12  O12 UNL     1     -35.947  13.737  -6.210  1.00 20.00    -0.306 OA
ENDBRANCH   4  11
TORSDOF 1
ENDMDL
MODEL 5
REMARK VINA RESULT:      -4.5      1.895      2.933
REMARK  1 active torsions:
REMARK  status: ('A' for Active; 'I' for Inactive)
REMARK    1  A    between atoms: C1_1  and  C5_5 
ROOT
HETATM    1  C2  UNL     1     -33.300  14.418  -4.253  1.00 20.00     0.006 C 
HETATM    2  C3  UNL     1     -34.769  14.045  -3.990  1.00 20.00     0.011 C 
HETATM    3  C4  UNL     1     -33.463  16.290  -2.634  1.00 20.00     0.017 C 
HETATM    4  C5  UNL     1     -34.920  15.876  -2.332  1.00 20.00     0.056 C 
HETATM    5  C6  UNL     1     -33.311  15.957  -4.139  1.00 20.00    -0.005 C 
HETATM    6  C7  UNL     1     -35.442  15.430  -3.736  1.00 20.00    -0.027 C 
HETATM    7  C8  UNL     1     -34.682  16.355  -4.739  1.00 20.00    -0.036 C 
HETATM    8  C9  UNL     1     -36.953  15.355  -3.875  1.00 20.00     0.016 C 
HETATM    9  C10 UNL     1     -34.854  15.980  -6.228  1.00 20.00     0.016 C 
HETATM   10  C11 UNL     1     -34.981  17.864  -4.658  1.00 20.00     0.016 C 
ENDROOT
BRANCH   4  11
HETATM   11  C1  UNL     1     -35.684  16.967  -1.643  1.00 20.00     0.236 C 
HETATM   12  O12 UNL     1     -35.715  17.105  -0.425  1.00 20.00    -0.306 OA
ENDBRANCH   4  11
TORSDOF 1
ENDMDL
MODEL 6
REMARK VINA RESULT:      -4.3      1.117      2.527
REMARK  1 active torsions:
REMARK  status: ('A' for Active; 'I' for Inactive)
REMARK    1  A    between atoms: C1_1  and  C5_5 
ROOT
HETATM    1  C2  UNL     1     -34.091  16.527  -2.791  1.00 20.00     0.006 C 
HETATM    2  C3  UNL     1     -35.089  15.362  -2.692  1.00 20.00     0.011 C 
HETATM    3  C4  UNL     1     -35.283  17.407  -4.779  1.00 20.00     0.017 C 
HETATM    4  C5  UNL     1     -36.316  16.268  -4.640  1.00 20.00     0.056 C 
HETATM    5  C6  UNL     1     -33.965  16.742  -4.315  1.00 20.00    -0.005 C 
HETATM    6  C7  UNL     1     -35.431  15.063  -4.184  1.00 20.00    -0.027 C 
HETATM    7  C8  UNL     1     -34.060  15.307  -4.891  1.00 20.00    -0.036 C 
HETATM    8  C9  UNL     1     -36.061  13.692  -4.355  1.00 20.00     0.016 C 
HETATM    9  C10 UNL     1     -32.919  14.368  -4.441  1.00 20.00     0.016 C 
HETATM   10  C11 UNL     1     -34.051  15.256  -6.431  1.00 20.00     0.016 C 
ENDROOT
BRANCH   4  11
HETATM   11  C1  UNL     1     -37.120  16.080  -5.892  1.00 20.00     0.236 C 
HETATM   12  O12 UNL     1     -38.321  15.832  -5.893  1.00 20.00    -0.306 OA
ENDBRANCH   4  11
TORSDOF 1
ENDMDL
MODEL 7
REMARK VINA RESULT:      -4.3      1.167      2.883
REMARK  1 active torsions:
REMARK  status: ('A' for Active; 'I' for Inactive)
REMARK    1  A    between atoms: C1_1  and  C5_5 
ROOT
HETATM    1  C2  UNL     1     -34.416  16.927  -6.099  1.00 20.00     0.006 C 
HETATM    2  C3  UNL     1     -35.049  17.570  -4.854  1.00 20.00     0.011 C 
HETATM    3  C4  UNL     1     -36.152  15.156  -6.093  1.00 20.00     0.017 C 
HETATM    4  C5  UNL     1     -36.816  15.838  -4.877  1.00 20.00     0.056 C 
HETATM    5  C6  UNL     1     -34.644  15.419  -5.860  1.00 20.00    -0.005 C 
HETATM    6  C7  UNL     1     -35.583  16.340  -4.057  1.00 20.00    -0.027 C 
HETATM    7  C8  UNL     1     -34.481  15.267  -4.327  1.00 20.00    -0.036 C 
HETATM    8  C9  UNL     1     -35.865  16.689  -2.606  1.00 20.00     0.016 C 
HETATM    9  C10 UNL     1     -33.075  15.632  -3.801  1.00 20.00     0.016 C 
HETATM   10  C11 UNL     1     -34.755  13.842  -3.812  1.00 20.00     0.016 C 
ENDROOT
BRANCH   4  11
HETATM   11  C1  UNL     1     -37.771  14.924  -4.169  1.00 20.00     0.236 C 
HETATM   12  O12 UNL     1     -37.986  13.768  -4.519  1.00 20.00    -0.306 OA
ENDBRANCH   4  11
TORSDOF 1
ENDMDL
MODEL 8
REMARK VINA RESULT:      -4.2      1.222      2.734
REMARK  1 active torsions:
REMARK  status: ('A' for Active; 'I' for Inactive)
REMARK    1  A    between atoms: C1_1  and  C5_5 
ROOT
HETATM    1  C2  UNL     1     -34.518  17.274  -6.145  1.00 20.00     0.006 C 
HETATM    2  C3  UNL     1     -36.048  17.243  -5.988  1.00 20.00     0.011 C 
HETATM    3  C4  UNL     1     -34.381  14.885  -5.491  1.00 20.00     0.017 C 
HETATM    4  C5  UNL     1     -35.921  14.844  -5.391  1.00 20.00     0.056 C 
HETATM    5  C6  UNL     1     -34.039  16.322  -5.027  1.00 20.00    -0.005 C 
HETATM    6  C7  UNL     1     -36.259  16.252  -4.801  1.00 20.00    -0.027 C 
HETATM    7  C8  UNL     1     -35.044  16.581  -3.877  1.00 20.00    -0.036 C 
HETATM    8  C9  UNL     1     -37.645  16.388  -4.194  1.00 20.00     0.016 C 
HETATM    9  C10 UNL     1     -35.017  18.024  -3.326  1.00 20.00     0.016 C 
HETATM   10  C11 UNL     1     -34.833  15.670  -2.653  1.00 20.00     0.016 C 
ENDROOT
BRANCH   4  11
HETATM   11  C1  UNL     1     -36.405  13.654  -4.617  1.00 20.00     0.236 C 
HETATM   12  O12 UNL     1     -35.765  12.615  -4.505  1.00 20.00    -0.306 OA
ENDBRANCH   4  11
TORSDOF 1
ENDMDL
MODEL 9
REMARK VINA RESULT:      -4.1      2.024      3.487
REMARK  1 active torsions:
REMARK  status: ('A' for Active; 'I' for Inactive)
REMARK    1  A    between atoms: C1_1  and  C5_5 
ROOT
HETATM    1  C2  UNL     1     -37.251  14.410  -4.421  1.00 20.00     0.006 C 
HETATM    2  C3  UNL     1     -37.064  15.909  -4.136  1.00 20.00     0.011 C 
HETATM    3  C4  UNL     1     -34.883  13.979  -3.825  1.00 20.00     0.017 C 
HETATM    4  C5  UNL     1     -34.716  15.475  -3.484  1.00 20.00     0.056 C 
HETATM    5  C6  UNL     1     -35.882  13.999  -5.007  1.00 20.00    -0.005 C 
HETATM    6  C7  UNL     1     -35.591  16.170  -4.578  1.00 20.00    -0.027 C 
HETATM    7  C8  UNL     1     -35.451  15.240  -5.826  1.00 20.00    -0.036 C 
HETATM    8  C9  UNL     1     -35.319  17.650  -4.786  1.00 20.00     0.016 C 
HETATM    9  C10 UNL     1     -36.395  15.582  -7.000  1.00 20.00     0.016 C 
HETATM   10  C11 UNL     1     -34.048  15.116  -6.449  1.00 20.00     0.016 C 
ENDROOT
BRANCH   4  11
HETATM   11  C1  UNL     1     -33.274  15.881  -3.415  1.00 20.00     0.236 C 
HETATM   12  O12 UNL     1     -32.831  16.662  -2.580  1.00 20.00    -0.306 OA
ENDBRANCH   4  11
TORSDOF 1
ENDMDL
