MODEL 1
REMARK VINA RESULT:      -4.4      0.000      0.000
REMARK  3 active torsions:
REMARK  status: ('A' for Active; 'I' for Inactive)
REMARK    1  A    between atoms: C1_1  and  C4_4 
REMARK    2  A    between atoms: C4_4  and  C5_5 
REMARK    3  A    between atoms: C5_5  and  C6_6 
ROOT
HETATM    1  C5  UNL     1     -24.262  18.129   9.960  1.00 20.00     0.035 C 
ENDROOT
BRANCH   1   2
HETATM    2  C4  UNL     1     -22.917  18.517   9.341  1.00 20.00     0.115 C 
BRANCH   2   3
HETATM    3  C1  UNL     1     -22.424  17.584   8.227  1.00 20.00     0.172 C 
HETATM    4  O7  UNL     1     -22.444  18.043   7.052  1.00 20.00    -0.648 OA
HETATM    5  O8  UNL     1     -22.053  16.446   8.636  1.00 20.00    -0.648 OA
ENDBRANCH   2   3
ENDBRANCH   1   2
BRANCH   1   6
HETATM    6  C6  UNL     1     -24.213  17.630  11.423  1.00 20.00     0.030 C 
HETATM    7  C2  UNL     1     -22.783  17.780  11.961  1.00 20.00     0.032 C 
HETATM    8  C3  UNL     1     -25.183  18.391  12.331  1.00 20.00     0.032 C 
HETATM    9 CL9  UNL     1     -24.636  15.880  11.487  1.00 20.00    -0.120 Cl
ENDBRANCH   1   6
TORSDOF 3
ENDMDL
MODEL 2
REMARK VINA RESULT:      -4.4     17.724     18.473
REMARK  3 active torsions:
REMARK  status: ('A' for Active; 'I' for Inactive)
REMARK    1  A    between atoms: C1_1  and  C4_4 
REMARK    2  A    between atoms: C4_4  and  C5_5 
REMARK    3  A    between atoms: C5_5  and  C6_6 
ROOT
HETATM    1  C5  UNL     1     -34.511  15.028  -3.410  1.00 20.00     0.035 C 
ENDROOT
BRANCH   1   2
HETATM    2  C4  UNL     1     -35.462  14.843  -4.594  1.00 20.00     0.115 C 
BRANCH   2   3
HETATM    3  C1  UNL     1     -36.377  13.615  -4.504  1.00 20.00     0.172 C 
HETATM    4  O7  UNL     1     -37.620  13.833  -4.489  1.00 20.00    -0.648 OA
HETATM    5  O8  UNL     1     -35.757  12.514  -4.452  1.00 20.00    -0.648 OA
ENDBRANCH   2   3
ENDBRANCH   1   2
BRANCH   1   6
HETATM    6  C6  UNL     1     -34.444  16.454  -2.815  1.00 20.00     0.030 C 
HETATM    7  C2  UNL     1     -35.155  16.469  -1.455  1.00 20.00     0.032 C 
HETATM    8  C3  UNL     1     -33.003  16.946  -2.643  1.00 20.00     0.032 C 
HETATM    9 CL9  UNL     1     -35.310  17.608  -3.893  1.00 20.00    -0.120 Cl
ENDBRANCH   1   6
TORSDOF 3
ENDMDL
MODEL 3
REMARK VINA RESULT:      -4.4     17.625     18.384
REMARK  3 active torsions:
REMARK  status: ('A' for Active; 'I' for Inactive)
REMARK    1  A    between atoms: C1_1  and  C4_4 
REMARK    2  A    between atoms: C4_4  and  C5_5 
REMARK    3  A    between atoms: C5_5  and  C6_6 
ROOT
HETATM    1  C5  UNL     1     -34.645  15.089  -3.260  1.00 20.00     0.035 C 
ENDROOT
BRANCH   1   2
HETATM    2  C4  UNL     1     -35.549  14.915  -4.483  1.00 20.00     0.115 C 
BRANCH   2   3
HETATM    3  C1  UNL     1     -36.400  13.638  -4.483  1.00 20.00     0.172 C 
HETATM    4  O7  UNL     1     -35.777  12.541  -4.490  1.00 20.00    -0.648 OA
HETATM    5  O8  UNL     1     -37.646  13.850  -4.478  1.00 20.00    -0.648 OA
ENDBRANCH   2   3
ENDBRANCH   1   2
BRANCH   1   6
HETATM    6  C6  UNL     1     -34.529  16.528  -2.707  1.00 20.00     0.030 C 
HETATM    7  C2  UNL     1     -33.047  16.916  -2.611  1.00 20.00     0.032 C 
HETATM    8  C3  UNL     1     -35.268  17.549  -3.578  1.00 20.00     0.032 C 
HETATM    9 CL9  UNL     1     -35.219  16.602  -1.044  1.00 20.00    -0.120 Cl
ENDBRANCH   1   6
TORSDOF 3
ENDMDL
MODEL 4
REMARK VINA RESULT:      -4.3     17.687     18.406
REMARK  3 active torsions:
REMARK  status: ('A' for Active; 'I' for Inactive)
REMARK    1  A    between atoms: C1_1  and  C4_4 
REMARK    2  A    between atoms: C4_4  and  C5_5 
REMARK    3  A    between atoms: C5_5  and  C6_6 
ROOT
HETATM    1  C5  UNL     1     -34.733  15.080  -3.149  1.00 20.00     0.035 C 
ENDROOT
BRANCH   1   2
HETATM    2  C4  UNL     1     -35.512  14.884  -4.452  1.00 20.00     0.115 C 
BRANCH   2   3
HETATM    3  C1  UNL     1     -36.424  13.650  -4.482  1.00 20.00     0.172 C 
HETATM    4  O7  UNL     1     -37.667  13.863  -4.461  1.00 20.00    -0.648 OA
HETATM    5  O8  UNL     1     -35.801  12.551  -4.522  1.00 20.00    -0.648 OA
ENDBRANCH   2   3
ENDBRANCH   1   2
BRANCH   1   6
HETATM    6  C6  UNL     1     -34.620  16.536  -2.643  1.00 20.00     0.030 C 
HETATM    7  C2  UNL     1     -35.403  17.462  -3.584  1.00 20.00     0.032 C 
HETATM    8  C3  UNL     1     -35.147  16.699  -1.214  1.00 20.00     0.032 C 
HETATM    9 CL9  UNL     1     -32.898  17.063  -2.672  1.00 20.00    -0.120 Cl
ENDBRANCH   1   6
TORSDOF 3
ENDMDL
MODEL 5
REMARK VINA RESULT:      -4.3     17.864     18.703
REMARK  3 active torsions:
REMARK  status: ('A' for Active; 'I' for Inactive)
REMARK    1  A    between atoms: C1_1  and  C4_4 
REMARK    2  A    between atoms: C4_4  and  C5_5 
REMARK    3  A    between atoms: C5_5  and  C6_6 
ROOT
HETATM    1  C5  UNL     1     -35.108  15.161  -3.064  1.00 20.00     0.035 C 
ENDROOT
BRANCH   1   2
HETATM    2  C4  UNL     1     -36.245  14.868  -4.046  1.00 20.00     0.115 C 
BRANCH   2   3
HETATM    3  C1  UNL     1     -36.024  13.647  -4.948  1.00 20.00     0.172 C 
HETATM    4  O7  UNL     1     -35.836  12.541  -4.370  1.00 20.00    -0.648 OA
HETATM    5  O8  UNL     1     -36.055  13.908  -6.185  1.00 20.00    -0.648 OA
ENDBRANCH   2   3
ENDBRANCH   1   2
BRANCH   1   6
HETATM    6  C6  UNL     1     -33.872  15.876  -3.658  1.00 20.00     0.030 C 
HETATM    7  C2  UNL     1     -34.317  16.774  -4.821  1.00 20.00     0.032 C 
HETATM    8  C3  UNL     1     -33.132  16.721  -2.616  1.00 20.00     0.032 C 
HETATM    9 CL9  UNL     1     -32.720  14.661  -4.320  1.00 20.00    -0.120 Cl
ENDBRANCH   1   6
TORSDOF 3
ENDMDL
MODEL 6
REMARK VINA RESULT:      -4.3     17.908     18.756
REMARK  3 active torsions:
REMARK  status: ('A' for Active; 'I' for Inactive)
REMARK    1  A    between atoms: C1_1  and  C4_4 
REMARK    2  A    between atoms: C4_4  and  C5_5 
REMARK    3  A    between atoms: C5_5  and  C6_6 
ROOT
HETATM    1  C5  UNL     1     -35.071  15.147  -3.064  1.00 20.00     0.035 C 
ENDROOT
BRANCH   1   2
HETATM    2  C4  UNL     1     -36.242  14.849  -4.003  1.00 20.00     0.115 C 
BRANCH   2   3
HETATM    3  C1  UNL     1     -36.036  13.648  -4.935  1.00 20.00     0.172 C 
HETATM    4  O7  UNL     1     -35.846  12.529  -4.385  1.00 20.00    -0.648 OA
HETATM    5  O8  UNL     1     -36.081  13.938  -6.165  1.00 20.00    -0.648 OA
ENDBRANCH   2   3
ENDBRANCH   1   2
BRANCH   1   6
HETATM    6  C6  UNL     1     -33.836  15.811  -3.716  1.00 20.00     0.030 C 
HETATM    7  C2  UNL     1     -33.137  16.705  -2.682  1.00 20.00     0.032 C 
HETATM    8  C3  UNL     1     -32.839  14.782  -4.257  1.00 20.00     0.032 C 
HETATM    9 CL9  UNL     1     -34.356  16.865  -5.080  1.00 20.00    -0.120 Cl
ENDBRANCH   1   6
TORSDOF 3
ENDMDL
MODEL 7
REMARK VINA RESULT:      -3.9     23.373     23.919
REMARK  3 active torsions:
REMARK  status: ('A' for Active; 'I' for Inactive)
REMARK    1  A    between atoms: C1_1  and  C4_4 
REMARK    2  A    between atoms: C4_4  and  C5_5 
REMARK    3  A    between atoms: C5_5  and  C6_6 
ROOT
HETATM    1  C5  UNL     1     -41.280   7.105  -0.947  1.00 20.00     0.035 C 
ENDROOT
BRANCH   1   2
HETATM    2  C4  UNL     1     -41.261   7.915   0.352  1.00 20.00     0.115 C 
BRANCH   2   3
HETATM    3  C1  UNL     1     -42.021   9.246   0.297  1.00 20.00     0.172 C 
HETATM    4  O7  UNL     1     -41.327  10.298   0.359  1.00 20.00    -0.648 OA
HETATM    5  O8  UNL     1     -43.275   9.119   0.196  1.00 20.00    -0.648 OA
ENDBRANCH   2   3
ENDBRANCH   1   2
BRANCH   1   6
HETATM    6  C6  UNL     1     -42.078   5.782  -0.906  1.00 20.00     0.030 C 
HETATM    7  C2  UNL     1     -42.327   5.386   0.555  1.00 20.00     0.032 C 
HETATM    8  C3  UNL     1     -43.417   5.886  -1.642  1.00 20.00     0.032 C 
HETATM    9 CL9  UNL     1     -41.117   4.463  -1.670  1.00 20.00    -0.120 Cl
ENDBRANCH   1   6
TORSDOF 3
ENDMDL
MODEL 8
REMARK VINA RESULT:      -3.9     23.437     24.013
REMARK  3 active torsions:
REMARK  status: ('A' for Active; 'I' for Inactive)
REMARK    1  A    between atoms: C1_1  and  C4_4 
REMARK    2  A    between atoms: C4_4  and  C5_5 
REMARK    3  A    between atoms: C5_5  and  C6_6 
ROOT
HETATM    1  C5  UNL     1     -42.221   7.220  -1.378  1.00 20.00     0.035 C 
ENDROOT
BRANCH   1   2
HETATM    2  C4  UNL     1     -41.294   8.184  -0.634  1.00 20.00     0.115 C 
BRANCH   2   3
HETATM    3  C1  UNL     1     -42.008   9.295   0.148  1.00 20.00     0.172 C 
HETATM    4  O7  UNL     1     -43.222   9.100   0.429  1.00 20.00    -0.648 OA
HETATM    5  O8  UNL     1     -41.273  10.289   0.414  1.00 20.00    -0.648 OA
ENDBRANCH   2   3
ENDBRANCH   1   2
BRANCH   1   6
HETATM    6  C6  UNL     1     -42.218   5.757  -0.875  1.00 20.00     0.030 C 
HETATM    7  C2  UNL     1     -43.362   4.987  -1.550  1.00 20.00     0.032 C 
HETATM    8  C3  UNL     1     -40.891   5.047  -1.156  1.00 20.00     0.032 C 
HETATM    9 CL9  UNL     1     -42.513   5.721   0.902  1.00 20.00    -0.120 Cl
ENDBRANCH   1   6
TORSDOF 3
ENDMDL
MODEL 9
REMARK VINA RESULT:      -3.7     18.077     18.841
REMARK  3 active torsions:
REMARK  status: ('A' for Active; 'I' for Inactive)
REMARK    1  A    between atoms: C1_1  and  C4_4 
REMARK    2  A    between atoms: C4_4  and  C5_5 
REMARK    3  A    between atoms: C5_5  and  C6_6 
ROOT
HETATM    1  C5  UNL     1     -35.141  16.389  -4.823  1.00 20.00     0.035 C 
ENDROOT
BRANCH   1   2
HETATM    2  C4  UNL     1     -36.436  15.580  -4.715  1.00 20.00     0.115 C 
BRANCH   2   3
HETATM    3  C1  UNL     1     -36.336  14.130  -5.206  1.00 20.00     0.172 C 
HETATM    4  O7  UNL     1     -35.916  13.957  -6.383  1.00 20.00    -0.648 OA
HETATM    5  O8  UNL     1     -36.698  13.271  -4.351  1.00 20.00    -0.648 OA
ENDBRANCH   2   3
ENDBRANCH   1   2
BRANCH   1   6
HETATM    6  C6  UNL     1     -34.104  16.157  -3.699  1.00 20.00     0.030 C 
HETATM    7  C2  UNL     1     -33.237  17.414  -3.542  1.00 20.00     0.032 C 
HETATM    8  C3  UNL     1     -34.764  15.821  -2.358  1.00 20.00     0.032 C 
HETATM    9 CL9  UNL     1     -33.011  14.796  -4.147  1.00 20.00    -0.120 Cl
ENDBRANCH   1   6
TORSDOF 3
ENDMDL
