MODEL 1
REMARK VINA RESULT:      -5.4      0.000      0.000
REMARK  1 active torsions:
REMARK  status: ('A' for Active; 'I' for Inactive)
REMARK    1  A    between atoms: C5_5  and  C10_10 
ROOT
HETATM    1  C6  UNL     1     -33.438  17.958  -0.676  1.00 20.00     0.005 C 
HETATM    2  C7  UNL     1     -32.473  17.723  -1.848  1.00 20.00     0.005 C 
HETATM    3  C8  UNL     1     -35.086  16.326  -1.640  1.00 20.00     0.014 C 
HETATM    4  C9  UNL     1     -34.574  18.372  -2.726  1.00 20.00     0.010 C 
HETATM    5  C10 UNL     1     -34.056  16.008  -2.751  1.00 20.00     0.023 C 
HETATM    6  C11 UNL     1     -34.822  17.810  -1.329  1.00 20.00    -0.013 C 
HETATM    7  C12 UNL     1     -33.426  17.400  -3.019  1.00 20.00    -0.006 C 
ENDROOT
BRANCH   5   8
HETATM    8  C5  UNL     1     -34.689  15.297  -3.935  1.00 20.00    -0.051 A 
HETATM    9  C1  UNL     1     -35.752  14.423  -3.738  1.00 20.00     0.026 A 
HETATM   10  C3  UNL     1     -36.295  13.801  -4.850  1.00 20.00     0.116 A 
HETATM   11  N13 UNL     1     -35.855  13.991  -6.114  1.00 20.00    -0.273 NA
HETATM   12  C4  UNL     1     -34.821  14.848  -6.267  1.00 20.00     0.116 A 
HETATM   13  C2  UNL     1     -34.209  15.519  -5.221  1.00 20.00     0.026 A 
ENDBRANCH   5   8
TORSDOF 1
ENDMDL
MODEL 2
REMARK VINA RESULT:      -5.4      0.003      1.304
REMARK  1 active torsions:
REMARK  status: ('A' for Active; 'I' for Inactive)
REMARK    1  A    between atoms: C5_5  and  C10_10 
ROOT
HETATM    1  C6  UNL     1     -33.439  17.959  -0.675  1.00 20.00     0.005 C 
HETATM    2  C7  UNL     1     -32.475  17.724  -1.848  1.00 20.00     0.005 C 
HETATM    3  C8  UNL     1     -35.087  16.326  -1.639  1.00 20.00     0.014 C 
HETATM    4  C9  UNL     1     -34.576  18.373  -2.724  1.00 20.00     0.010 C 
HETATM    5  C10 UNL     1     -34.058  16.010  -2.751  1.00 20.00     0.023 C 
HETATM    6  C11 UNL     1     -34.823  17.811  -1.327  1.00 20.00    -0.013 C 
HETATM    7  C12 UNL     1     -33.428  17.402  -3.019  1.00 20.00    -0.006 C 
ENDROOT
BRANCH   5   8
HETATM    8  C5  UNL     1     -34.692  15.299  -3.935  1.00 20.00    -0.051 A 
HETATM    9  C1  UNL     1     -34.211  15.519  -5.220  1.00 20.00     0.026 A 
HETATM   10  C3  UNL     1     -34.821  14.846  -6.265  1.00 20.00     0.116 A 
HETATM   11  N13 UNL     1     -35.856  13.989  -6.113  1.00 20.00    -0.273 NA
HETATM   12  C4  UNL     1     -36.296  13.800  -4.849  1.00 20.00     0.116 A 
HETATM   13  C2  UNL     1     -35.754  14.424  -3.737  1.00 20.00     0.026 A 
ENDBRANCH   5   8
TORSDOF 1
ENDMDL
MODEL 3
REMARK VINA RESULT:      -5.2      2.338      4.992
REMARK  1 active torsions:
REMARK  status: ('A' for Active; 'I' for Inactive)
REMARK    1  A    between atoms: C5_5  and  C10_10 
ROOT
HETATM    1  C6  UNL     1     -36.200  13.831  -5.107  1.00 20.00     0.005 C 
HETATM    2  C7  UNL     1     -37.128  14.618  -4.169  1.00 20.00     0.005 C 
HETATM    3  C8  UNL     1     -34.170  14.693  -3.904  1.00 20.00     0.014 C 
HETATM    4  C9  UNL     1     -35.591  16.131  -5.146  1.00 20.00     0.010 C 
HETATM    5  C10 UNL     1     -35.116  15.384  -2.893  1.00 20.00     0.023 C 
HETATM    6  C11 UNL     1     -34.967  14.741  -5.221  1.00 20.00    -0.013 C 
HETATM    7  C12 UNL     1     -36.279  15.856  -3.804  1.00 20.00    -0.006 C 
ENDROOT
BRANCH   5   8
HETATM    8  C5  UNL     1     -34.404  16.449  -2.076  1.00 20.00    -0.051 A 
HETATM    9  C1  UNL     1     -33.132  16.875  -2.441  1.00 20.00     0.026 A 
HETATM   10  C3  UNL     1     -32.526  17.848  -1.665  1.00 20.00     0.116 A 
HETATM   11  N13 UNL     1     -33.095  18.410  -0.574  1.00 20.00    -0.273 NA
HETATM   12  C4  UNL     1     -34.332  17.971  -0.250  1.00 20.00     0.116 A 
HETATM   13  C2  UNL     1     -35.022  17.003  -0.961  1.00 20.00     0.026 A 
ENDBRANCH   5   8
TORSDOF 1
ENDMDL
MODEL 4
REMARK VINA RESULT:      -5.1      3.002      5.465
REMARK  1 active torsions:
REMARK  status: ('A' for Active; 'I' for Inactive)
REMARK    1  A    between atoms: C5_5  and  C10_10 
ROOT
HETATM    1  C6  UNL     1     -35.237  16.139  -4.367  1.00 20.00     0.005 C 
HETATM    2  C7  UNL     1     -34.357  17.375  -4.610  1.00 20.00     0.005 C 
HETATM    3  C8  UNL     1     -34.849  16.290  -1.889  1.00 20.00     0.014 C 
HETATM    4  C9  UNL     1     -33.092  15.781  -3.400  1.00 20.00     0.010 C 
HETATM    5  C10 UNL     1     -34.064  17.601  -2.136  1.00 20.00     0.023 C 
HETATM    6  C11 UNL     1     -34.565  15.466  -3.159  1.00 20.00    -0.013 C 
HETATM    7  C12 UNL     1     -33.325  17.295  -3.464  1.00 20.00    -0.006 C 
ENDROOT
BRANCH   5   8
HETATM    8  C5  UNL     1     -33.207  17.990  -0.943  1.00 20.00    -0.051 A 
HETATM    9  C1  UNL     1     -31.847  18.222  -1.107  1.00 20.00     0.026 A 
HETATM   10  C3  UNL     1     -31.110  18.575   0.011  1.00 20.00     0.116 A 
HETATM   11  N13 UNL     1     -31.632  18.709   1.251  1.00 20.00    -0.273 NA
HETATM   12  C4  UNL     1     -32.957  18.475   1.372  1.00 20.00     0.116 A 
HETATM   13  C2  UNL     1     -33.781  18.117   0.317  1.00 20.00     0.026 A 
ENDBRANCH   5   8
TORSDOF 1
ENDMDL
MODEL 5
REMARK VINA RESULT:      -4.9      1.305      2.065
REMARK  1 active torsions:
REMARK  status: ('A' for Active; 'I' for Inactive)
REMARK    1  A    between atoms: C5_5  and  C10_10 
ROOT
HETATM    1  C6  UNL     1     -32.553  18.625  -2.587  1.00 20.00     0.005 C 
HETATM    2  C7  UNL     1     -33.834  19.158  -3.248  1.00 20.00     0.005 C 
HETATM    3  C8  UNL     1     -33.231  16.255  -3.071  1.00 20.00     0.014 C 
HETATM    4  C9  UNL     1     -34.448  17.618  -1.558  1.00 20.00     0.010 C 
HETATM    5  C10 UNL     1     -34.455  16.807  -3.839  1.00 20.00     0.023 C 
HETATM    6  C11 UNL     1     -33.012  17.298  -1.960  1.00 20.00    -0.013 C 
HETATM    7  C12 UNL     1     -34.856  18.033  -2.977  1.00 20.00    -0.006 C 
ENDROOT
BRANCH   5   8
HETATM    8  C5  UNL     1     -35.519  15.745  -4.065  1.00 20.00    -0.051 A 
HETATM    9  C1  UNL     1     -35.149  14.425  -4.292  1.00 20.00     0.026 A 
HETATM   10  C3  UNL     1     -36.155  13.494  -4.491  1.00 20.00     0.116 A 
HETATM   11  N13 UNL     1     -37.474  13.791  -4.477  1.00 20.00    -0.273 NA
HETATM   12  C4  UNL     1     -37.795  15.085  -4.253  1.00 20.00     0.116 A 
HETATM   13  C2  UNL     1     -36.865  16.090  -4.043  1.00 20.00     0.026 A 
ENDBRANCH   5   8
TORSDOF 1
ENDMDL
MODEL 6
REMARK VINA RESULT:      -4.9      1.266      2.015
REMARK  1 active torsions:
REMARK  status: ('A' for Active; 'I' for Inactive)
REMARK    1  A    between atoms: C5_5  and  C10_10 
ROOT
HETATM    1  C6  UNL     1     -34.731  19.149  -0.002  1.00 20.00     0.005 C 
HETATM    2  C7  UNL     1     -33.441  18.315  -0.009  1.00 20.00     0.005 C 
HETATM    3  C8  UNL     1     -35.775  17.639  -1.717  1.00 20.00     0.014 C 
HETATM    4  C9  UNL     1     -33.901  19.001  -2.227  1.00 20.00     0.010 C 
HETATM    5  C10 UNL     1     -34.519  16.740  -1.627  1.00 20.00     0.023 C 
HETATM    6  C11 UNL     1     -35.217  19.051  -1.457  1.00 20.00    -0.013 C 
HETATM    7  C12 UNL     1     -33.383  17.782  -1.457  1.00 20.00    -0.006 C 
ENDROOT
BRANCH   5   8
HETATM    8  C5  UNL     1     -34.410  15.786  -2.804  1.00 20.00    -0.051 A 
HETATM    9  C1  UNL     1     -33.192  15.610  -3.450  1.00 20.00     0.026 A 
HETATM   10  C3  UNL     1     -33.144  14.728  -4.517  1.00 20.00     0.116 A 
HETATM   11  N13 UNL     1     -34.209  14.028  -4.968  1.00 20.00    -0.273 NA
HETATM   12  C4  UNL     1     -35.376  14.225  -4.316  1.00 20.00     0.116 A 
HETATM   13  C2  UNL     1     -35.528  15.083  -3.240  1.00 20.00     0.026 A 
ENDBRANCH   5   8
TORSDOF 1
ENDMDL
MODEL 7
REMARK VINA RESULT:      -4.8      1.269      1.676
REMARK  1 active torsions:
REMARK  status: ('A' for Active; 'I' for Inactive)
REMARK    1  A    between atoms: C5_5  and  C10_10 
ROOT
HETATM    1  C6  UNL     1     -34.876  18.971   0.205  1.00 20.00     0.005 C 
HETATM    2  C7  UNL     1     -33.515  18.269   0.082  1.00 20.00     0.005 C 
HETATM    3  C8  UNL     1     -35.878  17.438  -1.515  1.00 20.00     0.014 C 
HETATM    4  C9  UNL     1     -34.179  18.998  -2.070  1.00 20.00     0.010 C 
HETATM    5  C10 UNL     1     -34.539  16.664  -1.542  1.00 20.00     0.023 C 
HETATM    6  C11 UNL     1     -35.442  18.886  -1.222  1.00 20.00    -0.013 C 
HETATM    7  C12 UNL     1     -33.499  17.805  -1.391  1.00 20.00    -0.006 C 
ENDROOT
BRANCH   5   8
HETATM    8  C5  UNL     1     -34.414  15.774  -2.768  1.00 20.00    -0.051 A 
HETATM    9  C1  UNL     1     -35.532  15.122  -3.274  1.00 20.00     0.026 A 
HETATM   10  C3  UNL     1     -35.367  14.324  -4.393  1.00 20.00     0.116 A 
HETATM   11  N13 UNL     1     -34.185  14.141  -5.024  1.00 20.00    -0.273 NA
HETATM   12  C4  UNL     1     -33.120  14.790  -4.503  1.00 20.00     0.116 A 
HETATM   13  C2  UNL     1     -33.181  15.610  -3.388  1.00 20.00     0.026 A 
ENDBRANCH   5   8
TORSDOF 1
ENDMDL
MODEL 8
REMARK VINA RESULT:      -4.8      2.654      4.945
REMARK  1 active torsions:
REMARK  status: ('A' for Active; 'I' for Inactive)
REMARK    1  A    between atoms: C5_5  and  C10_10 
ROOT
HETATM    1  C6  UNL     1     -33.931  14.886  -5.013  1.00 20.00     0.005 C 
HETATM    2  C7  UNL     1     -34.692  14.249  -3.840  1.00 20.00     0.005 C 
HETATM    3  C8  UNL     1     -33.307  16.866  -3.597  1.00 20.00     0.014 C 
HETATM    4  C9  UNL     1     -35.558  16.423  -4.202  1.00 20.00     0.010 C 
HETATM    5  C10 UNL     1     -33.973  16.159  -2.392  1.00 20.00     0.023 C 
HETATM    6  C11 UNL     1     -34.152  16.392  -4.794  1.00 20.00    -0.013 C 
HETATM    7  C12 UNL     1     -35.200  15.476  -3.051  1.00 20.00    -0.006 C 
ENDROOT
BRANCH   5   8
HETATM    8  C5  UNL     1     -34.250  17.117  -1.246  1.00 20.00    -0.051 A 
HETATM    9  C1  UNL     1     -35.381  16.951  -0.455  1.00 20.00     0.026 A 
HETATM   10  C3  UNL     1     -35.588  17.850   0.578  1.00 20.00     0.116 A 
HETATM   11  N13 UNL     1     -34.758  18.878   0.865  1.00 20.00    -0.273 NA
HETATM   12  C4  UNL     1     -33.670  19.008   0.074  1.00 20.00     0.116 A 
HETATM   13  C2  UNL     1     -33.373  18.163  -0.983  1.00 20.00     0.026 A 
ENDBRANCH   5   8
TORSDOF 1
ENDMDL
MODEL 9
REMARK VINA RESULT:      -4.7      2.355      4.791
REMARK  1 active torsions:
REMARK  status: ('A' for Active; 'I' for Inactive)
REMARK    1  A    between atoms: C5_5  and  C10_10 
ROOT
HETATM    1  C6  UNL     1     -35.600  14.390  -5.686  1.00 20.00     0.005 C 
HETATM    2  C7  UNL     1     -34.266  15.135  -5.850  1.00 20.00     0.005 C 
HETATM    3  C8  UNL     1     -36.003  15.497  -3.467  1.00 20.00     0.014 C 
HETATM    4  C9  UNL     1     -34.223  13.963  -3.793  1.00 20.00     0.010 C 
HETATM    5  C10 UNL     1     -34.720  16.330  -3.699  1.00 20.00     0.023 C 
HETATM    6  C11 UNL     1     -35.688  14.162  -4.168  1.00 20.00    -0.013 C 
HETATM    7  C12 UNL     1     -33.785  15.305  -4.392  1.00 20.00    -0.006 C 
ENDROOT
BRANCH   5   8
HETATM    8  C5  UNL     1     -34.212  16.970  -2.417  1.00 20.00    -0.051 A 
HETATM    9  C1  UNL     1     -35.037  17.049  -1.302  1.00 20.00     0.026 A 
HETATM   10  C3  UNL     1     -34.527  17.640  -0.158  1.00 20.00     0.116 A 
HETATM   11  N13 UNL     1     -33.277  18.145  -0.060  1.00 20.00    -0.273 NA
HETATM   12  C4  UNL     1     -32.504  18.050  -1.165  1.00 20.00     0.116 A 
HETATM   13  C2  UNL     1     -32.919  17.478  -2.356  1.00 20.00     0.026 A 
ENDBRANCH   5   8
TORSDOF 1
ENDMDL
