MODEL 1
REMARK VINA RESULT:      -4.6      0.000      0.000
REMARK  2 active torsions:
REMARK  status: ('A' for Active; 'I' for Inactive)
REMARK    1  A    between atoms: C1_1  and  C5_5 
REMARK    2  A    between atoms: C5_5  and  C6_6 
ROOT
HETATM    1  C2  UNL     1     -33.368   5.114   2.291  1.00 20.00     0.019 C 
HETATM    2  C5  UNL     1     -33.035   5.952   3.526  1.00 20.00     0.071 C 
ENDROOT
BRANCH   2   3
HETATM    3  C1  UNL     1     -32.292   7.197   3.040  1.00 20.00     0.223 C 
HETATM    4  O7  UNL     1     -31.444   7.759   3.729  1.00 20.00    -0.279 OA
HETATM    5 CL8  UNL     1     -32.804   7.710   1.457  1.00 20.00    -0.043 Cl
ENDBRANCH   2   3
BRANCH   2   6
HETATM    6  C6  UNL     1     -34.283   6.352   4.352  1.00 20.00    -0.011 C 
HETATM    7  C3  UNL     1     -35.318   5.225   4.425  1.00 20.00     0.010 C 
HETATM    8  C4  UNL     1     -33.890   6.757   5.780  1.00 20.00     0.010 C 
ENDBRANCH   2   6
TORSDOF 2
ENDMDL
MODEL 2
REMARK VINA RESULT:      -4.4      2.360      3.301
REMARK  2 active torsions:
REMARK  status: ('A' for Active; 'I' for Inactive)
REMARK    1  A    between atoms: C1_1  and  C5_5 
REMARK    2  A    between atoms: C5_5  and  C6_6 
ROOT
HETATM    1  C2  UNL     1     -35.391   5.382   3.829  1.00 20.00     0.019 C 
HETATM    2  C5  UNL     1     -34.269   6.406   4.014  1.00 20.00     0.071 C 
ENDROOT
BRANCH   2   3
HETATM    3  C1  UNL     1     -33.947   6.458   5.508  1.00 20.00     0.223 C 
HETATM    4  O7  UNL     1     -33.212   7.320   5.985  1.00 20.00    -0.279 OA
HETATM    5 CL8  UNL     1     -34.706   5.173   6.404  1.00 20.00    -0.043 Cl
ENDBRANCH   2   3
BRANCH   2   6
HETATM    6  C6  UNL     1     -32.995   6.075   3.195  1.00 20.00    -0.011 C 
HETATM    7  C3  UNL     1     -33.159   4.809   2.349  1.00 20.00     0.010 C 
HETATM    8  C4  UNL     1     -32.619   7.243   2.272  1.00 20.00     0.010 C 
ENDBRANCH   2   6
TORSDOF 2
ENDMDL
MODEL 3
REMARK VINA RESULT:      -4.3     11.339     11.818
REMARK  2 active torsions:
REMARK  status: ('A' for Active; 'I' for Inactive)
REMARK    1  A    between atoms: C1_1  and  C5_5 
REMARK    2  A    between atoms: C5_5  and  C6_6 
ROOT
HETATM    1  C2  UNL     1     -34.553  14.869  -5.874  1.00 20.00     0.019 C 
HETATM    2  C5  UNL     1     -35.333  15.059  -4.572  1.00 20.00     0.071 C 
ENDROOT
BRANCH   2   3
HETATM    3  C1  UNL     1     -36.310  13.888  -4.456  1.00 20.00     0.223 C 
HETATM    4  O7  UNL     1     -35.933  12.719  -4.513  1.00 20.00    -0.279 OA
HETATM    5 CL8  UNL     1     -37.960  14.406  -4.267  1.00 20.00    -0.043 Cl
ENDBRANCH   2   3
BRANCH   2   6
HETATM    6  C6  UNL     1     -34.425  15.136  -3.318  1.00 20.00    -0.011 C 
HETATM    7  C3  UNL     1     -33.066  15.774  -3.621  1.00 20.00     0.010 C 
HETATM    8  C4  UNL     1     -35.107  15.931  -2.195  1.00 20.00     0.010 C 
ENDBRANCH   2   6
TORSDOF 2
ENDMDL
MODEL 4
REMARK VINA RESULT:      -4.3      1.474      2.304
REMARK  2 active torsions:
REMARK  status: ('A' for Active; 'I' for Inactive)
REMARK    1  A    between atoms: C1_1  and  C5_5 
REMARK    2  A    between atoms: C5_5  and  C6_6 
ROOT
HETATM    1  C2  UNL     1     -33.163   7.329   5.330  1.00 20.00     0.019 C 
HETATM    2  C5  UNL     1     -33.929   6.674   4.179  1.00 20.00     0.071 C 
ENDROOT
BRANCH   2   3
HETATM    3  C1  UNL     1     -32.929   6.441   3.046  1.00 20.00     0.223 C 
HETATM    4  O7  UNL     1     -32.182   7.331   2.646  1.00 20.00    -0.279 OA
HETATM    5 CL8  UNL     1     -33.003   4.825   2.405  1.00 20.00    -0.043 Cl
ENDBRANCH   2   3
BRANCH   2   6
HETATM    6  C6  UNL     1     -34.617   5.344   4.578  1.00 20.00    -0.011 C 
HETATM    7  C3  UNL     1     -34.697   5.163   6.098  1.00 20.00     0.010 C 
HETATM    8  C4  UNL     1     -36.034   5.262   3.993  1.00 20.00     0.010 C 
ENDBRANCH   2   6
TORSDOF 2
ENDMDL
MODEL 5
REMARK VINA RESULT:      -4.1     11.354     11.930
REMARK  2 active torsions:
REMARK  status: ('A' for Active; 'I' for Inactive)
REMARK    1  A    between atoms: C1_1  and  C5_5 
REMARK    2  A    between atoms: C5_5  and  C6_6 
ROOT
HETATM    1  C2  UNL     1     -36.328  16.342  -4.692  1.00 20.00     0.019 C 
HETATM    2  C5  UNL     1     -36.072  15.080  -3.866  1.00 20.00     0.071 C 
ENDROOT
BRANCH   2   3
HETATM    3  C1  UNL     1     -35.927  13.918  -4.850  1.00 20.00     0.223 C 
HETATM    4  O7  UNL     1     -35.922  12.747  -4.476  1.00 20.00    -0.279 OA
HETATM    5 CL8  UNL     1     -35.751  14.450  -6.497  1.00 20.00    -0.043 Cl
ENDBRANCH   2   3
BRANCH   2   6
HETATM    6  C6  UNL     1     -34.820  15.184  -2.958  1.00 20.00    -0.011 C 
HETATM    7  C3  UNL     1     -33.550  15.500  -3.753  1.00 20.00     0.010 C 
HETATM    8  C4  UNL     1     -35.012  16.260  -1.880  1.00 20.00     0.010 C 
ENDBRANCH   2   6
TORSDOF 2
ENDMDL
MODEL 6
REMARK VINA RESULT:      -4.1      0.712      1.995
REMARK  2 active torsions:
REMARK  status: ('A' for Active; 'I' for Inactive)
REMARK    1  A    between atoms: C1_1  and  C5_5 
REMARK    2  A    between atoms: C5_5  and  C6_6 
ROOT
HETATM    1  C2  UNL     1     -33.555   6.909   5.359  1.00 20.00     0.019 C 
HETATM    2  C5  UNL     1     -33.805   6.865   3.850  1.00 20.00     0.071 C 
ENDROOT
BRANCH   2   3
HETATM    3  C1  UNL     1     -32.520   7.331   3.165  1.00 20.00     0.223 C 
HETATM    4  O7  UNL     1     -31.455   7.418   3.772  1.00 20.00    -0.279 OA
HETATM    5 CL8  UNL     1     -32.760   7.733   1.489  1.00 20.00    -0.043 Cl
ENDBRANCH   2   3
BRANCH   2   6
HETATM    6  C6  UNL     1     -34.216   5.461   3.338  1.00 20.00    -0.011 C 
HETATM    7  C3  UNL     1     -33.058   4.732   2.649  1.00 20.00     0.010 C 
HETATM    8  C4  UNL     1     -34.739   4.588   4.488  1.00 20.00     0.010 C 
ENDBRANCH   2   6
TORSDOF 2
ENDMDL
MODEL 7
REMARK VINA RESULT:      -3.9      2.858      3.956
REMARK  2 active torsions:
REMARK  status: ('A' for Active; 'I' for Inactive)
REMARK    1  A    between atoms: C1_1  and  C5_5 
REMARK    2  A    between atoms: C5_5  and  C6_6 
ROOT
HETATM    1  C2  UNL     1     -33.295   7.328   5.073  1.00 20.00     0.019 C 
HETATM    2  C5  UNL     1     -33.531   5.999   4.352  1.00 20.00     0.071 C 
ENDROOT
BRANCH   2   3
HETATM    3  C1  UNL     1     -34.910   5.493   4.778  1.00 20.00     0.223 C 
HETATM    4  O7  UNL     1     -35.856   5.446   3.995  1.00 20.00    -0.279 OA
HETATM    5 CL8  UNL     1     -34.969   5.038   6.457  1.00 20.00    -0.043 Cl
ENDBRANCH   2   3
BRANCH   2   6
HETATM    6  C6  UNL     1     -33.448   6.114   2.809  1.00 20.00    -0.011 C 
HETATM    7  C3  UNL     1     -32.439   7.176   2.358  1.00 20.00     0.010 C 
HETATM    8  C4  UNL     1     -33.066   4.767   2.178  1.00 20.00     0.010 C 
ENDBRANCH   2   6
TORSDOF 2
ENDMDL
MODEL 8
REMARK VINA RESULT:      -3.8     11.210     11.892
REMARK  2 active torsions:
REMARK  status: ('A' for Active; 'I' for Inactive)
REMARK    1  A    between atoms: C1_1  and  C5_5 
REMARK    2  A    between atoms: C5_5  and  C6_6 
ROOT
HETATM    1  C2  UNL     1     -35.865  15.927  -3.106  1.00 20.00     0.019 C 
HETATM    2  C5  UNL     1     -35.145  14.618  -3.437  1.00 20.00     0.071 C 
ENDROOT
BRANCH   2   3
HETATM    3  C1  UNL     1     -36.115  13.764  -4.255  1.00 20.00     0.223 C 
HETATM    4  O7  UNL     1     -35.845  12.612  -4.587  1.00 20.00    -0.279 OA
HETATM    5 CL8  UNL     1     -37.580  14.611  -4.659  1.00 20.00    -0.043 Cl
ENDBRANCH   2   3
BRANCH   2   6
HETATM    6  C6  UNL     1     -33.818  14.825  -4.210  1.00 20.00    -0.011 C 
HETATM    7  C3  UNL     1     -34.052  15.213  -5.674  1.00 20.00     0.010 C 
HETATM    8  C4  UNL     1     -32.957  15.907  -3.542  1.00 20.00     0.010 C 
ENDBRANCH   2   6
TORSDOF 2
ENDMDL
MODEL 9
REMARK VINA RESULT:      -3.8     15.547     16.278
REMARK  2 active torsions:
REMARK  status: ('A' for Active; 'I' for Inactive)
REMARK    1  A    between atoms: C1_1  and  C5_5 
REMARK    2  A    between atoms: C5_5  and  C6_6 
ROOT
HETATM    1  C2  UNL     1     -25.027  19.254   9.231  1.00 20.00     0.019 C 
HETATM    2  C5  UNL     1     -24.293  17.924   9.415  1.00 20.00     0.071 C 
ENDROOT
BRANCH   2   3
HETATM    3  C1  UNL     1     -22.941  18.053   8.713  1.00 20.00     0.223 C 
HETATM    4  O7  UNL     1     -22.850  18.156   7.491  1.00 20.00    -0.279 OA
HETATM    5 CL8  UNL     1     -21.601  18.012   9.822  1.00 20.00    -0.043 Cl
ENDBRANCH   2   3
BRANCH   2   6
HETATM    6  C6  UNL     1     -24.098  17.532  10.902  1.00 20.00    -0.011 C 
HETATM    7  C3  UNL     1     -24.921  18.411  11.849  1.00 20.00     0.010 C 
HETATM    8  C4  UNL     1     -24.477  16.062  11.135  1.00 20.00     0.010 C 
ENDBRANCH   2   6
TORSDOF 2
ENDMDL
