MODEL 1
REMARK VINA RESULT:      -4.6      0.000      0.000
REMARK  5 active torsions:
REMARK  status: ('A' for Active; 'I' for Inactive)
REMARK    1  A    between atoms: C2_2  and  C5_5 
REMARK    2  A    between atoms: C5_5  and  C8_8 
REMARK    3  A    between atoms: C6_6  and  C7_7 
REMARK    4  A    between atoms: C7_7  and  C8_8 
REMARK    5  A    between atoms: C8_8  and  O9_9 
ROOT
HETATM    1  C1  UNL     1     -32.935   6.520   2.298  1.00 20.00    -0.111 C 
HETATM    2  C2  UNL     1     -33.364   5.500   2.765  1.00 20.00    -0.104 C 
HETATM    3  C3  UNL     1     -32.409   7.759   1.728  1.00 20.00     0.112 C 
ENDROOT
BRANCH   2   4
HETATM    4  C5  UNL     1     -33.889   4.253   3.342  1.00 20.00     0.125 C 
BRANCH   4   5
HETATM    5  C8  UNL     1     -34.897   4.493   4.473  1.00 20.00     0.129 C 
BRANCH   5   6
HETATM    6  C7  UNL     1     -34.301   4.910   5.824  1.00 20.00     0.032 C 
BRANCH   6   7
HETATM    7  C6  UNL     1     -34.564   6.372   6.182  1.00 20.00    -0.002 C 
HETATM    8  C4  UNL     1     -33.356   7.244   5.877  1.00 20.00     0.005 C 
ENDBRANCH   6   7
ENDBRANCH   5   6
BRANCH   5   9
HETATM    9  O9  UNL     1     -35.822   5.509   4.082  1.00 20.00    -0.395 OA
HETATM   10  H23 UNL     1     -35.381   6.029   3.394  1.00 20.00     0.210 HD
ENDBRANCH   5   9
ENDBRANCH   4   5
ENDBRANCH   2   4
TORSDOF 5
ENDMDL
MODEL 2
REMARK VINA RESULT:      -4.4      1.579      2.337
REMARK  5 active torsions:
REMARK  status: ('A' for Active; 'I' for Inactive)
REMARK    1  A    between atoms: C2_2  and  C5_5 
REMARK    2  A    between atoms: C5_5  and  C8_8 
REMARK    3  A    between atoms: C6_6  and  C7_7 
REMARK    4  A    between atoms: C7_7  and  C8_8 
REMARK    5  A    between atoms: C8_8  and  O9_9 
ROOT
HETATM    1  C1  UNL     1     -32.900   8.192   0.961  1.00 20.00    -0.111 C 
HETATM    2  C2  UNL     1     -32.675   7.580   1.969  1.00 20.00    -0.104 C 
HETATM    3  C3  UNL     1     -33.175   8.934  -0.269  1.00 20.00     0.112 C 
ENDROOT
BRANCH   2   4
HETATM    4  C5  UNL     1     -32.396   6.831   3.204  1.00 20.00     0.125 C 
BRANCH   4   5
HETATM    5  C8  UNL     1     -33.224   5.546   3.326  1.00 20.00     0.129 C 
BRANCH   5   6
HETATM    6  C7  UNL     1     -34.663   5.722   3.827  1.00 20.00     0.032 C 
BRANCH   6   7
HETATM    7  C6  UNL     1     -34.843   5.373   5.304  1.00 20.00    -0.002 C 
HETATM    8  C4  UNL     1     -34.252   6.447   6.204  1.00 20.00     0.005 C 
ENDBRANCH   6   7
ENDBRANCH   5   6
BRANCH   5   9
HETATM    9  O9  UNL     1     -33.291   4.897   2.054  1.00 20.00    -0.395 OA
HETATM   10  H23 UNL     1     -32.656   5.353   1.483  1.00 20.00     0.210 HD
ENDBRANCH   5   9
ENDBRANCH   4   5
ENDBRANCH   2   4
TORSDOF 5
ENDMDL
MODEL 3
REMARK VINA RESULT:      -4.1      1.789      2.765
REMARK  5 active torsions:
REMARK  status: ('A' for Active; 'I' for Inactive)
REMARK    1  A    between atoms: C2_2  and  C5_5 
REMARK    2  A    between atoms: C5_5  and  C8_8 
REMARK    3  A    between atoms: C6_6  and  C7_7 
REMARK    4  A    between atoms: C7_7  and  C8_8 
REMARK    5  A    between atoms: C8_8  and  O9_9 
ROOT
HETATM    1  C1  UNL     1     -32.902   8.380   0.674  1.00 20.00    -0.111 C 
HETATM    2  C2  UNL     1     -32.571   7.824   1.685  1.00 20.00    -0.104 C 
HETATM    3  C3  UNL     1     -33.301   9.059  -0.558  1.00 20.00     0.112 C 
ENDROOT
BRANCH   2   4
HETATM    4  C5  UNL     1     -32.169   7.145   2.926  1.00 20.00     0.125 C 
BRANCH   4   5
HETATM    5  C8  UNL     1     -33.343   6.894   3.881  1.00 20.00     0.129 C 
BRANCH   5   6
HETATM    6  C7  UNL     1     -33.942   5.481   3.848  1.00 20.00     0.032 C 
BRANCH   6   7
HETATM    7  C6  UNL     1     -35.200   5.331   4.701  1.00 20.00    -0.002 C 
HETATM    8  C4  UNL     1     -34.856   4.995   6.144  1.00 20.00     0.005 C 
ENDBRANCH   6   7
ENDBRANCH   5   6
BRANCH   5   9
HETATM    9  O9  UNL     1     -32.932   7.152   5.224  1.00 20.00    -0.395 OA
HETATM   10  H23 UNL     1     -33.709   7.003   5.781  1.00 20.00     0.210 HD
ENDBRANCH   5   9
ENDBRANCH   4   5
ENDBRANCH   2   4
TORSDOF 5
ENDMDL
MODEL 4
REMARK VINA RESULT:      -4.0     11.808     13.050
REMARK  5 active torsions:
REMARK  status: ('A' for Active; 'I' for Inactive)
REMARK    1  A    between atoms: C2_2  and  C5_5 
REMARK    2  A    between atoms: C5_5  and  C8_8 
REMARK    3  A    between atoms: C6_6  and  C7_7 
REMARK    4  A    between atoms: C7_7  and  C8_8 
REMARK    5  A    between atoms: C8_8  and  O9_9 
ROOT
HETATM    1  C1  UNL     1     -34.936  16.212  -1.869  1.00 20.00    -0.111 C 
HETATM    2  C2  UNL     1     -34.722  15.448  -2.770  1.00 20.00    -0.104 C 
HETATM    3  C3  UNL     1     -35.195  17.141  -0.770  1.00 20.00     0.112 C 
ENDROOT
BRANCH   2   4
HETATM    4  C5  UNL     1     -34.463  14.509  -3.872  1.00 20.00     0.125 C 
BRANCH   4   5
HETATM    5  C8  UNL     1     -35.738  14.091  -4.616  1.00 20.00     0.129 C 
BRANCH   5   6
HETATM    6  C7  UNL     1     -35.805  14.478  -6.099  1.00 20.00     0.032 C 
BRANCH   6   7
HETATM    7  C6  UNL     1     -34.881  15.637  -6.470  1.00 20.00    -0.002 C 
HETATM    8  C4  UNL     1     -33.863  15.220  -7.520  1.00 20.00     0.005 C 
ENDBRANCH   6   7
ENDBRANCH   5   6
BRANCH   5   9
HETATM    9  O9  UNL     1     -35.896  12.673  -4.537  1.00 20.00    -0.395 OA
HETATM   10  H23 UNL     1     -35.137  12.343  -4.034  1.00 20.00     0.210 HD
ENDBRANCH   5   9
ENDBRANCH   4   5
ENDBRANCH   2   4
TORSDOF 5
ENDMDL
MODEL 5
REMARK VINA RESULT:      -4.0     15.820     16.804
REMARK  5 active torsions:
REMARK  status: ('A' for Active; 'I' for Inactive)
REMARK    1  A    between atoms: C2_2  and  C5_5 
REMARK    2  A    between atoms: C5_5  and  C8_8 
REMARK    3  A    between atoms: C6_6  and  C7_7 
REMARK    4  A    between atoms: C7_7  and  C8_8 
REMARK    5  A    between atoms: C8_8  and  O9_9 
ROOT
HETATM    1  C1  UNL     1     -24.959  18.871   7.710  1.00 20.00    -0.111 C 
HETATM    2  C2  UNL     1     -23.988  18.786   8.413  1.00 20.00    -0.104 C 
HETATM    3  C3  UNL     1     -26.141  18.978   6.857  1.00 20.00     0.112 C 
ENDROOT
BRANCH   2   4
HETATM    4  C5  UNL     1     -22.802  18.678   9.276  1.00 20.00     0.125 C 
BRANCH   4   5
HETATM    5  C8  UNL     1     -22.760  17.372  10.078  1.00 20.00     0.129 C 
BRANCH   5   6
HETATM    6  C7  UNL     1     -24.039  17.019  10.848  1.00 20.00     0.032 C 
BRANCH   6   7
HETATM    7  C6  UNL     1     -24.288  17.914  12.061  1.00 20.00    -0.002 C 
HETATM    8  C4  UNL     1     -25.620  18.640  11.950  1.00 20.00     0.005 C 
ENDBRANCH   6   7
ENDBRANCH   5   6
BRANCH   5   9
HETATM    9  O9  UNL     1     -22.476  16.281   9.200  1.00 20.00    -0.395 OA
HETATM   10  H23 UNL     1     -21.820  16.605   8.566  1.00 20.00     0.210 HD
ENDBRANCH   5   9
ENDBRANCH   4   5
ENDBRANCH   2   4
TORSDOF 5
ENDMDL
MODEL 6
REMARK VINA RESULT:      -4.0     12.240     13.098
REMARK  5 active torsions:
REMARK  status: ('A' for Active; 'I' for Inactive)
REMARK    1  A    between atoms: C2_2  and  C5_5 
REMARK    2  A    between atoms: C5_5  and  C8_8 
REMARK    3  A    between atoms: C6_6  and  C7_7 
REMARK    4  A    between atoms: C7_7  and  C8_8 
REMARK    5  A    between atoms: C8_8  and  O9_9 
ROOT
HETATM    1  C1  UNL     1     -34.595  16.454  -1.842  1.00 20.00    -0.111 C 
HETATM    2  C2  UNL     1     -33.919  16.009  -2.730  1.00 20.00    -0.104 C 
HETATM    3  C3  UNL     1     -35.421  16.993  -0.762  1.00 20.00     0.112 C 
ENDROOT
BRANCH   2   4
HETATM    4  C5  UNL     1     -33.092  15.469  -3.819  1.00 20.00     0.125 C 
BRANCH   4   5
HETATM    5  C8  UNL     1     -33.921  14.846  -4.949  1.00 20.00     0.129 C 
BRANCH   5   6
HETATM    6  C7  UNL     1     -35.061  15.713  -5.498  1.00 20.00     0.032 C 
BRANCH   6   7
HETATM    7  C6  UNL     1     -36.442  15.075  -5.346  1.00 20.00    -0.002 C 
HETATM    8  C4  UNL     1     -36.374  13.796  -4.527  1.00 20.00     0.005 C 
ENDBRANCH   6   7
ENDBRANCH   5   6
BRANCH   5   9
HETATM    9  O9  UNL     1     -33.065  14.521  -6.047  1.00 20.00    -0.395 OA
HETATM   10  H23 UNL     1     -33.083  15.284  -6.642  1.00 20.00     0.210 HD
ENDBRANCH   5   9
ENDBRANCH   4   5
ENDBRANCH   2   4
TORSDOF 5
ENDMDL
MODEL 7
REMARK VINA RESULT:      -3.9      2.026      4.667
REMARK  5 active torsions:
REMARK  status: ('A' for Active; 'I' for Inactive)
REMARK    1  A    between atoms: C2_2  and  C5_5 
REMARK    2  A    between atoms: C5_5  and  C8_8 
REMARK    3  A    between atoms: C6_6  and  C7_7 
REMARK    4  A    between atoms: C7_7  and  C8_8 
REMARK    5  A    between atoms: C8_8  and  O9_9 
ROOT
HETATM    1  C1  UNL     1     -34.331   5.563   4.722  1.00 20.00    -0.111 C 
HETATM    2  C2  UNL     1     -33.781   5.701   3.664  1.00 20.00    -0.104 C 
HETATM    3  C3  UNL     1     -35.005   5.398   6.009  1.00 20.00     0.112 C 
ENDROOT
BRANCH   2   4
HETATM    4  C5  UNL     1     -33.103   5.872   2.369  1.00 20.00     0.125 C 
BRANCH   4   5
HETATM    5  C8  UNL     1     -32.342   7.200   2.262  1.00 20.00     0.129 C 
BRANCH   5   6
HETATM    6  C7  UNL     1     -33.203   8.447   2.020  1.00 20.00     0.032 C 
BRANCH   6   7
HETATM    7  C6  UNL     1     -32.847   9.195   0.735  1.00 20.00    -0.002 C 
HETATM    8  C4  UNL     1     -33.359   8.460  -0.494  1.00 20.00     0.005 C 
ENDBRANCH   6   7
ENDBRANCH   5   6
BRANCH   5   9
HETATM    9  O9  UNL     1     -31.597   7.422   3.461  1.00 20.00    -0.395 OA
HETATM   10  H23 UNL     1     -32.150   7.102   4.189  1.00 20.00     0.210 HD
ENDBRANCH   5   9
ENDBRANCH   4   5
ENDBRANCH   2   4
TORSDOF 5
ENDMDL
MODEL 8
REMARK VINA RESULT:      -3.8      1.680      2.723
REMARK  5 active torsions:
REMARK  status: ('A' for Active; 'I' for Inactive)
REMARK    1  A    between atoms: C2_2  and  C5_5 
REMARK    2  A    between atoms: C5_5  and  C8_8 
REMARK    3  A    between atoms: C6_6  and  C7_7 
REMARK    4  A    between atoms: C7_7  and  C8_8 
REMARK    5  A    between atoms: C8_8  and  O9_9 
ROOT
HETATM    1  C1  UNL     1     -32.815   8.104   1.214  1.00 20.00    -0.111 C 
HETATM    2  C2  UNL     1     -32.663   7.538   2.262  1.00 20.00    -0.104 C 
HETATM    3  C3  UNL     1     -32.996   8.791  -0.064  1.00 20.00     0.112 C 
ENDROOT
BRANCH   2   4
HETATM    4  C5  UNL     1     -32.477   6.849   3.548  1.00 20.00     0.125 C 
BRANCH   4   5
HETATM    5  C8  UNL     1     -33.628   7.093   4.532  1.00 20.00     0.129 C 
BRANCH   5   6
HETATM    6  C7  UNL     1     -34.872   6.216   4.337  1.00 20.00     0.032 C 
BRANCH   6   7
HETATM    7  C6  UNL     1     -34.732   4.816   4.934  1.00 20.00    -0.002 C 
HETATM    8  C4  UNL     1     -34.128   3.844   3.933  1.00 20.00     0.005 C 
ENDBRANCH   6   7
ENDBRANCH   5   6
BRANCH   5   9
HETATM    9  O9  UNL     1     -33.167   6.889   5.869  1.00 20.00    -0.395 OA
HETATM   10  H23 UNL     1     -32.201   6.846   5.820  1.00 20.00     0.210 HD
ENDBRANCH   5   9
ENDBRANCH   4   5
ENDBRANCH   2   4
TORSDOF 5
ENDMDL
MODEL 9
REMARK VINA RESULT:      -3.8      9.361     10.048
REMARK  5 active torsions:
REMARK  status: ('A' for Active; 'I' for Inactive)
REMARK    1  A    between atoms: C2_2  and  C5_5 
REMARK    2  A    between atoms: C5_5  and  C8_8 
REMARK    3  A    between atoms: C6_6  and  C7_7 
REMARK    4  A    between atoms: C7_7  and  C8_8 
REMARK    5  A    between atoms: C8_8  and  O9_9 
ROOT
HETATM    1  C1  UNL     1     -42.172   2.823  -3.354  1.00 20.00    -0.111 C 
HETATM    2  C2  UNL     1     -42.447   3.674  -2.553  1.00 20.00    -0.104 C 
HETATM    3  C3  UNL     1     -41.842   1.785  -4.329  1.00 20.00     0.112 C 
ENDROOT
BRANCH   2   4
HETATM    4  C5  UNL     1     -42.781   4.715  -1.568  1.00 20.00     0.125 C 
BRANCH   4   5
HETATM    5  C8  UNL     1     -41.552   5.489  -1.074  1.00 20.00     0.129 C 
BRANCH   5   6
HETATM    6  C7  UNL     1     -41.587   5.936   0.393  1.00 20.00     0.032 C 
BRANCH   6   7
HETATM    7  C6  UNL     1     -41.480   7.450   0.574  1.00 20.00    -0.002 C 
HETATM    8  C4  UNL     1     -41.345   8.160  -0.764  1.00 20.00     0.005 C 
ENDBRANCH   6   7
ENDBRANCH   5   6
BRANCH   5   9
HETATM    9  O9  UNL     1     -40.381   4.689  -1.249  1.00 20.00    -0.395 OA
HETATM   10  H23 UNL     1     -39.960   4.996  -2.065  1.00 20.00     0.210 HD
ENDBRANCH   5   9
ENDBRANCH   4   5
ENDBRANCH   2   4
TORSDOF 5
ENDMDL
