MODEL 1
REMARK VINA RESULT:      -5.3      0.000      0.000
REMARK  2 active torsions:
REMARK  status: ('A' for Active; 'I' for Inactive)
REMARK    1  A    between atoms: C2_2  and  C3_3 
REMARK    2  A    between atoms: C3_3  and  C4_4 
ROOT
HETATM    1  C3  UNL     1     -33.853   6.240   4.374  1.00 20.00     0.254 C 
HETATM    2  O5  UNL     1     -33.546   7.075   5.221  1.00 20.00    -0.283 OA
ENDROOT
BRANCH   1   3
HETATM    3  C2  UNL     1     -33.220   6.203   3.030  1.00 20.00     0.049 C 
HETATM    4  C1  UNL     1     -32.428   7.196   2.617  1.00 20.00     0.015 C 
ENDBRANCH   1   3
BRANCH   1   5
HETATM    5  C4  UNL     1     -34.895   5.193   4.642  1.00 20.00     0.455 C 
HETATM    6  F6  UNL     1     -34.535   3.981   4.149  1.00 20.00    -0.163 F 
HETATM    7  F7  UNL     1     -35.119   5.028   5.971  1.00 20.00    -0.163 F 
HETATM    8  F8  UNL     1     -36.089   5.507   4.080  1.00 20.00    -0.163 F 
ENDBRANCH   1   5
TORSDOF 2
ENDMDL
MODEL 2
REMARK VINA RESULT:      -5.2      0.006      1.335
REMARK  2 active torsions:
REMARK  status: ('A' for Active; 'I' for Inactive)
REMARK    1  A    between atoms: C2_2  and  C3_3 
REMARK    2  A    between atoms: C3_3  and  C4_4 
ROOT
HETATM    1  C3  UNL     1     -33.854   6.239   4.369  1.00 20.00     0.254 C 
HETATM    2  O5  UNL     1     -33.546   7.075   5.213  1.00 20.00    -0.283 OA
ENDROOT
BRANCH   1   3
HETATM    3  C2  UNL     1     -33.223   6.199   3.023  1.00 20.00     0.049 C 
HETATM    4  C1  UNL     1     -32.433   7.193   2.608  1.00 20.00     0.015 C 
ENDBRANCH   1   3
BRANCH   1   5
HETATM    5  C4  UNL     1     -34.896   5.193   4.640  1.00 20.00     0.455 C 
HETATM    6  F6  UNL     1     -36.090   5.508   4.077  1.00 20.00    -0.163 F 
HETATM    7  F7  UNL     1     -34.536   3.979   4.148  1.00 20.00    -0.163 F 
HETATM    8  F8  UNL     1     -35.119   5.027   5.967  1.00 20.00    -0.163 F 
ENDBRANCH   1   5
TORSDOF 2
ENDMDL
MODEL 3
REMARK VINA RESULT:      -5.0      1.517      1.550
REMARK  2 active torsions:
REMARK  status: ('A' for Active; 'I' for Inactive)
REMARK    1  A    between atoms: C2_2  and  C3_3 
REMARK    2  A    between atoms: C3_3  and  C4_4 
ROOT
HETATM    1  C3  UNL     1     -33.670   5.577   3.354  1.00 20.00     0.254 C 
HETATM    2  O5  UNL     1     -33.501   4.665   2.549  1.00 20.00    -0.283 OA
ENDROOT
BRANCH   1   3
HETATM    3  C2  UNL     1     -32.933   6.864   3.263  1.00 20.00     0.049 C 
HETATM    4  C1  UNL     1     -32.497   7.322   2.086  1.00 20.00     0.015 C 
ENDBRANCH   1   3
BRANCH   1   5
HETATM    5  C4  UNL     1     -34.641   5.452   4.493  1.00 20.00     0.455 C 
HETATM    6  F6  UNL     1     -34.525   4.258   5.128  1.00 20.00    -0.163 F 
HETATM    7  F7  UNL     1     -34.452   6.417   5.429  1.00 20.00    -0.163 F 
HETATM    8  F8  UNL     1     -35.928   5.553   4.079  1.00 20.00    -0.163 F 
ENDBRANCH   1   5
TORSDOF 2
ENDMDL
MODEL 4
REMARK VINA RESULT:      -4.7      2.624      3.200
REMARK  2 active torsions:
REMARK  status: ('A' for Active; 'I' for Inactive)
REMARK    1  A    between atoms: C2_2  and  C3_3 
REMARK    2  A    between atoms: C3_3  and  C4_4 
ROOT
HETATM    1  C3  UNL     1     -34.182   5.104   3.867  1.00 20.00     0.254 C 
HETATM    2  O5  UNL     1     -34.628   4.001   4.170  1.00 20.00    -0.283 OA
ENDROOT
BRANCH   1   3
HETATM    3  C2  UNL     1     -34.440   6.318   4.685  1.00 20.00     0.049 C 
HETATM    4  C1  UNL     1     -34.244   6.307   6.006  1.00 20.00     0.015 C 
ENDBRANCH   1   3
BRANCH   1   5
HETATM    5  C4  UNL     1     -33.340   5.301   2.640  1.00 20.00     0.455 C 
HETATM    6  F6  UNL     1     -32.493   6.355   2.770  1.00 20.00    -0.163 F 
HETATM    7  F7  UNL     1     -32.576   4.213   2.368  1.00 20.00    -0.163 F 
HETATM    8  F8  UNL     1     -34.093   5.537   1.536  1.00 20.00    -0.163 F 
ENDBRANCH   1   5
TORSDOF 2
ENDMDL
MODEL 5
REMARK VINA RESULT:      -4.6      2.434      3.331
REMARK  2 active torsions:
REMARK  status: ('A' for Active; 'I' for Inactive)
REMARK    1  A    between atoms: C2_2  and  C3_3 
REMARK    2  A    between atoms: C3_3  and  C4_4 
ROOT
HETATM    1  C3  UNL     1     -33.538   6.633   4.319  1.00 20.00     0.254 C 
HETATM    2  O5  UNL     1     -33.262   7.294   5.316  1.00 20.00    -0.283 OA
ENDROOT
BRANCH   1   3
HETATM    3  C2  UNL     1     -34.650   5.647   4.302  1.00 20.00     0.049 C 
HETATM    4  C1  UNL     1     -34.995   4.984   5.409  1.00 20.00     0.015 C 
ENDBRANCH   1   3
BRANCH   1   5
HETATM    5  C4  UNL     1     -32.764   6.777   3.040  1.00 20.00     0.455 C 
HETATM    6  F6  UNL     1     -31.503   7.230   3.259  1.00 20.00    -0.163 F 
HETATM    7  F7  UNL     1     -32.650   5.596   2.381  1.00 20.00    -0.163 F 
HETATM    8  F8  UNL     1     -33.352   7.649   2.184  1.00 20.00    -0.163 F 
ENDBRANCH   1   5
TORSDOF 2
ENDMDL
MODEL 6
REMARK VINA RESULT:      -4.6      1.939      2.178
REMARK  2 active torsions:
REMARK  status: ('A' for Active; 'I' for Inactive)
REMARK    1  A    between atoms: C2_2  and  C3_3 
REMARK    2  A    between atoms: C3_3  and  C4_4 
ROOT
HETATM    1  C3  UNL     1     -34.707   5.643   4.446  1.00 20.00     0.254 C 
HETATM    2  O5  UNL     1     -35.837   5.328   4.087  1.00 20.00    -0.283 OA
ENDROOT
BRANCH   1   3
HETATM    3  C2  UNL     1     -33.615   5.924   3.478  1.00 20.00     0.049 C 
HETATM    4  C1  UNL     1     -33.271   5.025   2.552  1.00 20.00     0.015 C 
ENDBRANCH   1   3
BRANCH   1   5
HETATM    5  C4  UNL     1     -34.348   5.767   5.899  1.00 20.00     0.455 C 
HETATM    6  F6  UNL     1     -33.825   4.616   6.392  1.00 20.00    -0.163 F 
HETATM    7  F7  UNL     1     -33.428   6.742   6.113  1.00 20.00    -0.163 F 
HETATM    8  F8  UNL     1     -35.425   6.069   6.666  1.00 20.00    -0.163 F 
ENDBRANCH   1   5
TORSDOF 2
ENDMDL
MODEL 7
REMARK VINA RESULT:      -4.6      1.927      2.350
REMARK  2 active torsions:
REMARK  status: ('A' for Active; 'I' for Inactive)
REMARK    1  A    between atoms: C2_2  and  C3_3 
REMARK    2  A    between atoms: C3_3  and  C4_4 
ROOT
HETATM    1  C3  UNL     1     -34.726   5.651   4.446  1.00 20.00     0.254 C 
HETATM    2  O5  UNL     1     -35.855   5.358   4.064  1.00 20.00    -0.283 OA
ENDROOT
BRANCH   1   3
HETATM    3  C2  UNL     1     -33.614   5.931   3.500  1.00 20.00     0.049 C 
HETATM    4  C1  UNL     1     -33.281   5.049   2.554  1.00 20.00     0.015 C 
ENDBRANCH   1   3
BRANCH   1   5
HETATM    5  C4  UNL     1     -34.389   5.746   5.906  1.00 20.00     0.455 C 
HETATM    6  F6  UNL     1     -33.512   6.751   6.160  1.00 20.00    -0.163 F 
HETATM    7  F7  UNL     1     -35.489   5.982   6.666  1.00 20.00    -0.163 F 
HETATM    8  F8  UNL     1     -33.825   4.605   6.375  1.00 20.00    -0.163 F 
ENDBRANCH   1   5
TORSDOF 2
ENDMDL
MODEL 8
REMARK VINA RESULT:      -4.4      2.869      3.619
REMARK  2 active torsions:
REMARK  status: ('A' for Active; 'I' for Inactive)
REMARK    1  A    between atoms: C2_2  and  C3_3 
REMARK    2  A    between atoms: C3_3  and  C4_4 
ROOT
HETATM    1  C3  UNL     1     -33.727   6.144   3.782  1.00 20.00     0.254 C 
HETATM    2  O5  UNL     1     -34.295   5.139   3.365  1.00 20.00    -0.283 OA
ENDROOT
BRANCH   1   3
HETATM    3  C2  UNL     1     -33.983   6.697   5.137  1.00 20.00     0.049 C 
HETATM    4  C1  UNL     1     -34.517   5.938   6.098  1.00 20.00     0.015 C 
ENDBRANCH   1   3
BRANCH   1   5
HETATM    5  C4  UNL     1     -32.726   6.887   2.944  1.00 20.00     0.455 C 
HETATM    6  F6  UNL     1     -32.101   6.071   2.058  1.00 20.00    -0.163 F 
HETATM    7  F7  UNL     1     -33.306   7.881   2.224  1.00 20.00    -0.163 F 
HETATM    8  F8  UNL     1     -31.757   7.462   3.699  1.00 20.00    -0.163 F 
ENDBRANCH   1   5
TORSDOF 2
ENDMDL
MODEL 9
REMARK VINA RESULT:      -4.3      2.155      3.096
REMARK  2 active torsions:
REMARK  status: ('A' for Active; 'I' for Inactive)
REMARK    1  A    between atoms: C2_2  and  C3_3 
REMARK    2  A    between atoms: C3_3  and  C4_4 
ROOT
HETATM    1  C3  UNL     1     -33.741   6.118   3.959  1.00 20.00     0.254 C 
HETATM    2  O5  UNL     1     -33.282   7.113   4.511  1.00 20.00    -0.283 OA
ENDROOT
BRANCH   1   3
HETATM    3  C2  UNL     1     -34.823   5.300   4.567  1.00 20.00     0.049 C 
HETATM    4  C1  UNL     1     -34.878   5.110   5.888  1.00 20.00     0.015 C 
ENDBRANCH   1   3
BRANCH   1   5
HETATM    5  C4  UNL     1     -33.238   5.658   2.621  1.00 20.00     0.455 C 
HETATM    6  F6  UNL     1     -32.442   6.586   2.032  1.00 20.00    -0.163 F 
HETATM    7  F7  UNL     1     -32.508   4.517   2.719  1.00 20.00    -0.163 F 
HETATM    8  F8  UNL     1     -34.251   5.402   1.756  1.00 20.00    -0.163 F 
ENDBRANCH   1   5
TORSDOF 2
ENDMDL
