MODEL 1
REMARK VINA RESULT:      -4.0      0.000      0.000
REMARK  2 active torsions:
REMARK  status: ('A' for Active; 'I' for Inactive)
REMARK    1  A    between atoms: C1_1  and  C6_6 
REMARK    2  A    between atoms: C6_6  and  N7_7 
ROOT
HETATM    1  C3  UNL     1     -34.940   5.423   6.003  1.00 20.00     0.060 C 
HETATM    2  C4  UNL     1     -34.629   4.876   4.597  1.00 20.00     0.274 C 
HETATM    3  C5  UNL     1     -33.903   6.509   5.655  1.00 20.00     0.274 C 
HETATM    4  N7  UNL     1     -34.217   6.254   4.224  1.00 20.00     0.091 N 
ENDROOT
BRANCH   4   5
HETATM    5  C6  UNL     1     -32.996   6.229   3.428  1.00 20.00     0.300 C 
BRANCH   5   6
HETATM    6  C1  UNL     1     -33.197   6.873   2.090  1.00 20.00     0.010 C 
HETATM    7  C2  UNL     1     -32.624   8.028   1.734  1.00 20.00     0.053 C 
HETATM    8 BR8  UNL     1     -32.844   8.841   0.083  1.00 20.00    -0.064 Br
ENDBRANCH   5   6
ENDBRANCH   4   5
TORSDOF 2
ENDMDL
MODEL 2
REMARK VINA RESULT:      -3.3     15.983     16.565
REMARK  2 active torsions:
REMARK  status: ('A' for Active; 'I' for Inactive)
REMARK    1  A    between atoms: C1_1  and  C6_6 
REMARK    2  A    between atoms: C6_6  and  N7_7 
ROOT
HETATM    1  C3  UNL     1     -26.626  17.702  12.332  1.00 20.00     0.060 C 
HETATM    2  C4  UNL     1     -25.458  16.699  12.304  1.00 20.00     0.274 C 
HETATM    3  C5  UNL     1     -25.534  18.763  12.095  1.00 20.00     0.274 C 
HETATM    4  N7  UNL     1     -24.717  17.686  11.477  1.00 20.00     0.091 N 
ENDROOT
BRANCH   4   5
HETATM    5  C6  UNL     1     -23.328  17.782  11.910  1.00 20.00     0.300 C 
BRANCH   5   6
HETATM    6  C1  UNL     1     -22.384  17.744  10.748  1.00 20.00     0.010 C 
HETATM    7  C2  UNL     1     -22.752  17.391   9.510  1.00 20.00     0.053 C 
HETATM    8 BR8  UNL     1     -21.608  17.347   8.052  1.00 20.00    -0.064 Br
ENDBRANCH   5   6
ENDBRANCH   4   5
TORSDOF 2
ENDMDL
MODEL 3
REMARK VINA RESULT:      -3.2     11.566     12.523
REMARK  2 active torsions:
REMARK  status: ('A' for Active; 'I' for Inactive)
REMARK    1  A    between atoms: C1_1  and  C6_6 
REMARK    2  A    between atoms: C6_6  and  N7_7 
ROOT
HETATM    1  C3  UNL     1     -35.529  14.814  -7.110  1.00 20.00     0.060 C 
HETATM    2  C4  UNL     1     -34.137  15.131  -6.534  1.00 20.00     0.274 C 
HETATM    3  C5  UNL     1     -35.897  14.468  -5.654  1.00 20.00     0.274 C 
HETATM    4  N7  UNL     1     -34.807  15.386  -5.232  1.00 20.00     0.091 N 
ENDROOT
BRANCH   4   5
HETATM    5  C6  UNL     1     -34.040  14.805  -4.137  1.00 20.00     0.300 C 
BRANCH   5   6
HETATM    6  C1  UNL     1     -34.022  15.704  -2.939  1.00 20.00     0.010 C 
HETATM    7  C2  UNL     1     -35.119  16.028  -2.243  1.00 20.00     0.053 C 
HETATM    8 BR8  UNL     1     -35.125  17.128  -0.751  1.00 20.00    -0.064 Br
ENDBRANCH   5   6
ENDBRANCH   4   5
TORSDOF 2
ENDMDL
MODEL 4
REMARK VINA RESULT:      -3.2     11.396     12.079
REMARK  2 active torsions:
REMARK  status: ('A' for Active; 'I' for Inactive)
REMARK    1  A    between atoms: C1_1  and  C6_6 
REMARK    2  A    between atoms: C6_6  and  N7_7 
ROOT
HETATM    1  C3  UNL     1     -34.559  14.450  -3.935  1.00 20.00     0.060 C 
HETATM    2  C4  UNL     1     -35.266  15.517  -3.078  1.00 20.00     0.274 C 
HETATM    3  C5  UNL     1     -33.338  15.385  -3.839  1.00 20.00     0.274 C 
HETATM    4  N7  UNL     1     -33.923  15.908  -2.576  1.00 20.00     0.091 N 
ENDROOT
BRANCH   4   5
HETATM    5  C6  UNL     1     -33.798  17.359  -2.514  1.00 20.00     0.300 C 
BRANCH   5   6
HETATM    6  C1  UNL     1     -33.160  17.804  -1.234  1.00 20.00     0.010 C 
HETATM    7  C2  UNL     1     -31.893  18.226  -1.150  1.00 20.00     0.053 C 
HETATM    8 BR8  UNL     1     -31.081  18.793   0.417  1.00 20.00    -0.064 Br
ENDBRANCH   5   6
ENDBRANCH   4   5
TORSDOF 2
ENDMDL
MODEL 5
REMARK VINA RESULT:      -3.1      9.689     10.167
REMARK  2 active torsions:
REMARK  status: ('A' for Active; 'I' for Inactive)
REMARK    1  A    between atoms: C1_1  and  C6_6 
REMARK    2  A    between atoms: C6_6  and  N7_7 
ROOT
HETATM    1  C3  UNL     1     -41.454   8.785  -0.068  1.00 20.00     0.060 C 
HETATM    2  C4  UNL     1     -42.171   8.036  -1.207  1.00 20.00     0.274 C 
HETATM    3  C5  UNL     1     -41.351   7.396   0.590  1.00 20.00     0.274 C 
HETATM    4  N7  UNL     1     -41.439   6.817  -0.776  1.00 20.00     0.091 N 
ENDROOT
BRANCH   4   5
HETATM    5  C6  UNL     1     -42.321   5.656  -0.787  1.00 20.00     0.300 C 
BRANCH   5   6
HETATM    6  C1  UNL     1     -41.854   4.618  -1.761  1.00 20.00     0.010 C 
HETATM    7  C2  UNL     1     -42.682   3.786  -2.404  1.00 20.00     0.053 C 
HETATM    8 BR8  UNL     1     -42.134   2.500  -3.622  1.00 20.00    -0.064 Br
ENDBRANCH   5   6
ENDBRANCH   4   5
TORSDOF 2
ENDMDL
MODEL 6
REMARK VINA RESULT:      -3.0     11.301     11.833
REMARK  2 active torsions:
REMARK  status: ('A' for Active; 'I' for Inactive)
REMARK    1  A    between atoms: C1_1  and  C6_6 
REMARK    2  A    between atoms: C6_6  and  N7_7 
ROOT
HETATM    1  C3  UNL     1     -33.442  14.639  -4.317  1.00 20.00     0.060 C 
HETATM    2  C4  UNL     1     -34.858  14.656  -3.712  1.00 20.00     0.274 C 
HETATM    3  C5  UNL     1     -33.264  15.980  -3.579  1.00 20.00     0.274 C 
HETATM    4  N7  UNL     1     -34.314  15.521  -2.633  1.00 20.00     0.091 N 
ENDROOT
BRANCH   4   5
HETATM    5  C6  UNL     1     -35.239  16.605  -2.326  1.00 20.00     0.300 C 
BRANCH   5   6
HETATM    6  C1  UNL     1     -35.276  16.900  -0.858  1.00 20.00     0.010 C 
HETATM    7  C2  UNL     1     -34.457  17.774  -0.261  1.00 20.00     0.053 C 
HETATM    8 BR8  UNL     1     -34.488  18.169   1.550  1.00 20.00    -0.064 Br
ENDBRANCH   5   6
ENDBRANCH   4   5
TORSDOF 2
ENDMDL
MODEL 7
REMARK VINA RESULT:      -3.0      2.931      4.914
REMARK  2 active torsions:
REMARK  status: ('A' for Active; 'I' for Inactive)
REMARK    1  A    between atoms: C1_1  and  C6_6 
REMARK    2  A    between atoms: C6_6  and  N7_7 
ROOT
HETATM    1  C3  UNL     1     -32.727   9.178  -0.064  1.00 20.00     0.060 C 
HETATM    2  C4  UNL     1     -33.206   9.209   1.399  1.00 20.00     0.274 C 
HETATM    3  C5  UNL     1     -31.998   7.885   0.351  1.00 20.00     0.274 C 
HETATM    4  N7  UNL     1     -33.016   7.736   1.423  1.00 20.00     0.091 N 
ENDROOT
BRANCH   4   5
HETATM    5  C6  UNL     1     -32.390   7.318   2.672  1.00 20.00     0.300 C 
BRANCH   5   6
HETATM    6  C1  UNL     1     -33.211   6.286   3.383  1.00 20.00     0.010 C 
HETATM    7  C2  UNL     1     -33.864   6.523   4.527  1.00 20.00     0.053 C 
HETATM    8 BR8  UNL     1     -34.896   5.269   5.421  1.00 20.00    -0.064 Br
ENDBRANCH   5   6
ENDBRANCH   4   5
TORSDOF 2
ENDMDL
MODEL 8
REMARK VINA RESULT:      -3.0     15.462     16.289
REMARK  2 active torsions:
REMARK  status: ('A' for Active; 'I' for Inactive)
REMARK    1  A    between atoms: C1_1  and  C6_6 
REMARK    2  A    between atoms: C6_6  and  N7_7 
ROOT
HETATM    1  C3  UNL     1     -26.052  19.198   5.548  1.00 20.00     0.060 C 
HETATM    2  C4  UNL     1     -26.546  19.205   7.007  1.00 20.00     0.274 C 
HETATM    3  C5  UNL     1     -24.645  19.259   6.172  1.00 20.00     0.274 C 
HETATM    4  N7  UNL     1     -25.229  18.628   7.384  1.00 20.00     0.091 N 
ENDROOT
BRANCH   4   5
HETATM    5  C6  UNL     1     -24.716  19.263   8.592  1.00 20.00     0.300 C 
BRANCH   5   6
HETATM    6  C1  UNL     1     -24.558  18.277   9.709  1.00 20.00     0.010 C 
HETATM    7  C2  UNL     1     -23.422  18.121  10.400  1.00 20.00     0.053 C 
HETATM    8 BR8  UNL     1     -23.201  16.919  11.793  1.00 20.00    -0.064 Br
ENDBRANCH   5   6
ENDBRANCH   4   5
TORSDOF 2
ENDMDL
MODEL 9
REMARK VINA RESULT:      -2.9     10.093     10.567
REMARK  2 active torsions:
REMARK  status: ('A' for Active; 'I' for Inactive)
REMARK    1  A    between atoms: C1_1  and  C6_6 
REMARK    2  A    between atoms: C6_6  and  N7_7 
ROOT
HETATM    1  C3  UNL     1     -41.167   6.864   0.398  1.00 20.00     0.060 C 
HETATM    2  C4  UNL     1     -41.548   6.810  -1.093  1.00 20.00     0.274 C 
HETATM    3  C5  UNL     1     -42.264   5.796   0.572  1.00 20.00     0.274 C 
HETATM    4  N7  UNL     1     -42.034   5.427  -0.850  1.00 20.00     0.091 N 
ENDROOT
BRANCH   4   5
HETATM    5  C6  UNL     1     -43.302   5.199  -1.532  1.00 20.00     0.300 C 
BRANCH   5   6
HETATM    6  C1  UNL     1     -43.327   3.869  -2.220  1.00 20.00     0.010 C 
HETATM    7  C2  UNL     1     -42.291   3.375  -2.909  1.00 20.00     0.053 C 
HETATM    8 BR8  UNL     1     -42.290   1.728  -3.759  1.00 20.00    -0.064 Br
ENDBRANCH   5   6
ENDBRANCH   4   5
TORSDOF 2
ENDMDL
