MODEL 1
REMARK VINA RESULT:      -3.6      0.000      0.000
REMARK  0 active torsions:
REMARK  status: ('A' for Active; 'I' for Inactive)
ROOT
HETATM    1  C1  UNL     1     -22.632  17.692  11.183  1.00 20.00     0.050 C 
HETATM    2  C2  UNL     1     -23.505  18.877   9.084  1.00 20.00     0.050 C 
HETATM    3  C3  UNL     1     -21.293  17.514   8.962  1.00 20.00     0.207 A 
HETATM    4  C4  UNL     1     -24.026  17.284  11.649  1.00 20.00     0.077 C 
HETATM    5  C5  UNL     1     -24.963  18.558   9.393  1.00 20.00     0.077 C 
HETATM    6  C6  UNL     1     -22.565  17.874   9.693  1.00 20.00     0.084 A 
HETATM    7  O7  UNL     1     -22.441  16.652   8.952  1.00 20.00    -0.375 OA
HETATM    8  S8  UNL     1     -25.275  18.524  11.186  1.00 20.00    -0.169 SA
ENDROOT
TORSDOF 0
ENDMDL
MODEL 2
REMARK VINA RESULT:      -3.6      2.263      3.598
REMARK  0 active torsions:
REMARK  status: ('A' for Active; 'I' for Inactive)
ROOT
HETATM    1  C1  UNL     1     -24.270  17.217  10.016  1.00 20.00     0.050 C 
HETATM    2  C2  UNL     1     -23.368  17.923  12.309  1.00 20.00     0.050 C 
HETATM    3  C3  UNL     1     -25.586  16.575  12.163  1.00 20.00     0.207 A 
HETATM    4  C4  UNL     1     -22.884  16.912   9.458  1.00 20.00     0.077 C 
HETATM    5  C5  UNL     1     -21.914  17.672  11.922  1.00 20.00     0.077 C 
HETATM    6  C6  UNL     1     -24.320  17.078  11.511  1.00 20.00     0.084 A 
HETATM    7  O7  UNL     1     -24.444  15.726  11.976  1.00 20.00    -0.375 OA
HETATM    8  S8  UNL     1     -21.622  18.020  10.161  1.00 20.00    -0.169 SA
ENDROOT
TORSDOF 0
ENDMDL
MODEL 3
REMARK VINA RESULT:      -3.6      1.135      2.182
REMARK  0 active torsions:
REMARK  status: ('A' for Active; 'I' for Inactive)
ROOT
HETATM    1  C1  UNL     1     -24.530  18.331   8.698  1.00 20.00     0.050 C 
HETATM    2  C2  UNL     1     -23.108  17.119  10.452  1.00 20.00     0.050 C 
HETATM    3  C3  UNL     1     -22.079  17.678   8.130  1.00 20.00     0.207 A 
HETATM    4  C4  UNL     1     -25.205  19.231   9.727  1.00 20.00     0.077 C 
HETATM    5  C5  UNL     1     -23.678  17.927  11.613  1.00 20.00     0.077 C 
HETATM    6  C6  UNL     1     -23.174  17.871   9.153  1.00 20.00     0.084 A 
HETATM    7  O7  UNL     1     -22.130  18.838   8.974  1.00 20.00    -0.375 OA
HETATM    8  S8  UNL     1     -25.416  18.381  11.322  1.00 20.00    -0.169 SA
ENDROOT
TORSDOF 0
ENDMDL
MODEL 4
REMARK VINA RESULT:      -3.5     18.911     20.169
REMARK  0 active torsions:
REMARK  status: ('A' for Active; 'I' for Inactive)
ROOT
HETATM    1  C1  UNL     1     -36.660  15.451  -5.934  1.00 20.00     0.050 C 
HETATM    2  C2  UNL     1     -35.959  15.136  -3.489  1.00 20.00     0.050 C 
HETATM    3  C3  UNL     1     -38.466  14.917  -4.142  1.00 20.00     0.207 A 
HETATM    4  C4  UNL     1     -35.426  14.741  -6.480  1.00 20.00     0.077 C 
HETATM    5  C5  UNL     1     -34.672  14.404  -3.852  1.00 20.00     0.077 C 
HETATM    6  C6  UNL     1     -37.013  14.987  -4.549  1.00 20.00     0.084 A 
HETATM    7  O7  UNL     1     -37.725  13.742  -4.506  1.00 20.00    -0.375 OA
HETATM    8  S8  UNL     1     -33.974  15.014  -5.417  1.00 20.00    -0.169 SA
ENDROOT
TORSDOF 0
ENDMDL
MODEL 5
REMARK VINA RESULT:      -3.4     23.056     24.145
REMARK  0 active torsions:
REMARK  status: ('A' for Active; 'I' for Inactive)
ROOT
HETATM    1  C1  UNL     1     -42.280   7.773  -1.525  1.00 20.00     0.050 C 
HETATM    2  C2  UNL     1     -41.397   6.911   0.722  1.00 20.00     0.050 C 
HETATM    3  C3  UNL     1     -41.381   9.465   0.232  1.00 20.00     0.207 A 
HETATM    4  C4  UNL     1     -43.417   6.759  -1.577  1.00 20.00     0.077 C 
HETATM    5  C5  UNL     1     -42.468   5.832   0.838  1.00 20.00     0.077 C 
HETATM    6  C6  UNL     1     -41.853   8.073  -0.116  1.00 20.00     0.084 A 
HETATM    7  O7  UNL     1     -42.698   9.005   0.573  1.00 20.00    -0.375 OA
HETATM    8  S8  UNL     1     -42.945   5.185  -0.794  1.00 20.00    -0.169 SA
ENDROOT
TORSDOF 0
ENDMDL
MODEL 6
REMARK VINA RESULT:      -3.4     17.238     18.406
REMARK  0 active torsions:
REMARK  status: ('A' for Active; 'I' for Inactive)
ROOT
HETATM    1  C1  UNL     1     -33.977  15.026  -5.108  1.00 20.00     0.050 C 
HETATM    2  C2  UNL     1     -35.808  15.584  -3.402  1.00 20.00     0.050 C 
HETATM    3  C3  UNL     1     -36.199  13.676  -5.126  1.00 20.00     0.207 A 
HETATM    4  C4  UNL     1     -32.846  15.246  -4.109  1.00 20.00     0.077 C 
HETATM    5  C5  UNL     1     -34.814  15.846  -2.277  1.00 20.00     0.077 C 
HETATM    6  C6  UNL     1     -35.261  14.635  -4.431  1.00 20.00     0.084 A 
HETATM    7  O7  UNL     1     -35.337  13.251  -4.060  1.00 20.00    -0.375 OA
HETATM    8  S8  UNL     1     -33.260  16.549  -2.908  1.00 20.00    -0.169 SA
ENDROOT
TORSDOF 0
ENDMDL
MODEL 7
REMARK VINA RESULT:      -3.4      2.337      3.781
REMARK  0 active torsions:
REMARK  status: ('A' for Active; 'I' for Inactive)
ROOT
HETATM    1  C1  UNL     1     -25.051  18.786  10.184  1.00 20.00     0.050 C 
HETATM    2  C2  UNL     1     -23.802  18.156  12.332  1.00 20.00     0.050 C 
HETATM    3  C3  UNL     1     -26.401  18.221  12.332  1.00 20.00     0.207 A 
HETATM    4  C4  UNL     1     -24.076  18.035   9.283  1.00 20.00     0.077 C 
HETATM    5  C5  UNL     1     -22.733  17.360  11.592  1.00 20.00     0.077 C 
HETATM    6  C6  UNL     1     -25.096  18.210  11.571  1.00 20.00     0.084 A 
HETATM    7  O7  UNL     1     -25.906  17.032  11.696  1.00 20.00    -0.375 OA
HETATM    8  S8  UNL     1     -22.384  18.070   9.953  1.00 20.00    -0.169 SA
ENDROOT
TORSDOF 0
ENDMDL
MODEL 8
REMARK VINA RESULT:      -3.3     16.473     17.601
REMARK  0 active torsions:
REMARK  status: ('A' for Active; 'I' for Inactive)
ROOT
HETATM    1  C1  UNL     1     -33.049  15.308  -3.859  1.00 20.00     0.050 C 
HETATM    2  C2  UNL     1     -34.988  15.914  -2.295  1.00 20.00     0.050 C 
HETATM    3  C3  UNL     1     -32.833  17.370  -2.291  1.00 20.00     0.207 A 
HETATM    4  C4  UNL     1     -33.972  14.903  -5.003  1.00 20.00     0.077 C 
HETATM    5  C5  UNL     1     -36.056  15.553  -3.321  1.00 20.00     0.077 C 
HETATM    6  C6  UNL     1     -33.691  16.311  -2.942  1.00 20.00     0.084 A 
HETATM    7  O7  UNL     1     -33.660  17.661  -3.428  1.00 20.00    -0.375 OA
HETATM    8  S8  UNL     1     -35.522  14.177  -4.385  1.00 20.00    -0.169 SA
ENDROOT
TORSDOF 0
ENDMDL
MODEL 9
REMARK VINA RESULT:      -3.2     22.927     23.981
REMARK  0 active torsions:
REMARK  status: ('A' for Active; 'I' for Inactive)
ROOT
HETATM    1  C1  UNL     1     -43.357   7.626   0.649  1.00 20.00     0.050 C 
HETATM    2  C2  UNL     1     -41.613   7.250  -1.192  1.00 20.00     0.050 C 
HETATM    3  C3  UNL     1     -41.465   9.375   0.299  1.00 20.00     0.207 A 
HETATM    4  C4  UNL     1     -43.417   6.150   1.026  1.00 20.00     0.077 C 
HETATM    5  C5  UNL     1     -41.544   5.746  -0.954  1.00 20.00     0.077 C 
HETATM    6  C6  UNL     1     -42.035   8.000   0.040  1.00 20.00     0.084 A 
HETATM    7  O7  UNL     1     -40.983   8.214   0.992  1.00 20.00    -0.375 OA
HETATM    8  S8  UNL     1     -43.151   5.079  -0.421  1.00 20.00    -0.169 SA
ENDROOT
TORSDOF 0
ENDMDL
