MODEL 1
REMARK VINA RESULT:      -3.8      0.000      0.000
REMARK  4 active torsions:
REMARK  status: ('A' for Active; 'I' for Inactive)
REMARK    1  A    between atoms: C2_2  and  C3_3 
REMARK    2  A    between atoms: C2_2  and  C4_4 
REMARK    3  A    between atoms: C3_3  and  C5_5 
REMARK    4  A    between atoms: C4_4  and  S6_6 
ROOT
HETATM    1  C2  UNL     1     -33.942   4.435   3.509  1.00 20.00     0.011 C 
ENDROOT
BRANCH   1   2
HETATM    2  C3  UNL     1     -35.040   5.222   4.234  1.00 20.00     0.016 C 
BRANCH   2   3
HETATM    3  C5  UNL     1     -34.848   5.272   5.747  1.00 20.00     0.114 C 
HETATM    4 CL7  UNL     1     -34.095   6.795   6.275  1.00 20.00    -0.130 Cl
ENDBRANCH   2   3
ENDBRANCH   1   2
BRANCH   1   5
HETATM    5  C4  UNL     1     -33.337   5.264   2.379  1.00 20.00     0.073 C 
BRANCH   5   6
HETATM    6  S6  UNL     1     -32.640   6.813   3.020  1.00 20.00    -0.173 SA
HETATM    7  C1  UNL     1     -32.594   7.741   1.470  1.00 20.00     0.089 C 
ENDBRANCH   5   6
ENDBRANCH   1   5
TORSDOF 4
ENDMDL
MODEL 2
REMARK VINA RESULT:      -3.7      2.606      3.633
REMARK  4 active torsions:
REMARK  status: ('A' for Active; 'I' for Inactive)
REMARK    1  A    between atoms: C2_2  and  C3_3 
REMARK    2  A    between atoms: C2_2  and  C4_4 
REMARK    3  A    between atoms: C3_3  and  C5_5 
REMARK    4  A    between atoms: C4_4  and  S6_6 
ROOT
HETATM    1  C2  UNL     1     -33.999   4.414   3.469  1.00 20.00     0.011 C 
ENDROOT
BRANCH   1   2
HETATM    2  C3  UNL     1     -33.263   5.198   2.376  1.00 20.00     0.016 C 
BRANCH   2   3
HETATM    3  C5  UNL     1     -32.770   6.565   2.841  1.00 20.00     0.114 C 
HETATM    4 CL7  UNL     1     -32.515   7.683   1.481  1.00 20.00    -0.130 Cl
ENDBRANCH   2   3
ENDBRANCH   1   2
BRANCH   1   5
HETATM    5  C4  UNL     1     -35.031   5.296   4.166  1.00 20.00     0.073 C 
BRANCH   5   6
HETATM    6  S6  UNL     1     -34.752   5.317   5.960  1.00 20.00    -0.173 SA
HETATM    7  C1  UNL     1     -33.912   6.913   6.077  1.00 20.00     0.089 C 
ENDBRANCH   5   6
ENDBRANCH   1   5
TORSDOF 4
ENDMDL
MODEL 3
REMARK VINA RESULT:      -3.5      2.569      3.977
REMARK  4 active torsions:
REMARK  status: ('A' for Active; 'I' for Inactive)
REMARK    1  A    between atoms: C2_2  and  C3_3 
REMARK    2  A    between atoms: C2_2  and  C4_4 
REMARK    3  A    between atoms: C3_3  and  C5_5 
REMARK    4  A    between atoms: C4_4  and  S6_6 
ROOT
HETATM    1  C2  UNL     1     -33.219   5.079   2.598  1.00 20.00     0.011 C 
ENDROOT
BRANCH   1   2
HETATM    2  C3  UNL     1     -33.212   6.578   2.917  1.00 20.00     0.016 C 
BRANCH   2   3
HETATM    3  C5  UNL     1     -32.165   7.358   2.127  1.00 20.00     0.114 C 
HETATM    4 CL7  UNL     1     -32.906   8.518   1.000  1.00 20.00    -0.130 Cl
ENDBRANCH   2   3
ENDBRANCH   1   2
BRANCH   1   5
HETATM    5  C4  UNL     1     -34.072   4.314   3.607  1.00 20.00     0.073 C 
BRANCH   5   6
HETATM    6  S6  UNL     1     -35.270   5.421   4.405  1.00 20.00    -0.173 SA
HETATM    7  C1  UNL     1     -34.639   5.315   6.095  1.00 20.00     0.089 C 
ENDBRANCH   5   6
ENDBRANCH   1   5
TORSDOF 4
ENDMDL
MODEL 4
REMARK VINA RESULT:      -3.4      1.002      1.296
REMARK  4 active torsions:
REMARK  status: ('A' for Active; 'I' for Inactive)
REMARK    1  A    between atoms: C2_2  and  C3_3 
REMARK    2  A    between atoms: C2_2  and  C4_4 
REMARK    3  A    between atoms: C3_3  and  C5_5 
REMARK    4  A    between atoms: C4_4  and  S6_6 
ROOT
HETATM    1  C2  UNL     1     -33.422   5.140   2.655  1.00 20.00     0.011 C 
ENDROOT
BRANCH   1   2
HETATM    2  C3  UNL     1     -34.198   4.328   3.698  1.00 20.00     0.016 C 
BRANCH   2   3
HETATM    3  C5  UNL     1     -35.207   5.161   4.483  1.00 20.00     0.114 C 
HETATM    4 CL7  UNL     1     -34.700   5.409   6.170  1.00 20.00    -0.130 Cl
ENDBRANCH   2   3
ENDBRANCH   1   2
BRANCH   1   5
HETATM    5  C4  UNL     1     -33.387   6.618   3.035  1.00 20.00     0.073 C 
BRANCH   5   6
HETATM    6  S6  UNL     1     -31.979   7.451   2.247  1.00 20.00    -0.173 SA
HETATM    7  C1  UNL     1     -32.891   8.378   0.993  1.00 20.00     0.089 C 
ENDBRANCH   5   6
ENDBRANCH   1   5
TORSDOF 4
ENDMDL
MODEL 5
REMARK VINA RESULT:      -3.1      1.911      2.274
REMARK  4 active torsions:
REMARK  status: ('A' for Active; 'I' for Inactive)
REMARK    1  A    between atoms: C2_2  and  C3_3 
REMARK    2  A    between atoms: C2_2  and  C4_4 
REMARK    3  A    between atoms: C3_3  and  C5_5 
REMARK    4  A    between atoms: C4_4  and  S6_6 
ROOT
HETATM    1  C2  UNL     1     -33.680   6.832   5.565  1.00 20.00     0.011 C 
ENDROOT
BRANCH   1   2
HETATM    2  C3  UNL     1     -34.578   5.639   5.913  1.00 20.00     0.016 C 
BRANCH   2   3
HETATM    3  C5  UNL     1     -35.245   5.009   4.694  1.00 20.00     0.114 C 
HETATM    4 CL7  UNL     1     -34.158   3.888   3.842  1.00 20.00    -0.130 Cl
ENDBRANCH   2   3
ENDBRANCH   1   2
BRANCH   1   5
HETATM    5  C4  UNL     1     -33.772   7.163   4.077  1.00 20.00     0.073 C 
BRANCH   5   6
HETATM    6  S6  UNL     1     -32.120   7.200   3.324  1.00 20.00    -0.173 SA
HETATM    7  C1  UNL     1     -32.603   7.710   1.659  1.00 20.00     0.089 C 
ENDBRANCH   5   6
ENDBRANCH   1   5
TORSDOF 4
ENDMDL
MODEL 6
REMARK VINA RESULT:      -2.8      9.450      9.908
REMARK  4 active torsions:
REMARK  status: ('A' for Active; 'I' for Inactive)
REMARK    1  A    between atoms: C2_2  and  C3_3 
REMARK    2  A    between atoms: C2_2  and  C4_4 
REMARK    3  A    between atoms: C3_3  and  C5_5 
REMARK    4  A    between atoms: C4_4  and  S6_6 
ROOT
HETATM    1  C2  UNL     1     -41.103   6.513   0.194  1.00 20.00     0.011 C 
ENDROOT
BRANCH   1   2
HETATM    2  C3  UNL     1     -41.037   5.518  -0.970  1.00 20.00     0.016 C 
BRANCH   2   3
HETATM    3  C5  UNL     1     -42.405   4.992  -1.394  1.00 20.00     0.114 C 
HETATM    4 CL7  UNL     1     -42.276   3.647  -2.550  1.00 20.00    -0.130 Cl
ENDBRANCH   2   3
ENDBRANCH   1   2
BRANCH   1   5
HETATM    5  C4  UNL     1     -42.539   6.680   0.683  1.00 20.00     0.073 C 
BRANCH   5   6
HETATM    6  S6  UNL     1     -43.164   8.339   0.287  1.00 20.00    -0.173 SA
HETATM    7  C1  UNL     1     -41.577   9.198   0.185  1.00 20.00     0.089 C 
ENDBRANCH   5   6
ENDBRANCH   1   5
TORSDOF 4
ENDMDL
MODEL 7
REMARK VINA RESULT:      -2.8     11.977     12.559
REMARK  4 active torsions:
REMARK  status: ('A' for Active; 'I' for Inactive)
REMARK    1  A    between atoms: C2_2  and  C3_3 
REMARK    2  A    between atoms: C2_2  and  C4_4 
REMARK    3  A    between atoms: C3_3  and  C5_5 
REMARK    4  A    between atoms: C4_4  and  S6_6 
ROOT
HETATM    1  C2  UNL     1     -34.674  14.143  -3.895  1.00 20.00     0.011 C 
ENDROOT
BRANCH   1   2
HETATM    2  C3  UNL     1     -34.650  15.380  -2.989  1.00 20.00     0.016 C 
BRANCH   2   3
HETATM    3  C5  UNL     1     -33.361  16.189  -3.106  1.00 20.00     0.114 C 
HETATM    4 CL7  UNL     1     -33.193  17.372  -1.788  1.00 20.00    -0.130 Cl
ENDBRANCH   2   3
ENDBRANCH   1   2
BRANCH   1   5
HETATM    5  C4  UNL     1     -35.974  14.082  -4.693  1.00 20.00     0.073 C 
BRANCH   5   6
HETATM    6  S6  UNL     1     -35.967  15.309  -6.031  1.00 20.00    -0.173 SA
HETATM    7  C1  UNL     1     -34.281  15.040  -6.623  1.00 20.00     0.089 C 
ENDBRANCH   5   6
ENDBRANCH   1   5
TORSDOF 4
ENDMDL
MODEL 8
REMARK VINA RESULT:      -2.8     12.050     12.688
REMARK  4 active torsions:
REMARK  status: ('A' for Active; 'I' for Inactive)
REMARK    1  A    between atoms: C2_2  and  C3_3 
REMARK    2  A    between atoms: C2_2  and  C4_4 
REMARK    3  A    between atoms: C3_3  and  C5_5 
REMARK    4  A    between atoms: C4_4  and  S6_6 
ROOT
HETATM    1  C2  UNL     1     -34.510  15.997  -2.330  1.00 20.00     0.011 C 
ENDROOT
BRANCH   1   2
HETATM    2  C3  UNL     1     -33.171  16.691  -2.605  1.00 20.00     0.016 C 
BRANCH   2   3
HETATM    3  C5  UNL     1     -33.055  18.063  -1.947  1.00 20.00     0.114 C 
HETATM    4 CL7  UNL     1     -31.599  18.197  -0.934  1.00 20.00    -0.130 Cl
ENDBRANCH   2   3
ENDBRANCH   1   2
BRANCH   1   5
HETATM    5  C4  UNL     1     -34.855  15.020  -3.450  1.00 20.00     0.073 C 
BRANCH   5   6
HETATM    6  S6  UNL     1     -33.395  14.674  -4.473  1.00 20.00    -0.173 SA
HETATM    7  C1  UNL     1     -34.114  15.040  -6.090  1.00 20.00     0.089 C 
ENDBRANCH   5   6
ENDBRANCH   1   5
TORSDOF 4
ENDMDL
MODEL 9
REMARK VINA RESULT:      -2.8     11.587     12.332
REMARK  4 active torsions:
REMARK  status: ('A' for Active; 'I' for Inactive)
REMARK    1  A    between atoms: C2_2  and  C3_3 
REMARK    2  A    between atoms: C2_2  and  C4_4 
REMARK    3  A    between atoms: C3_3  and  C5_5 
REMARK    4  A    between atoms: C4_4  and  S6_6 
ROOT
HETATM    1  C2  UNL     1     -33.665  14.804  -4.434  1.00 20.00     0.011 C 
ENDROOT
BRANCH   1   2
HETATM    2  C3  UNL     1     -33.254  15.898  -3.443  1.00 20.00     0.016 C 
BRANCH   2   3
HETATM    3  C5  UNL     1     -34.289  16.141  -2.348  1.00 20.00     0.114 C 
HETATM    4 CL7  UNL     1     -33.839  17.499  -1.292  1.00 20.00    -0.130 Cl
ENDBRANCH   2   3
ENDBRANCH   1   2
BRANCH   1   5
HETATM    5  C4  UNL     1     -34.773  13.931  -3.850  1.00 20.00     0.073 C 
BRANCH   5   6
HETATM    6  S6  UNL     1     -36.256  13.990  -4.895  1.00 20.00    -0.173 SA
HETATM    7  C1  UNL     1     -35.510  14.722  -6.369  1.00 20.00     0.089 C 
ENDBRANCH   5   6
ENDBRANCH   1   5
TORSDOF 4
ENDMDL
