MODEL 1
REMARK VINA RESULT:      -4.7      0.000      0.000
REMARK  4 active torsions:
REMARK  status: ('A' for Active; 'I' for Inactive)
REMARK    1  A    between atoms: C2_2  and  C7_7 
REMARK    2  A    between atoms: C5_5  and  C6_6 
REMARK    3  A    between atoms: C6_6  and  C7_7 
REMARK    4  A    between atoms: C7_7  and  O8_8 
ROOT
HETATM    1  C7  UNL     1     -33.714   6.096   3.060  1.00 20.00     0.146 C 
ENDROOT
BRANCH   1   2
HETATM    2  C2  UNL     1     -34.200   5.951   4.485  1.00 20.00    -0.065 C 
HETATM    3  C1  UNL     1     -35.047   4.969   4.833  1.00 20.00     0.016 C 
HETATM    4  C3  UNL     1     -33.717   6.949   5.502  1.00 20.00     0.045 C 
ENDBRANCH   1   2
BRANCH   1   5
HETATM    5  C6  UNL     1     -32.568   7.105   2.876  1.00 20.00     0.036 C 
BRANCH   5   6
HETATM    6  C5  UNL     1     -32.289   7.530   1.432  1.00 20.00    -0.002 C 
HETATM    7  C4  UNL     1     -32.969   8.834   1.044  1.00 20.00     0.005 C 
ENDBRANCH   5   6
ENDBRANCH   1   5
BRANCH   1   8
HETATM    8  O8  UNL     1     -33.260   4.816   2.612  1.00 20.00    -0.391 OA
HETATM    9  H22 UNL     1     -33.290   4.841   1.644  1.00 20.00     0.210 HD
ENDBRANCH   1   8
TORSDOF 4
ENDMDL
MODEL 2
REMARK VINA RESULT:      -4.5      1.666      2.107
REMARK  4 active torsions:
REMARK  status: ('A' for Active; 'I' for Inactive)
REMARK    1  A    between atoms: C2_2  and  C7_7 
REMARK    2  A    between atoms: C5_5  and  C6_6 
REMARK    3  A    between atoms: C6_6  and  C7_7 
REMARK    4  A    between atoms: C7_7  and  O8_8 
ROOT
HETATM    1  C7  UNL     1     -34.785   5.773   4.093  1.00 20.00     0.146 C 
ENDROOT
BRANCH   1   2
HETATM    2  C2  UNL     1     -34.441   5.864   5.563  1.00 20.00    -0.065 C 
HETATM    3  C1  UNL     1     -34.778   4.885   6.417  1.00 20.00     0.016 C 
HETATM    4  C3  UNL     1     -33.718   7.092   6.045  1.00 20.00     0.045 C 
ENDBRANCH   1   2
BRANCH   1   5
HETATM    5  C6  UNL     1     -33.890   4.818   3.285  1.00 20.00     0.036 C 
BRANCH   5   6
HETATM    6  C5  UNL     1     -32.988   5.483   2.243  1.00 20.00    -0.002 C 
HETATM    7  C4  UNL     1     -32.624   6.919   2.589  1.00 20.00     0.005 C 
ENDBRANCH   5   6
ENDBRANCH   1   5
BRANCH   1   8
HETATM    8  O8  UNL     1     -36.138   5.323   3.979  1.00 20.00    -0.391 OA
HETATM    9  H22 UNL     1     -36.321   4.810   4.780  1.00 20.00     0.210 HD
ENDBRANCH   1   8
TORSDOF 4
ENDMDL
MODEL 3
REMARK VINA RESULT:      -4.2      0.873      3.582
REMARK  4 active torsions:
REMARK  status: ('A' for Active; 'I' for Inactive)
REMARK    1  A    between atoms: C2_2  and  C7_7 
REMARK    2  A    between atoms: C5_5  and  C6_6 
REMARK    3  A    between atoms: C6_6  and  C7_7 
REMARK    4  A    between atoms: C7_7  and  O8_8 
ROOT
HETATM    1  C7  UNL     1     -33.189   5.548   3.239  1.00 20.00     0.146 C 
ENDROOT
BRANCH   1   2
HETATM    2  C2  UNL     1     -32.611   6.887   2.835  1.00 20.00    -0.065 C 
HETATM    3  C1  UNL     1     -32.730   7.344   1.578  1.00 20.00     0.016 C 
HETATM    4  C3  UNL     1     -31.887   7.689   3.882  1.00 20.00     0.045 C 
ENDBRANCH   1   2
BRANCH   1   5
HETATM    5  C6  UNL     1     -34.648   5.602   3.723  1.00 20.00     0.036 C 
BRANCH   5   6
HETATM    6  C5  UNL     1     -34.865   5.262   5.200  1.00 20.00    -0.002 C 
HETATM    7  C4  UNL     1     -34.328   6.323   6.149  1.00 20.00     0.005 C 
ENDBRANCH   5   6
ENDBRANCH   1   5
BRANCH   1   8
HETATM    8  O8  UNL     1     -33.125   4.675   2.107  1.00 20.00    -0.391 OA
HETATM    9  H22 UNL     1     -34.033   4.581   1.787  1.00 20.00     0.210 HD
ENDBRANCH   1   8
TORSDOF 4
ENDMDL
MODEL 4
REMARK VINA RESULT:      -4.1      1.398      1.824
REMARK  4 active torsions:
REMARK  status: ('A' for Active; 'I' for Inactive)
REMARK    1  A    between atoms: C2_2  and  C7_7 
REMARK    2  A    between atoms: C5_5  and  C6_6 
REMARK    3  A    between atoms: C6_6  and  C7_7 
REMARK    4  A    between atoms: C7_7  and  O8_8 
ROOT
HETATM    1  C7  UNL     1     -32.859   6.564   3.762  1.00 20.00     0.146 C 
ENDROOT
BRANCH   1   2
HETATM    2  C2  UNL     1     -33.997   6.288   4.720  1.00 20.00    -0.065 C 
HETATM    3  C1  UNL     1     -34.030   6.847   5.939  1.00 20.00     0.016 C 
HETATM    4  C3  UNL     1     -35.089   5.357   4.269  1.00 20.00     0.045 C 
ENDBRANCH   1   2
BRANCH   1   5
HETATM    5  C6  UNL     1     -33.299   6.946   2.338  1.00 20.00     0.036 C 
BRANCH   5   6
HETATM    6  C5  UNL     1     -32.302   7.791   1.544  1.00 20.00    -0.002 C 
HETATM    7  C4  UNL     1     -32.960   8.895   0.730  1.00 20.00     0.005 C 
ENDBRANCH   5   6
ENDBRANCH   1   5
BRANCH   1   8
HETATM    8  O8  UNL     1     -32.080   7.640   4.294  1.00 20.00    -0.391 OA
HETATM    9  H22 UNL     1     -31.525   7.256   4.987  1.00 20.00     0.210 HD
ENDBRANCH   1   8
TORSDOF 4
ENDMDL
MODEL 5
REMARK VINA RESULT:      -4.1     15.514     16.203
REMARK  4 active torsions:
REMARK  status: ('A' for Active; 'I' for Inactive)
REMARK    1  A    between atoms: C2_2  and  C7_7 
REMARK    2  A    between atoms: C5_5  and  C6_6 
REMARK    3  A    between atoms: C6_6  and  C7_7 
REMARK    4  A    between atoms: C7_7  and  O8_8 
ROOT
HETATM    1  C7  UNL     1     -23.526  17.010   9.710  1.00 20.00     0.146 C 
ENDROOT
BRANCH   1   2
HETATM    2  C2  UNL     1     -23.688  16.742  11.190  1.00 20.00    -0.065 C 
HETATM    3  C1  UNL     1     -24.556  15.822  11.638  1.00 20.00     0.016 C 
HETATM    4  C3  UNL     1     -22.854  17.547  12.149  1.00 20.00     0.045 C 
ENDBRANCH   1   2
BRANCH   1   5
HETATM    5  C6  UNL     1     -23.301  18.488   9.349  1.00 20.00     0.036 C 
BRANCH   5   6
HETATM    6  C5  UNL     1     -24.554  19.263   8.933  1.00 20.00    -0.002 C 
HETATM    7  C4  UNL     1     -24.979  18.996   7.496  1.00 20.00     0.005 C 
ENDBRANCH   5   6
ENDBRANCH   1   5
BRANCH   1   8
HETATM    8  O8  UNL     1     -22.402  16.258   9.241  1.00 20.00    -0.391 OA
HETATM    9  H22 UNL     1     -22.504  15.366   9.604  1.00 20.00     0.210 HD
ENDBRANCH   1   8
TORSDOF 4
ENDMDL
MODEL 6
REMARK VINA RESULT:      -4.0      1.376      1.376
REMARK  4 active torsions:
REMARK  status: ('A' for Active; 'I' for Inactive)
REMARK    1  A    between atoms: C2_2  and  C7_7 
REMARK    2  A    between atoms: C5_5  and  C6_6 
REMARK    3  A    between atoms: C6_6  and  C7_7 
REMARK    4  A    between atoms: C7_7  and  O8_8 
ROOT
HETATM    1  C7  UNL     1     -32.886   6.538   3.662  1.00 20.00     0.146 C 
ENDROOT
BRANCH   1   2
HETATM    2  C2  UNL     1     -34.035   6.234   4.599  1.00 20.00    -0.065 C 
HETATM    3  C1  UNL     1     -35.047   5.438   4.220  1.00 20.00     0.016 C 
HETATM    4  C3  UNL     1     -34.017   6.861   5.966  1.00 20.00     0.045 C 
ENDBRANCH   1   2
BRANCH   1   5
HETATM    5  C6  UNL     1     -33.311   6.974   2.249  1.00 20.00     0.036 C 
BRANCH   5   6
HETATM    6  C5  UNL     1     -32.312   7.863   1.505  1.00 20.00    -0.002 C 
HETATM    7  C4  UNL     1     -32.972   8.988   0.723  1.00 20.00     0.005 C 
ENDBRANCH   5   6
ENDBRANCH   1   5
BRANCH   1   8
HETATM    8  O8  UNL     1     -32.107   7.589   4.240  1.00 20.00    -0.391 OA
HETATM    9  H22 UNL     1     -32.589   7.882   5.027  1.00 20.00     0.210 HD
ENDBRANCH   1   8
TORSDOF 4
ENDMDL
MODEL 7
REMARK VINA RESULT:      -3.9      1.842      3.724
REMARK  4 active torsions:
REMARK  status: ('A' for Active; 'I' for Inactive)
REMARK    1  A    between atoms: C2_2  and  C7_7 
REMARK    2  A    between atoms: C5_5  and  C6_6 
REMARK    3  A    between atoms: C6_6  and  C7_7 
REMARK    4  A    between atoms: C7_7  and  O8_8 
ROOT
HETATM    1  C7  UNL     1     -34.696   4.668   4.049  1.00 20.00     0.146 C 
ENDROOT
BRANCH   1   2
HETATM    2  C2  UNL     1     -33.671   5.137   3.039  1.00 20.00    -0.065 C 
HETATM    3  C1  UNL     1     -33.101   4.279   2.178  1.00 20.00     0.016 C 
HETATM    4  C3  UNL     1     -33.298   6.594   3.035  1.00 20.00     0.045 C 
ENDBRANCH   1   2
BRANCH   1   5
HETATM    5  C6  UNL     1     -34.223   4.725   5.512  1.00 20.00     0.036 C 
BRANCH   5   6
HETATM    6  C5  UNL     1     -34.679   5.952   6.304  1.00 20.00    -0.002 C 
HETATM    7  C4  UNL     1     -33.723   7.130   6.195  1.00 20.00     0.005 C 
ENDBRANCH   5   6
ENDBRANCH   1   5
BRANCH   1   8
HETATM    8  O8  UNL     1     -35.857   5.494   3.921  1.00 20.00    -0.391 OA
HETATM    9  H22 UNL     1     -36.509   4.969   3.435  1.00 20.00     0.210 HD
ENDBRANCH   1   8
TORSDOF 4
ENDMDL
MODEL 8
REMARK VINA RESULT:      -3.9     11.309     12.230
REMARK  4 active torsions:
REMARK  status: ('A' for Active; 'I' for Inactive)
REMARK    1  A    between atoms: C2_2  and  C7_7 
REMARK    2  A    between atoms: C5_5  and  C6_6 
REMARK    3  A    between atoms: C6_6  and  C7_7 
REMARK    4  A    between atoms: C7_7  and  O8_8 
ROOT
HETATM    1  C7  UNL     1     -34.076  15.184  -5.557  1.00 20.00     0.146 C 
ENDROOT
BRANCH   1   2
HETATM    2  C2  UNL     1     -35.532  14.849  -5.797  1.00 20.00    -0.065 C 
HETATM    3  C1  UNL     1     -36.247  15.491  -6.734  1.00 20.00     0.016 C 
HETATM    4  C3  UNL     1     -36.162  13.783  -4.943  1.00 20.00     0.045 C 
ENDBRANCH   1   2
BRANCH   1   5
HETATM    5  C6  UNL     1     -33.556  14.806  -4.159  1.00 20.00     0.036 C 
BRANCH   5   6
HETATM    6  C5  UNL     1     -33.546  15.940  -3.131  1.00 20.00    -0.002 C 
HETATM    7  C4  UNL     1     -34.790  15.972  -2.256  1.00 20.00     0.005 C 
ENDBRANCH   5   6
ENDBRANCH   1   5
BRANCH   1   8
HETATM    8  O8  UNL     1     -33.293  14.487  -6.530  1.00 20.00    -0.391 OA
HETATM    9  H22 UNL     1     -33.568  13.560  -6.485  1.00 20.00     0.210 HD
ENDBRANCH   1   8
TORSDOF 4
ENDMDL
MODEL 9
REMARK VINA RESULT:      -3.8     11.050     11.764
REMARK  4 active torsions:
REMARK  status: ('A' for Active; 'I' for Inactive)
REMARK    1  A    between atoms: C2_2  and  C7_7 
REMARK    2  A    between atoms: C5_5  and  C6_6 
REMARK    3  A    between atoms: C6_6  and  C7_7 
REMARK    4  A    between atoms: C7_7  and  O8_8 
ROOT
HETATM    1  C7  UNL     1     -33.615  14.802  -4.226  1.00 20.00     0.146 C 
ENDROOT
BRANCH   1   2
HETATM    2  C2  UNL     1     -33.765  15.951  -3.254  1.00 20.00    -0.065 C 
HETATM    3  C1  UNL     1     -32.933  17.003  -3.289  1.00 20.00     0.016 C 
HETATM    4  C3  UNL     1     -34.869  15.875  -2.234  1.00 20.00     0.045 C 
ENDBRANCH   1   2
BRANCH   1   5
HETATM    5  C6  UNL     1     -34.304  15.021  -5.585  1.00 20.00     0.036 C 
BRANCH   5   6
HETATM    6  C5  UNL     1     -35.789  14.655  -5.637  1.00 20.00    -0.002 C 
HETATM    7  C4  UNL     1     -36.173  13.548  -4.667  1.00 20.00     0.005 C 
ENDBRANCH   5   6
ENDBRANCH   1   5
BRANCH   1   8
HETATM    8  O8  UNL     1     -32.219  14.594  -4.459  1.00 20.00    -0.391 OA
HETATM    9  H22 UNL     1     -31.774  14.784  -3.621  1.00 20.00     0.210 HD
ENDBRANCH   1   8
TORSDOF 4
ENDMDL
