MODEL 1
REMARK VINA RESULT:      -3.4      0.000      0.000
REMARK  0 active torsions:
REMARK  status: ('A' for Active; 'I' for Inactive)
ROOT
HETATM    1  C1  UNL     1     -35.332  13.833  -4.293  1.00 20.00     0.080 C 
HETATM    2  C2  UNL     1     -33.063  14.804  -4.240  1.00 20.00     0.043 C 
HETATM    3  C3  UNL     1     -34.836  15.594  -2.635  1.00 20.00     0.043 C 
HETATM    4  C4  UNL     1     -34.555  15.057  -4.036  1.00 20.00     0.099 C 
HETATM    5  N5  UNL     1     -35.942  12.866  -4.491  1.00 20.00    -0.196 NA
HETATM    6 BR6  UNL     1     -35.112  16.437  -5.330  1.00 20.00    -0.070 Br
ENDROOT
TORSDOF 0
ENDMDL
MODEL 2
REMARK VINA RESULT:      -3.4      1.384      1.890
REMARK  0 active torsions:
REMARK  status: ('A' for Active; 'I' for Inactive)
ROOT
HETATM    1  C1  UNL     1     -35.336  13.845  -4.364  1.00 20.00     0.080 C 
HETATM    2  C2  UNL     1     -34.927  16.096  -5.291  1.00 20.00     0.043 C 
HETATM    3  C3  UNL     1     -33.047  14.765  -4.271  1.00 20.00     0.043 C 
HETATM    4  C4  UNL     1     -34.541  15.075  -4.222  1.00 20.00     0.099 C 
HETATM    5  N5  UNL     1     -35.960  12.873  -4.480  1.00 20.00    -0.196 NA
HETATM    6 BR6  UNL     1     -34.931  15.875  -2.462  1.00 20.00    -0.070 Br
ENDROOT
TORSDOF 0
ENDMDL
MODEL 3
REMARK VINA RESULT:      -3.3     18.399     18.904
REMARK  0 active torsions:
REMARK  status: ('A' for Active; 'I' for Inactive)
ROOT
HETATM    1  C1  UNL     1     -22.926  16.934   9.678  1.00 20.00     0.080 C 
HETATM    2  C2  UNL     1     -24.713  18.408  10.532  1.00 20.00     0.043 C 
HETATM    3  C3  UNL     1     -22.691  17.889  11.942  1.00 20.00     0.043 C 
HETATM    4  C4  UNL     1     -23.655  17.362  10.882  1.00 20.00     0.099 C 
HETATM    5  N5  UNL     1     -22.349  16.600   8.728  1.00 20.00    -0.196 NA
HETATM    6 BR6  UNL     1     -24.587  15.799  11.641  1.00 20.00    -0.070 Br
ENDROOT
TORSDOF 0
ENDMDL
MODEL 4
REMARK VINA RESULT:      -3.2      1.416      1.925
REMARK  0 active torsions:
REMARK  status: ('A' for Active; 'I' for Inactive)
ROOT
HETATM    1  C1  UNL     1     -35.590  13.867  -4.272  1.00 20.00     0.080 C 
HETATM    2  C2  UNL     1     -35.044  15.609  -2.611  1.00 20.00     0.043 C 
HETATM    3  C3  UNL     1     -35.308  16.194  -5.047  1.00 20.00     0.043 C 
HETATM    4  C4  UNL     1     -34.864  15.127  -4.049  1.00 20.00     0.099 C 
HETATM    5  N5  UNL     1     -36.167  12.875  -4.448  1.00 20.00    -0.196 NA
HETATM    6 BR6  UNL     1     -32.940  14.802  -4.335  1.00 20.00    -0.070 Br
ENDROOT
TORSDOF 0
ENDMDL
MODEL 5
REMARK VINA RESULT:      -3.2     18.440     18.978
REMARK  0 active torsions:
REMARK  status: ('A' for Active; 'I' for Inactive)
ROOT
HETATM    1  C1  UNL     1     -23.156  18.512   9.822  1.00 20.00     0.080 C 
HETATM    2  C2  UNL     1     -22.892  17.819  12.177  1.00 20.00     0.043 C 
HETATM    3  C3  UNL     1     -24.090  16.339  10.528  1.00 20.00     0.043 C 
HETATM    4  C4  UNL     1     -23.779  17.778  10.934  1.00 20.00     0.099 C 
HETATM    5  N5  UNL     1     -22.660  19.089   8.945  1.00 20.00    -0.196 NA
HETATM    6 BR6  UNL     1     -25.486  18.655  11.388  1.00 20.00    -0.070 Br
ENDROOT
TORSDOF 0
ENDMDL
MODEL 6
REMARK VINA RESULT:      -3.2      1.006      1.006
REMARK  0 active torsions:
REMARK  status: ('A' for Active; 'I' for Inactive)
ROOT
HETATM    1  C1  UNL     1     -36.405  14.421  -4.211  1.00 20.00     0.080 C 
HETATM    2  C2  UNL     1     -33.937  14.366  -4.212  1.00 20.00     0.043 C 
HETATM    3  C3  UNL     1     -35.191  15.748  -2.520  1.00 20.00     0.043 C 
HETATM    4  C4  UNL     1     -35.187  15.203  -3.946  1.00 20.00     0.099 C 
HETATM    5  N5  UNL     1     -37.365  13.802  -4.416  1.00 20.00    -0.196 NA
HETATM    6 BR6  UNL     1     -35.150  16.743  -5.177  1.00 20.00    -0.070 Br
ENDROOT
TORSDOF 0
ENDMDL
MODEL 7
REMARK VINA RESULT:      -3.1     18.745     19.102
REMARK  0 active torsions:
REMARK  status: ('A' for Active; 'I' for Inactive)
ROOT
HETATM    1  C1  UNL     1     -25.292  18.328  11.817  1.00 20.00     0.080 C 
HETATM    2  C2  UNL     1     -24.584  15.976  11.565  1.00 20.00     0.043 C 
HETATM    3  C3  UNL     1     -22.945  17.739  12.307  1.00 20.00     0.043 C 
HETATM    4  C4  UNL     1     -24.174  17.443  11.451  1.00 20.00     0.099 C 
HETATM    5  N5  UNL     1     -26.173  19.024  12.110  1.00 20.00    -0.196 NA
HETATM    6 BR6  UNL     1     -23.691  17.786   9.570  1.00 20.00    -0.070 Br
ENDROOT
TORSDOF 0
ENDMDL
MODEL 8
REMARK VINA RESULT:      -3.1      1.400      1.400
REMARK  0 active torsions:
REMARK  status: ('A' for Active; 'I' for Inactive)
ROOT
HETATM    1  C1  UNL     1     -35.673  13.937  -4.329  1.00 20.00     0.080 C 
HETATM    2  C2  UNL     1     -34.616  15.984  -5.215  1.00 20.00     0.043 C 
HETATM    3  C3  UNL     1     -34.722  15.563  -2.734  1.00 20.00     0.043 C 
HETATM    4  C4  UNL     1     -35.423  15.365  -4.076  1.00 20.00     0.099 C 
HETATM    5  N5  UNL     1     -35.866  12.810  -4.529  1.00 20.00    -0.196 NA
HETATM    6 BR6  UNL     1     -37.156  16.301  -3.992  1.00 20.00    -0.070 Br
ENDROOT
TORSDOF 0
ENDMDL
MODEL 9
REMARK VINA RESULT:      -3.0     11.208     11.521
REMARK  0 active torsions:
REMARK  status: ('A' for Active; 'I' for Inactive)
ROOT
HETATM    1  C1  UNL     1     -41.478   6.193  -0.761  1.00 20.00     0.080 C 
HETATM    2  C2  UNL     1     -43.158   6.764   0.956  1.00 20.00     0.043 C 
HETATM    3  C3  UNL     1     -43.415   7.577  -1.415  1.00 20.00     0.043 C 
HETATM    4  C4  UNL     1     -42.428   7.221  -0.306  1.00 20.00     0.099 C 
HETATM    5  N5  UNL     1     -40.733   5.380  -1.122  1.00 20.00    -0.196 NA
HETATM    6 BR6  UNL     1     -41.417   8.854   0.144  1.00 20.00    -0.070 Br
ENDROOT
TORSDOF 0
ENDMDL
