MODEL 1
REMARK VINA RESULT:      -5.5      0.000      0.000
REMARK  0 active torsions:
REMARK  status: ('A' for Active; 'I' for Inactive)
ROOT
HETATM    1  C1  UNL     1     -32.558   7.271   2.031  1.00 20.00     0.064 C 
HETATM    2  C2  UNL     1     -34.344   6.135   5.184  1.00 20.00     0.128 C 
HETATM    3  C3  UNL     1     -34.936   4.829   4.704  1.00 20.00     0.078 C 
HETATM    4  C4  UNL     1     -33.857   7.088   4.115  1.00 20.00     0.097 C 
HETATM    5  C5  UNL     1     -34.004   4.156   3.706  1.00 20.00     0.009 C 
HETATM    6  C6  UNL     1     -33.602   5.101   2.576  1.00 20.00     0.020 C 
HETATM    7  C7  UNL     1     -32.935   6.368   3.130  1.00 20.00     0.100 C 
HETATM    8  N8  UNL     1     -32.260   7.983   1.164  1.00 20.00    -0.197 NA
HETATM    9  O9  UNL     1     -34.355   6.449   6.373  1.00 20.00    -0.298 OA
ENDROOT
TORSDOF 0
ENDMDL
MODEL 2
REMARK VINA RESULT:      -4.8     11.650     12.200
REMARK  0 active torsions:
REMARK  status: ('A' for Active; 'I' for Inactive)
ROOT
HETATM    1  C1  UNL     1     -36.849  14.263  -4.114  1.00 20.00     0.064 C 
HETATM    2  C2  UNL     1     -33.126  15.010  -4.098  1.00 20.00     0.128 C 
HETATM    3  C3  UNL     1     -33.111  16.295  -3.302  1.00 20.00     0.078 C 
HETATM    4  C4  UNL     1     -34.465  14.572  -4.648  1.00 20.00     0.097 C 
HETATM    5  C5  UNL     1     -34.198  16.275  -2.236  1.00 20.00     0.009 C 
HETATM    6  C6  UNL     1     -35.565  15.932  -2.825  1.00 20.00     0.020 C 
HETATM    7  C7  UNL     1     -35.527  14.579  -3.548  1.00 20.00     0.100 C 
HETATM    8  N8  UNL     1     -37.891  14.014  -4.559  1.00 20.00    -0.197 NA
HETATM    9  O9  UNL     1     -32.087  14.409  -4.370  1.00 20.00    -0.298 OA
ENDROOT
TORSDOF 0
ENDMDL
MODEL 3
REMARK VINA RESULT:      -4.7      9.075      9.376
REMARK  0 active torsions:
REMARK  status: ('A' for Active; 'I' for Inactive)
ROOT
HETATM    1  C1  UNL     1     -41.519   9.095   0.324  1.00 20.00     0.064 C 
HETATM    2  C2  UNL     1     -42.953   5.600   0.718  1.00 20.00     0.128 C 
HETATM    3  C3  UNL     1     -42.532   4.986  -0.597  1.00 20.00     0.078 C 
HETATM    4  C4  UNL     1     -42.893   7.109   0.807  1.00 20.00     0.097 C 
HETATM    5  C5  UNL     1     -41.186   5.541  -1.040  1.00 20.00     0.009 C 
HETATM    6  C6  UNL     1     -41.174   7.068  -1.043  1.00 20.00     0.020 C 
HETATM    7  C7  UNL     1     -41.530   7.623   0.343  1.00 20.00     0.100 C 
HETATM    8  N8  UNL     1     -41.510  10.256   0.309  1.00 20.00    -0.197 NA
HETATM    9  O9  UNL     1     -43.416   4.917   1.631  1.00 20.00    -0.298 OA
ENDROOT
TORSDOF 0
ENDMDL
MODEL 4
REMARK VINA RESULT:      -4.5     16.378     17.026
REMARK  0 active torsions:
REMARK  status: ('A' for Active; 'I' for Inactive)
ROOT
HETATM    1  C1  UNL     1     -22.589  18.048   8.477  1.00 20.00     0.064 C 
HETATM    2  C2  UNL     1     -25.238  18.446  11.170  1.00 20.00     0.128 C 
HETATM    3  C3  UNL     1     -24.546  17.769  12.331  1.00 20.00     0.078 C 
HETATM    4  C4  UNL     1     -24.666  18.179   9.795  1.00 20.00     0.097 C 
HETATM    5  C5  UNL     1     -23.044  18.008  12.271  1.00 20.00     0.009 C 
HETATM    6  C6  UNL     1     -22.464  17.637  10.908  1.00 20.00     0.020 C 
HETATM    7  C7  UNL     1     -23.156  18.420   9.784  1.00 20.00     0.100 C 
HETATM    8  N8  UNL     1     -22.143  17.755   7.446  1.00 20.00    -0.197 NA
HETATM    9  O9  UNL     1     -26.272  19.095  11.324  1.00 20.00    -0.298 OA
ENDROOT
TORSDOF 0
ENDMDL
MODEL 5
REMARK VINA RESULT:      -4.5      1.343      2.171
REMARK  0 active torsions:
REMARK  status: ('A' for Active; 'I' for Inactive)
ROOT
HETATM    1  C1  UNL     1     -32.682   7.261   2.427  1.00 20.00     0.064 C 
HETATM    2  C2  UNL     1     -34.852   5.060   4.634  1.00 20.00     0.128 C 
HETATM    3  C3  UNL     1     -34.342   5.459   5.999  1.00 20.00     0.078 C 
HETATM    4  C4  UNL     1     -33.988   5.442   3.453  1.00 20.00     0.097 C 
HETATM    5  C5  UNL     1     -33.955   6.931   6.016  1.00 20.00     0.009 C 
HETATM    6  C6  UNL     1     -33.000   7.280   4.876  1.00 20.00     0.020 C 
HETATM    7  C7  UNL     1     -33.615   6.923   3.515  1.00 20.00     0.100 C 
HETATM    8  N8  UNL     1     -31.947   7.527   1.570  1.00 20.00    -0.197 NA
HETATM    9  O9  UNL     1     -35.863   4.371   4.499  1.00 20.00    -0.298 OA
ENDROOT
TORSDOF 0
ENDMDL
MODEL 6
REMARK VINA RESULT:      -4.5     11.593     12.033
REMARK  0 active torsions:
REMARK  status: ('A' for Active; 'I' for Inactive)
ROOT
HETATM    1  C1  UNL     1     -35.316  16.713  -1.635  1.00 20.00     0.064 C 
HETATM    2  C2  UNL     1     -35.300  14.021  -4.314  1.00 20.00     0.128 C 
HETATM    3  C3  UNL     1     -34.058  14.411  -5.082  1.00 20.00     0.078 C 
HETATM    4  C4  UNL     1     -35.870  15.064  -3.379  1.00 20.00     0.097 C 
HETATM    5  C5  UNL     1     -33.007  14.984  -4.142  1.00 20.00     0.009 C 
HETATM    6  C6  UNL     1     -33.572  16.107  -3.275  1.00 20.00     0.020 C 
HETATM    7  C7  UNL     1     -34.779  15.619  -2.463  1.00 20.00     0.100 C 
HETATM    8  N8  UNL     1     -35.738  17.575  -0.984  1.00 20.00    -0.197 NA
HETATM    9  O9  UNL     1     -35.874  12.951  -4.517  1.00 20.00    -0.298 OA
ENDROOT
TORSDOF 0
ENDMDL
MODEL 7
REMARK VINA RESULT:      -4.4     11.731     12.335
REMARK  0 active torsions:
REMARK  status: ('A' for Active; 'I' for Inactive)
ROOT
HETATM    1  C1  UNL     1     -32.888  17.384  -2.110  1.00 20.00     0.064 C 
HETATM    2  C2  UNL     1     -33.843  14.743  -4.667  1.00 20.00     0.128 C 
HETATM    3  C3  UNL     1     -35.044  14.129  -3.985  1.00 20.00     0.078 C 
HETATM    4  C4  UNL     1     -32.940  15.596  -3.803  1.00 20.00     0.097 C 
HETATM    5  C5  UNL     1     -35.815  15.186  -3.207  1.00 20.00     0.009 C 
HETATM    6  C6  UNL     1     -34.907  15.971  -2.263  1.00 20.00     0.020 C 
HETATM    7  C7  UNL     1     -33.756  16.634  -3.033  1.00 20.00     0.100 C 
HETATM    8  N8  UNL     1     -32.203  17.975  -1.382  1.00 20.00    -0.197 NA
HETATM    9  O9  UNL     1     -33.558  14.478  -5.834  1.00 20.00    -0.298 OA
ENDROOT
TORSDOF 0
ENDMDL
MODEL 8
REMARK VINA RESULT:      -4.4     11.444     12.398
REMARK  0 active torsions:
REMARK  status: ('A' for Active; 'I' for Inactive)
ROOT
HETATM    1  C1  UNL     1     -33.296  16.358  -3.028  1.00 20.00     0.064 C 
HETATM    2  C2  UNL     1     -35.583  13.763  -4.596  1.00 20.00     0.128 C 
HETATM    3  C3  UNL     1     -35.915  14.449  -5.901  1.00 20.00     0.078 C 
HETATM    4  C4  UNL     1     -34.983  14.631  -3.512  1.00 20.00     0.097 C 
HETATM    5  C5  UNL     1     -34.726  15.258  -6.397  1.00 20.00     0.009 C 
HETATM    6  C6  UNL     1     -34.195  16.205  -5.323  1.00 20.00     0.020 C 
HETATM    7  C7  UNL     1     -33.801  15.433  -4.056  1.00 20.00     0.100 C 
HETATM    8  N8  UNL     1     -32.897  17.088  -2.218  1.00 20.00    -0.197 NA
HETATM    9  O9  UNL     1     -35.880  12.587  -4.392  1.00 20.00    -0.298 OA
ENDROOT
TORSDOF 0
ENDMDL
MODEL 9
REMARK VINA RESULT:      -4.4     11.485     12.130
REMARK  0 active torsions:
REMARK  status: ('A' for Active; 'I' for Inactive)
ROOT
HETATM    1  C1  UNL     1     -35.429  13.908  -4.205  1.00 20.00     0.064 C 
HETATM    2  C2  UNL     1     -34.969  16.964  -1.998  1.00 20.00     0.128 C 
HETATM    3  C3  UNL     1     -33.464  17.100  -2.034  1.00 20.00     0.078 C 
HETATM    4  C4  UNL     1     -35.538  15.641  -2.458  1.00 20.00     0.097 C 
HETATM    5  C5  UNL     1     -32.921  16.675  -3.391  1.00 20.00     0.009 C 
HETATM    6  C6  UNL     1     -33.424  15.291  -3.796  1.00 20.00     0.020 C 
HETATM    7  C7  UNL     1     -34.959  15.248  -3.818  1.00 20.00     0.100 C 
HETATM    8  N8  UNL     1     -35.799  12.851  -4.511  1.00 20.00    -0.197 NA
HETATM    9  O9  UNL     1     -35.684  17.846  -1.523  1.00 20.00    -0.298 OA
ENDROOT
TORSDOF 0
ENDMDL
