MODEL 1
REMARK VINA RESULT:      -5.1      0.000      0.000
REMARK  1 active torsions:
REMARK  status: ('A' for Active; 'I' for Inactive)
REMARK    1  A    between atoms: C3_3  and  C5_5 
ROOT
HETATM    1  C1  UNL     1     -36.200  16.027  -4.659  1.00 20.00    -0.015 C 
HETATM    2  C2  UNL     1     -35.815  16.932  -3.753  1.00 20.00    -0.021 C 
HETATM    3  C4  UNL     1     -34.639  14.933  -3.253  1.00 20.00     0.032 C 
HETATM    4  C5  UNL     1     -35.394  14.778  -4.575  1.00 20.00     0.110 C 
HETATM    5  C6  UNL     1     -34.676  16.439  -2.905  1.00 20.00    -0.029 C 
HETATM    6  C7  UNL     1     -33.372  17.140  -3.305  1.00 20.00     0.019 C 
HETATM    7  C8  UNL     1     -34.954  16.655  -1.414  1.00 20.00     0.019 C 
ENDROOT
BRANCH   4   8
HETATM    8  C3  UNL     1     -36.343  13.605  -4.512  1.00 20.00     0.180 C 
HETATM    9  O9  UNL     1     -37.570  13.902  -4.523  1.00 20.00    -0.647 OA
HETATM   10  O10 UNL     1     -35.783  12.474  -4.457  1.00 20.00    -0.647 OA
ENDBRANCH   4   8
TORSDOF 1
ENDMDL
MODEL 2
REMARK VINA RESULT:      -5.0      1.139      1.903
REMARK  1 active torsions:
REMARK  status: ('A' for Active; 'I' for Inactive)
REMARK    1  A    between atoms: C3_3  and  C5_5 
ROOT
HETATM    1  C1  UNL     1     -34.215  14.211  -4.047  1.00 20.00    -0.015 C 
HETATM    2  C2  UNL     1     -33.465  15.313  -3.938  1.00 20.00    -0.021 C 
HETATM    3  C4  UNL     1     -35.711  15.988  -3.583  1.00 20.00     0.032 C 
HETATM    4  C5  UNL     1     -35.630  14.462  -3.658  1.00 20.00     0.110 C 
HETATM    5  C6  UNL     1     -34.256  16.495  -3.452  1.00 20.00    -0.029 C 
HETATM    6  C7  UNL     1     -33.900  16.811  -1.995  1.00 20.00     0.019 C 
HETATM    7  C8  UNL     1     -34.019  17.726  -4.332  1.00 20.00     0.019 C 
ENDROOT
BRANCH   4   8
HETATM    8  C3  UNL     1     -36.524  13.934  -4.755  1.00 20.00     0.180 C 
HETATM    9  O9  UNL     1     -37.724  13.730  -4.421  1.00 20.00    -0.647 OA
HETATM   10  O10 UNL     1     -35.953  13.765  -5.868  1.00 20.00    -0.647 OA
ENDBRANCH   4   8
TORSDOF 1
ENDMDL
MODEL 3
REMARK VINA RESULT:      -5.0      1.144      2.055
REMARK  1 active torsions:
REMARK  status: ('A' for Active; 'I' for Inactive)
REMARK    1  A    between atoms: C3_3  and  C5_5 
ROOT
HETATM    1  C1  UNL     1     -34.195  14.229  -4.073  1.00 20.00    -0.015 C 
HETATM    2  C2  UNL     1     -33.458  15.339  -3.968  1.00 20.00    -0.021 C 
HETATM    3  C4  UNL     1     -35.709  15.984  -3.587  1.00 20.00     0.032 C 
HETATM    4  C5  UNL     1     -35.610  14.460  -3.667  1.00 20.00     0.110 C 
HETATM    5  C6  UNL     1     -34.259  16.510  -3.470  1.00 20.00    -0.029 C 
HETATM    6  C7  UNL     1     -33.892  16.826  -2.015  1.00 20.00     0.019 C 
HETATM    7  C8  UNL     1     -34.047  17.746  -4.348  1.00 20.00     0.019 C 
ENDROOT
BRANCH   4   8
HETATM    8  C3  UNL     1     -36.509  13.925  -4.757  1.00 20.00     0.180 C 
HETATM    9  O9  UNL     1     -35.945  13.719  -5.868  1.00 20.00    -0.647 OA
HETATM   10  O10 UNL     1     -37.712  13.752  -4.414  1.00 20.00    -0.647 OA
ENDBRANCH   4   8
TORSDOF 1
ENDMDL
MODEL 4
REMARK VINA RESULT:      -4.9      9.775     11.545
REMARK  1 active torsions:
REMARK  status: ('A' for Active; 'I' for Inactive)
REMARK    1  A    between atoms: C3_3  and  C5_5 
ROOT
HETATM    1  C1  UNL     1     -41.900   7.049   1.003  1.00 20.00    -0.015 C 
HETATM    2  C2  UNL     1     -42.312   5.887   0.487  1.00 20.00    -0.021 C 
HETATM    3  C4  UNL     1     -41.781   7.292  -1.350  1.00 20.00     0.032 C 
HETATM    4  C5  UNL     1     -41.354   7.959  -0.042  1.00 20.00     0.110 C 
HETATM    5  C6  UNL     1     -42.110   5.821  -1.002  1.00 20.00    -0.029 C 
HETATM    6  C7  UNL     1     -40.939   4.889  -1.339  1.00 20.00     0.019 C 
HETATM    7  C8  UNL     1     -43.379   5.353  -1.718  1.00 20.00     0.019 C 
ENDROOT
BRANCH   4   8
HETATM    8  C3  UNL     1     -42.018   9.307   0.110  1.00 20.00     0.180 C 
HETATM    9  O9  UNL     1     -41.242  10.262   0.393  1.00 20.00    -0.647 OA
HETATM   10  O10 UNL     1     -43.269   9.305  -0.067  1.00 20.00    -0.647 OA
ENDBRANCH   4   8
TORSDOF 1
ENDMDL
MODEL 5
REMARK VINA RESULT:      -4.5      1.744      3.010
REMARK  1 active torsions:
REMARK  status: ('A' for Active; 'I' for Inactive)
REMARK    1  A    between atoms: C3_3  and  C5_5 
ROOT
HETATM    1  C1  UNL     1     -34.447  14.710  -4.208  1.00 20.00    -0.015 C 
HETATM    2  C2  UNL     1     -33.681  15.330  -5.111  1.00 20.00    -0.021 C 
HETATM    3  C4  UNL     1     -35.925  15.598  -5.832  1.00 20.00     0.032 C 
HETATM    4  C5  UNL     1     -35.896  14.964  -4.439  1.00 20.00     0.110 C 
HETATM    5  C6  UNL     1     -34.492  16.112  -6.107  1.00 20.00    -0.029 C 
HETATM    6  C7  UNL     1     -34.373  17.615  -5.829  1.00 20.00     0.019 C 
HETATM    7  C8  UNL     1     -34.062  15.805  -7.543  1.00 20.00     0.019 C 
ENDROOT
BRANCH   4   8
HETATM    8  C3  UNL     1     -36.615  13.636  -4.444  1.00 20.00     0.180 C 
HETATM    9  O9  UNL     1     -35.870  12.620  -4.528  1.00 20.00    -0.647 OA
HETATM   10  O10 UNL     1     -37.873  13.714  -4.363  1.00 20.00    -0.647 OA
ENDBRANCH   4   8
TORSDOF 1
ENDMDL
MODEL 6
REMARK VINA RESULT:      -4.5      1.482      2.011
REMARK  1 active torsions:
REMARK  status: ('A' for Active; 'I' for Inactive)
REMARK    1  A    between atoms: C3_3  and  C5_5 
ROOT
HETATM    1  C1  UNL     1     -35.566  15.781  -5.499  1.00 20.00    -0.015 C 
HETATM    2  C2  UNL     1     -34.399  16.258  -5.056  1.00 20.00    -0.021 C 
HETATM    3  C4  UNL     1     -35.087  14.606  -3.499  1.00 20.00     0.032 C 
HETATM    4  C5  UNL     1     -36.018  14.600  -4.713  1.00 20.00     0.110 C 
HETATM    5  C6  UNL     1     -33.866  15.471  -3.891  1.00 20.00    -0.029 C 
HETATM    6  C7  UNL     1     -32.682  14.603  -4.331  1.00 20.00     0.019 C 
HETATM    7  C8  UNL     1     -33.448  16.391  -2.740  1.00 20.00     0.019 C 
ENDROOT
BRANCH   4   8
HETATM    8  C3  UNL     1     -37.449  14.832  -4.288  1.00 20.00     0.180 C 
HETATM    9  O9  UNL     1     -38.210  13.830  -4.384  1.00 20.00    -0.647 OA
HETATM   10  O10 UNL     1     -37.699  16.005  -3.890  1.00 20.00    -0.647 OA
ENDBRANCH   4   8
TORSDOF 1
ENDMDL
MODEL 7
REMARK VINA RESULT:      -4.3     17.544     18.609
REMARK  1 active torsions:
REMARK  status: ('A' for Active; 'I' for Inactive)
REMARK    1  A    between atoms: C3_3  and  C5_5 
ROOT
HETATM    1  C1  UNL     1     -23.830  16.444   9.345  1.00 20.00    -0.015 C 
HETATM    2  C2  UNL     1     -23.862  16.478  10.681  1.00 20.00    -0.021 C 
HETATM    3  C4  UNL     1     -22.890  18.525   9.978  1.00 20.00     0.032 C 
HETATM    4  C5  UNL     1     -23.415  17.753   8.766  1.00 20.00     0.110 C 
HETATM    5  C6  UNL     1     -23.474  17.823  11.227  1.00 20.00    -0.029 C 
HETATM    6  C7  UNL     1     -24.710  18.559  11.758  1.00 20.00     0.019 C 
HETATM    7  C8  UNL     1     -22.421  17.696  12.332  1.00 20.00     0.019 C 
ENDROOT
BRANCH   4   8
HETATM    8  C3  UNL     1     -22.305  17.501   7.773  1.00 20.00     0.180 C 
HETATM    9  O9  UNL     1     -21.405  16.704   8.161  1.00 20.00    -0.647 OA
HETATM   10  O10 UNL     1     -22.420  18.123   6.681  1.00 20.00    -0.647 OA
ENDBRANCH   4   8
TORSDOF 1
ENDMDL
MODEL 8
REMARK VINA RESULT:      -4.2      2.090      2.515
REMARK  1 active torsions:
REMARK  status: ('A' for Active; 'I' for Inactive)
REMARK    1  A    between atoms: C3_3  and  C5_5 
ROOT
HETATM    1  C1  UNL     1     -35.014  15.167  -3.151  1.00 20.00    -0.015 C 
HETATM    2  C2  UNL     1     -34.733  16.002  -2.145  1.00 20.00    -0.021 C 
HETATM    3  C4  UNL     1     -33.724  16.920  -4.086  1.00 20.00     0.032 C 
HETATM    4  C5  UNL     1     -34.599  15.724  -4.468  1.00 20.00     0.110 C 
HETATM    5  C6  UNL     1     -34.079  17.269  -2.621  1.00 20.00    -0.029 C 
HETATM    6  C7  UNL     1     -35.067  18.439  -2.547  1.00 20.00     0.019 C 
HETATM    7  C8  UNL     1     -32.821  17.589  -1.809  1.00 20.00     0.019 C 
ENDROOT
BRANCH   4   8
HETATM    8  C3  UNL     1     -33.784  14.677  -5.190  1.00 20.00     0.180 C 
HETATM    9  O9  UNL     1     -33.887  14.687  -6.448  1.00 20.00    -0.647 OA
HETATM   10  O10 UNL     1     -33.103  13.924  -4.438  1.00 20.00    -0.647 OA
ENDBRANCH   4   8
TORSDOF 1
ENDMDL
MODEL 9
REMARK VINA RESULT:      -4.2     17.993     18.799
REMARK  1 active torsions:
REMARK  status: ('A' for Active; 'I' for Inactive)
REMARK    1  A    between atoms: C3_3  and  C5_5 
ROOT
HETATM    1  C1  UNL     1     -25.480  16.488  12.224  1.00 20.00    -0.015 C 
HETATM    2  C2  UNL     1     -24.357  16.212  11.555  1.00 20.00    -0.021 C 
HETATM    3  C4  UNL     1     -24.710  18.549  11.345  1.00 20.00     0.032 C 
HETATM    4  C5  UNL     1     -25.716  17.955  12.332  1.00 20.00     0.110 C 
HETATM    5  C6  UNL     1     -23.643  17.455  11.100  1.00 20.00    -0.029 C 
HETATM    6  C7  UNL     1     -22.390  17.692  11.951  1.00 20.00     0.019 C 
HETATM    7  C8  UNL     1     -23.267  17.373   9.618  1.00 20.00     0.019 C 
ENDROOT
BRANCH   4   8
HETATM    8  C3  UNL     1     -27.131  18.241  11.886  1.00 20.00     0.180 C 
HETATM    9  O9  UNL     1     -27.270  19.262  11.156  1.00 20.00    -0.647 OA
HETATM   10  O10 UNL     1     -27.995  17.420  12.304  1.00 20.00    -0.647 OA
ENDBRANCH   4   8
TORSDOF 1
ENDMDL
