MODEL 1
REMARK VINA RESULT:      -4.2      0.000      0.000
REMARK  3 active torsions:
REMARK  status: ('A' for Active; 'I' for Inactive)
REMARK    1  A    between atoms: C1_1  and  C4_4 
REMARK    2  A    between atoms: C2_2  and  C5_5 
REMARK    3  A    between atoms: C3_3  and  C4_4 
ROOT
HETATM    1  C1  UNL     1     -33.629   6.583   3.477  1.00 20.00    -0.019 C 
HETATM    2  C2  UNL     1     -32.648   7.326   2.943  1.00 20.00    -0.015 C 
ENDROOT
BRANCH   1   3
HETATM    3  C4  UNL     1     -33.905   6.502   4.946  1.00 20.00     0.140 C 
BRANCH   3   4
HETATM    4  C3  UNL     1     -34.695   5.226   5.204  1.00 20.00     0.176 C 
HETATM    5  O6  UNL     1     -35.057   5.052   6.402  1.00 20.00    -0.648 OA
HETATM    6  O7  UNL     1     -34.878   4.492   4.191  1.00 20.00    -0.648 OA
ENDBRANCH   3   4
ENDBRANCH   1   3
BRANCH   2   7
HETATM    7  C5  UNL     1     -32.364   7.394   1.480  1.00 20.00     0.141 C 
HETATM    8 CL8  UNL     1     -32.912   8.953   0.828  1.00 20.00    -0.126 Cl
ENDBRANCH   2   7
TORSDOF 3
ENDMDL
MODEL 2
REMARK VINA RESULT:      -4.2     11.303     11.746
REMARK  3 active torsions:
REMARK  status: ('A' for Active; 'I' for Inactive)
REMARK    1  A    between atoms: C1_1  and  C4_4 
REMARK    2  A    between atoms: C2_2  and  C5_5 
REMARK    3  A    between atoms: C3_3  and  C4_4 
ROOT
HETATM    1  C1  UNL     1     -34.770  15.268  -4.036  1.00 20.00    -0.019 C 
HETATM    2  C2  UNL     1     -35.315  15.870  -2.969  1.00 20.00    -0.015 C 
ENDROOT
BRANCH   1   3
HETATM    3  C4  UNL     1     -35.568  14.705  -5.171  1.00 20.00     0.140 C 
BRANCH   3   4
HETATM    4  C3  UNL     1     -36.387  13.538  -4.633  1.00 20.00     0.176 C 
HETATM    5  O6  UNL     1     -35.730  12.484  -4.399  1.00 20.00    -0.648 OA
HETATM    6  O7  UNL     1     -37.623  13.764  -4.500  1.00 20.00    -0.648 OA
ENDBRANCH   3   4
ENDBRANCH   1   3
BRANCH   2   7
HETATM    7  C5  UNL     1     -34.519  16.417  -1.831  1.00 20.00     0.141 C 
HETATM    8 CL8  UNL     1     -32.963  17.036  -2.424  1.00 20.00    -0.126 Cl
ENDBRANCH   2   7
TORSDOF 3
ENDMDL
MODEL 3
REMARK VINA RESULT:      -4.2     11.299     11.742
REMARK  3 active torsions:
REMARK  status: ('A' for Active; 'I' for Inactive)
REMARK    1  A    between atoms: C1_1  and  C4_4 
REMARK    2  A    between atoms: C2_2  and  C5_5 
REMARK    3  A    between atoms: C3_3  and  C4_4 
ROOT
HETATM    1  C1  UNL     1     -35.239  15.639  -4.080  1.00 20.00    -0.019 C 
HETATM    2  C2  UNL     1     -34.092  15.601  -3.388  1.00 20.00    -0.015 C 
ENDROOT
BRANCH   1   3
HETATM    3  C4  UNL     1     -35.560  14.710  -5.209  1.00 20.00     0.140 C 
BRANCH   3   4
HETATM    4  C3  UNL     1     -36.381  13.556  -4.647  1.00 20.00     0.176 C 
HETATM    5  O6  UNL     1     -37.607  13.805  -4.471  1.00 20.00    -0.648 OA
HETATM    6  O7  UNL     1     -35.731  12.498  -4.412  1.00 20.00    -0.648 OA
ENDBRANCH   3   4
ENDBRANCH   1   3
BRANCH   2   7
HETATM    7  C5  UNL     1     -33.766  16.539  -2.274  1.00 20.00     0.141 C 
HETATM    8 CL8  UNL     1     -35.145  16.657  -1.161  1.00 20.00    -0.126 Cl
ENDBRANCH   2   7
TORSDOF 3
ENDMDL
MODEL 4
REMARK VINA RESULT:      -4.1     11.272     11.817
REMARK  3 active torsions:
REMARK  status: ('A' for Active; 'I' for Inactive)
REMARK    1  A    between atoms: C1_1  and  C4_4 
REMARK    2  A    between atoms: C2_2  and  C5_5 
REMARK    3  A    between atoms: C3_3  and  C4_4 
ROOT
HETATM    1  C1  UNL     1     -35.234  15.190  -3.265  1.00 20.00    -0.019 C 
HETATM    2  C2  UNL     1     -34.201  15.784  -2.650  1.00 20.00    -0.015 C 
ENDROOT
BRANCH   1   3
HETATM    3  C4  UNL     1     -35.131  13.884  -3.991  1.00 20.00     0.140 C 
BRANCH   3   4
HETATM    4  C3  UNL     1     -36.297  13.798  -4.967  1.00 20.00     0.176 C 
HETATM    5  O6  UNL     1     -37.433  13.645  -4.434  1.00 20.00    -0.648 OA
HETATM    6  O7  UNL     1     -35.983  13.875  -6.188  1.00 20.00    -0.648 OA
ENDBRANCH   3   4
ENDBRANCH   1   3
BRANCH   2   7
HETATM    7  C5  UNL     1     -34.301  17.093  -1.941  1.00 20.00     0.141 C 
HETATM    8 CL8  UNL     1     -35.307  16.919  -0.488  1.00 20.00    -0.126 Cl
ENDBRANCH   2   7
TORSDOF 3
ENDMDL
MODEL 5
REMARK VINA RESULT:      -4.1     11.272     11.860
REMARK  3 active torsions:
REMARK  status: ('A' for Active; 'I' for Inactive)
REMARK    1  A    between atoms: C1_1  and  C4_4 
REMARK    2  A    between atoms: C2_2  and  C5_5 
REMARK    3  A    between atoms: C3_3  and  C4_4 
ROOT
HETATM    1  C1  UNL     1     -35.248  15.194  -3.231  1.00 20.00    -0.019 C 
HETATM    2  C2  UNL     1     -34.218  15.819  -2.643  1.00 20.00    -0.015 C 
ENDROOT
BRANCH   1   3
HETATM    3  C4  UNL     1     -35.121  13.901  -3.976  1.00 20.00     0.140 C 
BRANCH   3   4
HETATM    4  C3  UNL     1     -36.287  13.807  -4.952  1.00 20.00     0.176 C 
HETATM    5  O6  UNL     1     -35.972  13.889  -6.173  1.00 20.00    -0.648 OA
HETATM    6  O7  UNL     1     -37.425  13.673  -4.419  1.00 20.00    -0.648 OA
ENDBRANCH   3   4
ENDBRANCH   1   3
BRANCH   2   7
HETATM    7  C5  UNL     1     -34.343  17.116  -1.915  1.00 20.00     0.141 C 
HETATM    8 CL8  UNL     1     -35.338  16.899  -0.460  1.00 20.00    -0.126 Cl
ENDBRANCH   2   7
TORSDOF 3
ENDMDL
MODEL 6
REMARK VINA RESULT:      -4.1      3.448      4.531
REMARK  3 active torsions:
REMARK  status: ('A' for Active; 'I' for Inactive)
REMARK    1  A    between atoms: C1_1  and  C4_4 
REMARK    2  A    between atoms: C2_2  and  C5_5 
REMARK    3  A    between atoms: C3_3  and  C4_4 
ROOT
HETATM    1  C1  UNL     1     -33.645   5.930   3.646  1.00 20.00    -0.019 C 
HETATM    2  C2  UNL     1     -34.593   5.062   4.031  1.00 20.00    -0.015 C 
ENDROOT
BRANCH   1   3
HETATM    3  C4  UNL     1     -33.136   6.035   2.243  1.00 20.00     0.140 C 
BRANCH   3   4
HETATM    4  C3  UNL     1     -32.366   7.344   2.121  1.00 20.00     0.176 C 
HETATM    5  O6  UNL     1     -31.650   7.640   3.120  1.00 20.00    -0.648 OA
HETATM    6  O7  UNL     1     -32.549   7.978   1.044  1.00 20.00    -0.648 OA
ENDBRANCH   3   4
ENDBRANCH   1   3
BRANCH   2   7
HETATM    7  C5  UNL     1     -35.088   4.946   5.434  1.00 20.00     0.141 C 
HETATM    8 CL8  UNL     1     -34.474   6.301   6.406  1.00 20.00    -0.126 Cl
ENDBRANCH   2   7
TORSDOF 3
ENDMDL
MODEL 7
REMARK VINA RESULT:      -3.9      3.977      4.885
REMARK  3 active torsions:
REMARK  status: ('A' for Active; 'I' for Inactive)
REMARK    1  A    between atoms: C1_1  and  C4_4 
REMARK    2  A    between atoms: C2_2  and  C5_5 
REMARK    3  A    between atoms: C3_3  and  C4_4 
ROOT
HETATM    1  C1  UNL     1     -32.941   7.127   2.422  1.00 20.00    -0.019 C 
HETATM    2  C2  UNL     1     -33.271   5.839   2.600  1.00 20.00    -0.015 C 
ENDROOT
BRANCH   1   3
HETATM    3  C4  UNL     1     -32.116   7.622   1.275  1.00 20.00     0.140 C 
BRANCH   3   4
HETATM    4  C3  UNL     1     -32.926   8.683   0.541  1.00 20.00     0.176 C 
HETATM    5  O6  UNL     1     -32.864   9.844   1.035  1.00 20.00    -0.648 OA
HETATM    6  O7  UNL     1     -33.571   8.267  -0.463  1.00 20.00    -0.648 OA
ENDBRANCH   3   4
ENDBRANCH   1   3
BRANCH   2   7
HETATM    7  C5  UNL     1     -34.079   5.344   3.753  1.00 20.00     0.141 C 
HETATM    8 CL8  UNL     1     -34.073   6.549   5.058  1.00 20.00    -0.126 Cl
ENDBRANCH   2   7
TORSDOF 3
ENDMDL
MODEL 8
REMARK VINA RESULT:      -3.9     16.669     17.070
REMARK  3 active torsions:
REMARK  status: ('A' for Active; 'I' for Inactive)
REMARK    1  A    between atoms: C1_1  and  C4_4 
REMARK    2  A    between atoms: C2_2  and  C5_5 
REMARK    3  A    between atoms: C3_3  and  C4_4 
ROOT
HETATM    1  C1  UNL     1     -22.692  17.271   9.951  1.00 20.00    -0.019 C 
HETATM    2  C2  UNL     1     -22.866  17.732  11.198  1.00 20.00    -0.015 C 
ENDROOT
BRANCH   1   3
HETATM    3  C4  UNL     1     -21.542  17.658   9.074  1.00 20.00     0.140 C 
BRANCH   3   4
HETATM    4  C3  UNL     1     -21.981  17.488   7.625  1.00 20.00     0.176 C 
HETATM    5  O6  UNL     1     -22.944  18.223   7.266  1.00 20.00    -0.648 OA
HETATM    6  O7  UNL     1     -21.337  16.623   6.966  1.00 20.00    -0.648 OA
ENDBRANCH   3   4
ENDBRANCH   1   3
BRANCH   2   7
HETATM    7  C5  UNL     1     -24.021  17.357  12.065  1.00 20.00     0.141 C 
HETATM    8 CL8  UNL     1     -24.627  15.753  11.605  1.00 20.00    -0.126 Cl
ENDBRANCH   2   7
TORSDOF 3
ENDMDL
MODEL 9
REMARK VINA RESULT:      -3.8     11.068     11.676
REMARK  3 active torsions:
REMARK  status: ('A' for Active; 'I' for Inactive)
REMARK    1  A    between atoms: C1_1  and  C4_4 
REMARK    2  A    between atoms: C2_2  and  C5_5 
REMARK    3  A    between atoms: C3_3  and  C4_4 
ROOT
HETATM    1  C1  UNL     1     -33.944  15.848  -3.109  1.00 20.00    -0.019 C 
HETATM    2  C2  UNL     1     -33.885  16.767  -2.134  1.00 20.00    -0.015 C 
ENDROOT
BRANCH   1   3
HETATM    3  C4  UNL     1     -35.113  14.938  -3.323  1.00 20.00     0.140 C 
BRANCH   3   4
HETATM    4  C3  UNL     1     -34.629  13.734  -4.122  1.00 20.00     0.176 C 
HETATM    5  O6  UNL     1     -35.481  12.812  -4.273  1.00 20.00    -0.648 OA
HETATM    6  O7  UNL     1     -33.433  13.800  -4.522  1.00 20.00    -0.648 OA
ENDBRANCH   3   4
ENDBRANCH   1   3
BRANCH   2   7
HETATM    7  C5  UNL     1     -32.712  17.662  -1.911  1.00 20.00     0.141 C 
HETATM    8 CL8  UNL     1     -32.743  18.298  -0.253  1.00 20.00    -0.126 Cl
ENDBRANCH   2   7
TORSDOF 3
ENDMDL
