MODEL 1
REMARK VINA RESULT:      -3.4      0.000      0.000
REMARK  2 active torsions:
REMARK  status: ('A' for Active; 'I' for Inactive)
REMARK    1  A    between atoms: C2_2  and  C6_6 
REMARK    2  A    between atoms: C6_6  and  N7_7 
ROOT
HETATM    1  C3  UNL     1     -21.682  17.446   7.811  1.00 20.00     0.060 C 
HETATM    2  C4  UNL     1     -23.085  17.925   8.231  1.00 20.00     0.274 C 
HETATM    3  C5  UNL     1     -21.418  17.344   9.325  1.00 20.00     0.274 C 
HETATM    4  N7  UNL     1     -22.884  17.179   9.501  1.00 20.00     0.093 N 
ENDROOT
BRANCH   4   5
HETATM    5  C6  UNL     1     -23.357  17.962  10.637  1.00 20.00     0.317 C 
BRANCH   5   6
HETATM    6  C2  UNL     1     -24.505  17.309  11.354  1.00 20.00     0.007 C 
HETATM    7  C1  UNL     1     -24.604  15.983  11.522  1.00 20.00     0.029 C 
HETATM    8 BR8  UNL     1     -25.780  18.478  12.076  1.00 20.00    -0.055 Br
ENDBRANCH   5   6
ENDBRANCH   4   5
TORSDOF 2
ENDMDL
MODEL 2
REMARK VINA RESULT:      -3.1     16.059     16.939
REMARK  2 active torsions:
REMARK  status: ('A' for Active; 'I' for Inactive)
REMARK    1  A    between atoms: C2_2  and  C6_6 
REMARK    2  A    between atoms: C6_6  and  N7_7 
ROOT
HETATM    1  C3  UNL     1     -35.074   5.375   6.260  1.00 20.00     0.060 C 
HETATM    2  C4  UNL     1     -34.039   6.498   6.053  1.00 20.00     0.274 C 
HETATM    3  C5  UNL     1     -35.148   5.354   4.722  1.00 20.00     0.274 C 
HETATM    4  N7  UNL     1     -33.771   5.911   4.715  1.00 20.00     0.093 N 
ENDROOT
BRANCH   4   5
HETATM    5  C6  UNL     1     -33.646   6.960   3.709  1.00 20.00     0.317 C 
BRANCH   5   6
HETATM    6  C2  UNL     1     -32.989   6.477   2.446  1.00 20.00     0.007 C 
HETATM    7  C1  UNL     1     -32.879   5.180   2.128  1.00 20.00     0.029 C 
HETATM    8 BR8  UNL     1     -32.384   7.817   1.284  1.00 20.00    -0.055 Br
ENDBRANCH   5   6
ENDBRANCH   4   5
TORSDOF 2
ENDMDL
MODEL 3
REMARK VINA RESULT:      -3.1      1.970      2.336
REMARK  2 active torsions:
REMARK  status: ('A' for Active; 'I' for Inactive)
REMARK    1  A    between atoms: C2_2  and  C6_6 
REMARK    2  A    between atoms: C6_6  and  N7_7 
ROOT
HETATM    1  C3  UNL     1     -24.493  19.172   7.365  1.00 20.00     0.060 C 
HETATM    2  C4  UNL     1     -25.599  19.099   8.436  1.00 20.00     0.274 C 
HETATM    3  C5  UNL     1     -23.554  18.745   8.509  1.00 20.00     0.274 C 
HETATM    4  N7  UNL     1     -24.738  18.128   9.160  1.00 20.00     0.093 N 
ENDROOT
BRANCH   4   5
HETATM    5  C6  UNL     1     -24.740  18.407  10.592  1.00 20.00     0.317 C 
BRANCH   5   6
HETATM    6  C2  UNL     1     -24.150  17.287  11.402  1.00 20.00     0.007 C 
HETATM    7  C1  UNL     1     -24.669  16.052  11.431  1.00 20.00     0.029 C 
HETATM    8 BR8  UNL     1     -22.576  17.701  12.331  1.00 20.00    -0.055 Br
ENDBRANCH   5   6
ENDBRANCH   4   5
TORSDOF 2
ENDMDL
MODEL 4
REMARK VINA RESULT:      -3.0     15.353     16.267
REMARK  2 active torsions:
REMARK  status: ('A' for Active; 'I' for Inactive)
REMARK    1  A    between atoms: C2_2  and  C6_6 
REMARK    2  A    between atoms: C6_6  and  N7_7 
ROOT
HETATM    1  C3  UNL     1     -34.591  14.497  -3.787  1.00 20.00     0.060 C 
HETATM    2  C4  UNL     1     -35.208  15.616  -2.927  1.00 20.00     0.274 C 
HETATM    3  C5  UNL     1     -33.342  15.399  -3.812  1.00 20.00     0.274 C 
HETATM    4  N7  UNL     1     -33.823  15.985  -2.534  1.00 20.00     0.093 N 
ENDROOT
BRANCH   4   5
HETATM    5  C6  UNL     1     -33.655  17.433  -2.538  1.00 20.00     0.317 C 
BRANCH   5   6
HETATM    6  C2  UNL     1     -33.121  17.959  -1.235  1.00 20.00     0.007 C 
HETATM    7  C1  UNL     1     -31.858  18.376  -1.077  1.00 20.00     0.029 C 
HETATM    8 BR8  UNL     1     -34.363  18.067   0.165  1.00 20.00    -0.055 Br
ENDBRANCH   5   6
ENDBRANCH   4   5
TORSDOF 2
ENDMDL
MODEL 5
REMARK VINA RESULT:      -3.0     15.143     15.984
REMARK  2 active torsions:
REMARK  status: ('A' for Active; 'I' for Inactive)
REMARK    1  A    between atoms: C2_2  and  C6_6 
REMARK    2  A    between atoms: C6_6  and  N7_7 
ROOT
HETATM    1  C3  UNL     1     -34.488  14.856  -3.635  1.00 20.00     0.060 C 
HETATM    2  C4  UNL     1     -35.134  15.838  -2.638  1.00 20.00     0.274 C 
HETATM    3  C5  UNL     1     -33.301  15.838  -3.615  1.00 20.00     0.274 C 
HETATM    4  N7  UNL     1     -33.758  16.257  -2.264  1.00 20.00     0.093 N 
ENDROOT
BRANCH   4   5
HETATM    5  C6  UNL     1     -33.682  17.707  -2.123  1.00 20.00     0.317 C 
BRANCH   5   6
HETATM    6  C2  UNL     1     -33.284  18.134  -0.738  1.00 20.00     0.007 C 
HETATM    7  C1  UNL     1     -34.148  18.198   0.285  1.00 20.00     0.029 C 
HETATM    8 BR8  UNL     1     -31.464  18.511  -0.498  1.00 20.00    -0.055 Br
ENDBRANCH   5   6
ENDBRANCH   4   5
TORSDOF 2
ENDMDL
MODEL 6
REMARK VINA RESULT:      -2.9     17.601     18.416
REMARK  2 active torsions:
REMARK  status: ('A' for Active; 'I' for Inactive)
REMARK    1  A    between atoms: C2_2  and  C6_6 
REMARK    2  A    between atoms: C6_6  and  N7_7 
ROOT
HETATM    1  C3  UNL     1     -35.502  14.714  -6.707  1.00 20.00     0.060 C 
HETATM    2  C4  UNL     1     -34.195  15.094  -5.984  1.00 20.00     0.274 C 
HETATM    3  C5  UNL     1     -36.072  14.543  -5.286  1.00 20.00     0.274 C 
HETATM    4  N7  UNL     1     -35.034  15.502  -4.827  1.00 20.00     0.093 N 
ENDROOT
BRANCH   4   5
HETATM    5  C6  UNL     1     -34.437  15.053  -3.575  1.00 20.00     0.317 C 
BRANCH   5   6
HETATM    6  C2  UNL     1     -34.349  16.147  -2.548  1.00 20.00     0.007 C 
HETATM    7  C1  UNL     1     -35.236  16.291  -1.554  1.00 20.00     0.029 C 
HETATM    8 BR8  UNL     1     -32.864  17.280  -2.696  1.00 20.00    -0.055 Br
ENDBRANCH   5   6
ENDBRANCH   4   5
TORSDOF 2
ENDMDL
MODEL 7
REMARK VINA RESULT:      -2.9     17.002     17.964
REMARK  2 active torsions:
REMARK  status: ('A' for Active; 'I' for Inactive)
REMARK    1  A    between atoms: C2_2  and  C6_6 
REMARK    2  A    between atoms: C6_6  and  N7_7 
ROOT
HETATM    1  C3  UNL     1     -33.987  17.432  -1.463  1.00 20.00     0.060 C 
HETATM    2  C4  UNL     1     -34.823  16.226  -1.934  1.00 20.00     0.274 C 
HETATM    3  C5  UNL     1     -33.031  17.035  -2.604  1.00 20.00     0.274 C 
HETATM    4  N7  UNL     1     -34.198  16.402  -3.271  1.00 20.00     0.093 N 
ENDROOT
BRANCH   4   5
HETATM    5  C6  UNL     1     -33.827  15.112  -3.840  1.00 20.00     0.317 C 
BRANCH   5   6
HETATM    6  C2  UNL     1     -34.616  14.774  -5.074  1.00 20.00     0.007 C 
HETATM    7  C1  UNL     1     -34.176  15.021  -6.315  1.00 20.00     0.029 C 
HETATM    8 BR8  UNL     1     -36.251  13.907  -4.778  1.00 20.00    -0.055 Br
ENDBRANCH   5   6
ENDBRANCH   4   5
TORSDOF 2
ENDMDL
MODEL 8
REMARK VINA RESULT:      -2.9     17.353     18.196
REMARK  2 active torsions:
REMARK  status: ('A' for Active; 'I' for Inactive)
REMARK    1  A    between atoms: C2_2  and  C6_6 
REMARK    2  A    between atoms: C6_6  and  N7_7 
ROOT
HETATM    1  C3  UNL     1     -33.734  17.309  -1.751  1.00 20.00     0.060 C 
HETATM    2  C4  UNL     1     -34.877  16.283  -1.878  1.00 20.00     0.274 C 
HETATM    3  C5  UNL     1     -33.109  16.546  -2.934  1.00 20.00     0.274 C 
HETATM    4  N7  UNL     1     -34.486  16.124  -3.302  1.00 20.00     0.093 N 
ENDROOT
BRANCH   4   5
HETATM    5  C6  UNL     1     -34.506  14.718  -3.687  1.00 20.00     0.317 C 
BRANCH   5   6
HETATM    6  C2  UNL     1     -35.466  14.438  -4.809  1.00 20.00     0.007 C 
HETATM    7  C1  UNL     1     -36.658  13.854  -4.624  1.00 20.00     0.029 C 
HETATM    8 BR8  UNL     1     -34.925  15.026  -6.504  1.00 20.00    -0.055 Br
ENDBRANCH   5   6
ENDBRANCH   4   5
TORSDOF 2
ENDMDL
MODEL 9
REMARK VINA RESULT:      -2.9     16.412     17.353
REMARK  2 active torsions:
REMARK  status: ('A' for Active; 'I' for Inactive)
REMARK    1  A    between atoms: C2_2  and  C6_6 
REMARK    2  A    between atoms: C6_6  and  N7_7 
ROOT
HETATM    1  C3  UNL     1     -34.055  17.750  -0.598  1.00 20.00     0.060 C 
HETATM    2  C4  UNL     1     -33.437  17.583  -2.000  1.00 20.00     0.274 C 
HETATM    3  C5  UNL     1     -35.203  16.889  -1.158  1.00 20.00     0.274 C 
HETATM    4  N7  UNL     1     -34.222  16.328  -2.122  1.00 20.00     0.093 N 
ENDROOT
BRANCH   4   5
HETATM    5  C6  UNL     1     -34.813  16.219  -3.451  1.00 20.00     0.317 C 
BRANCH   5   6
HETATM    6  C2  UNL     1     -34.515  14.901  -4.111  1.00 20.00     0.007 C 
HETATM    7  C1  UNL     1     -33.271  14.480  -4.375  1.00 20.00     0.029 C 
HETATM    8 BR8  UNL     1     -36.005  13.829  -4.487  1.00 20.00    -0.055 Br
ENDBRANCH   5   6
ENDBRANCH   4   5
TORSDOF 2
ENDMDL
