MODEL 1
REMARK VINA RESULT:      -4.5      0.000      0.000
REMARK  3 active torsions:
REMARK  status: ('A' for Active; 'I' for Inactive)
REMARK    1  A    between atoms: C1_1  and  C2_2 
REMARK    2  A    between atoms: C1_1  and  O10_10 
REMARK    3  A    between atoms: C3_3  and  C7_7 
ROOT
HETATM    1  C2  UNL     1     -35.370  14.117  -3.925  1.00 20.00     0.256 A 
HETATM    2  C3  UNL     1     -34.625  15.437  -3.882  1.00 20.00     0.093 A 
HETATM    3  C4  UNL     1     -34.858  16.490  -4.919  1.00 20.00     0.049 C 
HETATM    4  O9  UNL     1     -34.018  14.245  -4.396  1.00 20.00    -0.359 OA
ENDROOT
BRANCH   1   5
HETATM    5  C1  UNL     1     -36.331  13.807  -4.984  1.00 20.00     0.290 C 
HETATM    6  O8  UNL     1     -36.033  13.685  -6.165  1.00 20.00    -0.262 OA
BRANCH   5   7
HETATM    7  O10 UNL     1     -37.576  13.680  -4.447  1.00 20.00    -0.324 OA
HETATM    8  C6  UNL     1     -38.304  14.901  -4.283  1.00 20.00     0.213 C 
ENDBRANCH   5   7
ENDBRANCH   1   5
BRANCH   2   9
HETATM    9  C7  UNL     1     -34.048  15.895  -2.581  1.00 20.00     0.036 C 
HETATM   10  C5  UNL     1     -33.034  16.995  -2.747  1.00 20.00     0.008 C 
ENDBRANCH   2   9
TORSDOF 3
ENDMDL
MODEL 2
REMARK VINA RESULT:      -4.3      1.232      1.478
REMARK  3 active torsions:
REMARK  status: ('A' for Active; 'I' for Inactive)
REMARK    1  A    between atoms: C1_1  and  C2_2 
REMARK    2  A    between atoms: C1_1  and  O10_10 
REMARK    3  A    between atoms: C3_3  and  C7_7 
ROOT
HETATM    1  C2  UNL     1     -34.828  14.758  -4.817  1.00 20.00     0.256 A 
HETATM    2  C3  UNL     1     -34.470  15.644  -3.640  1.00 20.00     0.093 A 
HETATM    3  C4  UNL     1     -35.300  15.649  -2.396  1.00 20.00     0.049 C 
HETATM    4  O9  UNL     1     -35.151  16.158  -4.792  1.00 20.00    -0.359 OA
ENDROOT
BRANCH   1   5
HETATM    5  C1  UNL     1     -36.001  13.885  -4.798  1.00 20.00     0.290 C 
HETATM    6  O8  UNL     1     -35.978  12.714  -4.444  1.00 20.00    -0.262 OA
BRANCH   5   7
HETATM    7  O10 UNL     1     -37.093  14.579  -5.228  1.00 20.00    -0.324 OA
HETATM    8  C6  UNL     1     -38.211  14.581  -4.336  1.00 20.00     0.213 C 
ENDBRANCH   5   7
ENDBRANCH   1   5
BRANCH   2   9
HETATM    9  C7  UNL     1     -33.061  16.129  -3.507  1.00 20.00     0.036 C 
HETATM   10  C5  UNL     1     -32.904  17.179  -2.440  1.00 20.00     0.008 C 
ENDBRANCH   2   9
TORSDOF 3
ENDMDL
MODEL 3
REMARK VINA RESULT:      -4.2      1.464      1.918
REMARK  3 active torsions:
REMARK  status: ('A' for Active; 'I' for Inactive)
REMARK    1  A    between atoms: C1_1  and  C2_2 
REMARK    2  A    between atoms: C1_1  and  O10_10 
REMARK    3  A    between atoms: C3_3  and  C7_7 
ROOT
HETATM    1  C2  UNL     1     -35.464  15.052  -4.374  1.00 20.00     0.256 A 
HETATM    2  C3  UNL     1     -34.026  15.385  -4.025  1.00 20.00     0.093 A 
HETATM    3  C4  UNL     1     -32.910  14.453  -4.378  1.00 20.00     0.049 C 
HETATM    4  O9  UNL     1     -34.935  14.854  -3.052  1.00 20.00    -0.359 OA
ENDROOT
BRANCH   1   5
HETATM    5  C1  UNL     1     -35.826  13.808  -5.053  1.00 20.00     0.290 C 
HETATM    6  O8  UNL     1     -35.978  12.736  -4.482  1.00 20.00    -0.262 OA
BRANCH   5   7
HETATM    7  O10 UNL     1     -35.961  14.040  -6.388  1.00 20.00    -0.324 OA
HETATM    8  C6  UNL     1     -36.155  15.408  -6.760  1.00 20.00     0.213 C 
ENDBRANCH   5   7
ENDBRANCH   1   5
BRANCH   2   9
HETATM    9  C7  UNL     1     -33.655  16.814  -3.787  1.00 20.00     0.036 C 
HETATM   10  C5  UNL     1     -33.059  17.043  -2.424  1.00 20.00     0.008 C 
ENDBRANCH   2   9
TORSDOF 3
ENDMDL
MODEL 4
REMARK VINA RESULT:      -4.0      1.134      1.736
REMARK  3 active torsions:
REMARK  status: ('A' for Active; 'I' for Inactive)
REMARK    1  A    between atoms: C1_1  and  C2_2 
REMARK    2  A    between atoms: C1_1  and  O10_10 
REMARK    3  A    between atoms: C3_3  and  C7_7 
ROOT
HETATM    1  C2  UNL     1     -35.283  14.403  -3.654  1.00 20.00     0.256 A 
HETATM    2  C3  UNL     1     -35.199  15.866  -3.268  1.00 20.00     0.093 A 
HETATM    3  C4  UNL     1     -36.028  16.898  -3.966  1.00 20.00     0.049 C 
HETATM    4  O9  UNL     1     -34.216  15.250  -4.110  1.00 20.00    -0.359 OA
ENDROOT
BRANCH   1   5
HETATM    5  C1  UNL     1     -36.160  13.936  -4.728  1.00 20.00     0.290 C 
HETATM    6  O8  UNL     1     -37.339  13.647  -4.573  1.00 20.00    -0.262 OA
BRANCH   5   7
HETATM    7  O10 UNL     1     -35.461  13.881  -5.896  1.00 20.00    -0.324 OA
HETATM    8  C6  UNL     1     -35.963  14.704  -6.954  1.00 20.00     0.213 C 
ENDBRANCH   5   7
ENDBRANCH   1   5
BRANCH   2   9
HETATM    9  C7  UNL     1     -34.691  16.224  -1.908  1.00 20.00     0.036 C 
HETATM   10  C5  UNL     1     -33.524  17.175  -1.953  1.00 20.00     0.008 C 
ENDBRANCH   2   9
TORSDOF 3
ENDMDL
MODEL 5
REMARK VINA RESULT:      -3.9      1.545      2.024
REMARK  3 active torsions:
REMARK  status: ('A' for Active; 'I' for Inactive)
REMARK    1  A    between atoms: C1_1  and  C2_2 
REMARK    2  A    between atoms: C1_1  and  O10_10 
REMARK    3  A    between atoms: C3_3  and  C7_7 
ROOT
HETATM    1  C2  UNL     1     -35.687  14.940  -4.264  1.00 20.00     0.256 A 
HETATM    2  C3  UNL     1     -34.909  15.613  -5.377  1.00 20.00     0.093 A 
HETATM    3  C4  UNL     1     -34.780  14.975  -6.725  1.00 20.00     0.049 C 
HETATM    4  O9  UNL     1     -34.253  14.888  -4.330  1.00 20.00    -0.359 OA
ENDROOT
BRANCH   1   5
HETATM    5  C1  UNL     1     -36.330  13.639  -4.448  1.00 20.00     0.290 C 
HETATM    6  O8  UNL     1     -35.727  12.573  -4.458  1.00 20.00    -0.262 OA
BRANCH   5   7
HETATM    7  O10 UNL     1     -37.673  13.810  -4.601  1.00 20.00    -0.324 OA
HETATM    8  C6  UNL     1     -38.188  15.067  -4.150  1.00 20.00     0.213 C 
ENDBRANCH   5   7
ENDBRANCH   1   5
BRANCH   2   9
HETATM    9  C7  UNL     1     -34.694  17.092  -5.313  1.00 20.00     0.036 C 
HETATM   10  C5  UNL     1     -34.412  17.699  -6.661  1.00 20.00     0.008 C 
ENDBRANCH   2   9
TORSDOF 3
ENDMDL
MODEL 6
REMARK VINA RESULT:      -3.9     16.190     18.407
REMARK  3 active torsions:
REMARK  status: ('A' for Active; 'I' for Inactive)
REMARK    1  A    between atoms: C1_1  and  C2_2 
REMARK    2  A    between atoms: C1_1  and  O10_10 
REMARK    3  A    between atoms: C3_3  and  C7_7 
ROOT
HETATM    1  C2  UNL     1     -23.747  18.871   9.590  1.00 20.00     0.256 A 
HETATM    2  C3  UNL     1     -23.878  17.805  10.659  1.00 20.00     0.093 A 
HETATM    3  C4  UNL     1     -24.046  16.363  10.296  1.00 20.00     0.049 C 
HETATM    4  O9  UNL     1     -24.986  18.630  10.277  1.00 20.00    -0.359 OA
ENDROOT
BRANCH   1   5
HETATM    5  C1  UNL     1     -23.795  18.546   8.164  1.00 20.00     0.290 C 
HETATM    6  O8  UNL     1     -22.852  18.083   7.536  1.00 20.00    -0.262 OA
BRANCH   5   7
HETATM    7  O10 UNL     1     -25.031  18.837   7.671  1.00 20.00    -0.324 OA
HETATM    8  C6  UNL     1     -25.065  19.261   6.305  1.00 20.00     0.213 C 
ENDBRANCH   5   7
ENDBRANCH   1   5
BRANCH   2   9
HETATM    9  C7  UNL     1     -23.357  18.093  12.031  1.00 20.00     0.036 C 
HETATM   10  C5  UNL     1     -21.935  17.638  12.223  1.00 20.00     0.008 C 
ENDBRANCH   2   9
TORSDOF 3
ENDMDL
MODEL 7
REMARK VINA RESULT:      -3.9      1.927      2.600
REMARK  3 active torsions:
REMARK  status: ('A' for Active; 'I' for Inactive)
REMARK    1  A    between atoms: C1_1  and  C2_2 
REMARK    2  A    between atoms: C1_1  and  O10_10 
REMARK    3  A    between atoms: C3_3  and  C7_7 
ROOT
HETATM    1  C2  UNL     1     -33.151  15.497  -4.042  1.00 20.00     0.256 A 
HETATM    2  C3  UNL     1     -33.761  16.308  -2.916  1.00 20.00     0.093 A 
HETATM    3  C4  UNL     1     -35.058  15.907  -2.288  1.00 20.00     0.049 C 
HETATM    4  O9  UNL     1     -33.883  16.709  -4.287  1.00 20.00    -0.359 OA
ENDROOT
BRANCH   1   5
HETATM    5  C1  UNL     1     -33.805  14.301  -4.574  1.00 20.00     0.290 C 
HETATM    6  O8  UNL     1     -33.751  13.199  -4.044  1.00 20.00    -0.262 OA
BRANCH   5   7
HETATM    7  O10 UNL     1     -34.464  14.615  -5.724  1.00 20.00    -0.324 OA
HETATM    8  C6  UNL     1     -35.857  14.287  -5.744  1.00 20.00     0.213 C 
ENDBRANCH   5   7
ENDBRANCH   1   5
BRANCH   2   9
HETATM    9  C7  UNL     1     -32.871  17.196  -2.106  1.00 20.00     0.036 C 
HETATM   10  C5  UNL     1     -33.611  17.930  -1.020  1.00 20.00     0.008 C 
ENDBRANCH   2   9
TORSDOF 3
ENDMDL
MODEL 8
REMARK VINA RESULT:      -3.9      1.607      2.447
REMARK  3 active torsions:
REMARK  status: ('A' for Active; 'I' for Inactive)
REMARK    1  A    between atoms: C1_1  and  C2_2 
REMARK    2  A    between atoms: C1_1  and  O10_10 
REMARK    3  A    between atoms: C3_3  and  C7_7 
ROOT
HETATM    1  C2  UNL     1     -35.673  15.303  -4.639  1.00 20.00     0.256 A 
HETATM    2  C3  UNL     1     -34.439  15.125  -3.776  1.00 20.00     0.093 A 
HETATM    3  C4  UNL     1     -33.173  14.567  -4.345  1.00 20.00     0.049 C 
HETATM    4  O9  UNL     1     -35.522  14.187  -3.748  1.00 20.00    -0.359 OA
ENDROOT
BRANCH   1   5
HETATM    5  C1  UNL     1     -35.688  14.926  -6.053  1.00 20.00     0.290 C 
HETATM    6  O8  UNL     1     -35.992  13.813  -6.461  1.00 20.00    -0.262 OA
BRANCH   5   7
HETATM    7  O10 UNL     1     -35.318  15.994  -6.814  1.00 20.00    -0.324 OA
HETATM    8  C6  UNL     1     -34.260  15.749  -7.746  1.00 20.00     0.213 C 
ENDBRANCH   5   7
ENDBRANCH   1   5
BRANCH   2   9
HETATM    9  C7  UNL     1     -34.312  15.937  -2.527  1.00 20.00     0.036 C 
HETATM   10  C5  UNL     1     -33.114  16.849  -2.543  1.00 20.00     0.008 C 
ENDBRANCH   2   9
TORSDOF 3
ENDMDL
MODEL 9
REMARK VINA RESULT:      -3.8      1.926      3.169
REMARK  3 active torsions:
REMARK  status: ('A' for Active; 'I' for Inactive)
REMARK    1  A    between atoms: C1_1  and  C2_2 
REMARK    2  A    between atoms: C1_1  and  O10_10 
REMARK    3  A    between atoms: C3_3  and  C7_7 
ROOT
HETATM    1  C2  UNL     1     -35.633  14.311  -5.240  1.00 20.00     0.256 A 
HETATM    2  C3  UNL     1     -35.548  15.091  -6.537  1.00 20.00     0.093 A 
HETATM    3  C4  UNL     1     -36.608  16.076  -6.917  1.00 20.00     0.049 C 
HETATM    4  O9  UNL     1     -36.007  13.733  -6.502  1.00 20.00    -0.359 OA
ENDROOT
BRANCH   1   5
HETATM    5  C1  UNL     1     -36.754  14.471  -4.314  1.00 20.00     0.290 C 
HETATM    6  O8  UNL     1     -37.792  13.826  -4.379  1.00 20.00    -0.262 OA
BRANCH   5   7
HETATM    7  O10 UNL     1     -36.453  15.431  -3.396  1.00 20.00    -0.324 OA
HETATM    8  C6  UNL     1     -35.097  15.444  -2.939  1.00 20.00     0.213 C 
ENDBRANCH   5   7
ENDBRANCH   1   5
BRANCH   2   9
HETATM    9  C7  UNL     1     -34.212  15.259  -7.189  1.00 20.00     0.036 C 
HETATM   10  C5  UNL     1     -34.072  16.578  -7.901  1.00 20.00     0.008 C 
ENDBRANCH   2   9
TORSDOF 3
ENDMDL
