MODEL 1
REMARK VINA RESULT:      -4.7      0.000      0.000
REMARK  0 active torsions:
REMARK  status: ('A' for Active; 'I' for Inactive)
ROOT
HETATM    1  C1  UNL     1     -37.034  14.416  -4.559  1.00 20.00     0.069 C 
HETATM    2  C2  UNL     1     -33.523  17.565  -3.874  1.00 20.00     0.000 C 
HETATM    3  C3  UNL     1     -33.161  16.284  -3.132  1.00 20.00     0.000 C 
HETATM    4  C4  UNL     1     -34.602  17.462  -4.946  1.00 20.00     0.002 C 
HETATM    5  C5  UNL     1     -33.208  15.014  -3.973  1.00 20.00     0.002 C 
HETATM    6  C6  UNL     1     -35.812  16.600  -4.576  1.00 20.00     0.024 C 
HETATM    7  C7  UNL     1     -34.602  14.379  -4.002  1.00 20.00     0.024 C 
HETATM    8  C8  UNL     1     -35.673  15.084  -4.862  1.00 20.00     0.045 C 
HETATM    9  C9  UNL     1     -35.385  14.857  -6.299  1.00 20.00     0.031 C 
HETATM   10  N10 UNL     1     -38.055  13.914  -4.331  1.00 20.00    -0.196 NA
ENDROOT
TORSDOF 0
ENDMDL
MODEL 2
REMARK VINA RESULT:      -4.6      2.110      2.848
REMARK  0 active torsions:
REMARK  status: ('A' for Active; 'I' for Inactive)
ROOT
HETATM    1  C1  UNL     1     -34.701  14.423  -3.761  1.00 20.00     0.069 C 
HETATM    2  C2  UNL     1     -33.974  18.023  -0.723  1.00 20.00     0.000 C 
HETATM    3  C3  UNL     1     -32.678  17.778  -1.485  1.00 20.00     0.000 C 
HETATM    4  C4  UNL     1     -35.248  17.437  -1.320  1.00 20.00     0.002 C 
HETATM    5  C5  UNL     1     -32.812  17.769  -3.004  1.00 20.00     0.002 C 
HETATM    6  C6  UNL     1     -35.118  16.017  -1.878  1.00 20.00     0.024 C 
HETATM    7  C7  UNL     1     -33.174  16.386  -3.554  1.00 20.00     0.024 C 
HETATM    8  C8  UNL     1     -34.628  15.909  -3.343  1.00 20.00     0.045 C 
HETATM    9  C9  UNL     1     -35.534  16.662  -4.245  1.00 20.00     0.031 C 
HETATM   10  N10 UNL     1     -34.755  13.308  -4.075  1.00 20.00    -0.196 NA
ENDROOT
TORSDOF 0
ENDMDL
MODEL 3
REMARK VINA RESULT:      -4.5     18.441     19.100
REMARK  0 active torsions:
REMARK  status: ('A' for Active; 'I' for Inactive)
ROOT
HETATM    1  C1  UNL     1     -22.932  17.010   9.259  1.00 20.00     0.069 C 
HETATM    2  C2  UNL     1     -26.555  18.386  12.032  1.00 20.00     0.000 C 
HETATM    3  C3  UNL     1     -26.552  16.863  11.979  1.00 20.00     0.000 C 
HETATM    4  C4  UNL     1     -25.276  19.095  11.603  1.00 20.00     0.002 C 
HETATM    5  C5  UNL     1     -25.222  16.206  12.332  1.00 20.00     0.002 C 
HETATM    6  C6  UNL     1     -24.595  18.522  10.357  1.00 20.00     0.024 C 
HETATM    7  C7  UNL     1     -24.298  16.061  11.119  1.00 20.00     0.024 C 
HETATM    8  C8  UNL     1     -23.616  17.347  10.602  1.00 20.00     0.045 C 
HETATM    9  C9  UNL     1     -22.548  17.758  11.547  1.00 20.00     0.031 C 
HETATM   10  N10 UNL     1     -22.418  16.756   8.250  1.00 20.00    -0.196 NA
ENDROOT
TORSDOF 0
ENDMDL
MODEL 4
REMARK VINA RESULT:      -4.5      1.459      2.078
REMARK  0 active torsions:
REMARK  status: ('A' for Active; 'I' for Inactive)
ROOT
HETATM    1  C1  UNL     1     -35.346  13.857  -4.297  1.00 20.00     0.069 C 
HETATM    2  C2  UNL     1     -34.774  18.578  -3.982  1.00 20.00     0.000 C 
HETATM    3  C3  UNL     1     -35.154  18.054  -2.603  1.00 20.00     0.000 C 
HETATM    4  C4  UNL     1     -34.265  17.556  -4.993  1.00 20.00     0.002 C 
HETATM    5  C5  UNL     1     -34.290  16.910  -2.084  1.00 20.00     0.002 C 
HETATM    6  C6  UNL     1     -35.028  16.230  -5.025  1.00 20.00     0.024 C 
HETATM    7  C7  UNL     1     -34.799  15.538  -2.536  1.00 20.00     0.024 C 
HETATM    8  C8  UNL     1     -34.558  15.155  -4.013  1.00 20.00     0.045 C 
HETATM    9  C9  UNL     1     -33.121  14.849  -4.219  1.00 20.00     0.031 C 
HETATM   10  N10 UNL     1     -35.938  12.882  -4.509  1.00 20.00    -0.196 NA
ENDROOT
TORSDOF 0
ENDMDL
MODEL 5
REMARK VINA RESULT:      -4.5      1.570      2.285
REMARK  0 active torsions:
REMARK  status: ('A' for Active; 'I' for Inactive)
ROOT
HETATM    1  C1  UNL     1     -35.745  13.970  -4.337  1.00 20.00     0.069 C 
HETATM    2  C2  UNL     1     -33.570  17.523  -2.022  1.00 20.00     0.000 C 
HETATM    3  C3  UNL     1     -33.048  17.502  -3.454  1.00 20.00     0.000 C 
HETATM    4  C4  UNL     1     -34.871  16.777  -1.749  1.00 20.00     0.002 C 
HETATM    5  C5  UNL     1     -34.123  17.529  -4.535  1.00 20.00     0.002 C 
HETATM    6  C6  UNL     1     -35.001  15.414  -2.434  1.00 20.00     0.024 C 
HETATM    7  C7  UNL     1     -34.626  16.129  -4.899  1.00 20.00     0.024 C 
HETATM    8  C8  UNL     1     -35.556  15.434  -3.880  1.00 20.00     0.045 C 
HETATM    9  C9  UNL     1     -36.893  16.077  -3.907  1.00 20.00     0.031 C 
HETATM   10  N10 UNL     1     -35.886  12.871  -4.682  1.00 20.00    -0.196 NA
ENDROOT
TORSDOF 0
ENDMDL
MODEL 6
REMARK VINA RESULT:      -4.5      1.585      1.844
REMARK  0 active torsions:
REMARK  status: ('A' for Active; 'I' for Inactive)
ROOT
HETATM    1  C1  UNL     1     -35.527  13.870  -4.360  1.00 20.00     0.069 C 
HETATM    2  C2  UNL     1     -35.051  17.938  -1.923  1.00 20.00     0.000 C 
HETATM    3  C3  UNL     1     -33.767  17.134  -1.757  1.00 20.00     0.000 C 
HETATM    4  C4  UNL     1     -35.971  17.543  -3.073  1.00 20.00     0.002 C 
HETATM    5  C5  UNL     1     -33.120  16.671  -3.058  1.00 20.00     0.002 C 
HETATM    6  C6  UNL     1     -36.155  16.036  -3.276  1.00 20.00     0.024 C 
HETATM    7  C7  UNL     1     -33.674  15.329  -3.545  1.00 20.00     0.024 C 
HETATM    8  C8  UNL     1     -35.091  15.339  -4.160  1.00 20.00     0.045 C 
HETATM    9  C9  UNL     1     -35.046  15.968  -5.502  1.00 20.00     0.031 C 
HETATM   10  N10 UNL     1     -35.854  12.767  -4.510  1.00 20.00    -0.196 NA
ENDROOT
TORSDOF 0
ENDMDL
MODEL 7
REMARK VINA RESULT:      -4.5     11.138     12.538
REMARK  0 active torsions:
REMARK  status: ('A' for Active; 'I' for Inactive)
ROOT
HETATM    1  C1  UNL     1     -32.897   7.909   1.659  1.00 20.00     0.069 C 
HETATM    2  C2  UNL     1     -34.743   5.569   5.378  1.00 20.00     0.000 C 
HETATM    3  C3  UNL     1     -34.767   4.636   4.173  1.00 20.00     0.000 C 
HETATM    4  C4  UNL     1     -33.827   6.784   5.294  1.00 20.00     0.002 C 
HETATM    5  C5  UNL     1     -33.431   4.471   3.456  1.00 20.00     0.002 C 
HETATM    6  C6  UNL     1     -33.828   7.514   3.948  1.00 20.00     0.024 C 
HETATM    7  C7  UNL     1     -33.203   5.541   2.384  1.00 20.00     0.024 C 
HETATM    8  C8  UNL     1     -32.852   6.961   2.879  1.00 20.00     0.045 C 
HETATM    9  C9  UNL     1     -31.462   6.979   3.395  1.00 20.00     0.031 C 
HETATM   10  N10 UNL     1     -32.931   8.619   0.742  1.00 20.00    -0.196 NA
ENDROOT
TORSDOF 0
ENDMDL
MODEL 8
REMARK VINA RESULT:      -4.3      1.567      2.197
REMARK  0 active torsions:
REMARK  status: ('A' for Active; 'I' for Inactive)
ROOT
HETATM    1  C1  UNL     1     -36.922  15.685  -5.814  1.00 20.00     0.069 C 
HETATM    2  C2  UNL     1     -32.846  15.843  -3.350  1.00 20.00     0.000 C 
HETATM    3  C3  UNL     1     -33.895  16.638  -2.581  1.00 20.00     0.000 C 
HETATM    4  C4  UNL     1     -33.353  14.879  -4.416  1.00 20.00     0.002 C 
HETATM    5  C5  UNL     1     -35.196  15.893  -2.305  1.00 20.00     0.002 C 
HETATM    6  C6  UNL     1     -34.490  15.411  -5.293  1.00 20.00     0.024 C 
HETATM    7  C7  UNL     1     -36.206  16.030  -3.449  1.00 20.00     0.024 C 
HETATM    8  C8  UNL     1     -35.921  15.219  -4.733  1.00 20.00     0.045 C 
HETATM    9  C9  UNL     1     -36.186  13.782  -4.481  1.00 20.00     0.031 C 
HETATM   10  N10 UNL     1     -37.674  16.034  -6.626  1.00 20.00    -0.196 NA
ENDROOT
TORSDOF 0
ENDMDL
MODEL 9
REMARK VINA RESULT:      -4.2     10.549     12.295
REMARK  0 active torsions:
REMARK  status: ('A' for Active; 'I' for Inactive)
ROOT
HETATM    1  C1  UNL     1     -41.807   9.170   0.244  1.00 20.00     0.069 C 
HETATM    2  C2  UNL     1     -42.447   5.005  -1.983  1.00 20.00     0.000 C 
HETATM    3  C3  UNL     1     -41.156   4.918  -1.178  1.00 20.00     0.000 C 
HETATM    4  C4  UNL     1     -43.417   6.121  -1.615  1.00 20.00     0.002 C 
HETATM    5  C5  UNL     1     -41.286   5.289   0.295  1.00 20.00     0.002 C 
HETATM    6  C6  UNL     1     -42.774   7.481  -1.329  1.00 20.00     0.024 C 
HETATM    7  C7  UNL     1     -41.114   6.791   0.540  1.00 20.00     0.024 C 
HETATM    8  C8  UNL     1     -42.287   7.706   0.124  1.00 20.00     0.045 C 
HETATM    9  C9  UNL     1     -43.412   7.535   1.075  1.00 20.00     0.031 C 
HETATM   10  N10 UNL     1     -41.446  10.269   0.334  1.00 20.00    -0.196 NA
ENDROOT
TORSDOF 0
ENDMDL
