MODEL 1
REMARK VINA RESULT:      -4.8      0.000      0.000
REMARK  2 active torsions:
REMARK  status: ('A' for Active; 'I' for Inactive)
REMARK    1  A    between atoms: C3_3  and  C5_5 
REMARK    2  A    between atoms: C4_4  and  C5_5 
ROOT
HETATM    1  C1  UNL     1     -32.641   8.349   0.687  1.00 20.00     0.012 C 
HETATM    2  C2  UNL     1     -32.606   7.677   1.682  1.00 20.00    -0.117 C 
HETATM    3  C4  UNL     1     -32.560   6.856   2.902  1.00 20.00     0.101 C 
ENDROOT
BRANCH   3   4
HETATM    4  C5  UNL     1     -33.490   5.646   2.809  1.00 20.00     0.108 C 
BRANCH   4   5
HETATM    5  C3  UNL     1     -34.236   5.351   4.101  1.00 20.00     0.219 C 
HETATM    6  O6  UNL     1     -34.879   4.323   4.285  1.00 20.00    -0.280 OA
HETATM    7 CL7  UNL     1     -34.078   6.659   5.242  1.00 20.00    -0.044 Cl
ENDBRANCH   4   5
ENDBRANCH   3   4
TORSDOF 2
ENDMDL
MODEL 2
REMARK VINA RESULT:      -4.7      1.359      1.835
REMARK  2 active torsions:
REMARK  status: ('A' for Active; 'I' for Inactive)
REMARK    1  A    between atoms: C3_3  and  C5_5 
REMARK    2  A    between atoms: C4_4  and  C5_5 
ROOT
HETATM    1  C1  UNL     1     -32.463   7.181   2.706  1.00 20.00     0.012 C 
HETATM    2  C2  UNL     1     -32.922   6.072   2.652  1.00 20.00    -0.117 C 
HETATM    3  C4  UNL     1     -33.483   4.714   2.582  1.00 20.00     0.101 C 
ENDROOT
BRANCH   3   4
HETATM    4  C5  UNL     1     -34.041   4.259   3.930  1.00 20.00     0.108 C 
BRANCH   4   5
HETATM    5  C3  UNL     1     -35.036   5.237   4.537  1.00 20.00     0.219 C 
HETATM    6  O6  UNL     1     -36.080   5.563   3.982  1.00 20.00    -0.280 OA
HETATM    7 CL7  UNL     1     -34.482   5.837   6.077  1.00 20.00    -0.044 Cl
ENDBRANCH   4   5
ENDBRANCH   3   4
TORSDOF 2
ENDMDL
MODEL 3
REMARK VINA RESULT:      -4.5      1.504      1.504
REMARK  2 active torsions:
REMARK  status: ('A' for Active; 'I' for Inactive)
REMARK    1  A    between atoms: C3_3  and  C5_5 
REMARK    2  A    between atoms: C4_4  and  C5_5 
ROOT
HETATM    1  C1  UNL     1     -32.893   8.705   0.506  1.00 20.00     0.012 C 
HETATM    2  C2  UNL     1     -32.602   8.017   1.446  1.00 20.00    -0.117 C 
HETATM    3  C4  UNL     1     -32.241   7.177   2.599  1.00 20.00     0.101 C 
ENDROOT
BRANCH   3   4
HETATM    4  C5  UNL     1     -33.277   6.080   2.849  1.00 20.00     0.108 C 
BRANCH   4   5
HETATM    5  C3  UNL     1     -33.940   6.170   4.214  1.00 20.00     0.219 C 
HETATM    6  O6  UNL     1     -33.614   6.991   5.065  1.00 20.00    -0.280 OA
HETATM    7 CL7  UNL     1     -35.174   4.955   4.406  1.00 20.00    -0.044 Cl
ENDBRANCH   4   5
ENDBRANCH   3   4
TORSDOF 2
ENDMDL
MODEL 4
REMARK VINA RESULT:      -4.4      2.572      3.956
REMARK  2 active torsions:
REMARK  status: ('A' for Active; 'I' for Inactive)
REMARK    1  A    between atoms: C3_3  and  C5_5 
REMARK    2  A    between atoms: C4_4  and  C5_5 
ROOT
HETATM    1  C1  UNL     1     -34.666   5.381   5.944  1.00 20.00     0.012 C 
HETATM    2  C2  UNL     1     -34.601   5.439   4.747  1.00 20.00    -0.117 C 
HETATM    3  C4  UNL     1     -34.525   5.509   3.279  1.00 20.00     0.101 C 
ENDROOT
BRANCH   3   4
HETATM    4  C5  UNL     1     -33.080   5.588   2.787  1.00 20.00     0.108 C 
BRANCH   4   5
HETATM    5  C3  UNL     1     -32.498   6.993   2.834  1.00 20.00     0.219 C 
HETATM    6  O6  UNL     1     -32.002   7.480   3.844  1.00 20.00    -0.280 OA
HETATM    7 CL7  UNL     1     -32.662   7.803   1.299  1.00 20.00    -0.044 Cl
ENDBRANCH   4   5
ENDBRANCH   3   4
TORSDOF 2
ENDMDL
MODEL 5
REMARK VINA RESULT:      -4.2      2.456      3.554
REMARK  2 active torsions:
REMARK  status: ('A' for Active; 'I' for Inactive)
REMARK    1  A    between atoms: C3_3  and  C5_5 
REMARK    2  A    between atoms: C4_4  and  C5_5 
ROOT
HETATM    1  C1  UNL     1     -33.786   7.157   6.323  1.00 20.00     0.012 C 
HETATM    2  C2  UNL     1     -34.207   6.187   5.755  1.00 20.00    -0.117 C 
HETATM    3  C4  UNL     1     -34.723   4.995   5.063  1.00 20.00     0.101 C 
ENDROOT
BRANCH   3   4
HETATM    4  C5  UNL     1     -34.855   5.225   3.557  1.00 20.00     0.108 C 
BRANCH   4   5
HETATM    5  C3  UNL     1     -33.520   5.259   2.828  1.00 20.00     0.219 C 
HETATM    6  O6  UNL     1     -32.968   4.254   2.393  1.00 20.00    -0.280 OA
HETATM    7 CL7  UNL     1     -32.889   6.880   2.729  1.00 20.00    -0.044 Cl
ENDBRANCH   4   5
ENDBRANCH   3   4
TORSDOF 2
ENDMDL
MODEL 6
REMARK VINA RESULT:      -4.1     11.019     11.203
REMARK  2 active torsions:
REMARK  status: ('A' for Active; 'I' for Inactive)
REMARK    1  A    between atoms: C3_3  and  C5_5 
REMARK    2  A    between atoms: C4_4  and  C5_5 
ROOT
HETATM    1  C1  UNL     1     -34.888  16.293  -1.836  1.00 20.00     0.012 C 
HETATM    2  C2  UNL     1     -34.447  15.702  -2.784  1.00 20.00    -0.117 C 
HETATM    3  C4  UNL     1     -33.904  14.976  -3.943  1.00 20.00     0.101 C 
ENDROOT
BRANCH   3   4
HETATM    4  C5  UNL     1     -34.975  14.709  -5.000  1.00 20.00     0.108 C 
BRANCH   4   5
HETATM    5  C3  UNL     1     -36.034  13.713  -4.553  1.00 20.00     0.219 C 
HETATM    6  O6  UNL     1     -35.811  12.516  -4.411  1.00 20.00    -0.280 OA
HETATM    7 CL7  UNL     1     -37.576  14.487  -4.310  1.00 20.00    -0.044 Cl
ENDBRANCH   4   5
ENDBRANCH   3   4
TORSDOF 2
ENDMDL
MODEL 7
REMARK VINA RESULT:      -4.0     10.937     11.222
REMARK  2 active torsions:
REMARK  status: ('A' for Active; 'I' for Inactive)
REMARK    1  A    between atoms: C3_3  and  C5_5 
REMARK    2  A    between atoms: C4_4  and  C5_5 
ROOT
HETATM    1  C1  UNL     1     -32.932  17.254  -2.304  1.00 20.00     0.012 C 
HETATM    2  C2  UNL     1     -33.824  16.468  -2.475  1.00 20.00    -0.117 C 
HETATM    3  C4  UNL     1     -34.919  15.507  -2.680  1.00 20.00     0.101 C 
ENDROOT
BRANCH   3   4
HETATM    4  C5  UNL     1     -34.642  14.572  -3.857  1.00 20.00     0.108 C 
BRANCH   4   5
HETATM    5  C3  UNL     1     -35.856  13.764  -4.291  1.00 20.00     0.219 C 
HETATM    6  O6  UNL     1     -35.819  12.555  -4.492  1.00 20.00    -0.280 OA
HETATM    7 CL7  UNL     1     -37.260  14.778  -4.487  1.00 20.00    -0.044 Cl
ENDBRANCH   4   5
ENDBRANCH   3   4
TORSDOF 2
ENDMDL
MODEL 8
REMARK VINA RESULT:      -4.0     10.981     11.418
REMARK  2 active torsions:
REMARK  status: ('A' for Active; 'I' for Inactive)
REMARK    1  A    between atoms: C3_3  and  C5_5 
REMARK    2  A    between atoms: C4_4  and  C5_5 
ROOT
HETATM    1  C1  UNL     1     -35.124  16.342  -1.818  1.00 20.00     0.012 C 
HETATM    2  C2  UNL     1     -34.702  15.625  -2.684  1.00 20.00    -0.117 C 
HETATM    3  C4  UNL     1     -34.180  14.750  -3.745  1.00 20.00     0.101 C 
ENDROOT
BRANCH   3   4
HETATM    4  C5  UNL     1     -35.099  13.555  -4.000  1.00 20.00     0.108 C 
BRANCH   4   5
HETATM    5  C3  UNL     1     -36.323  13.897  -4.836  1.00 20.00     0.219 C 
HETATM    6  O6  UNL     1     -37.472  13.694  -4.457  1.00 20.00    -0.280 OA
HETATM    7 CL7  UNL     1     -35.874  14.568  -6.380  1.00 20.00    -0.044 Cl
ENDBRANCH   4   5
ENDBRANCH   3   4
TORSDOF 2
ENDMDL
MODEL 9
REMARK VINA RESULT:      -3.8      2.338      2.913
REMARK  2 active torsions:
REMARK  status: ('A' for Active; 'I' for Inactive)
REMARK    1  A    between atoms: C3_3  and  C5_5 
REMARK    2  A    between atoms: C4_4  and  C5_5 
ROOT
HETATM    1  C1  UNL     1     -32.406   7.397   3.972  1.00 20.00     0.012 C 
HETATM    2  C2  UNL     1     -33.132   7.130   4.891  1.00 20.00    -0.117 C 
HETATM    3  C4  UNL     1     -34.021   6.807   6.018  1.00 20.00     0.101 C 
ENDROOT
BRANCH   3   4
HETATM    4  C5  UNL     1     -34.602   5.398   5.899  1.00 20.00     0.108 C 
BRANCH   4   5
HETATM    5  C3  UNL     1     -35.065   5.049   4.493  1.00 20.00     0.219 C 
HETATM    6  O6  UNL     1     -36.048   5.559   3.965  1.00 20.00    -0.280 OA
HETATM    7 CL7  UNL     1     -34.050   3.831   3.770  1.00 20.00    -0.044 Cl
ENDBRANCH   4   5
ENDBRANCH   3   4
TORSDOF 2
ENDMDL
