MODEL 1
REMARK VINA RESULT:      -4.7      0.000      0.000
REMARK  0 active torsions:
REMARK  status: ('A' for Active; 'I' for Inactive)
ROOT
HETATM    1  C1  UNL     1     -35.246  17.515  -4.809  1.00 20.00    -0.023 C 
HETATM    2  C2  UNL     1     -35.659  16.505  -5.589  1.00 20.00    -0.014 C 
HETATM    3  C3  UNL     1     -33.888  14.978  -4.607  1.00 20.00     0.144 C 
HETATM    4  C4  UNL     1     -33.995  17.507  -4.054  1.00 20.00     0.028 A 
HETATM    5  C5  UNL     1     -33.269  16.185  -3.993  1.00 20.00     0.073 A 
HETATM    6  C6  UNL     1     -34.909  15.198  -5.741  1.00 20.00     0.031 C 
HETATM    7  C7  UNL     1     -33.840  16.794  -2.724  1.00 20.00    -0.029 A 
HETATM    8  C8  UNL     1     -35.925  14.043  -5.711  1.00 20.00     0.027 C 
HETATM    9  C9  UNL     1     -34.153  15.189  -7.074  1.00 20.00     0.027 C 
HETATM   10  C10 UNL     1     -32.856  17.383  -1.742  1.00 20.00     0.016 C 
HETATM   11  C11 UNL     1     -35.036  16.164  -2.050  1.00 20.00     0.016 C 
HETATM   12  O12 UNL     1     -33.520  13.868  -4.238  1.00 20.00    -0.296 OA
ENDROOT
TORSDOF 0
ENDMDL
MODEL 2
REMARK VINA RESULT:      -4.7      1.782      2.562
REMARK  0 active torsions:
REMARK  status: ('A' for Active; 'I' for Inactive)
ROOT
HETATM    1  C1  UNL     1     -33.327  15.481  -4.003  1.00 20.00    -0.023 C 
HETATM    2  C2  UNL     1     -34.173  15.068  -4.957  1.00 20.00    -0.014 C 
HETATM    3  C3  UNL     1     -36.153  15.892  -3.605  1.00 20.00     0.144 C 
HETATM    4  C4  UNL     1     -33.741  15.887  -2.661  1.00 20.00     0.028 A 
HETATM    5  C5  UNL     1     -35.226  16.055  -2.452  1.00 20.00     0.073 A 
HETATM    6  C6  UNL     1     -35.678  15.026  -4.787  1.00 20.00     0.031 C 
HETATM    7  C7  UNL     1     -34.307  17.261  -2.355  1.00 20.00    -0.029 A 
HETATM    8  C8  UNL     1     -36.331  15.557  -6.074  1.00 20.00     0.027 C 
HETATM    9  C9  UNL     1     -36.128  13.582  -4.534  1.00 20.00     0.027 C 
HETATM   10  C10 UNL     1     -34.047  17.817  -0.975  1.00 20.00     0.016 C 
HETATM   11  C11 UNL     1     -34.340  18.329  -3.422  1.00 20.00     0.016 C 
HETATM   12  O12 UNL     1     -37.271  16.394  -3.544  1.00 20.00    -0.296 OA
ENDROOT
TORSDOF 0
ENDMDL
MODEL 3
REMARK VINA RESULT:      -4.6      1.703      2.652
REMARK  0 active torsions:
REMARK  status: ('A' for Active; 'I' for Inactive)
ROOT
HETATM    1  C1  UNL     1     -33.562  14.607  -4.206  1.00 20.00    -0.023 C 
HETATM    2  C2  UNL     1     -33.671  14.848  -5.521  1.00 20.00    -0.014 C 
HETATM    3  C3  UNL     1     -35.527  16.522  -5.094  1.00 20.00     0.144 C 
HETATM    4  C4  UNL     1     -34.537  15.045  -3.210  1.00 20.00     0.028 A 
HETATM    5  C5  UNL     1     -35.589  16.012  -3.697  1.00 20.00     0.073 A 
HETATM    6  C6  UNL     1     -34.792  15.659  -6.138  1.00 20.00     0.031 C 
HETATM    7  C7  UNL     1     -34.573  16.458  -2.658  1.00 20.00    -0.029 A 
HETATM    8  C8  UNL     1     -34.193  16.590  -7.205  1.00 20.00     0.027 C 
HETATM    9  C9  UNL     1     -35.815  14.718  -6.785  1.00 20.00     0.027 C 
HETATM   10  C10 UNL     1     -35.068  16.627  -1.242  1.00 20.00     0.016 C 
HETATM   11  C11 UNL     1     -33.495  17.449  -3.027  1.00 20.00     0.016 C 
HETATM   12  O12 UNL     1     -36.109  17.565  -5.373  1.00 20.00    -0.296 OA
ENDROOT
TORSDOF 0
ENDMDL
MODEL 4
REMARK VINA RESULT:      -4.5      1.637      2.711
REMARK  0 active torsions:
REMARK  status: ('A' for Active; 'I' for Inactive)
ROOT
HETATM    1  C1  UNL     1     -33.185  17.620  -2.640  1.00 20.00    -0.023 C 
HETATM    2  C2  UNL     1     -33.198  17.077  -3.867  1.00 20.00    -0.014 C 
HETATM    3  C3  UNL     1     -35.198  15.646  -3.249  1.00 20.00     0.144 C 
HETATM    4  C4  UNL     1     -33.948  17.100  -1.507  1.00 20.00     0.028 A 
HETATM    5  C5  UNL     1     -34.967  16.035  -1.830  1.00 20.00     0.073 A 
HETATM    6  C6  UNL     1     -34.053  15.887  -4.251  1.00 20.00     0.031 C 
HETATM    7  C7  UNL     1     -35.425  17.386  -1.308  1.00 20.00    -0.029 A 
HETATM    8  C8  UNL     1     -34.667  16.153  -5.636  1.00 20.00     0.027 C 
HETATM    9  C9  UNL     1     -33.187  14.623  -4.301  1.00 20.00     0.027 C 
HETATM   10  C10 UNL     1     -35.926  17.438   0.116  1.00 20.00     0.016 C 
HETATM   11  C11 UNL     1     -36.147  18.349  -2.220  1.00 20.00     0.016 C 
HETATM   12  O12 UNL     1     -36.253  15.098  -3.550  1.00 20.00    -0.296 OA
ENDROOT
TORSDOF 0
ENDMDL
MODEL 5
REMARK VINA RESULT:      -4.5      1.581      4.072
REMARK  0 active torsions:
REMARK  status: ('A' for Active; 'I' for Inactive)
ROOT
HETATM    1  C1  UNL     1     -33.296  14.638  -4.712  1.00 20.00    -0.023 C 
HETATM    2  C2  UNL     1     -33.336  15.237  -3.513  1.00 20.00    -0.014 C 
HETATM    3  C3  UNL     1     -35.180  16.784  -4.310  1.00 20.00     0.144 C 
HETATM    4  C4  UNL     1     -33.950  15.160  -5.910  1.00 20.00     0.028 A 
HETATM    5  C5  UNL     1     -34.900  16.313  -5.694  1.00 20.00     0.073 A 
HETATM    6  C6  UNL     1     -34.116  16.505  -3.231  1.00 20.00     0.031 C 
HETATM    7  C7  UNL     1     -35.431  14.977  -6.186  1.00 20.00    -0.029 A 
HETATM    8  C8  UNL     1     -34.826  16.351  -1.875  1.00 20.00     0.027 C 
HETATM    9  C9  UNL     1     -33.158  17.700  -3.183  1.00 20.00     0.027 C 
HETATM   10  C10 UNL     1     -35.853  14.897  -7.633  1.00 20.00     0.016 C 
HETATM   11  C11 UNL     1     -36.277  14.116  -5.278  1.00 20.00     0.016 C 
HETATM   12  O12 UNL     1     -36.204  17.424  -4.096  1.00 20.00    -0.296 OA
ENDROOT
TORSDOF 0
ENDMDL
MODEL 6
REMARK VINA RESULT:      -4.4      1.719      3.960
REMARK  0 active torsions:
REMARK  status: ('A' for Active; 'I' for Inactive)
ROOT
HETATM    1  C1  UNL     1     -35.947  13.920  -4.965  1.00 20.00    -0.023 C 
HETATM    2  C2  UNL     1     -35.122  14.168  -3.937  1.00 20.00    -0.014 C 
HETATM    3  C3  UNL     1     -34.388  16.346  -5.008  1.00 20.00     0.144 C 
HETATM    4  C4  UNL     1     -35.925  14.654  -6.228  1.00 20.00     0.028 A 
HETATM    5  C5  UNL     1     -35.069  15.897  -6.254  1.00 20.00     0.073 A 
HETATM    6  C6  UNL     1     -34.096  15.283  -3.932  1.00 20.00     0.031 C 
HETATM    7  C7  UNL     1     -36.577  16.013  -6.402  1.00 20.00    -0.029 A 
HETATM    8  C8  UNL     1     -34.124  15.965  -2.553  1.00 20.00     0.027 C 
HETATM    9  C9  UNL     1     -32.702  14.703  -4.196  1.00 20.00     0.027 C 
HETATM   10  C10 UNL     1     -37.107  16.347  -7.776  1.00 20.00     0.016 C 
HETATM   11  C11 UNL     1     -37.406  16.611  -5.291  1.00 20.00     0.016 C 
HETATM   12  O12 UNL     1     -34.031  17.515  -4.914  1.00 20.00    -0.296 OA
ENDROOT
TORSDOF 0
ENDMDL
MODEL 7
REMARK VINA RESULT:      -4.4      1.807      4.258
REMARK  0 active torsions:
REMARK  status: ('A' for Active; 'I' for Inactive)
ROOT
HETATM    1  C1  UNL     1     -35.109  15.650  -2.286  1.00 20.00    -0.023 C 
HETATM    2  C2  UNL     1     -35.049  16.818  -1.630  1.00 20.00    -0.014 C 
HETATM    3  C3  UNL     1     -33.352  17.705  -3.291  1.00 20.00     0.144 C 
HETATM    4  C4  UNL     1     -34.159  15.243  -3.320  1.00 20.00     0.028 A 
HETATM    5  C5  UNL     1     -33.214  16.315  -3.806  1.00 20.00     0.073 A 
HETATM    6  C6  UNL     1     -34.022  17.894  -1.917  1.00 20.00     0.031 C 
HETATM    7  C7  UNL     1     -34.246  15.729  -4.755  1.00 20.00    -0.029 A 
HETATM    8  C8  UNL     1     -34.728  19.260  -1.904  1.00 20.00     0.027 C 
HETATM    9  C9  UNL     1     -32.929  17.864  -0.843  1.00 20.00     0.027 C 
HETATM   10  C10 UNL     1     -33.740  14.793  -5.826  1.00 20.00     0.016 C 
HETATM   11  C11 UNL     1     -35.420  16.563  -5.210  1.00 20.00     0.016 C 
HETATM   12  O12 UNL     1     -32.876  18.629  -3.941  1.00 20.00    -0.296 OA
ENDROOT
TORSDOF 0
ENDMDL
MODEL 8
REMARK VINA RESULT:      -4.4      1.905      3.487
REMARK  0 active torsions:
REMARK  status: ('A' for Active; 'I' for Inactive)
ROOT
HETATM    1  C1  UNL     1     -34.799  16.297  -1.868  1.00 20.00    -0.023 C 
HETATM    2  C2  UNL     1     -35.891  17.044  -2.088  1.00 20.00    -0.014 C 
HETATM    3  C3  UNL     1     -35.430  17.043  -4.582  1.00 20.00     0.144 C 
HETATM    4  C4  UNL     1     -33.761  16.051  -2.867  1.00 20.00     0.028 A 
HETATM    5  C5  UNL     1     -34.084  16.486  -4.275  1.00 20.00     0.073 A 
HETATM    6  C6  UNL     1     -36.219  17.681  -3.423  1.00 20.00     0.031 C 
HETATM    7  C7  UNL     1     -33.903  15.011  -3.962  1.00 20.00    -0.029 A 
HETATM    8  C8  UNL     1     -37.722  17.496  -3.697  1.00 20.00     0.027 C 
HETATM    9  C9  UNL     1     -35.881  19.176  -3.379  1.00 20.00     0.027 C 
HETATM   10  C10 UNL     1     -32.634  14.356  -4.453  1.00 20.00     0.016 C 
HETATM   11  C11 UNL     1     -35.091  14.079  -3.982  1.00 20.00     0.016 C 
HETATM   12  O12 UNL     1     -35.829  17.030  -5.742  1.00 20.00    -0.296 OA
ENDROOT
TORSDOF 0
ENDMDL
MODEL 9
REMARK VINA RESULT:      -4.2      1.790      4.062
REMARK  0 active torsions:
REMARK  status: ('A' for Active; 'I' for Inactive)
ROOT
HETATM    1  C1  UNL     1     -34.644  14.455  -4.667  1.00 20.00    -0.023 C 
HETATM    2  C2  UNL     1     -34.415  14.843  -3.404  1.00 20.00    -0.014 C 
HETATM    3  C3  UNL     1     -35.051  17.227  -3.985  1.00 20.00     0.144 C 
HETATM    4  C4  UNL     1     -34.832  15.377  -5.785  1.00 20.00     0.028 A 
HETATM    5  C5  UNL     1     -34.998  16.832  -5.419  1.00 20.00     0.073 A 
HETATM    6  C6  UNL     1     -34.381  16.291  -2.961  1.00 20.00     0.031 C 
HETATM    7  C7  UNL     1     -36.149  16.077  -6.062  1.00 20.00    -0.029 A 
HETATM    8  C8  UNL     1     -35.134  16.412  -1.625  1.00 20.00     0.027 C 
HETATM    9  C9  UNL     1     -32.927  16.741  -2.780  1.00 20.00     0.027 C 
HETATM   10  C10 UNL     1     -36.462  16.401  -7.504  1.00 20.00     0.016 C 
HETATM   11  C11 UNL     1     -37.380  15.737  -5.256  1.00 20.00     0.016 C 
HETATM   12  O12 UNL     1     -35.562  18.301  -3.683  1.00 20.00    -0.296 OA
ENDROOT
TORSDOF 0
ENDMDL
