MODEL 1
REMARK VINA RESULT:      -4.6      0.000      0.000
REMARK  1 active torsions:
REMARK  status: ('A' for Active; 'I' for Inactive)
REMARK    1  A    between atoms: C3_3  and  C7_7 
ROOT
HETATM    1  C1  UNL     1     -22.294  17.020   9.079  1.00 20.00     0.220 A 
HETATM    2  C2  UNL     1     -22.883  18.350   9.581  1.00 20.00     0.128 A 
HETATM    3  C3  UNL     1     -24.076  17.496  10.075  1.00 20.00     0.100 A 
HETATM    4  N8  UNL     1     -23.365  16.333   9.556  1.00 20.00    -0.355 N 
HETATM    5  O9  UNL     1     -21.293  16.670   8.496  1.00 20.00    -0.274 OA
HETATM    6  H22 UNL     1     -23.575  15.345   9.523  1.00 20.00     0.162 HD
ENDROOT
BRANCH   3   7
HETATM    7  C7  UNL     1     -24.287  17.395  11.592  1.00 20.00    -0.030 C 
HETATM    8  C4  UNL     1     -22.991  17.784  12.317  1.00 20.00     0.016 C 
HETATM    9  C5  UNL     1     -24.668  15.954  11.961  1.00 20.00     0.016 C 
HETATM   10  C6  UNL     1     -25.416  18.346  12.016  1.00 20.00     0.016 C 
ENDBRANCH   3   7
TORSDOF 1
ENDMDL
MODEL 2
REMARK VINA RESULT:      -4.4      1.572      2.160
REMARK  1 active torsions:
REMARK  status: ('A' for Active; 'I' for Inactive)
REMARK    1  A    between atoms: C3_3  and  C7_7 
ROOT
HETATM    1  C1  UNL     1     -22.489  18.059   7.961  1.00 20.00     0.220 A 
HETATM    2  C2  UNL     1     -22.175  17.009   9.042  1.00 20.00     0.128 A 
HETATM    3  C3  UNL     1     -22.615  18.095  10.053  1.00 20.00     0.100 A 
HETATM    4  N8  UNL     1     -22.879  18.955   8.905  1.00 20.00    -0.355 N 
HETATM    5  O9  UNL     1     -22.433  18.117   6.754  1.00 20.00    -0.274 OA
HETATM    6  H22 UNL     1     -23.214  19.904   8.807  1.00 20.00     0.162 HD
ENDROOT
BRANCH   3   7
HETATM    7  C7  UNL     1     -23.894  17.826  10.860  1.00 20.00    -0.030 C 
HETATM    8  C4  UNL     1     -24.263  16.340  10.754  1.00 20.00     0.016 C 
HETATM    9  C5  UNL     1     -25.041  18.680  10.300  1.00 20.00     0.016 C 
HETATM   10  C6  UNL     1     -23.657  18.192  12.332  1.00 20.00     0.016 C 
ENDBRANCH   3   7
TORSDOF 1
ENDMDL
MODEL 3
REMARK VINA RESULT:      -4.4     23.281     23.941
REMARK  1 active torsions:
REMARK  status: ('A' for Active; 'I' for Inactive)
REMARK    1  A    between atoms: C3_3  and  C7_7 
ROOT
HETATM    1  C1  UNL     1     -41.738   9.195  -0.108  1.00 20.00     0.220 A 
HETATM    2  C2  UNL     1     -43.121   8.522  -0.151  1.00 20.00     0.128 A 
HETATM    3  C3  UNL     1     -42.469   7.518  -1.133  1.00 20.00     0.100 A 
HETATM    4  N8  UNL     1     -41.229   8.266  -0.960  1.00 20.00    -0.355 N 
HETATM    5  O9  UNL     1     -41.247  10.155   0.442  1.00 20.00    -0.274 OA
HETATM    6  H22 UNL     1     -40.298   8.171  -1.342  1.00 20.00     0.162 HD
ENDROOT
BRANCH   3   7
HETATM    7  C7  UNL     1     -42.321   6.066  -0.658  1.00 20.00    -0.030 C 
HETATM    8  C4  UNL     1     -42.604   5.989   0.849  1.00 20.00     0.016 C 
HETATM    9  C5  UNL     1     -40.891   5.580  -0.936  1.00 20.00     0.016 C 
HETATM   10  C6  UNL     1     -43.318   5.176  -1.413  1.00 20.00     0.016 C 
ENDBRANCH   3   7
TORSDOF 1
ENDMDL
MODEL 4
REMARK VINA RESULT:      -4.2     17.918     18.600
REMARK  1 active torsions:
REMARK  status: ('A' for Active; 'I' for Inactive)
REMARK    1  A    between atoms: C3_3  and  C7_7 
ROOT
HETATM    1  C1  UNL     1     -35.769  13.850  -4.377  1.00 20.00     0.220 A 
HETATM    2  C2  UNL     1     -34.947  14.916  -5.124  1.00 20.00     0.128 A 
HETATM    3  C3  UNL     1     -35.554  15.919  -4.113  1.00 20.00     0.100 A 
HETATM    4  N8  UNL     1     -36.246  14.784  -3.513  1.00 20.00    -0.355 N 
HETATM    5  O9  UNL     1     -35.951  12.658  -4.473  1.00 20.00    -0.274 OA
HETATM    6  H22 UNL     1     -36.887  14.690  -2.737  1.00 20.00     0.162 HD
ENDROOT
BRANCH   3   7
HETATM    7  C7  UNL     1     -34.591  16.581  -3.117  1.00 20.00    -0.030 C 
HETATM    8  C4  UNL     1     -34.565  18.097  -3.360  1.00 20.00     0.016 C 
HETATM    9  C5  UNL     1     -33.180  16.007  -3.310  1.00 20.00     0.016 C 
HETATM   10  C6  UNL     1     -35.065  16.301  -1.684  1.00 20.00     0.016 C 
ENDBRANCH   3   7
TORSDOF 1
ENDMDL
MODEL 5
REMARK VINA RESULT:      -4.2     17.917     18.585
REMARK  1 active torsions:
REMARK  status: ('A' for Active; 'I' for Inactive)
REMARK    1  A    between atoms: C3_3  and  C7_7 
ROOT
HETATM    1  C1  UNL     1     -35.769  13.849  -4.377  1.00 20.00     0.220 A 
HETATM    2  C2  UNL     1     -34.948  14.916  -5.124  1.00 20.00     0.128 A 
HETATM    3  C3  UNL     1     -35.554  15.918  -4.111  1.00 20.00     0.100 A 
HETATM    4  N8  UNL     1     -36.246  14.782  -3.511  1.00 20.00    -0.355 N 
HETATM    5  O9  UNL     1     -35.951  12.657  -4.474  1.00 20.00    -0.274 OA
HETATM    6  H22 UNL     1     -36.886  14.687  -2.734  1.00 20.00     0.162 HD
ENDROOT
BRANCH   3   7
HETATM    7  C7  UNL     1     -34.591  16.579  -3.115  1.00 20.00    -0.030 C 
HETATM    8  C4  UNL     1     -33.180  16.005  -3.309  1.00 20.00     0.016 C 
HETATM    9  C5  UNL     1     -35.065  16.299  -1.681  1.00 20.00     0.016 C 
HETATM   10  C6  UNL     1     -34.565  18.095  -3.358  1.00 20.00     0.016 C 
ENDBRANCH   3   7
TORSDOF 1
ENDMDL
MODEL 6
REMARK VINA RESULT:      -4.2     18.507     19.242
REMARK  1 active torsions:
REMARK  status: ('A' for Active; 'I' for Inactive)
REMARK    1  A    between atoms: C3_3  and  C7_7 
ROOT
HETATM    1  C1  UNL     1     -37.266  14.618  -4.391  1.00 20.00     0.220 A 
HETATM    2  C2  UNL     1     -36.114  15.020  -5.331  1.00 20.00     0.128 A 
HETATM    3  C3  UNL     1     -35.834  16.147  -4.306  1.00 20.00     0.100 A 
HETATM    4  N8  UNL     1     -36.948  15.618  -3.528  1.00 20.00    -0.355 N 
HETATM    5  O9  UNL     1     -38.127  13.769  -4.376  1.00 20.00    -0.274 OA
HETATM    6  H22 UNL     1     -37.379  15.890  -2.655  1.00 20.00     0.162 HD
ENDROOT
BRANCH   3   7
HETATM    7  C7  UNL     1     -34.515  16.072  -3.524  1.00 20.00    -0.030 C 
HETATM    8  C4  UNL     1     -34.814  16.050  -2.018  1.00 20.00     0.016 C 
HETATM    9  C5  UNL     1     -33.652  17.298  -3.856  1.00 20.00     0.016 C 
HETATM   10  C6  UNL     1     -33.760  14.794  -3.915  1.00 20.00     0.016 C 
ENDBRANCH   3   7
TORSDOF 1
ENDMDL
MODEL 7
REMARK VINA RESULT:      -4.0      2.331      2.868
REMARK  1 active torsions:
REMARK  status: ('A' for Active; 'I' for Inactive)
REMARK    1  A    between atoms: C3_3  and  C7_7 
ROOT
HETATM    1  C1  UNL     1     -25.118  18.836   8.115  1.00 20.00     0.220 A 
HETATM    2  C2  UNL     1     -23.706  19.263   8.556  1.00 20.00     0.128 A 
HETATM    3  C3  UNL     1     -24.089  18.673   9.935  1.00 20.00     0.100 A 
HETATM    4  N8  UNL     1     -25.376  18.321   9.346  1.00 20.00    -0.355 N 
HETATM    5  O9  UNL     1     -25.777  18.902   7.102  1.00 20.00    -0.274 OA
HETATM    6  H22 UNL     1     -26.207  17.870   9.704  1.00 20.00     0.162 HD
ENDROOT
BRANCH   3   7
HETATM    7  C7  UNL     1     -23.325  17.426  10.402  1.00 20.00    -0.030 C 
HETATM    8  C4  UNL     1     -22.309  17.015   9.326  1.00 20.00     0.016 C 
HETATM    9  C5  UNL     1     -24.315  16.276  10.637  1.00 20.00     0.016 C 
HETATM   10  C6  UNL     1     -22.586  17.739  11.710  1.00 20.00     0.016 C 
ENDBRANCH   3   7
TORSDOF 1
ENDMDL
MODEL 8
REMARK VINA RESULT:      -4.0     17.363     18.066
REMARK  1 active torsions:
REMARK  status: ('A' for Active; 'I' for Inactive)
REMARK    1  A    between atoms: C3_3  and  C7_7 
ROOT
HETATM    1  C1  UNL     1     -34.422  14.856  -5.289  1.00 20.00     0.220 A 
HETATM    2  C2  UNL     1     -34.331  14.434  -3.811  1.00 20.00     0.128 A 
HETATM    3  C3  UNL     1     -33.430  15.682  -3.637  1.00 20.00     0.100 A 
HETATM    4  N8  UNL     1     -33.641  15.943  -5.057  1.00 20.00    -0.355 N 
HETATM    5  O9  UNL     1     -34.957  14.433  -6.289  1.00 20.00    -0.274 OA
HETATM    6  H22 UNL     1     -33.315  16.661  -5.689  1.00 20.00     0.162 HD
ENDROOT
BRANCH   3   7
HETATM    7  C7  UNL     1     -33.975  16.824  -2.768  1.00 20.00    -0.030 C 
HETATM    8  C4  UNL     1     -35.031  16.274  -1.800  1.00 20.00     0.016 C 
HETATM    9  C5  UNL     1     -34.613  17.893  -3.669  1.00 20.00     0.016 C 
HETATM   10  C6  UNL     1     -32.824  17.452  -1.969  1.00 20.00     0.016 C 
ENDBRANCH   3   7
TORSDOF 1
ENDMDL
MODEL 9
REMARK VINA RESULT:      -4.0     17.364     18.017
REMARK  1 active torsions:
REMARK  status: ('A' for Active; 'I' for Inactive)
REMARK    1  A    between atoms: C3_3  and  C7_7 
ROOT
HETATM    1  C1  UNL     1     -34.426  14.856  -5.288  1.00 20.00     0.220 A 
HETATM    2  C2  UNL     1     -34.343  14.437  -3.809  1.00 20.00     0.128 A 
HETATM    3  C3  UNL     1     -33.434  15.678  -3.634  1.00 20.00     0.100 A 
HETATM    4  N8  UNL     1     -33.637  15.938  -5.055  1.00 20.00    -0.355 N 
HETATM    5  O9  UNL     1     -34.960  14.435  -6.289  1.00 20.00    -0.274 OA
HETATM    6  H22 UNL     1     -33.303  16.652  -5.687  1.00 20.00     0.162 HD
ENDROOT
BRANCH   3   7
HETATM    7  C7  UNL     1     -33.973  16.827  -2.770  1.00 20.00    -0.030 C 
HETATM    8  C4  UNL     1     -32.820  17.453  -1.972  1.00 20.00     0.016 C 
HETATM    9  C5  UNL     1     -35.032  16.283  -1.799  1.00 20.00     0.016 C 
HETATM   10  C6  UNL     1     -34.608  17.892  -3.674  1.00 20.00     0.016 C 
ENDBRANCH   3   7
TORSDOF 1
ENDMDL
