MODEL 1
REMARK VINA RESULT:      -4.3      0.000      0.000
REMARK  0 active torsions:
REMARK  status: ('A' for Active; 'I' for Inactive)
ROOT
HETATM    1  C1  UNL     1     -33.539   6.312   3.733  1.00 20.00    -0.032 A 
HETATM    2  C2  UNL     1     -33.994   6.243   4.987  1.00 20.00     0.056 A 
HETATM    3  C3  UNL     1     -34.113   5.121   3.043  1.00 20.00     0.157 A 
HETATM    4  C4  UNL     1     -32.680   7.310   3.051  1.00 20.00     0.048 C 
HETATM    5  C5  UNL     1     -33.748   7.173   6.121  1.00 20.00     0.072 C 
HETATM    6  C6  UNL     1     -33.075   4.139   2.525  1.00 20.00     0.041 C 
HETATM    7  N7  UNL     1     -34.792   5.143   5.192  1.00 20.00    -0.160 NA
HETATM    8  N8  UNL     1     -34.896   4.471   4.128  1.00 20.00    -0.183 NA
ENDROOT
TORSDOF 0
ENDMDL
MODEL 2
REMARK VINA RESULT:      -4.2     16.409     17.019
REMARK  0 active torsions:
REMARK  status: ('A' for Active; 'I' for Inactive)
ROOT
HETATM    1  C1  UNL     1     -24.438  18.882   8.852  1.00 20.00    -0.032 A 
HETATM    2  C2  UNL     1     -24.403  18.883   7.517  1.00 20.00     0.056 A 
HETATM    3  C3  UNL     1     -23.086  18.419   9.279  1.00 20.00     0.157 A 
HETATM    4  C4  UNL     1     -25.505  19.262   9.808  1.00 20.00     0.048 C 
HETATM    5  C5  UNL     1     -25.472  19.263   6.555  1.00 20.00     0.072 C 
HETATM    6  C6  UNL     1     -23.091  17.118  10.066  1.00 20.00     0.041 C 
HETATM    7  N7  UNL     1     -23.187  18.470   7.027  1.00 20.00    -0.160 NA
HETATM    8  N8  UNL     1     -22.401  18.193   7.976  1.00 20.00    -0.183 NA
ENDROOT
TORSDOF 0
ENDMDL
MODEL 3
REMARK VINA RESULT:      -4.0      1.692      2.682
REMARK  0 active torsions:
REMARK  status: ('A' for Active; 'I' for Inactive)
ROOT
HETATM    1  C1  UNL     1     -33.350   5.632   3.037  1.00 20.00    -0.032 A 
HETATM    2  C2  UNL     1     -34.053   5.829   4.155  1.00 20.00     0.056 A 
HETATM    3  C3  UNL     1     -32.382   6.765   2.979  1.00 20.00     0.157 A 
HETATM    4  C4  UNL     1     -33.402   4.556   2.018  1.00 20.00     0.048 C 
HETATM    5  C5  UNL     1     -35.153   5.005   4.723  1.00 20.00     0.072 C 
HETATM    6  C6  UNL     1     -32.552   7.672   1.771  1.00 20.00     0.041 C 
HETATM    7  N7  UNL     1     -33.657   6.961   4.828  1.00 20.00    -0.160 NA
HETATM    8  N8  UNL     1     -32.716   7.532   4.210  1.00 20.00    -0.183 NA
ENDROOT
TORSDOF 0
ENDMDL
MODEL 4
REMARK VINA RESULT:      -3.9     16.662     17.133
REMARK  0 active torsions:
REMARK  status: ('A' for Active; 'I' for Inactive)
ROOT
HETATM    1  C1  UNL     1     -23.472  17.544   9.962  1.00 20.00    -0.032 A 
HETATM    2  C2  UNL     1     -24.520  18.333   9.708  1.00 20.00     0.056 A 
HETATM    3  C3  UNL     1     -23.569  17.221  11.415  1.00 20.00     0.157 A 
HETATM    4  C4  UNL     1     -22.404  17.014   9.082  1.00 20.00     0.048 C 
HETATM    5  C5  UNL     1     -24.930  18.954   8.421  1.00 20.00     0.072 C 
HETATM    6  C6  UNL     1     -22.395  17.713  12.245  1.00 20.00     0.041 C 
HETATM    7  N7  UNL     1     -25.283  18.563  10.828  1.00 20.00    -0.160 NA
HETATM    8  N8  UNL     1     -24.794  17.960  11.824  1.00 20.00    -0.183 NA
ENDROOT
TORSDOF 0
ENDMDL
MODEL 5
REMARK VINA RESULT:      -3.8     11.779     12.575
REMARK  0 active torsions:
REMARK  status: ('A' for Active; 'I' for Inactive)
ROOT
HETATM    1  C1  UNL     1     -35.963  15.238  -3.598  1.00 20.00    -0.032 A 
HETATM    2  C2  UNL     1     -35.227  14.240  -4.096  1.00 20.00     0.056 A 
HETATM    3  C3  UNL     1     -37.377  14.863  -3.890  1.00 20.00     0.157 A 
HETATM    4  C4  UNL     1     -35.584  16.474  -2.873  1.00 20.00     0.048 C 
HETATM    5  C5  UNL     1     -33.749  14.077  -4.085  1.00 20.00     0.072 C 
HETATM    6  C6  UNL     1     -38.106  15.836  -4.803  1.00 20.00     0.041 C 
HETATM    7  N7  UNL     1     -35.998  13.264  -4.681  1.00 20.00    -0.160 NA
HETATM    8  N8  UNL     1     -37.222  13.562  -4.596  1.00 20.00    -0.183 NA
ENDROOT
TORSDOF 0
ENDMDL
MODEL 6
REMARK VINA RESULT:      -3.8     16.630     17.555
REMARK  0 active torsions:
REMARK  status: ('A' for Active; 'I' for Inactive)
ROOT
HETATM    1  C1  UNL     1     -23.768  18.134  10.186  1.00 20.00    -0.032 A 
HETATM    2  C2  UNL     1     -22.440  18.012  10.273  1.00 20.00     0.056 A 
HETATM    3  C3  UNL     1     -24.272  17.914  11.572  1.00 20.00     0.157 A 
HETATM    4  C4  UNL     1     -24.655  18.445   9.039  1.00 20.00     0.048 C 
HETATM    5  C5  UNL     1     -21.420  18.140   9.198  1.00 20.00     0.072 C 
HETATM    6  C6  UNL     1     -25.185  16.708  11.721  1.00 20.00     0.041 C 
HETATM    7  N7  UNL     1     -22.024  17.735  11.553  1.00 20.00    -0.160 NA
HETATM    8  N8  UNL     1     -23.016  17.667  12.332  1.00 20.00    -0.183 NA
ENDROOT
TORSDOF 0
ENDMDL
MODEL 7
REMARK VINA RESULT:      -3.8     16.783     17.234
REMARK  0 active torsions:
REMARK  status: ('A' for Active; 'I' for Inactive)
ROOT
HETATM    1  C1  UNL     1     -23.531  18.016  11.066  1.00 20.00    -0.032 A 
HETATM    2  C2  UNL     1     -24.815  18.382  11.004  1.00 20.00     0.056 A 
HETATM    3  C3  UNL     1     -22.982  18.289   9.706  1.00 20.00     0.157 A 
HETATM    4  C4  UNL     1     -22.714  17.479  12.179  1.00 20.00     0.048 C 
HETATM    5  C5  UNL     1     -25.849  18.339  12.072  1.00 20.00     0.072 C 
HETATM    6  C6  UNL     1     -22.479  17.054   8.977  1.00 20.00     0.041 C 
HETATM    7  N7  UNL     1     -25.164  18.856   9.762  1.00 20.00    -0.160 NA
HETATM    8  N8  UNL     1     -24.168  18.826   8.985  1.00 20.00    -0.183 NA
ENDROOT
TORSDOF 0
ENDMDL
MODEL 8
REMARK VINA RESULT:      -3.8     16.760     16.987
REMARK  0 active torsions:
REMARK  status: ('A' for Active; 'I' for Inactive)
ROOT
HETATM    1  C1  UNL     1     -24.496  18.247  10.155  1.00 20.00    -0.032 A 
HETATM    2  C2  UNL     1     -24.996  18.193  11.392  1.00 20.00     0.056 A 
HETATM    3  C3  UNL     1     -23.415  17.219  10.125  1.00 20.00     0.157 A 
HETATM    4  C4  UNL     1     -24.863  19.072   8.980  1.00 20.00     0.048 C 
HETATM    5  C5  UNL     1     -26.102  18.990  11.986  1.00 20.00     0.072 C 
HETATM    6  C6  UNL     1     -22.027  17.779   9.860  1.00 20.00     0.041 C 
HETATM    7  N7  UNL     1     -24.363  17.253  12.171  1.00 20.00    -0.160 NA
HETATM    8  N8  UNL     1     -23.459  16.671  11.508  1.00 20.00    -0.183 NA
ENDROOT
TORSDOF 0
ENDMDL
MODEL 9
REMARK VINA RESULT:      -3.8     16.635     17.351
REMARK  0 active torsions:
REMARK  status: ('A' for Active; 'I' for Inactive)
ROOT
HETATM    1  C1  UNL     1     -24.184  18.092  10.585  1.00 20.00    -0.032 A 
HETATM    2  C2  UNL     1     -22.928  17.832  10.961  1.00 20.00     0.056 A 
HETATM    3  C3  UNL     1     -24.179  17.976   9.098  1.00 20.00     0.157 A 
HETATM    4  C4  UNL     1     -25.400  18.406  11.371  1.00 20.00     0.048 C 
HETATM    5  C5  UNL     1     -22.352  17.798  12.331  1.00 20.00     0.072 C 
HETATM    6  C6  UNL     1     -24.533  19.262   8.370  1.00 20.00     0.041 C 
HETATM    7  N7  UNL     1     -22.108  17.566   9.890  1.00 20.00    -0.160 NA
HETATM    8  N8  UNL     1     -22.759  17.633   8.810  1.00 20.00    -0.183 NA
ENDROOT
TORSDOF 0
ENDMDL
