MODEL 1
REMARK VINA RESULT:      -4.2      0.000      0.000
REMARK  2 active torsions:
REMARK  status: ('A' for Active; 'I' for Inactive)
REMARK    1  A    between atoms: C5_5  and  C6_6 
REMARK    2  A    between atoms: C6_6  and  N7_7 
ROOT
HETATM    1  C1  UNL     1     -32.715   8.395   0.769  1.00 20.00     0.012 C 
HETATM    2  C2  UNL     1     -32.571   7.741   1.766  1.00 20.00    -0.115 C 
HETATM    3  C5  UNL     1     -32.387   6.938   2.986  1.00 20.00     0.128 C 
ENDROOT
BRANCH   3   4
HETATM    4  C6  UNL     1     -33.719   6.648   3.693  1.00 20.00     0.227 C 
HETATM    5  C3  UNL     1     -33.637   6.875   5.203  1.00 20.00     0.043 C 
BRANCH   4   6
HETATM    6  N7  UNL     1     -34.092   5.252   3.452  1.00 20.00     0.084 N 
HETATM    7  C4  UNL     1     -34.855   4.723   4.571  1.00 20.00     0.307 C 
HETATM    8  H18 UNL     1     -34.654   5.205   2.605  1.00 20.00     0.315 HD
ENDBRANCH   4   6
ENDBRANCH   3   4
TORSDOF 2
ENDMDL
MODEL 2
REMARK VINA RESULT:      -4.1      1.534      3.888
REMARK  2 active torsions:
REMARK  status: ('A' for Active; 'I' for Inactive)
REMARK    1  A    between atoms: C5_5  and  C6_6 
REMARK    2  A    between atoms: C6_6  and  N7_7 
ROOT
HETATM    1  C1  UNL     1     -34.322   6.412   6.356  1.00 20.00     0.012 C 
HETATM    2  C2  UNL     1     -34.526   5.773   5.360  1.00 20.00    -0.115 C 
HETATM    3  C5  UNL     1     -34.780   4.985   4.143  1.00 20.00     0.128 C 
ENDROOT
BRANCH   3   4
HETATM    4  C6  UNL     1     -33.968   5.494   2.944  1.00 20.00     0.227 C 
HETATM    5  C3  UNL     1     -33.043   4.419   2.369  1.00 20.00     0.043 C 
BRANCH   4   6
HETATM    6  N7  UNL     1     -33.150   6.632   3.371  1.00 20.00     0.084 N 
HETATM    7  C4  UNL     1     -32.501   7.255   2.229  1.00 20.00     0.307 C 
HETATM    8  H18 UNL     1     -33.750   7.311   3.833  1.00 20.00     0.315 HD
ENDBRANCH   4   6
ENDBRANCH   3   4
TORSDOF 2
ENDMDL
MODEL 3
REMARK VINA RESULT:      -4.1      1.549      3.939
REMARK  2 active torsions:
REMARK  status: ('A' for Active; 'I' for Inactive)
REMARK    1  A    between atoms: C5_5  and  C6_6 
REMARK    2  A    between atoms: C6_6  and  N7_7 
ROOT
HETATM    1  C1  UNL     1     -34.904   5.162   5.836  1.00 20.00     0.012 C 
HETATM    2  C2  UNL     1     -34.230   5.948   5.228  1.00 20.00    -0.115 C 
HETATM    3  C5  UNL     1     -33.405   6.917   4.488  1.00 20.00     0.128 C 
ENDROOT
BRANCH   3   4
HETATM    4  C6  UNL     1     -33.395   6.635   2.978  1.00 20.00     0.227 C 
HETATM    5  C3  UNL     1     -33.301   5.141   2.666  1.00 20.00     0.043 C 
BRANCH   4   6
HETATM    6  N7  UNL     1     -32.244   7.311   2.375  1.00 20.00     0.084 N 
HETATM    7  C4  UNL     1     -32.660   8.120   1.241  1.00 20.00     0.307 C 
HETATM    8  H18 UNL     1     -31.809   7.906   3.076  1.00 20.00     0.315 HD
ENDBRANCH   4   6
ENDBRANCH   3   4
TORSDOF 2
ENDMDL
MODEL 4
REMARK VINA RESULT:      -3.7     16.292     16.815
REMARK  2 active torsions:
REMARK  status: ('A' for Active; 'I' for Inactive)
REMARK    1  A    between atoms: C5_5  and  C6_6 
REMARK    2  A    between atoms: C6_6  and  N7_7 
ROOT
HETATM    1  C1  UNL     1     -21.648  17.325   8.726  1.00 20.00     0.012 C 
HETATM    2  C2  UNL     1     -22.485  17.627   9.533  1.00 20.00    -0.115 C 
HETATM    3  C5  UNL     1     -23.513  18.001  10.518  1.00 20.00     0.128 C 
ENDROOT
BRANCH   3   4
HETATM    4  C6  UNL     1     -23.145  17.550  11.939  1.00 20.00     0.227 C 
HETATM    5  C3  UNL     1     -21.693  17.873  12.294  1.00 20.00     0.043 C 
BRANCH   4   6
HETATM    6  N7  UNL     1     -23.339  16.101  12.044  1.00 20.00     0.084 N 
HETATM    7  C4  UNL     1     -24.728  15.750  11.799  1.00 20.00     0.307 C 
HETATM    8  H18 UNL     1     -22.746  15.641  11.357  1.00 20.00     0.315 HD
ENDBRANCH   4   6
ENDBRANCH   3   4
TORSDOF 2
ENDMDL
MODEL 5
REMARK VINA RESULT:      -3.7     10.783     11.806
REMARK  2 active torsions:
REMARK  status: ('A' for Active; 'I' for Inactive)
REMARK    1  A    between atoms: C5_5  and  C6_6 
REMARK    2  A    between atoms: C6_6  and  N7_7 
ROOT
HETATM    1  C1  UNL     1     -35.063  16.591  -1.393  1.00 20.00     0.012 C 
HETATM    2  C2  UNL     1     -34.323  16.251  -2.275  1.00 20.00    -0.115 C 
HETATM    3  C5  UNL     1     -33.409  15.839  -3.354  1.00 20.00     0.128 C 
ENDROOT
BRANCH   3   4
HETATM    4  C6  UNL     1     -34.147  15.128  -4.497  1.00 20.00     0.227 C 
HETATM    5  C3  UNL     1     -34.810  13.828  -4.042  1.00 20.00     0.043 C 
BRANCH   4   6
HETATM    6  N7  UNL     1     -33.190  14.816  -5.561  1.00 20.00     0.084 N 
HETATM    7  C4  UNL     1     -33.788  15.027  -6.869  1.00 20.00     0.307 C 
HETATM    8  H18 UNL     1     -32.378  15.420  -5.458  1.00 20.00     0.315 HD
ENDBRANCH   4   6
ENDBRANCH   3   4
TORSDOF 2
ENDMDL
MODEL 6
REMARK VINA RESULT:      -3.6      1.664      2.095
REMARK  2 active torsions:
REMARK  status: ('A' for Active; 'I' for Inactive)
REMARK    1  A    between atoms: C5_5  and  C6_6 
REMARK    2  A    between atoms: C6_6  and  N7_7 
ROOT
HETATM    1  C1  UNL     1     -33.146   4.341   2.069  1.00 20.00     0.012 C 
HETATM    2  C2  UNL     1     -33.132   5.387   2.660  1.00 20.00    -0.115 C 
HETATM    3  C5  UNL     1     -33.109   6.670   3.380  1.00 20.00     0.128 C 
ENDROOT
BRANCH   3   4
HETATM    4  C6  UNL     1     -34.187   6.740   4.471  1.00 20.00     0.227 C 
HETATM    5  C3  UNL     1     -33.606   7.079   5.844  1.00 20.00     0.043 C 
BRANCH   4   6
HETATM    6  N7  UNL     1     -34.862   5.443   4.558  1.00 20.00     0.084 N 
HETATM    7  C4  UNL     1     -34.830   4.938   5.921  1.00 20.00     0.307 C 
HETATM    8  H18 UNL     1     -35.828   5.556   4.260  1.00 20.00     0.315 HD
ENDBRANCH   4   6
ENDBRANCH   3   4
TORSDOF 2
ENDMDL
MODEL 7
REMARK VINA RESULT:      -3.6      8.630      9.021
REMARK  2 active torsions:
REMARK  status: ('A' for Active; 'I' for Inactive)
REMARK    1  A    between atoms: C5_5  and  C6_6 
REMARK    2  A    between atoms: C6_6  and  N7_7 
ROOT
HETATM    1  C1  UNL     1     -41.233   9.682   0.417  1.00 20.00     0.012 C 
HETATM    2  C2  UNL     1     -41.369   8.709  -0.273  1.00 20.00    -0.115 C 
HETATM    3  C5  UNL     1     -41.541   7.520  -1.123  1.00 20.00     0.128 C 
ENDROOT
BRANCH   3   4
HETATM    4  C6  UNL     1     -40.961   6.256  -0.473  1.00 20.00     0.227 C 
HETATM    5  C3  UNL     1     -41.298   4.989  -1.261  1.00 20.00     0.043 C 
BRANCH   4   6
HETATM    6  N7  UNL     1     -41.509   6.122   0.879  1.00 20.00     0.084 N 
HETATM    7  C4  UNL     1     -42.689   5.271   0.874  1.00 20.00     0.307 C 
HETATM    8  H18 UNL     1     -40.799   5.713   1.481  1.00 20.00     0.315 HD
ENDBRANCH   4   6
ENDBRANCH   3   4
TORSDOF 2
ENDMDL
MODEL 8
REMARK VINA RESULT:      -3.6      1.399      3.462
REMARK  2 active torsions:
REMARK  status: ('A' for Active; 'I' for Inactive)
REMARK    1  A    between atoms: C5_5  and  C6_6 
REMARK    2  A    between atoms: C6_6  and  N7_7 
ROOT
HETATM    1  C1  UNL     1     -34.813   5.324   6.011  1.00 20.00     0.012 C 
HETATM    2  C2  UNL     1     -34.267   6.125   5.302  1.00 20.00    -0.115 C 
HETATM    3  C5  UNL     1     -33.602   7.112   4.437  1.00 20.00     0.128 C 
ENDROOT
BRANCH   3   4
HETATM    4  C6  UNL     1     -32.894   6.453   3.245  1.00 20.00     0.227 C 
HETATM    5  C3  UNL     1     -32.520   7.462   2.159  1.00 20.00     0.043 C 
BRANCH   4   6
HETATM    6  N7  UNL     1     -33.784   5.447   2.659  1.00 20.00     0.084 N 
HETATM    7  C4  UNL     1     -33.050   4.232   2.346  1.00 20.00     0.307 C 
HETATM    8  H18 UNL     1     -34.522   5.236   3.326  1.00 20.00     0.315 HD
ENDBRANCH   4   6
ENDBRANCH   3   4
TORSDOF 2
ENDMDL
MODEL 9
REMARK VINA RESULT:      -3.5     16.179     16.646
REMARK  2 active torsions:
REMARK  status: ('A' for Active; 'I' for Inactive)
REMARK    1  A    between atoms: C5_5  and  C6_6 
REMARK    2  A    between atoms: C6_6  and  N7_7 
ROOT
HETATM    1  C1  UNL     1     -26.212  18.967  11.966  1.00 20.00     0.012 C 
HETATM    2  C2  UNL     1     -25.427  18.567  11.151  1.00 20.00    -0.115 C 
HETATM    3  C5  UNL     1     -24.467  18.079  10.146  1.00 20.00     0.128 C 
ENDROOT
BRANCH   3   4
HETATM    4  C6  UNL     1     -23.533  17.001  10.714  1.00 20.00     0.227 C 
HETATM    5  C3  UNL     1     -22.749  17.493  11.931  1.00 20.00     0.043 C 
BRANCH   4   6
HETATM    6  N7  UNL     1     -22.580  16.602   9.675  1.00 20.00     0.084 N 
HETATM    7  C4  UNL     1     -22.635  17.518   8.548  1.00 20.00     0.307 C 
HETATM    8  H18 UNL     1     -21.643  16.608  10.072  1.00 20.00     0.315 HD
ENDBRANCH   4   6
ENDBRANCH   3   4
TORSDOF 2
ENDMDL
