MODEL 1
REMARK VINA RESULT:      -5.4      0.000      0.000
REMARK  3 active torsions:
REMARK  status: ('A' for Active; 'I' for Inactive)
REMARK    1  A    between atoms: C2_2  and  C3_3 
REMARK    2  A    between atoms: C3_3  and  C4_4 
REMARK    3  A    between atoms: C3_3  and  O5_5 
ROOT
HETATM    1  C3  UNL     1     -34.009   6.282   4.308  1.00 20.00     0.362 C 
HETATM    2  F8  UNL     1     -34.752   7.301   3.796  1.00 20.00    -0.195 F 
ENDROOT
BRANCH   1   3
HETATM    3  C2  UNL     1     -33.408   6.718   5.636  1.00 20.00     0.429 C 
HETATM    4  F6  UNL     1     -34.369   7.256   6.429  1.00 20.00    -0.208 F 
HETATM    5  F7  UNL     1     -32.493   7.697   5.437  1.00 20.00    -0.208 F 
ENDBRANCH   1   3
BRANCH   1   6
HETATM    6  C4  UNL     1     -34.926   5.085   4.478  1.00 20.00     0.455 C 
HETATM    7  F9  UNL     1     -34.459   4.007   3.812  1.00 20.00    -0.165 F 
HETATM    8  F10 UNL     1     -36.162   5.353   4.001  1.00 20.00    -0.165 F 
HETATM    9  F11 UNL     1     -35.053   4.743   5.778  1.00 20.00    -0.165 F 
ENDBRANCH   1   6
BRANCH   1  10
HETATM   10  O5  UNL     1     -33.022   5.912   3.343  1.00 20.00    -0.345 OA
HETATM   11  C1  UNL     1     -32.690   6.924   2.404  1.00 20.00     0.206 C 
ENDBRANCH   1  10
TORSDOF 3
ENDMDL
MODEL 2
REMARK VINA RESULT:      -5.4      0.005      1.138
REMARK  3 active torsions:
REMARK  status: ('A' for Active; 'I' for Inactive)
REMARK    1  A    between atoms: C2_2  and  C3_3 
REMARK    2  A    between atoms: C3_3  and  C4_4 
REMARK    3  A    between atoms: C3_3  and  O5_5 
ROOT
HETATM    1  C3  UNL     1     -34.010   6.282   4.305  1.00 20.00     0.362 C 
HETATM    2  F8  UNL     1     -34.751   7.303   3.794  1.00 20.00    -0.195 F 
ENDROOT
BRANCH   1   3
HETATM    3  C2  UNL     1     -33.410   6.715   5.634  1.00 20.00     0.429 C 
HETATM    4  F6  UNL     1     -34.371   7.254   6.427  1.00 20.00    -0.208 F 
HETATM    5  F7  UNL     1     -32.493   7.693   5.438  1.00 20.00    -0.208 F 
ENDBRANCH   1   3
BRANCH   1   6
HETATM    6  C4  UNL     1     -34.928   5.086   4.472  1.00 20.00     0.455 C 
HETATM    7  F9  UNL     1     -36.167   5.346   4.002  1.00 20.00    -0.165 F 
HETATM    8  F10 UNL     1     -35.051   4.751   5.776  1.00 20.00    -0.165 F 
HETATM    9  F11 UNL     1     -34.455   4.006   3.813  1.00 20.00    -0.165 F 
ENDBRANCH   1   6
BRANCH   1  10
HETATM   10  O5  UNL     1     -33.022   5.913   3.340  1.00 20.00    -0.345 OA
HETATM   11  C1  UNL     1     -32.686   6.928   2.405  1.00 20.00     0.206 C 
ENDBRANCH   1  10
TORSDOF 3
ENDMDL
MODEL 3
REMARK VINA RESULT:      -4.6      1.551      3.293
REMARK  3 active torsions:
REMARK  status: ('A' for Active; 'I' for Inactive)
REMARK    1  A    between atoms: C2_2  and  C3_3 
REMARK    2  A    between atoms: C3_3  and  C4_4 
REMARK    3  A    between atoms: C3_3  and  O5_5 
ROOT
HETATM    1  C3  UNL     1     -33.854   6.431   3.923  1.00 20.00     0.362 C 
HETATM    2  F8  UNL     1     -34.707   7.477   3.741  1.00 20.00    -0.195 F 
ENDROOT
BRANCH   1   3
HETATM    3  C2  UNL     1     -34.633   5.128   3.829  1.00 20.00     0.429 C 
HETATM    4  F6  UNL     1     -35.933   5.335   4.155  1.00 20.00    -0.208 F 
HETATM    5  F7  UNL     1     -34.159   4.232   4.729  1.00 20.00    -0.208 F 
ENDBRANCH   1   3
BRANCH   1   6
HETATM    6  C4  UNL     1     -32.785   6.519   2.851  1.00 20.00     0.455 C 
HETATM    7  F9  UNL     1     -33.198   7.260   1.801  1.00 20.00    -0.165 F 
HETATM    8  F10 UNL     1     -32.471   5.290   2.382  1.00 20.00    -0.165 F 
HETATM    9  F11 UNL     1     -31.652   7.077   3.330  1.00 20.00    -0.165 F 
ENDBRANCH   1   6
BRANCH   1  10
HETATM   10  O5  UNL     1     -33.194   6.598   5.179  1.00 20.00    -0.345 OA
HETATM   11  C1  UNL     1     -34.023   7.053   6.238  1.00 20.00     0.206 C 
ENDBRANCH   1  10
TORSDOF 3
ENDMDL
MODEL 4
REMARK VINA RESULT:      -4.6      1.552      3.301
REMARK  3 active torsions:
REMARK  status: ('A' for Active; 'I' for Inactive)
REMARK    1  A    between atoms: C2_2  and  C3_3 
REMARK    2  A    between atoms: C3_3  and  C4_4 
REMARK    3  A    between atoms: C3_3  and  O5_5 
ROOT
HETATM    1  C3  UNL     1     -33.870   6.411   3.902  1.00 20.00     0.362 C 
HETATM    2  F8  UNL     1     -34.703   7.469   3.699  1.00 20.00    -0.195 F 
ENDROOT
BRANCH   1   3
HETATM    3  C2  UNL     1     -34.675   5.121   3.844  1.00 20.00     0.429 C 
HETATM    4  F6  UNL     1     -35.976   5.369   4.137  1.00 20.00    -0.208 F 
HETATM    5  F7  UNL     1     -34.236   4.252   4.787  1.00 20.00    -0.208 F 
ENDBRANCH   1   3
BRANCH   1   6
HETATM    6  C4  UNL     1     -32.804   6.451   2.823  1.00 20.00     0.455 C 
HETATM    7  F9  UNL     1     -32.482   5.209   2.402  1.00 20.00    -0.165 F 
HETATM    8  F10 UNL     1     -31.673   7.030   3.284  1.00 20.00    -0.165 F 
HETATM    9  F11 UNL     1     -33.218   7.157   1.748  1.00 20.00    -0.165 F 
ENDBRANCH   1   6
BRANCH   1  10
HETATM   10  O5  UNL     1     -33.200   6.596   5.151  1.00 20.00    -0.345 OA
HETATM   11  C1  UNL     1     -34.030   7.020   6.222  1.00 20.00     0.206 C 
ENDBRANCH   1  10
TORSDOF 3
ENDMDL
MODEL 5
REMARK VINA RESULT:      -4.4     15.769     17.015
REMARK  3 active torsions:
REMARK  status: ('A' for Active; 'I' for Inactive)
REMARK    1  A    between atoms: C2_2  and  C3_3 
REMARK    2  A    between atoms: C3_3  and  C4_4 
REMARK    3  A    between atoms: C3_3  and  O5_5 
ROOT
HETATM    1  C3  UNL     1     -23.790  17.863  10.396  1.00 20.00     0.362 C 
HETATM    2  F8  UNL     1     -23.825  18.267  11.695  1.00 20.00    -0.195 F 
ENDROOT
BRANCH   1   3
HETATM    3  C2  UNL     1     -24.628  18.814   9.553  1.00 20.00     0.429 C 
HETATM    4  F6  UNL     1     -25.856  18.970  10.107  1.00 20.00    -0.208 F 
HETATM    5  F7  UNL     1     -24.836  18.287   8.321  1.00 20.00    -0.208 F 
ENDBRANCH   1   3
BRANCH   1   6
HETATM    6  C4  UNL     1     -22.338  17.862   9.954  1.00 20.00     0.455 C 
HETATM    7  F9  UNL     1     -22.044  18.958   9.223  1.00 20.00    -0.165 F 
HETATM    8  F10 UNL     1     -22.068  16.780   9.190  1.00 20.00    -0.165 F 
HETATM    9  F11 UNL     1     -21.501  17.836  11.014  1.00 20.00    -0.165 F 
ENDBRANCH   1   6
BRANCH   1  10
HETATM   10  O5  UNL     1     -24.243  16.510  10.329  1.00 20.00    -0.345 OA
HETATM   11  C1  UNL     1     -24.612  15.937  11.575  1.00 20.00     0.206 C 
ENDBRANCH   1  10
TORSDOF 3
ENDMDL
MODEL 6
REMARK VINA RESULT:      -4.3     11.600     12.618
REMARK  3 active torsions:
REMARK  status: ('A' for Active; 'I' for Inactive)
REMARK    1  A    between atoms: C2_2  and  C3_3 
REMARK    2  A    between atoms: C3_3  and  C4_4 
REMARK    3  A    between atoms: C3_3  and  O5_5 
ROOT
HETATM    1  C3  UNL     1     -34.549  15.074  -4.938  1.00 20.00     0.362 C 
HETATM    2  F8  UNL     1     -35.308  16.157  -5.260  1.00 20.00    -0.195 F 
ENDROOT
BRANCH   1   3
HETATM    3  C2  UNL     1     -33.447  15.500  -3.980  1.00 20.00     0.429 C 
HETATM    4  F6  UNL     1     -32.407  14.632  -4.047  1.00 20.00    -0.208 F 
HETATM    5  F7  UNL     1     -33.894  15.452  -2.701  1.00 20.00    -0.208 F 
ENDBRANCH   1   3
BRANCH   1   6
HETATM    6  C4  UNL     1     -35.465  14.041  -4.308  1.00 20.00     0.455 C 
HETATM    7  F9  UNL     1     -34.761  13.071  -3.687  1.00 20.00    -0.165 F 
HETATM    8  F10 UNL     1     -36.238  13.446  -5.244  1.00 20.00    -0.165 F 
HETATM    9  F11 UNL     1     -36.286  14.604  -3.395  1.00 20.00    -0.165 F 
ENDBRANCH   1   6
BRANCH   1  10
HETATM   10  O5  UNL     1     -34.047  14.497  -6.146  1.00 20.00    -0.345 OA
HETATM   11  C1  UNL     1     -34.070  15.355  -7.276  1.00 20.00     0.206 C 
ENDBRANCH   1  10
TORSDOF 3
ENDMDL
MODEL 7
REMARK VINA RESULT:      -4.3      1.370      2.313
REMARK  3 active torsions:
REMARK  status: ('A' for Active; 'I' for Inactive)
REMARK    1  A    between atoms: C2_2  and  C3_3 
REMARK    2  A    between atoms: C3_3  and  C4_4 
REMARK    3  A    between atoms: C3_3  and  O5_5 
ROOT
HETATM    1  C3  UNL     1     -34.686   5.488   4.479  1.00 20.00     0.362 C 
HETATM    2  F8  UNL     1     -35.979   5.730   4.129  1.00 20.00    -0.195 F 
ENDROOT
BRANCH   1   3
HETATM    3  C2  UNL     1     -33.790   6.545   3.852  1.00 20.00     0.429 C 
HETATM    4  F6  UNL     1     -32.844   6.942   4.740  1.00 20.00    -0.208 F 
HETATM    5  F7  UNL     1     -34.512   7.653   3.553  1.00 20.00    -0.208 F 
ENDBRANCH   1   3
BRANCH   1   6
HETATM    6  C4  UNL     1     -34.607   5.519   5.994  1.00 20.00     0.455 C 
HETATM    7  F9  UNL     1     -33.525   4.848   6.445  1.00 20.00    -0.165 F 
HETATM    8  F10 UNL     1     -35.700   4.944   6.546  1.00 20.00    -0.165 F 
HETATM    9  F11 UNL     1     -34.531   6.785   6.457  1.00 20.00    -0.165 F 
ENDBRANCH   1   6
BRANCH   1  10
HETATM   10  O5  UNL     1     -34.349   4.159   4.075  1.00 20.00    -0.345 OA
HETATM   11  C1  UNL     1     -33.569   4.070   2.893  1.00 20.00     0.206 C 
ENDBRANCH   1  10
TORSDOF 3
ENDMDL
MODEL 8
REMARK VINA RESULT:      -4.3      8.600      9.842
REMARK  3 active torsions:
REMARK  status: ('A' for Active; 'I' for Inactive)
REMARK    1  A    between atoms: C2_2  and  C3_3 
REMARK    2  A    between atoms: C3_3  and  C4_4 
REMARK    3  A    between atoms: C3_3  and  O5_5 
ROOT
HETATM    1  C3  UNL     1     -41.965   7.237  -0.967  1.00 20.00     0.362 C 
HETATM    2  F8  UNL     1     -41.084   7.885  -1.778  1.00 20.00    -0.195 F 
ENDROOT
BRANCH   1   3
HETATM    3  C2  UNL     1     -41.257   6.076  -0.284  1.00 20.00     0.429 C 
HETATM    4  F6  UNL     1     -40.457   6.537   0.710  1.00 20.00    -0.208 F 
HETATM    5  F7  UNL     1     -40.438   5.445  -1.162  1.00 20.00    -0.208 F 
ENDBRANCH   1   3
BRANCH   1   6
HETATM    6  C4  UNL     1     -42.485   8.243   0.043  1.00 20.00     0.455 C 
HETATM    7  F9  UNL     1     -41.486   9.002   0.542  1.00 20.00    -0.165 F 
HETATM    8  F10 UNL     1     -43.079   7.617   1.084  1.00 20.00    -0.165 F 
HETATM    9  F11 UNL     1     -43.396   9.071  -0.512  1.00 20.00    -0.165 F 
ENDBRANCH   1   6
BRANCH   1  10
HETATM   10  O5  UNL     1     -43.084   6.824  -1.753  1.00 20.00    -0.345 OA
HETATM   11  C1  UNL     1     -43.417   5.448  -1.649  1.00 20.00     0.206 C 
ENDBRANCH   1  10
TORSDOF 3
ENDMDL
MODEL 9
REMARK VINA RESULT:      -4.3     11.670     12.758
REMARK  3 active torsions:
REMARK  status: ('A' for Active; 'I' for Inactive)
REMARK    1  A    between atoms: C2_2  and  C3_3 
REMARK    2  A    between atoms: C3_3  and  C4_4 
REMARK    3  A    between atoms: C3_3  and  O5_5 
ROOT
HETATM    1  C3  UNL     1     -34.542  14.454  -4.345  1.00 20.00     0.362 C 
HETATM    2  F8  UNL     1     -34.411  13.310  -3.619  1.00 20.00    -0.195 F 
ENDROOT
BRANCH   1   3
HETATM    3  C2  UNL     1     -36.002  14.637  -4.733  1.00 20.00     0.429 C 
HETATM    4  F6  UNL     1     -36.737  14.970  -3.642  1.00 20.00    -0.208 F 
HETATM    5  F7  UNL     1     -36.515  13.467  -5.188  1.00 20.00    -0.208 F 
ENDBRANCH   1   3
BRANCH   1   6
HETATM    6  C4  UNL     1     -34.047  15.603  -3.486  1.00 20.00     0.455 C 
HETATM    7  F9  UNL     1     -34.514  16.789  -3.932  1.00 20.00    -0.165 F 
HETATM    8  F10 UNL     1     -32.697  15.668  -3.499  1.00 20.00    -0.165 F 
HETATM    9  F11 UNL     1     -34.439  15.461  -2.201  1.00 20.00    -0.165 F 
ENDBRANCH   1   6
BRANCH   1  10
HETATM   10  O5  UNL     1     -33.669  14.377  -5.473  1.00 20.00    -0.345 OA
HETATM   11  C1  UNL     1     -34.118  15.068  -6.629  1.00 20.00     0.206 C 
ENDBRANCH   1  10
TORSDOF 3
ENDMDL
