MODEL 1
REMARK VINA RESULT:      -5.8      0.000      0.000
REMARK  0 active torsions:
REMARK  status: ('A' for Active; 'I' for Inactive)
ROOT
HETATM    1  C1  UNL     1     -33.960   4.739   2.843  1.00 20.00    -0.008 C 
HETATM    2  C2  UNL     1     -34.311   5.270   4.009  1.00 20.00    -0.037 C 
HETATM    3  C3  UNL     1     -33.679   6.544   4.382  1.00 20.00     0.044 C 
HETATM    4  C4  UNL     1     -32.631   6.859   2.362  1.00 20.00     0.246 C 
HETATM    5  C5  UNL     1     -33.015   5.443   1.928  1.00 20.00     0.133 C 
HETATM    6  C6  UNL     1     -35.167   4.809   5.133  1.00 20.00     0.040 C 
HETATM    7  C7  UNL     1     -34.062   6.909   5.784  1.00 20.00     0.060 C 
HETATM    8  C8  UNL     1     -34.573   5.569   6.325  1.00 20.00     0.011 C 
HETATM    9  N9  UNL     1     -32.915   7.275   3.648  1.00 20.00    -0.218 NA
HETATM   10  O10 UNL     1     -32.038   7.582   1.559  1.00 20.00    -0.271 OA
ENDROOT
TORSDOF 0
ENDMDL
MODEL 2
REMARK VINA RESULT:      -5.0     15.974     16.345
REMARK  0 active torsions:
REMARK  status: ('A' for Active; 'I' for Inactive)
ROOT
HETATM    1  C1  UNL     1     -24.828  19.088   9.334  1.00 20.00    -0.008 C 
HETATM    2  C2  UNL     1     -24.722  18.283  10.384  1.00 20.00    -0.037 C 
HETATM    3  C3  UNL     1     -23.790  17.151  10.267  1.00 20.00     0.044 C 
HETATM    4  C4  UNL     1     -22.912  17.807   8.249  1.00 20.00     0.246 C 
HETATM    5  C5  UNL     1     -23.988  18.886   8.117  1.00 20.00     0.133 C 
HETATM    6  C6  UNL     1     -25.430  18.192  11.687  1.00 20.00     0.040 C 
HETATM    7  C7  UNL     1     -23.918  16.263  11.468  1.00 20.00     0.060 C 
HETATM    8  C8  UNL     1     -25.268  16.710  12.042  1.00 20.00     0.011 C 
HETATM    9  N9  UNL     1     -22.965  16.920   9.307  1.00 20.00    -0.218 NA
HETATM   10  O10 UNL     1     -22.043  17.731   7.378  1.00 20.00    -0.271 OA
ENDROOT
TORSDOF 0
ENDMDL
MODEL 3
REMARK VINA RESULT:      -4.9     16.403     16.529
REMARK  0 active torsions:
REMARK  status: ('A' for Active; 'I' for Inactive)
ROOT
HETATM    1  C1  UNL     1     -22.461  17.091   9.512  1.00 20.00    -0.008 C 
HETATM    2  C2  UNL     1     -23.435  17.311  10.388  1.00 20.00    -0.037 C 
HETATM    3  C3  UNL     1     -24.484  18.264   9.997  1.00 20.00     0.044 C 
HETATM    4  C4  UNL     1     -23.749  18.513   7.835  1.00 20.00     0.246 C 
HETATM    5  C5  UNL     1     -22.473  17.736   8.166  1.00 20.00     0.133 C 
HETATM    6  C6  UNL     1     -23.679  16.872  11.786  1.00 20.00     0.040 C 
HETATM    7  C7  UNL     1     -25.401  18.512  11.156  1.00 20.00     0.060 C 
HETATM    8  C8  UNL     1     -24.561  18.001  12.332  1.00 20.00     0.011 C 
HETATM    9  N9  UNL     1     -24.640  18.817   8.846  1.00 20.00    -0.218 NA
HETATM   10  O10 UNL     1     -23.928  18.885   6.674  1.00 20.00    -0.271 OA
ENDROOT
TORSDOF 0
ENDMDL
MODEL 4
REMARK VINA RESULT:      -4.9     11.971     12.324
REMARK  0 active torsions:
REMARK  status: ('A' for Active; 'I' for Inactive)
ROOT
HETATM    1  C1  UNL     1     -34.448  14.787  -5.188  1.00 20.00    -0.008 C 
HETATM    2  C2  UNL     1     -34.190  15.334  -4.005  1.00 20.00    -0.037 C 
HETATM    3  C3  UNL     1     -35.328  15.518  -3.092  1.00 20.00     0.044 C 
HETATM    4  C4  UNL     1     -36.835  14.377  -4.397  1.00 20.00     0.246 C 
HETATM    5  C5  UNL     1     -35.821  14.322  -5.542  1.00 20.00     0.133 C 
HETATM    6  C6  UNL     1     -32.975  15.925  -3.388  1.00 20.00     0.040 C 
HETATM    7  C7  UNL     1     -34.888  16.290  -1.884  1.00 20.00     0.060 C 
HETATM    8  C8  UNL     1     -33.572  16.905  -2.372  1.00 20.00     0.011 C 
HETATM    9  N9  UNL     1     -36.531  15.092  -3.255  1.00 20.00    -0.218 NA
HETATM   10  O10 UNL     1     -37.920  13.811  -4.543  1.00 20.00    -0.271 OA
ENDROOT
TORSDOF 0
ENDMDL
MODEL 5
REMARK VINA RESULT:      -4.9     11.371     12.010
REMARK  0 active torsions:
REMARK  status: ('A' for Active; 'I' for Inactive)
ROOT
HETATM    1  C1  UNL     1     -33.012  15.315  -4.050  1.00 20.00    -0.008 C 
HETATM    2  C2  UNL     1     -33.513  15.995  -3.025  1.00 20.00    -0.037 C 
HETATM    3  C3  UNL     1     -34.903  15.702  -2.643  1.00 20.00     0.044 C 
HETATM    4  C4  UNL     1     -35.143  13.919  -4.072  1.00 20.00     0.246 C 
HETATM    5  C5  UNL     1     -33.808  14.257  -4.738  1.00 20.00     0.133 C 
HETATM    6  C6  UNL     1     -33.008  17.111  -2.185  1.00 20.00     0.040 C 
HETATM    7  C7  UNL     1     -35.352  16.665  -1.586  1.00 20.00     0.060 C 
HETATM    8  C8  UNL     1     -34.306  17.778  -1.716  1.00 20.00     0.011 C 
HETATM    9  N9  UNL     1     -35.655  14.766  -3.108  1.00 20.00    -0.218 NA
HETATM   10  O10 UNL     1     -35.751  12.914  -4.446  1.00 20.00    -0.271 OA
ENDROOT
TORSDOF 0
ENDMDL
MODEL 6
REMARK VINA RESULT:      -4.8     16.068     16.422
REMARK  0 active torsions:
REMARK  status: ('A' for Active; 'I' for Inactive)
ROOT
HETATM    1  C1  UNL     1     -25.559  19.071   8.788  1.00 20.00    -0.008 C 
HETATM    2  C2  UNL     1     -24.552  18.535   9.468  1.00 20.00    -0.037 C 
HETATM    3  C3  UNL     1     -23.393  18.071   8.691  1.00 20.00     0.044 C 
HETATM    4  C4  UNL     1     -24.122  18.930   6.689  1.00 20.00     0.246 C 
HETATM    5  C5  UNL     1     -25.483  19.251   7.308  1.00 20.00     0.133 C 
HETATM    6  C6  UNL     1     -24.347  18.185  10.897  1.00 20.00     0.040 C 
HETATM    7  C7  UNL     1     -22.434  17.353   9.592  1.00 20.00     0.060 C 
HETATM    8  C8  UNL     1     -23.317  17.054  10.809  1.00 20.00     0.011 C 
HETATM    9  N9  UNL     1     -23.183  18.241   7.433  1.00 20.00    -0.218 NA
HETATM   10  O10 UNL     1     -23.912  19.260   5.520  1.00 20.00    -0.271 OA
ENDROOT
TORSDOF 0
ENDMDL
MODEL 7
REMARK VINA RESULT:      -4.7     11.756     12.447
REMARK  0 active torsions:
REMARK  status: ('A' for Active; 'I' for Inactive)
ROOT
HETATM    1  C1  UNL     1     -34.513  14.315  -3.912  1.00 20.00    -0.008 C 
HETATM    2  C2  UNL     1     -34.568  15.470  -3.259  1.00 20.00    -0.037 C 
HETATM    3  C3  UNL     1     -35.870  16.153  -3.217  1.00 20.00     0.044 C 
HETATM    4  C4  UNL     1     -37.043  14.432  -4.186  1.00 20.00     0.246 C 
HETATM    5  C5  UNL     1     -35.735  13.710  -4.518  1.00 20.00     0.133 C 
HETATM    6  C6  UNL     1     -33.551  16.333  -2.605  1.00 20.00     0.040 C 
HETATM    7  C7  UNL     1     -35.714  17.505  -2.589  1.00 20.00     0.060 C 
HETATM    8  C8  UNL     1     -34.199  17.719  -2.687  1.00 20.00     0.011 C 
HETATM    9  N9  UNL     1     -36.999  15.697  -3.634  1.00 20.00    -0.218 NA
HETATM   10  O10 UNL     1     -38.109  13.877  -4.461  1.00 20.00    -0.271 OA
ENDROOT
TORSDOF 0
ENDMDL
MODEL 8
REMARK VINA RESULT:      -4.6      2.060      3.554
REMARK  0 active torsions:
REMARK  status: ('A' for Active; 'I' for Inactive)
ROOT
HETATM    1  C1  UNL     1     -34.589   4.554   4.100  1.00 20.00    -0.008 C 
HETATM    2  C2  UNL     1     -33.719   5.217   3.348  1.00 20.00    -0.037 C 
HETATM    3  C3  UNL     1     -33.294   6.541   3.826  1.00 20.00     0.044 C 
HETATM    4  C4  UNL     1     -34.349   6.380   5.861  1.00 20.00     0.246 C 
HETATM    5  C5  UNL     1     -35.061   5.105   5.404  1.00 20.00     0.133 C 
HETATM    6  C6  UNL     1     -33.110   4.968   2.016  1.00 20.00     0.040 C 
HETATM    7  C7  UNL     1     -32.448   7.209   2.785  1.00 20.00     0.060 C 
HETATM    8  C8  UNL     1     -32.787   6.387   1.536  1.00 20.00     0.011 C 
HETATM    9  N9  UNL     1     -33.571   7.082   4.961  1.00 20.00    -0.218 NA
HETATM   10  O10 UNL     1     -34.522   6.771   7.017  1.00 20.00    -0.271 OA
ENDROOT
TORSDOF 0
ENDMDL
MODEL 9
REMARK VINA RESULT:      -4.5     11.569     12.105
REMARK  0 active torsions:
REMARK  status: ('A' for Active; 'I' for Inactive)
ROOT
HETATM    1  C1  UNL     1     -35.498  15.305  -2.682  1.00 20.00    -0.008 C 
HETATM    2  C2  UNL     1     -34.800  16.319  -2.184  1.00 20.00    -0.037 C 
HETATM    3  C3  UNL     1     -33.421  16.484  -2.668  1.00 20.00     0.044 C 
HETATM    4  C4  UNL     1     -33.570  14.862  -4.288  1.00 20.00     0.246 C 
HETATM    5  C5  UNL     1     -34.924  14.415  -3.733  1.00 20.00     0.133 C 
HETATM    6  C6  UNL     1     -35.063  17.327  -1.125  1.00 20.00     0.040 C 
HETATM    7  C7  UNL     1     -32.736  17.565  -1.888  1.00 20.00     0.060 C 
HETATM    8  C8  UNL     1     -33.647  17.688  -0.661  1.00 20.00     0.011 C 
HETATM    9  N9  UNL     1     -32.849  15.832  -3.619  1.00 20.00    -0.218 NA
HETATM   10  O10 UNL     1     -33.138  14.312  -5.303  1.00 20.00    -0.271 OA
ENDROOT
TORSDOF 0
ENDMDL
