MODEL 1
REMARK VINA RESULT:      -5.5      0.000      0.000
REMARK  2 active torsions:
REMARK  status: ('A' for Active; 'I' for Inactive)
REMARK    1  A    between atoms: C1_1  and  C7_7 
REMARK    2  A    between atoms: C7_7  and  C10_10 
ROOT
HETATM    1  C2  UNL     1     -36.376  16.252  -7.247  1.00 20.00     0.000 C 
HETATM    2  C3  UNL     1     -37.280  16.321  -6.021  1.00 20.00     0.001 C 
HETATM    3  C4  UNL     1     -35.521  14.990  -7.240  1.00 20.00     0.001 C 
HETATM    4  C5  UNL     1     -36.482  16.211  -4.722  1.00 20.00     0.021 C 
HETATM    5  C6  UNL     1     -34.706  14.865  -5.952  1.00 20.00     0.021 C 
HETATM    6  C7  UNL     1     -35.565  14.985  -4.691  1.00 20.00     0.051 C 
ENDROOT
BRANCH   6   7
HETATM    7  C1  UNL     1     -36.406  13.721  -4.522  1.00 20.00     0.182 C 
HETATM    8  O11 UNL     1     -37.645  13.912  -4.386  1.00 20.00    -0.647 OA
HETATM    9  O12 UNL     1     -35.749  12.642  -4.541  1.00 20.00    -0.647 OA
ENDBRANCH   6   7
BRANCH   6  10
HETATM   10  C10 UNL     1     -34.697  14.980  -3.432  1.00 20.00    -0.004 C 
HETATM   11  C8  UNL     1     -33.264  15.376  -3.772  1.00 20.00     0.011 C 
HETATM   12  C9  UNL     1     -35.281  15.914  -2.379  1.00 20.00     0.011 C 
ENDBRANCH   6  10
TORSDOF 2
ENDMDL
MODEL 2
REMARK VINA RESULT:      -5.3      0.751      3.231
REMARK  2 active torsions:
REMARK  status: ('A' for Active; 'I' for Inactive)
REMARK    1  A    between atoms: C1_1  and  C7_7 
REMARK    2  A    between atoms: C7_7  and  C10_10 
ROOT
HETATM    1  C2  UNL     1     -35.613  16.724  -2.638  1.00 20.00     0.000 C 
HETATM    2  C3  UNL     1     -34.748  15.471  -2.723  1.00 20.00     0.001 C 
HETATM    3  C4  UNL     1     -36.902  16.567  -3.436  1.00 20.00     0.001 C 
HETATM    4  C5  UNL     1     -34.449  15.086  -4.172  1.00 20.00     0.021 C 
HETATM    5  C6  UNL     1     -36.625  16.193  -4.893  1.00 20.00     0.021 C 
HETATM    6  C7  UNL     1     -35.713  14.971  -5.029  1.00 20.00     0.051 C 
ENDROOT
BRANCH   6   7
HETATM    7  C1  UNL     1     -36.483  13.711  -4.639  1.00 20.00     0.182 C 
HETATM    8  O11 UNL     1     -37.727  13.862  -4.494  1.00 20.00    -0.647 OA
HETATM    9  O12 UNL     1     -35.772  12.674  -4.512  1.00 20.00    -0.647 OA
ENDBRANCH   6   7
BRANCH   6  10
HETATM   10  C10 UNL     1     -35.362  14.708  -6.493  1.00 20.00    -0.004 C 
HETATM   11  C8  UNL     1     -36.242  15.549  -7.412  1.00 20.00     0.011 C 
HETATM   12  C9  UNL     1     -33.886  14.995  -6.748  1.00 20.00     0.011 C 
ENDBRANCH   6  10
TORSDOF 2
ENDMDL
MODEL 3
REMARK VINA RESULT:      -5.3      0.715      3.593
REMARK  2 active torsions:
REMARK  status: ('A' for Active; 'I' for Inactive)
REMARK    1  A    between atoms: C1_1  and  C7_7 
REMARK    2  A    between atoms: C7_7  and  C10_10 
ROOT
HETATM    1  C2  UNL     1     -33.942  15.750  -2.878  1.00 20.00     0.000 C 
HETATM    2  C3  UNL     1     -33.662  14.648  -3.894  1.00 20.00     0.001 C 
HETATM    3  C4  UNL     1     -35.437  15.912  -2.627  1.00 20.00     0.001 C 
HETATM    4  C5  UNL     1     -34.413  14.883  -5.205  1.00 20.00     0.021 C 
HETATM    5  C6  UNL     1     -36.205  16.160  -3.926  1.00 20.00     0.021 C 
HETATM    6  C7  UNL     1     -35.913  15.107  -4.999  1.00 20.00     0.051 C 
ENDROOT
BRANCH   6   7
HETATM    7  C1  UNL     1     -36.580  13.787  -4.616  1.00 20.00     0.182 C 
HETATM    8  O11 UNL     1     -35.822  12.779  -4.623  1.00 20.00    -0.647 OA
HETATM    9  O12 UNL     1     -37.810  13.876  -4.340  1.00 20.00    -0.647 OA
ENDBRANCH   6   7
BRANCH   6  10
HETATM   10  C10 UNL     1     -36.603  15.460  -6.316  1.00 20.00    -0.004 C 
HETATM   11  C8  UNL     1     -36.954  16.944  -6.354  1.00 20.00     0.011 C 
HETATM   12  C9  UNL     1     -35.716  15.085  -7.499  1.00 20.00     0.011 C 
ENDBRANCH   6  10
TORSDOF 2
ENDMDL
MODEL 4
REMARK VINA RESULT:      -5.0      0.928      1.658
REMARK  2 active torsions:
REMARK  status: ('A' for Active; 'I' for Inactive)
REMARK    1  A    between atoms: C1_1  and  C7_7 
REMARK    2  A    between atoms: C7_7  and  C10_10 
ROOT
HETATM    1  C2  UNL     1     -34.575  15.614  -7.233  1.00 20.00     0.000 C 
HETATM    2  C3  UNL     1     -36.075  15.615  -6.958  1.00 20.00     0.001 C 
HETATM    3  C4  UNL     1     -33.827  14.722  -6.248  1.00 20.00     0.001 C 
HETATM    4  C5  UNL     1     -36.387  16.014  -5.516  1.00 20.00     0.021 C 
HETATM    5  C6  UNL     1     -34.117  15.113  -4.798  1.00 20.00     0.021 C 
HETATM    6  C7  UNL     1     -35.615  15.182  -4.488  1.00 20.00     0.051 C 
ENDROOT
BRANCH   6   7
HETATM    7  C1  UNL     1     -36.192  13.768  -4.437  1.00 20.00     0.182 C 
HETATM    8  O11 UNL     1     -35.345  12.844  -4.301  1.00 20.00    -0.647 OA
HETATM    9  O12 UNL     1     -37.450  13.707  -4.537  1.00 20.00    -0.647 OA
ENDBRANCH   6   7
BRANCH   6  10
HETATM   10  C10 UNL     1     -35.860  15.694  -3.069  1.00 20.00    -0.004 C 
HETATM   11  C8  UNL     1     -34.535  15.942  -2.356  1.00 20.00     0.011 C 
HETATM   12  C9  UNL     1     -36.703  16.964  -3.100  1.00 20.00     0.011 C 
ENDBRANCH   6  10
TORSDOF 2
ENDMDL
MODEL 5
REMARK VINA RESULT:      -4.8      1.549      1.955
REMARK  2 active torsions:
REMARK  status: ('A' for Active; 'I' for Inactive)
REMARK    1  A    between atoms: C1_1  and  C7_7 
REMARK    2  A    between atoms: C7_7  and  C10_10 
ROOT
HETATM    1  C2  UNL     1     -36.757  15.847  -6.054  1.00 20.00     0.000 C 
HETATM    2  C3  UNL     1     -36.997  14.808  -4.965  1.00 20.00     0.001 C 
HETATM    3  C4  UNL     1     -35.270  16.031  -6.333  1.00 20.00     0.001 C 
HETATM    4  C5  UNL     1     -36.240  15.149  -3.681  1.00 20.00     0.021 C 
HETATM    5  C6  UNL     1     -34.495  16.383  -5.063  1.00 20.00     0.021 C 
HETATM    6  C7  UNL     1     -34.748  15.397  -3.919  1.00 20.00     0.051 C 
ENDROOT
BRANCH   6   7
HETATM    7  C1  UNL     1     -34.050  14.072  -4.222  1.00 20.00     0.182 C 
HETATM    8  O11 UNL     1     -34.689  13.037  -3.884  1.00 20.00    -0.647 OA
HETATM    9  O12 UNL     1     -32.920  14.183  -4.774  1.00 20.00    -0.647 OA
ENDBRANCH   6   7
BRANCH   6  10
HETATM   10  C10 UNL     1     -34.055  15.854  -2.636  1.00 20.00    -0.004 C 
HETATM   11  C8  UNL     1     -33.067  16.977  -2.935  1.00 20.00     0.011 C 
HETATM   12  C9  UNL     1     -35.085  16.301  -1.604  1.00 20.00     0.011 C 
ENDBRANCH   6  10
TORSDOF 2
ENDMDL
MODEL 6
REMARK VINA RESULT:      -4.7      1.022      3.569
REMARK  2 active torsions:
REMARK  status: ('A' for Active; 'I' for Inactive)
REMARK    1  A    between atoms: C1_1  and  C7_7 
REMARK    2  A    between atoms: C7_7  and  C10_10 
ROOT
HETATM    1  C2  UNL     1     -34.228  16.558  -2.367  1.00 20.00     0.000 C 
HETATM    2  C3  UNL     1     -33.280  15.803  -3.292  1.00 20.00     0.001 C 
HETATM    3  C4  UNL     1     -35.594  15.885  -2.299  1.00 20.00     0.001 C 
HETATM    4  C5  UNL     1     -33.872  15.629  -4.691  1.00 20.00     0.021 C 
HETATM    5  C6  UNL     1     -36.210  15.712  -3.688  1.00 20.00     0.021 C 
HETATM    6  C7  UNL     1     -35.271  15.007  -4.670  1.00 20.00     0.051 C 
ENDROOT
BRANCH   6   7
HETATM    7  C1  UNL     1     -35.167  13.526  -4.307  1.00 20.00     0.182 C 
HETATM    8  O11 UNL     1     -36.247  12.877  -4.377  1.00 20.00    -0.647 OA
HETATM    9  O12 UNL     1     -34.008  13.141  -3.984  1.00 20.00    -0.647 OA
ENDBRANCH   6   7
BRANCH   6  10
HETATM   10  C10 UNL     1     -35.875  14.965  -6.074  1.00 20.00    -0.004 C 
HETATM   11  C8  UNL     1     -36.956  16.031  -6.221  1.00 20.00     0.011 C 
HETATM   12  C9  UNL     1     -34.788  15.149  -7.127  1.00 20.00     0.011 C 
ENDBRANCH   6  10
TORSDOF 2
ENDMDL
MODEL 7
REMARK VINA RESULT:      -4.7      1.078      1.429
REMARK  2 active torsions:
REMARK  status: ('A' for Active; 'I' for Inactive)
REMARK    1  A    between atoms: C1_1  and  C7_7 
REMARK    2  A    between atoms: C7_7  and  C10_10 
ROOT
HETATM    1  C2  UNL     1     -37.258  17.661  -6.016  1.00 20.00     0.000 C 
HETATM    2  C3  UNL     1     -38.000  16.914  -4.914  1.00 20.00     0.001 C 
HETATM    3  C4  UNL     1     -36.195  16.784  -6.667  1.00 20.00     0.001 C 
HETATM    4  C5  UNL     1     -37.041  16.352  -3.865  1.00 20.00     0.021 C 
HETATM    5  C6  UNL     1     -35.217  16.219  -5.636  1.00 20.00     0.021 C 
HETATM    6  C7  UNL     1     -35.920  15.506  -4.478  1.00 20.00     0.051 C 
ENDROOT
BRANCH   6   7
HETATM    7  C1  UNL     1     -36.492  14.176  -4.966  1.00 20.00     0.182 C 
HETATM    8  O11 UNL     1     -35.929  13.689  -5.984  1.00 20.00    -0.647 OA
HETATM    9  O12 UNL     1     -37.457  13.732  -4.282  1.00 20.00    -0.647 OA
ENDBRANCH   6   7
BRANCH   6  10
HETATM   10  C10 UNL     1     -34.917  15.068  -3.412  1.00 20.00    -0.004 C 
HETATM   11  C8  UNL     1     -33.494  15.137  -3.959  1.00 20.00     0.011 C 
HETATM   12  C9  UNL     1     -35.057  15.929  -2.162  1.00 20.00     0.011 C 
ENDBRANCH   6  10
TORSDOF 2
ENDMDL
MODEL 8
REMARK VINA RESULT:      -4.6      1.537      1.995
REMARK  2 active torsions:
REMARK  status: ('A' for Active; 'I' for Inactive)
REMARK    1  A    between atoms: C1_1  and  C7_7 
REMARK    2  A    between atoms: C7_7  and  C10_10 
ROOT
HETATM    1  C2  UNL     1     -37.288  16.045  -5.738  1.00 20.00     0.000 C 
HETATM    2  C3  UNL     1     -37.328  14.855  -4.787  1.00 20.00     0.001 C 
HETATM    3  C4  UNL     1     -35.862  16.363  -6.174  1.00 20.00     0.001 C 
HETATM    4  C5  UNL     1     -36.422  15.068  -3.574  1.00 20.00     0.021 C 
HETATM    5  C6  UNL     1     -34.940  16.592  -4.975  1.00 20.00     0.021 C 
HETATM    6  C7  UNL     1     -34.989  15.445  -3.962  1.00 20.00     0.051 C 
ENDROOT
BRANCH   6   7
HETATM    7  C1  UNL     1     -34.276  14.222  -4.536  1.00 20.00     0.182 C 
HETATM    8  O11 UNL     1     -33.526  14.451  -5.525  1.00 20.00    -0.647 OA
HETATM    9  O12 UNL     1     -34.529  13.135  -3.944  1.00 20.00    -0.647 OA
ENDBRANCH   6   7
BRANCH   6  10
HETATM   10  C10 UNL     1     -34.152  15.769  -2.725  1.00 20.00    -0.004 C 
HETATM   11  C8  UNL     1     -33.036  16.748  -3.078  1.00 20.00     0.011 C 
HETATM   12  C9  UNL     1     -35.035  16.334  -1.617  1.00 20.00     0.011 C 
ENDBRANCH   6  10
TORSDOF 2
ENDMDL
MODEL 9
REMARK VINA RESULT:      -4.5      2.522      4.249
REMARK  2 active torsions:
REMARK  status: ('A' for Active; 'I' for Inactive)
REMARK    1  A    between atoms: C1_1  and  C7_7 
REMARK    2  A    between atoms: C7_7  and  C10_10 
ROOT
HETATM    1  C2  UNL     1     -33.805  17.482  -0.892  1.00 20.00     0.000 C 
HETATM    2  C3  UNL     1     -35.208  17.060  -1.314  1.00 20.00     0.001 C 
HETATM    3  C4  UNL     1     -32.933  17.809  -2.099  1.00 20.00     0.001 C 
HETATM    4  C5  UNL     1     -35.176  15.890  -2.297  1.00 20.00     0.021 C 
HETATM    5  C6  UNL     1     -32.879  16.645  -3.091  1.00 20.00     0.021 C 
HETATM    6  C7  UNL     1     -34.268  16.150  -3.502  1.00 20.00     0.051 C 
ENDROOT
BRANCH   6   7
HETATM    7  C1  UNL     1     -34.925  17.174  -4.426  1.00 20.00     0.182 C 
HETATM    8  O11 UNL     1     -34.127  17.871  -5.111  1.00 20.00    -0.647 OA
HETATM    9  O12 UNL     1     -36.187  17.189  -4.386  1.00 20.00    -0.647 OA
ENDBRANCH   6   7
BRANCH   6  10
HETATM   10  C10 UNL     1     -34.168  14.912  -4.392  1.00 20.00    -0.004 C 
HETATM   11  C8  UNL     1     -32.735  14.392  -4.424  1.00 20.00     0.011 C 
HETATM   12  C9  UNL     1     -35.125  13.828  -3.907  1.00 20.00     0.011 C 
ENDBRANCH   6  10
TORSDOF 2
ENDMDL
