MODEL 1
REMARK VINA RESULT:      -3.8      0.000      0.000
REMARK  0 active torsions:
REMARK  status: ('A' for Active; 'I' for Inactive)
ROOT
HETATM    1  C1  UNL     1     -34.497   4.710   4.127  1.00 20.00     0.158 C 
HETATM    2  C2  UNL     1     -34.628   5.556   5.146  1.00 20.00     0.277 C 
HETATM    3  F3  UNL     1     -35.330   5.181   6.236  1.00 20.00    -0.172 F 
HETATM    4  F4  UNL     1     -34.067   6.783   5.103  1.00 20.00    -0.172 F 
HETATM    5 CL5  UNL     1     -33.630   5.076   2.697  1.00 20.00    -0.091 Cl
ENDROOT
TORSDOF 0
ENDMDL
MODEL 2
REMARK VINA RESULT:      -3.8      1.128      1.657
REMARK  0 active torsions:
REMARK  status: ('A' for Active; 'I' for Inactive)
ROOT
HETATM    1  C1  UNL     1     -34.085   6.225   4.405  1.00 20.00     0.158 C 
HETATM    2  C2  UNL     1     -34.401   6.054   5.687  1.00 20.00     0.277 C 
HETATM    3  F3  UNL     1     -34.379   7.113   6.524  1.00 20.00    -0.172 F 
HETATM    4  F4  UNL     1     -34.743   4.837   6.158  1.00 20.00    -0.172 F 
HETATM    5 CL5  UNL     1     -34.079   4.959   3.254  1.00 20.00    -0.091 Cl
ENDROOT
TORSDOF 0
ENDMDL
MODEL 3
REMARK VINA RESULT:      -3.8      2.597      3.070
REMARK  0 active torsions:
REMARK  status: ('A' for Active; 'I' for Inactive)
ROOT
HETATM    1  C1  UNL     1     -34.279   5.986   4.354  1.00 20.00     0.158 C 
HETATM    2  C2  UNL     1     -34.074   4.978   3.509  1.00 20.00     0.277 C 
HETATM    3  F3  UNL     1     -33.742   5.241   2.227  1.00 20.00    -0.172 F 
HETATM    4  F4  UNL     1     -34.193   3.697   3.918  1.00 20.00    -0.172 F 
HETATM    5 CL5  UNL     1     -34.703   5.772   5.998  1.00 20.00    -0.091 Cl
ENDROOT
TORSDOF 0
ENDMDL
MODEL 4
REMARK VINA RESULT:      -3.7      1.446      1.674
REMARK  0 active torsions:
REMARK  status: ('A' for Active; 'I' for Inactive)
ROOT
HETATM    1  C1  UNL     1     -34.028   6.335   4.422  1.00 20.00     0.158 C 
HETATM    2  C2  UNL     1     -34.639   5.221   4.816  1.00 20.00     0.277 C 
HETATM    3  F3  UNL     1     -35.317   5.211   5.984  1.00 20.00    -0.172 F 
HETATM    4  F4  UNL     1     -34.591   4.102   4.063  1.00 20.00    -0.172 F 
HETATM    5 CL5  UNL     1     -33.142   6.464   2.963  1.00 20.00    -0.091 Cl
ENDROOT
TORSDOF 0
ENDMDL
MODEL 5
REMARK VINA RESULT:      -3.6      2.364      2.729
REMARK  0 active torsions:
REMARK  status: ('A' for Active; 'I' for Inactive)
ROOT
HETATM    1  C1  UNL     1     -34.612   4.734   4.278  1.00 20.00     0.158 C 
HETATM    2  C2  UNL     1     -33.872   5.418   3.409  1.00 20.00     0.277 C 
HETATM    3  F3  UNL     1     -33.676   4.924   2.168  1.00 20.00    -0.172 F 
HETATM    4  F4  UNL     1     -33.316   6.599   3.752  1.00 20.00    -0.172 F 
HETATM    5 CL5  UNL     1     -34.927   5.261   5.875  1.00 20.00    -0.091 Cl
ENDROOT
TORSDOF 0
ENDMDL
MODEL 6
REMARK VINA RESULT:      -3.5      2.865      3.314
REMARK  0 active torsions:
REMARK  status: ('A' for Active; 'I' for Inactive)
ROOT
HETATM    1  C1  UNL     1     -33.941   6.180   3.936  1.00 20.00     0.158 C 
HETATM    2  C2  UNL     1     -33.153   5.931   2.893  1.00 20.00     0.277 C 
HETATM    3  F3  UNL     1     -32.379   6.918   2.392  1.00 20.00    -0.172 F 
HETATM    4  F4  UNL     1     -33.117   4.705   2.329  1.00 20.00    -0.172 F 
HETATM    5 CL5  UNL     1     -34.962   5.008   4.652  1.00 20.00    -0.091 Cl
ENDROOT
TORSDOF 0
ENDMDL
MODEL 7
REMARK VINA RESULT:      -3.4      2.395      3.106
REMARK  0 active torsions:
REMARK  status: ('A' for Active; 'I' for Inactive)
ROOT
HETATM    1  C1  UNL     1     -33.485   5.222   2.697  1.00 20.00     0.158 C 
HETATM    2  C2  UNL     1     -32.929   6.414   2.902  1.00 20.00     0.277 C 
HETATM    3  F3  UNL     1     -32.284   7.031   1.889  1.00 20.00    -0.172 F 
HETATM    4  F4  UNL     1     -33.004   7.014   4.109  1.00 20.00    -0.172 F 
HETATM    5 CL5  UNL     1     -34.326   4.349   3.905  1.00 20.00    -0.091 Cl
ENDROOT
TORSDOF 0
ENDMDL
MODEL 8
REMARK VINA RESULT:      -3.1      5.056      5.401
REMARK  0 active torsions:
REMARK  status: ('A' for Active; 'I' for Inactive)
ROOT
HETATM    1  C1  UNL     1     -32.565   7.480   1.425  1.00 20.00     0.158 C 
HETATM    2  C2  UNL     1     -32.861   8.565   0.714  1.00 20.00     0.277 C 
HETATM    3  F3  UNL     1     -33.287   8.430  -0.560  1.00 20.00    -0.172 F 
HETATM    4  F4  UNL     1     -32.742   9.798   1.251  1.00 20.00    -0.172 F 
HETATM    5 CL5  UNL     1     -32.018   7.530   3.046  1.00 20.00    -0.091 Cl
ENDROOT
TORSDOF 0
ENDMDL
MODEL 9
REMARK VINA RESULT:      -3.0      4.112      4.456
REMARK  0 active torsions:
REMARK  status: ('A' for Active; 'I' for Inactive)
ROOT
HETATM    1  C1  UNL     1     -32.489   8.365   1.301  1.00 20.00     0.158 C 
HETATM    2  C2  UNL     1     -32.481   7.337   2.146  1.00 20.00     0.277 C 
HETATM    3  F3  UNL     1     -31.759   7.417   3.284  1.00 20.00    -0.172 F 
HETATM    4  F4  UNL     1     -33.186   6.217   1.880  1.00 20.00    -0.172 F 
HETATM    5 CL5  UNL     1     -33.365   8.375  -0.169  1.00 20.00    -0.091 Cl
ENDROOT
TORSDOF 0
ENDMDL
