MODEL 1
REMARK VINA RESULT:      -4.1      0.000      0.000
REMARK  2 active torsions:
REMARK  status: ('A' for Active; 'I' for Inactive)
REMARK    1  A    between atoms: C3_3  and  C8_8 
REMARK    2  A    between atoms: C7_7  and  C8_8 
ROOT
HETATM    1  C1  UNL     1     -35.159  16.395  -1.616  1.00 20.00     0.018 A 
HETATM    2  C2  UNL     1     -34.664  17.344  -0.676  1.00 20.00     0.032 A 
HETATM    3  C3  UNL     1     -34.325  16.263  -2.705  1.00 20.00     0.003 A 
HETATM    4  C4  UNL     1     -33.472  17.902  -1.083  1.00 20.00     0.075 A 
HETATM    5  S9  UNL     1     -32.953  17.282  -2.592  1.00 20.00    -0.081 SA
HETATM    6 CL10 UNL     1     -32.530  19.080  -0.266  1.00 20.00    -0.076 Cl
ENDROOT
BRANCH   3   7
HETATM    7  C8  UNL     1     -34.490  15.360  -3.924  1.00 20.00     0.126 C 
HETATM    8 CL11 UNL     1     -32.892  14.613  -4.294  1.00 20.00    -0.119 Cl
BRANCH   7   9
HETATM    9  C7  UNL     1     -35.548  14.320  -3.799  1.00 20.00     0.009 A 
HETATM   10  C5  UNL     1     -36.975  14.644  -4.145  1.00 20.00     0.007 A 
HETATM   11  C6  UNL     1     -36.176  13.727  -5.030  1.00 20.00     0.007 A 
ENDBRANCH   7   9
ENDBRANCH   3   7
TORSDOF 2
ENDMDL
MODEL 2
REMARK VINA RESULT:      -4.0      2.747      3.824
REMARK  2 active torsions:
REMARK  status: ('A' for Active; 'I' for Inactive)
REMARK    1  A    between atoms: C3_3  and  C8_8 
REMARK    2  A    between atoms: C7_7  and  C8_8 
ROOT
HETATM    1  C1  UNL     1     -31.097  18.197  -0.436  1.00 20.00     0.018 A 
HETATM    2  C2  UNL     1     -30.815  18.340   0.953  1.00 20.00     0.032 A 
HETATM    3  C3  UNL     1     -32.449  18.249  -0.697  1.00 20.00     0.003 A 
HETATM    4  C4  UNL     1     -31.961  18.496   1.701  1.00 20.00     0.075 A 
HETATM    5  S9  UNL     1     -33.371  18.469   0.729  1.00 20.00    -0.081 SA
HETATM    6 CL10 UNL     1     -32.090  18.699   3.398  1.00 20.00    -0.076 Cl
ENDROOT
BRANCH   3   7
HETATM    7  C8  UNL     1     -33.162  18.137  -2.042  1.00 20.00     0.126 C 
HETATM    8 CL11 UNL     1     -32.361  19.262  -3.200  1.00 20.00    -0.119 Cl
BRANCH   7   9
HETATM    9  C7  UNL     1     -33.236  16.760  -2.602  1.00 20.00     0.009 A 
HETATM   10  C5  UNL     1     -34.469  15.924  -2.396  1.00 20.00     0.007 A 
HETATM   11  C6  UNL     1     -34.146  16.463  -3.762  1.00 20.00     0.007 A 
ENDBRANCH   7   9
ENDBRANCH   3   7
TORSDOF 2
ENDMDL
MODEL 3
REMARK VINA RESULT:      -3.9      1.910      4.911
REMARK  2 active torsions:
REMARK  status: ('A' for Active; 'I' for Inactive)
REMARK    1  A    between atoms: C3_3  and  C8_8 
REMARK    2  A    between atoms: C7_7  and  C8_8 
ROOT
HETATM    1  C1  UNL     1     -32.946  15.590  -3.597  1.00 20.00     0.018 A 
HETATM    2  C2  UNL     1     -33.666  14.594  -4.318  1.00 20.00     0.032 A 
HETATM    3  C3  UNL     1     -33.756  16.281  -2.722  1.00 20.00     0.003 A 
HETATM    4  C4  UNL     1     -34.998  14.563  -3.968  1.00 20.00     0.075 A 
HETATM    5  S9  UNL     1     -35.377  15.730  -2.774  1.00 20.00    -0.081 SA
HETATM    6 CL10 UNL     1     -36.222  13.530  -4.581  1.00 20.00    -0.076 Cl
ENDROOT
BRANCH   3   7
HETATM    7  C8  UNL     1     -33.379  17.416  -1.774  1.00 20.00     0.126 C 
HETATM    8 CL11 UNL     1     -32.488  18.667  -2.717  1.00 20.00    -0.119 Cl
BRANCH   7   9
HETATM    9  C7  UNL     1     -34.519  18.021  -1.031  1.00 20.00     0.009 A 
HETATM   10  C5  UNL     1     -34.938  17.462   0.301  1.00 20.00     0.007 A 
HETATM   11  C6  UNL     1     -34.271  18.807   0.227  1.00 20.00     0.007 A 
ENDBRANCH   7   9
ENDBRANCH   3   7
TORSDOF 2
ENDMDL
MODEL 4
REMARK VINA RESULT:      -3.9      1.636      1.899
REMARK  2 active torsions:
REMARK  status: ('A' for Active; 'I' for Inactive)
REMARK    1  A    between atoms: C3_3  and  C8_8 
REMARK    2  A    between atoms: C7_7  and  C8_8 
ROOT
HETATM    1  C1  UNL     1     -35.220  15.886  -2.293  1.00 20.00     0.018 A 
HETATM    2  C2  UNL     1     -34.896  16.879  -1.324  1.00 20.00     0.032 A 
HETATM    3  C3  UNL     1     -34.237  15.758  -3.250  1.00 20.00     0.003 A 
HETATM    4  C4  UNL     1     -33.678  17.472  -1.577  1.00 20.00     0.075 A 
HETATM    5  S9  UNL     1     -32.931  16.832  -2.978  1.00 20.00    -0.081 SA
HETATM    6 CL10 UNL     1     -32.902  18.706  -0.676  1.00 20.00    -0.076 Cl
ENDROOT
BRANCH   3   7
HETATM    7  C8  UNL     1     -34.197  14.817  -4.451  1.00 20.00     0.126 C 
HETATM    8 CL11 UNL     1     -34.851  13.218  -3.936  1.00 20.00    -0.119 Cl
BRANCH   7   9
HETATM    9  C7  UNL     1     -34.901  15.315  -5.665  1.00 20.00     0.009 A 
HETATM   10  C5  UNL     1     -34.491  16.614  -6.299  1.00 20.00     0.007 A 
HETATM   11  C6  UNL     1     -34.204  15.314  -6.998  1.00 20.00     0.007 A 
ENDBRANCH   7   9
ENDBRANCH   3   7
TORSDOF 2
ENDMDL
MODEL 5
REMARK VINA RESULT:      -3.8      2.278      2.646
REMARK  2 active torsions:
REMARK  status: ('A' for Active; 'I' for Inactive)
REMARK    1  A    between atoms: C3_3  and  C8_8 
REMARK    2  A    between atoms: C7_7  and  C8_8 
ROOT
HETATM    1  C1  UNL     1     -33.018  16.165  -3.419  1.00 20.00     0.018 A 
HETATM    2  C2  UNL     1     -33.089  16.986  -2.257  1.00 20.00     0.032 A 
HETATM    3  C3  UNL     1     -34.239  15.609  -3.734  1.00 20.00     0.003 A 
HETATM    4  C4  UNL     1     -34.360  17.026  -1.728  1.00 20.00     0.075 A 
HETATM    5  S9  UNL     1     -35.462  16.076  -2.630  1.00 20.00    -0.081 SA
HETATM    6 CL10 UNL     1     -34.895  17.883  -0.343  1.00 20.00    -0.076 Cl
ENDROOT
BRANCH   3   7
HETATM    7  C8  UNL     1     -34.588  14.678  -4.891  1.00 20.00     0.126 C 
HETATM    8 CL11 UNL     1     -35.773  13.457  -4.295  1.00 20.00    -0.119 Cl
BRANCH   7   9
HETATM    9  C7  UNL     1     -35.094  15.357  -6.116  1.00 20.00     0.009 A 
HETATM   10  C5  UNL     1     -34.468  16.642  -6.582  1.00 20.00     0.007 A 
HETATM   11  C6  UNL     1     -34.262  15.377  -7.369  1.00 20.00     0.007 A 
ENDBRANCH   7   9
ENDBRANCH   3   7
TORSDOF 2
ENDMDL
MODEL 6
REMARK VINA RESULT:      -3.8      2.032      5.241
REMARK  2 active torsions:
REMARK  status: ('A' for Active; 'I' for Inactive)
REMARK    1  A    between atoms: C3_3  and  C8_8 
REMARK    2  A    between atoms: C7_7  and  C8_8 
ROOT
HETATM    1  C1  UNL     1     -33.304  15.851  -3.203  1.00 20.00     0.018 A 
HETATM    2  C2  UNL     1     -33.738  14.916  -4.187  1.00 20.00     0.032 A 
HETATM    3  C3  UNL     1     -34.361  16.491  -2.595  1.00 20.00     0.003 A 
HETATM    4  C4  UNL     1     -35.111  14.878  -4.293  1.00 20.00     0.075 A 
HETATM    5  S9  UNL     1     -35.871  15.966  -3.211  1.00 20.00    -0.081 SA
HETATM    6 CL10 UNL     1     -36.058  13.905  -5.341  1.00 20.00    -0.076 Cl
ENDROOT
BRANCH   3   7
HETATM    7  C8  UNL     1     -34.326  17.553  -1.500  1.00 20.00     0.126 C 
HETATM    8 CL11 UNL     1     -35.342  16.981  -0.126  1.00 20.00    -0.119 Cl
BRANCH   7   9
HETATM    9  C7  UNL     1     -32.964  17.933  -1.034  1.00 20.00     0.009 A 
HETATM   10  C5  UNL     1     -32.191  19.007  -1.748  1.00 20.00     0.007 A 
HETATM   11  C6  UNL     1     -32.734  19.263  -0.370  1.00 20.00     0.007 A 
ENDBRANCH   7   9
ENDBRANCH   3   7
TORSDOF 2
ENDMDL
MODEL 7
REMARK VINA RESULT:      -3.8      2.348      3.106
REMARK  2 active torsions:
REMARK  status: ('A' for Active; 'I' for Inactive)
REMARK    1  A    between atoms: C3_3  and  C8_8 
REMARK    2  A    between atoms: C7_7  and  C8_8 
ROOT
HETATM    1  C1  UNL     1     -35.365  17.381  -0.091  1.00 20.00     0.018 A 
HETATM    2  C2  UNL     1     -35.393  17.665   1.305  1.00 20.00     0.032 A 
HETATM    3  C3  UNL     1     -34.183  17.781  -0.676  1.00 20.00     0.003 A 
HETATM    4  C4  UNL     1     -34.232  18.270   1.734  1.00 20.00     0.075 A 
HETATM    5  S9  UNL     1     -33.115  18.494   0.456  1.00 20.00    -0.081 SA
HETATM    6 CL10 UNL     1     -33.838  18.781   3.322  1.00 20.00    -0.076 Cl
ENDROOT
BRANCH   3   7
HETATM    7  C8  UNL     1     -33.758  17.660  -2.136  1.00 20.00     0.126 C 
HETATM    8 CL11 UNL     1     -32.294  18.683  -2.384  1.00 20.00    -0.119 Cl
BRANCH   7   9
HETATM    9  C7  UNL     1     -33.522  16.268  -2.611  1.00 20.00     0.009 A 
HETATM   10  C5  UNL     1     -34.681  15.391  -2.992  1.00 20.00     0.007 A 
HETATM   11  C6  UNL     1     -33.753  15.911  -4.053  1.00 20.00     0.007 A 
ENDBRANCH   7   9
ENDBRANCH   3   7
TORSDOF 2
ENDMDL
MODEL 8
REMARK VINA RESULT:      -3.8      2.317      5.726
REMARK  2 active torsions:
REMARK  status: ('A' for Active; 'I' for Inactive)
REMARK    1  A    between atoms: C3_3  and  C8_8 
REMARK    2  A    between atoms: C7_7  and  C8_8 
ROOT
HETATM    1  C1  UNL     1     -32.859  17.649  -1.896  1.00 20.00     0.018 A 
HETATM    2  C2  UNL     1     -33.044  16.596  -2.837  1.00 20.00     0.032 A 
HETATM    3  C3  UNL     1     -33.932  17.773  -1.041  1.00 20.00     0.003 A 
HETATM    4  C4  UNL     1     -34.251  15.955  -2.667  1.00 20.00     0.075 A 
HETATM    5  S9  UNL     1     -35.157  16.623  -1.376  1.00 20.00    -0.081 SA
HETATM    6 CL10 UNL     1     -34.881  14.641  -3.570  1.00 20.00    -0.076 Cl
ENDROOT
BRANCH   3   7
HETATM    7  C8  UNL     1     -34.129  18.767   0.099  1.00 20.00     0.126 C 
HETATM    8 CL11 UNL     1     -35.864  19.253   0.133  1.00 20.00    -0.119 Cl
BRANCH   7   9
HETATM    9  C7  UNL     1     -33.684  18.287   1.438  1.00 20.00     0.009 A 
HETATM   10  C5  UNL     1     -32.221  18.235   1.776  1.00 20.00     0.007 A 
HETATM   11  C6  UNL     1     -33.109  19.254   2.436  1.00 20.00     0.007 A 
ENDBRANCH   7   9
ENDBRANCH   3   7
TORSDOF 2
ENDMDL
MODEL 9
REMARK VINA RESULT:      -3.7      1.920      2.232
REMARK  2 active torsions:
REMARK  status: ('A' for Active; 'I' for Inactive)
REMARK    1  A    between atoms: C3_3  and  C8_8 
REMARK    2  A    between atoms: C7_7  and  C8_8 
ROOT
HETATM    1  C1  UNL     1     -33.279  16.941  -2.635  1.00 20.00     0.018 A 
HETATM    2  C2  UNL     1     -32.528  17.760  -1.743  1.00 20.00     0.032 A 
HETATM    3  C3  UNL     1     -34.558  16.715  -2.177  1.00 20.00     0.003 A 
HETATM    4  C4  UNL     1     -33.263  18.128  -0.637  1.00 20.00     0.075 A 
HETATM    5  S9  UNL     1     -34.850  17.487  -0.677  1.00 20.00    -0.081 SA
HETATM    6 CL10 UNL     1     -32.761  19.102   0.682  1.00 20.00    -0.076 Cl
ENDROOT
BRANCH   3   7
HETATM    7  C8  UNL     1     -35.670  15.897  -2.829  1.00 20.00     0.126 C 
HETATM    8 CL11 UNL     1     -37.050  17.002  -3.182  1.00 20.00    -0.119 Cl
BRANCH   7   9
HETATM    9  C7  UNL     1     -35.266  15.143  -4.048  1.00 20.00     0.009 A 
HETATM   10  C5  UNL     1     -34.555  13.825  -3.922  1.00 20.00     0.007 A 
HETATM   11  C6  UNL     1     -35.973  13.869  -4.419  1.00 20.00     0.007 A 
ENDBRANCH   7   9
ENDBRANCH   3   7
TORSDOF 2
ENDMDL
