MODEL 1
REMARK VINA RESULT:      -4.4      0.000      0.000
REMARK  2 active torsions:
REMARK  status: ('A' for Active; 'I' for Inactive)
REMARK    1  A    between atoms: C4_4  and  C10_10 
REMARK    2  A    between atoms: C7_7  and  C10_10 
ROOT
HETATM    1  C1  UNL     1     -31.019  18.547  -0.313  1.00 20.00     0.015 A 
HETATM    2  C2  UNL     1     -32.048  18.119  -1.203  1.00 20.00     0.017 A 
HETATM    3  C3  UNL     1     -31.498  18.775   0.958  1.00 20.00    -0.021 A 
HETATM    4  C4  UNL     1     -33.272  18.037  -0.578  1.00 20.00    -0.002 A 
HETATM    5  C8  UNL     1     -30.753  19.225   2.155  1.00 20.00     0.056 C 
HETATM    6  S11 UNL     1     -33.179  18.474   1.075  1.00 20.00    -0.099 SA
ENDROOT
BRANCH   4   7
HETATM    7  C10 UNL     1     -34.603  17.626  -1.165  1.00 20.00     0.102 C 
HETATM    8 BR12 UNL     1     -35.937  17.544   0.268  1.00 20.00    -0.085 Br
BRANCH   7   9
HETATM    9  C7  UNL     1     -34.552  16.334  -1.904  1.00 20.00     0.009 A 
HETATM   10  C5  UNL     1     -35.597  16.012  -2.941  1.00 20.00     0.011 A 
HETATM   11  C6  UNL     1     -34.183  16.312  -3.365  1.00 20.00    -0.013 A 
HETATM   12  C9  UNL     1     -33.316  15.226  -3.901  1.00 20.00     0.010 C 
ENDBRANCH   7   9
ENDBRANCH   4   7
TORSDOF 2
ENDMDL
MODEL 2
REMARK VINA RESULT:      -4.1      3.509      6.483
REMARK  2 active torsions:
REMARK  status: ('A' for Active; 'I' for Inactive)
REMARK    1  A    between atoms: C4_4  and  C10_10 
REMARK    2  A    between atoms: C7_7  and  C10_10 
ROOT
HETATM    1  C1  UNL     1     -37.882  14.724  -4.369  1.00 20.00     0.015 A 
HETATM    2  C2  UNL     1     -36.541  14.603  -3.899  1.00 20.00     0.017 A 
HETATM    3  C3  UNL     1     -38.115  15.946  -4.959  1.00 20.00    -0.021 A 
HETATM    4  C4  UNL     1     -35.802  15.738  -4.148  1.00 20.00    -0.002 A 
HETATM    5  C8  UNL     1     -39.366  16.452  -5.564  1.00 20.00     0.056 C 
HETATM    6  S11 UNL     1     -36.722  16.942  -4.945  1.00 20.00    -0.099 SA
ENDROOT
BRANCH   4   7
HETATM    7  C10 UNL     1     -34.353  16.010  -3.811  1.00 20.00     0.102 C 
HETATM    8 BR12 UNL     1     -33.252  14.540  -4.494  1.00 20.00    -0.085 Br
BRANCH   7   9
HETATM    9  C7  UNL     1     -34.109  16.212  -2.356  1.00 20.00     0.009 A 
HETATM   10  C5  UNL     1     -33.346  17.420  -1.877  1.00 20.00     0.011 A 
HETATM   11  C6  UNL     1     -34.825  17.312  -1.615  1.00 20.00    -0.013 A 
HETATM   12  C9  UNL     1     -35.326  17.078  -0.232  1.00 20.00     0.010 C 
ENDBRANCH   7   9
ENDBRANCH   4   7
TORSDOF 2
ENDMDL
MODEL 3
REMARK VINA RESULT:      -4.1      2.450      5.165
REMARK  2 active torsions:
REMARK  status: ('A' for Active; 'I' for Inactive)
REMARK    1  A    between atoms: C4_4  and  C10_10 
REMARK    2  A    between atoms: C7_7  and  C10_10 
ROOT
HETATM    1  C1  UNL     1     -35.106  15.463  -2.712  1.00 20.00     0.015 A 
HETATM    2  C2  UNL     1     -35.105  16.407  -1.644  1.00 20.00     0.017 A 
HETATM    3  C3  UNL     1     -33.972  15.559  -3.488  1.00 20.00    -0.021 A 
HETATM    4  C4  UNL     1     -33.970  17.188  -1.645  1.00 20.00    -0.002 A 
HETATM    5  C8  UNL     1     -33.602  14.763  -4.679  1.00 20.00     0.056 C 
HETATM    6  S11 UNL     1     -32.913  16.782  -2.929  1.00 20.00    -0.099 SA
ENDROOT
BRANCH   4   7
HETATM    7  C10 UNL     1     -33.589  18.295  -0.688  1.00 20.00     0.102 C 
HETATM    8 BR12 UNL     1     -31.637  18.455  -0.642  1.00 20.00    -0.085 Br
BRANCH   7   9
HETATM    9  C7  UNL     1     -34.129  18.103   0.687  1.00 20.00     0.009 A 
HETATM   10  C5  UNL     1     -34.185  19.263   1.647  1.00 20.00     0.011 A 
HETATM   11  C6  UNL     1     -35.458  18.704   1.068  1.00 20.00    -0.013 A 
HETATM   12  C9  UNL     1     -36.402  17.943   1.932  1.00 20.00     0.010 C 
ENDBRANCH   7   9
ENDBRANCH   4   7
TORSDOF 2
ENDMDL
MODEL 4
REMARK VINA RESULT:      -4.1      2.723      3.915
REMARK  2 active torsions:
REMARK  status: ('A' for Active; 'I' for Inactive)
REMARK    1  A    between atoms: C4_4  and  C10_10 
REMARK    2  A    between atoms: C7_7  and  C10_10 
ROOT
HETATM    1  C1  UNL     1     -34.676  17.546  -0.775  1.00 20.00     0.015 A 
HETATM    2  C2  UNL     1     -35.175  16.392  -1.446  1.00 20.00     0.017 A 
HETATM    3  C3  UNL     1     -33.512  18.011  -1.345  1.00 20.00    -0.021 A 
HETATM    4  C4  UNL     1     -34.373  16.020  -2.503  1.00 20.00    -0.002 A 
HETATM    5  C8  UNL     1     -32.692  19.175  -0.943  1.00 20.00     0.056 C 
HETATM    6  S11 UNL     1     -33.025  17.060  -2.682  1.00 20.00    -0.099 SA
ENDROOT
BRANCH   4   7
HETATM    7  C10 UNL     1     -34.553  14.862  -3.458  1.00 20.00     0.102 C 
HETATM    8 BR12 UNL     1     -32.878  14.570  -4.431  1.00 20.00    -0.085 Br
BRANCH   7   9
HETATM    9  C7  UNL     1     -35.684  15.047  -4.410  1.00 20.00     0.009 A 
HETATM   10  C5  UNL     1     -36.353  13.850  -5.033  1.00 20.00     0.011 A 
HETATM   11  C6  UNL     1     -37.085  14.670  -4.003  1.00 20.00    -0.013 A 
HETATM   12  C9  UNL     1     -38.235  15.525  -4.406  1.00 20.00     0.010 C 
ENDBRANCH   7   9
ENDBRANCH   4   7
TORSDOF 2
ENDMDL
MODEL 5
REMARK VINA RESULT:      -4.0      2.604      3.194
REMARK  2 active torsions:
REMARK  status: ('A' for Active; 'I' for Inactive)
REMARK    1  A    between atoms: C4_4  and  C10_10 
REMARK    2  A    between atoms: C7_7  and  C10_10 
ROOT
HETATM    1  C1  UNL     1     -35.463  17.081  -0.039  1.00 20.00     0.015 A 
HETATM    2  C2  UNL     1     -35.168  16.657  -1.367  1.00 20.00     0.017 A 
HETATM    3  C3  UNL     1     -34.474  17.888   0.478  1.00 20.00    -0.021 A 
HETATM    4  C4  UNL     1     -33.965  17.156  -1.815  1.00 20.00    -0.002 A 
HETATM    5  C8  UNL     1     -34.408  18.524   1.812  1.00 20.00     0.056 C 
HETATM    6  S11 UNL     1     -33.197  18.132  -0.636  1.00 20.00    -0.099 SA
ENDROOT
BRANCH   4   7
HETATM    7  C10 UNL     1     -33.298  16.944  -3.155  1.00 20.00     0.102 C 
HETATM    8 BR12 UNL     1     -32.966  18.687  -3.986  1.00 20.00    -0.085 Br
BRANCH   7   9
HETATM    9  C7  UNL     1     -34.077  16.068  -4.074  1.00 20.00     0.009 A 
HETATM   10  C5  UNL     1     -33.382  14.986  -4.859  1.00 20.00     0.011 A 
HETATM   11  C6  UNL     1     -34.304  14.620  -3.726  1.00 20.00    -0.013 A 
HETATM   12  C9  UNL     1     -35.620  13.981  -4.008  1.00 20.00     0.010 C 
ENDBRANCH   7   9
ENDBRANCH   4   7
TORSDOF 2
ENDMDL
MODEL 6
REMARK VINA RESULT:      -3.9      2.981      4.176
REMARK  2 active torsions:
REMARK  status: ('A' for Active; 'I' for Inactive)
REMARK    1  A    between atoms: C4_4  and  C10_10 
REMARK    2  A    between atoms: C7_7  and  C10_10 
ROOT
HETATM    1  C1  UNL     1     -36.433  17.840   0.675  1.00 20.00     0.015 A 
HETATM    2  C2  UNL     1     -35.164  17.343   0.257  1.00 20.00     0.017 A 
HETATM    3  C3  UNL     1     -37.253  18.124  -0.394  1.00 20.00    -0.021 A 
HETATM    4  C4  UNL     1     -35.063  17.268  -1.114  1.00 20.00    -0.002 A 
HETATM    5  C8  UNL     1     -38.635  18.653  -0.379  1.00 20.00     0.056 C 
HETATM    6  S11 UNL     1     -36.494  17.794  -1.893  1.00 20.00    -0.099 SA
ENDROOT
BRANCH   4   7
HETATM    7  C10 UNL     1     -33.892  16.797  -1.947  1.00 20.00     0.102 C 
HETATM    8 BR12 UNL     1     -32.644  18.287  -2.195  1.00 20.00    -0.085 Br
BRANCH   7   9
HETATM    9  C7  UNL     1     -34.291  16.226  -3.263  1.00 20.00     0.009 A 
HETATM   10  C5  UNL     1     -33.400  15.229  -3.958  1.00 20.00     0.011 A 
HETATM   11  C6  UNL     1     -34.710  14.782  -3.365  1.00 20.00    -0.013 A 
HETATM   12  C9  UNL     1     -35.840  14.393  -4.254  1.00 20.00     0.010 C 
ENDBRANCH   7   9
ENDBRANCH   4   7
TORSDOF 2
ENDMDL
MODEL 7
REMARK VINA RESULT:      -3.9      1.164      1.545
REMARK  2 active torsions:
REMARK  status: ('A' for Active; 'I' for Inactive)
REMARK    1  A    between atoms: C4_4  and  C10_10 
REMARK    2  A    between atoms: C7_7  and  C10_10 
ROOT
HETATM    1  C1  UNL     1     -32.678  18.244   2.242  1.00 20.00     0.015 A 
HETATM    2  C2  UNL     1     -33.947  17.999   1.642  1.00 20.00     0.017 A 
HETATM    3  C3  UNL     1     -31.713  18.544   1.307  1.00 20.00    -0.021 A 
HETATM    4  C4  UNL     1     -33.903  18.120   0.271  1.00 20.00    -0.002 A 
HETATM    5  C8  UNL     1     -30.284  18.857   1.526  1.00 20.00     0.056 C 
HETATM    6  S11 UNL     1     -32.337  18.528  -0.288  1.00 20.00    -0.099 SA
ENDROOT
BRANCH   4   7
HETATM    7  C10 UNL     1     -35.026  17.942  -0.726  1.00 20.00     0.102 C 
HETATM    8 BR12 UNL     1     -36.738  17.973   0.227  1.00 20.00    -0.085 Br
BRANCH   7   9
HETATM    9  C7  UNL     1     -34.905  16.702  -1.541  1.00 20.00     0.009 A 
HETATM   10  C5  UNL     1     -35.767  16.511  -2.763  1.00 20.00     0.011 A 
HETATM   11  C6  UNL     1     -34.289  16.757  -2.915  1.00 20.00    -0.013 A 
HETATM   12  C9  UNL     1     -33.392  15.661  -3.376  1.00 20.00     0.010 C 
ENDBRANCH   7   9
ENDBRANCH   4   7
TORSDOF 2
ENDMDL
MODEL 8
REMARK VINA RESULT:      -3.8      2.756      5.437
REMARK  2 active torsions:
REMARK  status: ('A' for Active; 'I' for Inactive)
REMARK    1  A    between atoms: C4_4  and  C10_10 
REMARK    2  A    between atoms: C7_7  and  C10_10 
ROOT
HETATM    1  C1  UNL     1     -33.680  14.579  -4.766  1.00 20.00     0.015 A 
HETATM    2  C2  UNL     1     -34.093  15.003  -3.470  1.00 20.00     0.017 A 
HETATM    3  C3  UNL     1     -34.188  15.384  -5.760  1.00 20.00    -0.021 A 
HETATM    4  C4  UNL     1     -34.901  16.117  -3.523  1.00 20.00    -0.002 A 
HETATM    5  C8  UNL     1     -33.994  15.276  -7.222  1.00 20.00     0.056 C 
HETATM    6  S11 UNL     1     -35.158  16.647  -5.130  1.00 20.00    -0.099 SA
ENDROOT
BRANCH   4   7
HETATM    7  C10 UNL     1     -35.540  16.871  -2.379  1.00 20.00     0.102 C 
HETATM    8 BR12 UNL     1     -37.264  17.590  -2.971  1.00 20.00    -0.085 Br
BRANCH   7   9
HETATM    9  C7  UNL     1     -34.682  17.959  -1.831  1.00 20.00     0.009 A 
HETATM   10  C5  UNL     1     -34.331  17.981  -0.366  1.00 20.00     0.011 A 
HETATM   11  C6  UNL     1     -33.273  17.660  -1.388  1.00 20.00    -0.013 A 
HETATM   12  C9  UNL     1     -32.180  18.633  -1.666  1.00 20.00     0.010 C 
ENDBRANCH   7   9
ENDBRANCH   4   7
TORSDOF 2
ENDMDL
MODEL 9
REMARK VINA RESULT:      -3.8      3.577      4.927
REMARK  2 active torsions:
REMARK  status: ('A' for Active; 'I' for Inactive)
REMARK    1  A    between atoms: C4_4  and  C10_10 
REMARK    2  A    between atoms: C7_7  and  C10_10 
ROOT
HETATM    1  C1  UNL     1     -33.888  18.338  -4.041  1.00 20.00     0.015 A 
HETATM    2  C2  UNL     1     -34.406  17.513  -5.081  1.00 20.00     0.017 A 
HETATM    3  C3  UNL     1     -33.214  17.606  -3.089  1.00 20.00    -0.021 A 
HETATM    4  C4  UNL     1     -34.107  16.183  -4.885  1.00 20.00    -0.002 A 
HETATM    5  C8  UNL     1     -32.539  18.089  -1.864  1.00 20.00     0.056 C 
HETATM    6  S11 UNL     1     -33.206  15.933  -3.451  1.00 20.00    -0.099 SA
ENDROOT
BRANCH   4   7
HETATM    7  C10 UNL     1     -34.471  14.999  -5.752  1.00 20.00     0.102 C 
HETATM    8 BR12 UNL     1     -34.161  15.464  -7.631  1.00 20.00    -0.085 Br
BRANCH   7   9
HETATM    9  C7  UNL     1     -35.869  14.526  -5.556  1.00 20.00     0.009 A 
HETATM   10  C5  UNL     1     -36.163  13.419  -4.576  1.00 20.00     0.011 A 
HETATM   11  C6  UNL     1     -36.597  14.829  -4.272  1.00 20.00    -0.013 A 
HETATM   12  C9  UNL     1     -38.041  15.190  -4.299  1.00 20.00     0.010 C 
ENDBRANCH   7   9
ENDBRANCH   4   7
TORSDOF 2
ENDMDL
