MODEL 1
REMARK VINA RESULT:      -4.2      0.000      0.000
REMARK  2 active torsions:
REMARK  status: ('A' for Active; 'I' for Inactive)
REMARK    1  A    between atoms: C3_3  and  C8_8 
REMARK    2  A    between atoms: C7_7  and  C8_8 
ROOT
HETATM    1  C1  UNL     1     -25.408  17.081  12.109  1.00 20.00     0.018 A 
HETATM    2  C2  UNL     1     -26.795  17.314  12.332  1.00 20.00     0.032 A 
HETATM    3  C3  UNL     1     -24.844  18.043  11.301  1.00 20.00    -0.001 A 
HETATM    4  C4  UNL     1     -27.240  18.445  11.685  1.00 20.00     0.075 A 
HETATM    5  S9  UNL     1     -25.987  19.222  10.814  1.00 20.00    -0.081 SA
HETATM    6 CL10 UNL     1     -28.825  19.097  11.678  1.00 20.00    -0.076 Cl
ENDROOT
BRANCH   3   7
HETATM    7  C8  UNL     1     -23.411  18.157  10.829  1.00 20.00     0.102 C 
HETATM    8 BR11 UNL     1     -22.208  17.760  12.324  1.00 20.00    -0.085 Br
BRANCH   7   9
HETATM    9  C7  UNL     1     -23.096  17.277   9.669  1.00 20.00     0.005 A 
HETATM   10  C5  UNL     1     -22.924  17.866   8.296  1.00 20.00     0.006 A 
HETATM   11  C6  UNL     1     -21.733  17.321   9.035  1.00 20.00     0.006 A 
ENDBRANCH   7   9
ENDBRANCH   3   7
TORSDOF 2
ENDMDL
MODEL 2
REMARK VINA RESULT:      -4.2     15.806     16.537
REMARK  2 active torsions:
REMARK  status: ('A' for Active; 'I' for Inactive)
REMARK    1  A    between atoms: C3_3  and  C8_8 
REMARK    2  A    between atoms: C7_7  and  C8_8 
ROOT
HETATM    1  C1  UNL     1     -33.089  15.886  -3.410  1.00 20.00     0.018 A 
HETATM    2  C2  UNL     1     -33.652  14.803  -4.144  1.00 20.00     0.032 A 
HETATM    3  C3  UNL     1     -34.023  16.517  -2.618  1.00 20.00    -0.001 A 
HETATM    4  C4  UNL     1     -34.996  14.648  -3.887  1.00 20.00     0.075 A 
HETATM    5  S9  UNL     1     -35.573  15.804  -2.763  1.00 20.00    -0.081 SA
HETATM    6 CL10 UNL     1     -36.063  13.480  -4.546  1.00 20.00    -0.076 Cl
ENDROOT
BRANCH   3   7
HETATM    7  C8  UNL     1     -33.832  17.700  -1.695  1.00 20.00     0.102 C 
HETATM    8 BR11 UNL     1     -35.024  17.512  -0.152  1.00 20.00    -0.085 Br
BRANCH   7   9
HETATM    9  C7  UNL     1     -32.425  17.876  -1.238  1.00 20.00     0.005 A 
HETATM   10  C5  UNL     1     -31.851  19.255  -1.065  1.00 20.00     0.006 A 
HETATM   11  C6  UNL     1     -32.138  18.402   0.141  1.00 20.00     0.006 A 
ENDBRANCH   7   9
ENDBRANCH   3   7
TORSDOF 2
ENDMDL
MODEL 3
REMARK VINA RESULT:      -4.1      4.314      4.956
REMARK  2 active torsions:
REMARK  status: ('A' for Active; 'I' for Inactive)
REMARK    1  A    between atoms: C3_3  and  C8_8 
REMARK    2  A    between atoms: C7_7  and  C8_8 
ROOT
HETATM    1  C1  UNL     1     -26.988  19.114   7.404  1.00 20.00     0.018 A 
HETATM    2  C2  UNL     1     -27.266  19.118   6.008  1.00 20.00     0.032 A 
HETATM    3  C3  UNL     1     -25.637  19.189   7.664  1.00 20.00    -0.001 A 
HETATM    4  C4  UNL     1     -26.117  19.194   5.252  1.00 20.00     0.075 A 
HETATM    5  S9  UNL     1     -24.710  19.263   6.226  1.00 20.00    -0.081 SA
HETATM    6 CL10 UNL     1     -25.984  19.226   3.544  1.00 20.00    -0.076 Cl
ENDROOT
BRANCH   3   7
HETATM    7  C8  UNL     1     -24.935  19.210   9.003  1.00 20.00     0.102 C 
HETATM    8 BR11 UNL     1     -26.274  19.263  10.433  1.00 20.00    -0.085 Br
BRANCH   7   9
HETATM    9  C7  UNL     1     -24.010  18.060   9.209  1.00 20.00     0.005 A 
HETATM   10  C5  UNL     1     -22.978  18.102  10.301  1.00 20.00     0.006 A 
HETATM   11  C6  UNL     1     -24.158  17.177  10.416  1.00 20.00     0.006 A 
ENDBRANCH   7   9
ENDBRANCH   3   7
TORSDOF 2
ENDMDL
MODEL 4
REMARK VINA RESULT:      -4.1     13.815     14.543
REMARK  2 active torsions:
REMARK  status: ('A' for Active; 'I' for Inactive)
REMARK    1  A    between atoms: C3_3  and  C8_8 
REMARK    2  A    between atoms: C7_7  and  C8_8 
ROOT
HETATM    1  C1  UNL     1     -31.170  18.235  -0.452  1.00 20.00     0.018 A 
HETATM    2  C2  UNL     1     -30.770  18.411   0.903  1.00 20.00     0.032 A 
HETATM    3  C3  UNL     1     -32.540  18.238  -0.593  1.00 20.00    -0.001 A 
HETATM    4  C4  UNL     1     -31.850  18.541   1.748  1.00 20.00     0.075 A 
HETATM    5  S9  UNL     1     -33.339  18.453   0.906  1.00 20.00    -0.081 SA
HETATM    6 CL10 UNL     1     -31.833  18.770   3.446  1.00 20.00    -0.076 Cl
ENDROOT
BRANCH   3   7
HETATM    7  C8  UNL     1     -33.358  18.081  -1.856  1.00 20.00     0.102 C 
HETATM    8 BR11 UNL     1     -32.636  19.262  -3.242  1.00 20.00    -0.085 Br
BRANCH   7   9
HETATM    9  C7  UNL     1     -33.417  16.679  -2.356  1.00 20.00     0.005 A 
HETATM   10  C5  UNL     1     -34.721  15.933  -2.369  1.00 20.00     0.006 A 
HETATM   11  C6  UNL     1     -34.091  16.370  -3.663  1.00 20.00     0.006 A 
ENDBRANCH   7   9
ENDBRANCH   3   7
TORSDOF 2
ENDMDL
MODEL 5
REMARK VINA RESULT:      -4.0     17.296     17.953
REMARK  2 active torsions:
REMARK  status: ('A' for Active; 'I' for Inactive)
REMARK    1  A    between atoms: C3_3  and  C8_8 
REMARK    2  A    between atoms: C7_7  and  C8_8 
ROOT
HETATM    1  C1  UNL     1     -35.314  15.821  -2.340  1.00 20.00     0.018 A 
HETATM    2  C2  UNL     1     -34.882  16.817  -1.417  1.00 20.00     0.032 A 
HETATM    3  C3  UNL     1     -34.374  15.576  -3.316  1.00 20.00    -0.001 A 
HETATM    4  C4  UNL     1     -33.628  17.296  -1.724  1.00 20.00     0.075 A 
HETATM    5  S9  UNL     1     -32.975  16.545  -3.118  1.00 20.00    -0.081 SA
HETATM    6 CL10 UNL     1     -32.727  18.491  -0.889  1.00 20.00    -0.076 Cl
ENDROOT
BRANCH   3   7
HETATM    7  C8  UNL     1     -34.446  14.602  -4.471  1.00 20.00     0.102 C 
HETATM    8 BR11 UNL     1     -36.247  13.835  -4.555  1.00 20.00    -0.085 Br
BRANCH   7   9
HETATM    9  C7  UNL     1     -34.084  15.208  -5.783  1.00 20.00     0.005 A 
HETATM   10  C5  UNL     1     -34.974  15.013  -6.979  1.00 20.00     0.006 A 
HETATM   11  C6  UNL     1     -34.876  16.364  -6.326  1.00 20.00     0.006 A 
ENDBRANCH   7   9
ENDBRANCH   3   7
TORSDOF 2
ENDMDL
MODEL 6
REMARK VINA RESULT:      -4.0     17.348     18.086
REMARK  2 active torsions:
REMARK  status: ('A' for Active; 'I' for Inactive)
REMARK    1  A    between atoms: C3_3  and  C8_8 
REMARK    2  A    between atoms: C7_7  and  C8_8 
ROOT
HETATM    1  C1  UNL     1     -32.927  16.266  -3.383  1.00 20.00     0.018 A 
HETATM    2  C2  UNL     1     -33.025  17.124  -2.250  1.00 20.00     0.032 A 
HETATM    3  C3  UNL     1     -34.088  15.556  -3.598  1.00 20.00    -0.001 A 
HETATM    4  C4  UNL     1     -34.257  17.035  -1.640  1.00 20.00     0.075 A 
HETATM    5  S9  UNL     1     -35.289  15.923  -2.434  1.00 20.00    -0.081 SA
HETATM    6 CL10 UNL     1     -34.806  17.883  -0.256  1.00 20.00    -0.076 Cl
ENDROOT
BRANCH   3   7
HETATM    7  C8  UNL     1     -34.389  14.549  -4.685  1.00 20.00     0.102 C 
HETATM    8 BR11 UNL     1     -36.235  13.923  -4.490  1.00 20.00    -0.085 Br
BRANCH   7   9
HETATM    9  C7  UNL     1     -34.168  15.075  -6.061  1.00 20.00     0.005 A 
HETATM   10  C5  UNL     1     -35.271  15.020  -7.080  1.00 20.00     0.006 A 
HETATM   11  C6  UNL     1     -34.844  16.342  -6.504  1.00 20.00     0.006 A 
ENDBRANCH   7   9
ENDBRANCH   3   7
TORSDOF 2
ENDMDL
MODEL 7
REMARK VINA RESULT:      -4.0     16.614     17.251
REMARK  2 active torsions:
REMARK  status: ('A' for Active; 'I' for Inactive)
REMARK    1  A    between atoms: C3_3  and  C8_8 
REMARK    2  A    between atoms: C7_7  and  C8_8 
ROOT
HETATM    1  C1  UNL     1     -35.190  16.650  -1.486  1.00 20.00     0.018 A 
HETATM    2  C2  UNL     1     -34.537  17.517  -0.563  1.00 20.00     0.032 A 
HETATM    3  C3  UNL     1     -34.446  16.454  -2.629  1.00 20.00    -0.001 A 
HETATM    4  C4  UNL     1     -33.319  17.953  -1.036  1.00 20.00     0.075 A 
HETATM    5  S9  UNL     1     -32.966  17.315  -2.586  1.00 20.00    -0.081 SA
HETATM    6 CL10 UNL     1     -32.205  19.000  -0.262  1.00 20.00    -0.076 Cl
ENDROOT
BRANCH   3   7
HETATM    7  C8  UNL     1     -34.782  15.612  -3.839  1.00 20.00     0.102 C 
HETATM    8 BR11 UNL     1     -33.180  14.643  -4.414  1.00 20.00    -0.085 Br
BRANCH   7   9
HETATM    9  C7  UNL     1     -35.903  14.658  -3.607  1.00 20.00     0.005 A 
HETATM   10  C5  UNL     1     -37.163  14.756  -4.422  1.00 20.00     0.006 A 
HETATM   11  C6  UNL     1     -36.221  13.602  -4.628  1.00 20.00     0.006 A 
ENDBRANCH   7   9
ENDBRANCH   3   7
TORSDOF 2
ENDMDL
MODEL 8
REMARK VINA RESULT:      -3.9     16.441     17.126
REMARK  2 active torsions:
REMARK  status: ('A' for Active; 'I' for Inactive)
REMARK    1  A    between atoms: C3_3  and  C8_8 
REMARK    2  A    between atoms: C7_7  and  C8_8 
ROOT
HETATM    1  C1  UNL     1     -33.208  16.781  -2.678  1.00 20.00     0.018 A 
HETATM    2  C2  UNL     1     -32.516  17.694  -1.833  1.00 20.00     0.032 A 
HETATM    3  C3  UNL     1     -34.491  16.538  -2.240  1.00 20.00    -0.001 A 
HETATM    4  C4  UNL     1     -33.296  18.116  -0.778  1.00 20.00     0.075 A 
HETATM    5  S9  UNL     1     -34.857  17.411  -0.812  1.00 20.00    -0.081 SA
HETATM    6 CL10 UNL     1     -32.871  19.206   0.473  1.00 20.00    -0.076 Cl
ENDROOT
BRANCH   3   7
HETATM    7  C8  UNL     1     -35.541  15.638  -2.850  1.00 20.00     0.102 C 
HETATM    8 BR11 UNL     1     -36.829  16.731  -3.843  1.00 20.00    -0.085 Br
BRANCH   7   9
HETATM    9  C7  UNL     1     -34.977  14.580  -3.734  1.00 20.00     0.005 A 
HETATM   10  C5  UNL     1     -35.890  13.640  -4.470  1.00 20.00     0.006 A 
HETATM   11  C6  UNL     1     -35.119  14.686  -5.227  1.00 20.00     0.006 A 
ENDBRANCH   7   9
ENDBRANCH   3   7
TORSDOF 2
ENDMDL
MODEL 9
REMARK VINA RESULT:      -3.7     15.242     15.864
REMARK  2 active torsions:
REMARK  status: ('A' for Active; 'I' for Inactive)
REMARK    1  A    between atoms: C3_3  and  C8_8 
REMARK    2  A    between atoms: C7_7  and  C8_8 
ROOT
HETATM    1  C1  UNL     1     -33.418  18.039  -0.936  1.00 20.00     0.018 A 
HETATM    2  C2  UNL     1     -33.154  18.489   0.389  1.00 20.00     0.032 A 
HETATM    3  C3  UNL     1     -34.632  17.396  -1.033  1.00 20.00    -0.001 A 
HETATM    4  C4  UNL     1     -34.176  18.173   1.256  1.00 20.00     0.075 A 
HETATM    5  S9  UNL     1     -35.449  17.337   0.472  1.00 20.00    -0.081 SA
HETATM    6 CL10 UNL     1     -34.278  18.520   2.931  1.00 20.00    -0.076 Cl
ENDROOT
BRANCH   3   7
HETATM    7  C8  UNL     1     -35.276  16.776  -2.253  1.00 20.00     0.102 C 
HETATM    8 BR11 UNL     1     -35.237  18.066  -3.727  1.00 20.00    -0.085 Br
BRANCH   7   9
HETATM    9  C7  UNL     1     -34.642  15.496  -2.674  1.00 20.00     0.005 A 
HETATM   10  C5  UNL     1     -34.854  14.966  -4.065  1.00 20.00     0.006 A 
HETATM   11  C6  UNL     1     -33.508  15.502  -3.662  1.00 20.00     0.006 A 
ENDBRANCH   7   9
ENDBRANCH   3   7
TORSDOF 2
ENDMDL
