MODEL 1
REMARK VINA RESULT:      -4.6      0.000      0.000
REMARK  2 active torsions:
REMARK  status: ('A' for Active; 'I' for Inactive)
REMARK    1  A    between atoms: C4_4  and  C10_10 
REMARK    2  A    between atoms: C7_7  and  C10_10 
ROOT
HETATM    1  C1  UNL     1     -33.740  14.720  -4.218  1.00 20.00     0.015 A 
HETATM    2  C2  UNL     1     -33.145  15.771  -3.461  1.00 20.00     0.017 A 
HETATM    3  C3  UNL     1     -35.092  14.609  -3.976  1.00 20.00    -0.021 A 
HETATM    4  C4  UNL     1     -34.065  16.423  -2.669  1.00 20.00     0.002 A 
HETATM    5  C8  UNL     1     -36.056  13.652  -4.560  1.00 20.00     0.056 C 
HETATM    6  S11 UNL     1     -35.638  15.769  -2.841  1.00 20.00    -0.098 SA
ENDROOT
BRANCH   4   7
HETATM    7  C10 UNL     1     -33.839  17.594  -1.717  1.00 20.00     0.126 C 
HETATM    8 CL12 UNL     1     -34.814  17.310  -0.230  1.00 20.00    -0.119 Cl
BRANCH   7   9
HETATM    9  C7  UNL     1     -32.414  17.862  -1.377  1.00 20.00     0.013 A 
HETATM   10  C5  UNL     1     -31.856  19.256  -1.497  1.00 20.00     0.011 A 
HETATM   11  C6  UNL     1     -32.067  18.645  -0.137  1.00 20.00    -0.012 A 
HETATM   12  C9  UNL     1     -30.897  18.247   0.695  1.00 20.00     0.010 C 
ENDBRANCH   7   9
ENDBRANCH   4   7
TORSDOF 2
ENDMDL
MODEL 2
REMARK VINA RESULT:      -4.6      2.231      5.592
REMARK  2 active torsions:
REMARK  status: ('A' for Active; 'I' for Inactive)
REMARK    1  A    between atoms: C4_4  and  C10_10 
REMARK    2  A    between atoms: C7_7  and  C10_10 
ROOT
HETATM    1  C1  UNL     1     -30.771  18.493   0.894  1.00 20.00     0.015 A 
HETATM    2  C2  UNL     1     -31.113  18.274  -0.472  1.00 20.00     0.017 A 
HETATM    3  C3  UNL     1     -31.885  18.627   1.692  1.00 20.00    -0.021 A 
HETATM    4  C4  UNL     1     -32.476  18.250  -0.666  1.00 20.00     0.002 A 
HETATM    5  C8  UNL     1     -31.951  18.861   3.150  1.00 20.00     0.056 C 
HETATM    6  S11 UNL     1     -33.338  18.489   0.794  1.00 20.00    -0.098 SA
ENDROOT
BRANCH   4   7
HETATM    7  C10 UNL     1     -33.247  18.043  -1.967  1.00 20.00     0.126 C 
HETATM    8 CL12 UNL     1     -32.425  18.983  -3.266  1.00 20.00    -0.119 Cl
BRANCH   7   9
HETATM    9  C7  UNL     1     -33.429  16.621  -2.371  1.00 20.00     0.013 A 
HETATM   10  C5  UNL     1     -34.772  15.957  -2.217  1.00 20.00     0.011 A 
HETATM   11  C6  UNL     1     -34.247  16.281  -3.591  1.00 20.00    -0.012 A 
HETATM   12  C9  UNL     1     -33.809  15.188  -4.503  1.00 20.00     0.010 C 
ENDBRANCH   7   9
ENDBRANCH   4   7
TORSDOF 2
ENDMDL
MODEL 3
REMARK VINA RESULT:      -4.6     15.330     16.047
REMARK  2 active torsions:
REMARK  status: ('A' for Active; 'I' for Inactive)
REMARK    1  A    between atoms: C4_4  and  C10_10 
REMARK    2  A    between atoms: C7_7  and  C10_10 
ROOT
HETATM    1  C1  UNL     1     -27.521  17.343  12.332  1.00 20.00     0.015 A 
HETATM    2  C2  UNL     1     -26.143  17.000  12.220  1.00 20.00     0.017 A 
HETATM    3  C3  UNL     1     -27.815  18.525  11.690  1.00 20.00    -0.021 A 
HETATM    4  C4  UNL     1     -25.435  17.934  11.497  1.00 20.00     0.002 A 
HETATM    5  C8  UNL     1     -29.119  19.213  11.576  1.00 20.00     0.056 C 
HETATM    6  S11 UNL     1     -26.431  19.217  10.955  1.00 20.00    -0.098 SA
ENDROOT
BRANCH   4   7
HETATM    7  C10 UNL     1     -23.948  17.940  11.150  1.00 20.00     0.126 C 
HETATM    8 CL12 UNL     1     -23.169  16.546  11.985  1.00 20.00    -0.119 Cl
BRANCH   7   9
HETATM    9  C7  UNL     1     -23.642  17.928   9.693  1.00 20.00     0.013 A 
HETATM   10  C5  UNL     1     -23.250  19.202   8.991  1.00 20.00     0.011 A 
HETATM   11  C6  UNL     1     -22.225  18.122   9.217  1.00 20.00    -0.012 A 
HETATM   12  C9  UNL     1     -21.708  17.328   8.067  1.00 20.00     0.010 C 
ENDBRANCH   7   9
ENDBRANCH   4   7
TORSDOF 2
ENDMDL
MODEL 4
REMARK VINA RESULT:      -4.5      2.720      5.430
REMARK  2 active torsions:
REMARK  status: ('A' for Active; 'I' for Inactive)
REMARK    1  A    between atoms: C4_4  and  C10_10 
REMARK    2  A    between atoms: C7_7  and  C10_10 
ROOT
HETATM    1  C1  UNL     1     -35.720  17.747   1.506  1.00 20.00     0.015 A 
HETATM    2  C2  UNL     1     -35.638  17.362   0.137  1.00 20.00     0.017 A 
HETATM    3  C3  UNL     1     -34.598  18.431   1.920  1.00 20.00    -0.021 A 
HETATM    4  C4  UNL     1     -34.456  17.765  -0.444  1.00 20.00     0.002 A 
HETATM    5  C8  UNL     1     -34.302  18.994   3.255  1.00 20.00     0.056 C 
HETATM    6  S11 UNL     1     -33.452  18.606   0.659  1.00 20.00    -0.098 SA
ENDROOT
BRANCH   4   7
HETATM    7  C10 UNL     1     -33.982  17.553  -1.879  1.00 20.00     0.126 C 
HETATM    8 CL12 UNL     1     -32.347  18.291  -2.048  1.00 20.00    -0.119 Cl
BRANCH   7   9
HETATM    9  C7  UNL     1     -33.978  16.137  -2.338  1.00 20.00     0.013 A 
HETATM   10  C5  UNL     1     -35.203  15.548  -2.987  1.00 20.00     0.011 A 
HETATM   11  C6  UNL     1     -33.972  15.819  -3.811  1.00 20.00    -0.012 A 
HETATM   12  C9  UNL     1     -33.152  14.688  -4.328  1.00 20.00     0.010 C 
ENDBRANCH   7   9
ENDBRANCH   4   7
TORSDOF 2
ENDMDL
MODEL 5
REMARK VINA RESULT:      -4.4      2.704      4.913
REMARK  2 active torsions:
REMARK  status: ('A' for Active; 'I' for Inactive)
REMARK    1  A    between atoms: C4_4  and  C10_10 
REMARK    2  A    between atoms: C7_7  and  C10_10 
ROOT
HETATM    1  C1  UNL     1     -36.374  17.731   1.038  1.00 20.00     0.015 A 
HETATM    2  C2  UNL     1     -35.170  17.407   0.349  1.00 20.00     0.017 A 
HETATM    3  C3  UNL     1     -37.371  18.134   0.177  1.00 20.00    -0.021 A 
HETATM    4  C4  UNL     1     -35.293  17.574  -1.013  1.00 20.00     0.002 A 
HETATM    5  C8  UNL     1     -38.753  18.550   0.499  1.00 20.00     0.056 C 
HETATM    6  S11 UNL     1     -36.854  18.120  -1.456  1.00 20.00    -0.098 SA
ENDROOT
BRANCH   4   7
HETATM    7  C10 UNL     1     -34.246  17.336  -2.098  1.00 20.00     0.126 C 
HETATM    8 CL12 UNL     1     -32.678  18.016  -1.528  1.00 20.00    -0.119 Cl
BRANCH   7   9
HETATM    9  C7  UNL     1     -34.089  15.917  -2.521  1.00 20.00     0.013 A 
HETATM   10  C5  UNL     1     -35.223  15.202  -3.209  1.00 20.00     0.011 A 
HETATM   11  C6  UNL     1     -33.985  15.571  -3.985  1.00 20.00    -0.012 A 
HETATM   12  C9  UNL     1     -33.041  14.511  -4.436  1.00 20.00     0.010 C 
ENDBRANCH   7   9
ENDBRANCH   4   7
TORSDOF 2
ENDMDL
MODEL 6
REMARK VINA RESULT:      -4.3      1.789      2.277
REMARK  2 active torsions:
REMARK  status: ('A' for Active; 'I' for Inactive)
REMARK    1  A    between atoms: C4_4  and  C10_10 
REMARK    2  A    between atoms: C7_7  and  C10_10 
ROOT
HETATM    1  C1  UNL     1     -33.008  16.292  -3.170  1.00 20.00     0.015 A 
HETATM    2  C2  UNL     1     -32.882  17.375  -2.253  1.00 20.00     0.017 A 
HETATM    3  C3  UNL     1     -34.208  15.630  -3.026  1.00 20.00    -0.021 A 
HETATM    4  C4  UNL     1     -33.989  17.500  -1.443  1.00 20.00     0.002 A 
HETATM    5  C8  UNL     1     -34.713  14.464  -3.784  1.00 20.00     0.056 C 
HETATM    6  S11 UNL     1     -35.175  16.314  -1.790  1.00 20.00    -0.098 SA
ENDROOT
BRANCH   4   7
HETATM    7  C10 UNL     1     -34.250  18.522  -0.340  1.00 20.00     0.126 C 
HETATM    8 CL12 UNL     1     -36.027  18.792  -0.228  1.00 20.00    -0.119 Cl
BRANCH   7   9
HETATM    9  C7  UNL     1     -33.679  18.171   0.991  1.00 20.00     0.013 A 
HETATM   10  C5  UNL     1     -32.226  18.437   1.285  1.00 20.00     0.011 A 
HETATM   11  C6  UNL     1     -33.293  19.260   1.959  1.00 20.00    -0.012 A 
HETATM   12  C9  UNL     1     -33.559  19.094   3.414  1.00 20.00     0.010 C 
ENDBRANCH   7   9
ENDBRANCH   4   7
TORSDOF 2
ENDMDL
MODEL 7
REMARK VINA RESULT:      -4.3      2.532      5.595
REMARK  2 active torsions:
REMARK  status: ('A' for Active; 'I' for Inactive)
REMARK    1  A    between atoms: C4_4  and  C10_10 
REMARK    2  A    between atoms: C7_7  and  C10_10 
ROOT
HETATM    1  C1  UNL     1     -34.862  17.010  -1.041  1.00 20.00     0.015 A 
HETATM    2  C2  UNL     1     -35.211  16.071  -2.054  1.00 20.00     0.017 A 
HETATM    3  C3  UNL     1     -33.668  17.643  -1.310  1.00 20.00    -0.021 A 
HETATM    4  C4  UNL     1     -34.271  16.023  -3.060  1.00 20.00     0.002 A 
HETATM    5  C8  UNL     1     -32.972  18.674  -0.511  1.00 20.00     0.056 C 
HETATM    6  S11 UNL     1     -32.975  17.107  -2.781  1.00 20.00    -0.098 SA
ENDROOT
BRANCH   4   7
HETATM    7  C10 UNL     1     -34.269  15.158  -4.318  1.00 20.00     0.126 C 
HETATM    8 CL12 UNL     1     -34.823  13.505  -3.867  1.00 20.00    -0.119 Cl
BRANCH   7   9
HETATM    9  C7  UNL     1     -35.068  15.697  -5.453  1.00 20.00     0.013 A 
HETATM   10  C5  UNL     1     -34.521  16.817  -6.300  1.00 20.00     0.011 A 
HETATM   11  C6  UNL     1     -34.641  15.429  -6.874  1.00 20.00    -0.012 A 
HETATM   12  C9  UNL     1     -35.661  15.135  -7.918  1.00 20.00     0.010 C 
ENDBRANCH   7   9
ENDBRANCH   4   7
TORSDOF 2
ENDMDL
MODEL 8
REMARK VINA RESULT:      -4.3      1.685      5.353
REMARK  2 active torsions:
REMARK  status: ('A' for Active; 'I' for Inactive)
REMARK    1  A    between atoms: C4_4  and  C10_10 
REMARK    2  A    between atoms: C7_7  and  C10_10 
ROOT
HETATM    1  C1  UNL     1     -32.156  18.131  -1.324  1.00 20.00     0.015 A 
HETATM    2  C2  UNL     1     -32.918  17.329  -2.223  1.00 20.00     0.017 A 
HETATM    3  C3  UNL     1     -32.867  18.455  -0.190  1.00 20.00    -0.021 A 
HETATM    4  C4  UNL     1     -34.182  17.071  -1.741  1.00 20.00     0.002 A 
HETATM    5  C8  UNL     1     -32.433  19.263   0.970  1.00 20.00     0.056 C 
HETATM    6  S11 UNL     1     -34.447  17.793  -0.211  1.00 20.00    -0.098 SA
ENDROOT
BRANCH   4   7
HETATM    7  C10 UNL     1     -35.299  16.258  -2.391  1.00 20.00     0.126 C 
HETATM    8 CL12 UNL     1     -36.751  17.313  -2.542  1.00 20.00    -0.119 Cl
BRANCH   7   9
HETATM    9  C7  UNL     1     -34.948  15.642  -3.701  1.00 20.00     0.013 A 
HETATM   10  C5  UNL     1     -34.216  14.326  -3.747  1.00 20.00     0.011 A 
HETATM   11  C6  UNL     1     -35.661  14.398  -4.166  1.00 20.00    -0.012 A 
HETATM   12  C9  UNL     1     -36.033  14.243  -5.600  1.00 20.00     0.010 C 
ENDBRANCH   7   9
ENDBRANCH   4   7
TORSDOF 2
ENDMDL
MODEL 9
REMARK VINA RESULT:      -4.2      1.776      1.985
REMARK  2 active torsions:
REMARK  status: ('A' for Active; 'I' for Inactive)
REMARK    1  A    between atoms: C4_4  and  C10_10 
REMARK    2  A    between atoms: C7_7  and  C10_10 
ROOT
HETATM    1  C1  UNL     1     -34.150  14.293  -4.076  1.00 20.00     0.015 A 
HETATM    2  C2  UNL     1     -33.186  15.322  -3.870  1.00 20.00     0.017 A 
HETATM    3  C3  UNL     1     -35.424  14.798  -4.216  1.00 20.00    -0.021 A 
HETATM    4  C4  UNL     1     -33.761  16.574  -3.860  1.00 20.00     0.002 A 
HETATM    5  C8  UNL     1     -36.687  14.062  -4.443  1.00 20.00     0.056 C 
HETATM    6  S11 UNL     1     -35.455  16.506  -4.100  1.00 20.00    -0.098 SA
ENDROOT
BRANCH   4   7
HETATM    7  C10 UNL     1     -33.083  17.928  -3.672  1.00 20.00     0.126 C 
HETATM    8 CL12 UNL     1     -33.751  19.069  -4.895  1.00 20.00    -0.119 Cl
BRANCH   7   9
HETATM    9  C7  UNL     1     -33.185  18.498  -2.299  1.00 20.00     0.013 A 
HETATM   10  C5  UNL     1     -33.518  17.605  -1.132  1.00 20.00     0.011 A 
HETATM   11  C6  UNL     1     -32.132  18.180  -1.268  1.00 20.00    -0.012 A 
HETATM   12  C9  UNL     1     -31.664  19.236  -0.329  1.00 20.00     0.010 C 
ENDBRANCH   7   9
ENDBRANCH   4   7
TORSDOF 2
ENDMDL
