MODEL 1
REMARK VINA RESULT:      -4.2      0.000      0.000
REMARK  2 active torsions:
REMARK  status: ('A' for Active; 'I' for Inactive)
REMARK    1  A    between atoms: C4_4  and  C9_9 
REMARK    2  A    between atoms: C7_7  and  C9_9 
ROOT
HETATM    1  C1  UNL     1     -33.676  14.760  -4.170  1.00 20.00     0.015 A 
HETATM    2  C2  UNL     1     -33.113  15.840  -3.430  1.00 20.00     0.017 A 
HETATM    3  C3  UNL     1     -35.028  14.630  -3.948  1.00 20.00    -0.021 A 
HETATM    4  C4  UNL     1     -34.058  16.494  -2.670  1.00 20.00    -0.002 A 
HETATM    5  C8  UNL     1     -35.966  13.641  -4.525  1.00 20.00     0.056 C 
HETATM    6  S10 UNL     1     -35.616  15.807  -2.851  1.00 20.00    -0.099 SA
ENDROOT
BRANCH   4   7
HETATM    7  C9  UNL     1     -33.870  17.681  -1.753  1.00 20.00     0.102 C 
HETATM    8 BR11 UNL     1     -35.046  17.485  -0.198  1.00 20.00    -0.085 Br
BRANCH   7   9
HETATM    9  C7  UNL     1     -32.461  17.875  -1.309  1.00 20.00     0.005 A 
HETATM   10  C5  UNL     1     -31.881  19.260  -1.213  1.00 20.00     0.006 A 
HETATM   11  C6  UNL     1     -32.167  18.475   0.038  1.00 20.00     0.006 A 
ENDBRANCH   7   9
ENDBRANCH   4   7
TORSDOF 2
ENDMDL
MODEL 2
REMARK VINA RESULT:      -4.0      2.121      5.275
REMARK  2 active torsions:
REMARK  status: ('A' for Active; 'I' for Inactive)
REMARK    1  A    between atoms: C4_4  and  C9_9 
REMARK    2  A    between atoms: C7_7  and  C9_9 
ROOT
HETATM    1  C1  UNL     1     -34.485  17.525  -0.566  1.00 20.00     0.015 A 
HETATM    2  C2  UNL     1     -35.165  16.676  -1.486  1.00 20.00     0.017 A 
HETATM    3  C3  UNL     1     -33.264  17.939  -1.049  1.00 20.00    -0.021 A 
HETATM    4  C4  UNL     1     -34.437  16.473  -2.638  1.00 20.00    -0.002 A 
HETATM    5  C8  UNL     1     -32.267  18.819  -0.401  1.00 20.00     0.056 C 
HETATM    6  S10 UNL     1     -32.940  17.304  -2.607  1.00 20.00    -0.099 SA
ENDROOT
BRANCH   4   7
HETATM    7  C9  UNL     1     -34.804  15.645  -3.849  1.00 20.00     0.102 C 
HETATM    8 BR11 UNL     1     -33.242  14.604  -4.413  1.00 20.00    -0.085 Br
BRANCH   7   9
HETATM    9  C7  UNL     1     -35.968  14.742  -3.624  1.00 20.00     0.005 A 
HETATM   10  C5  UNL     1     -37.172  14.823  -4.521  1.00 20.00     0.006 A 
HETATM   11  C6  UNL     1     -36.261  13.629  -4.592  1.00 20.00     0.006 A 
ENDBRANCH   7   9
ENDBRANCH   4   7
TORSDOF 2
ENDMDL
MODEL 3
REMARK VINA RESULT:      -4.0      2.548      5.209
REMARK  2 active torsions:
REMARK  status: ('A' for Active; 'I' for Inactive)
REMARK    1  A    between atoms: C4_4  and  C9_9 
REMARK    2  A    between atoms: C7_7  and  C9_9 
ROOT
HETATM    1  C1  UNL     1     -34.650  16.781  -1.447  1.00 20.00     0.015 A 
HETATM    2  C2  UNL     1     -35.205  15.873  -2.395  1.00 20.00     0.017 A 
HETATM    3  C3  UNL     1     -33.451  17.306  -1.873  1.00 20.00    -0.021 A 
HETATM    4  C4  UNL     1     -34.407  15.738  -3.510  1.00 20.00    -0.002 A 
HETATM    5  C8  UNL     1     -32.571  18.274  -1.182  1.00 20.00     0.056 C 
HETATM    6  S10 UNL     1     -32.997  16.704  -3.411  1.00 20.00    -0.099 SA
ENDROOT
BRANCH   4   7
HETATM    7  C9  UNL     1     -34.638  14.881  -4.733  1.00 20.00     0.102 C 
HETATM    8 BR11 UNL     1     -36.331  13.914  -4.531  1.00 20.00    -0.085 Br
BRANCH   7   9
HETATM    9  C7  UNL     1     -34.637  15.649  -6.010  1.00 20.00     0.005 A 
HETATM   10  C5  UNL     1     -33.869  15.140  -7.199  1.00 20.00     0.006 A 
HETATM   11  C6  UNL     1     -35.373  15.124  -7.211  1.00 20.00     0.006 A 
ENDBRANCH   7   9
ENDBRANCH   4   7
TORSDOF 2
ENDMDL
MODEL 4
REMARK VINA RESULT:      -3.8      2.056      5.184
REMARK  2 active torsions:
REMARK  status: ('A' for Active; 'I' for Inactive)
REMARK    1  A    between atoms: C4_4  and  C9_9 
REMARK    2  A    between atoms: C7_7  and  C9_9 
ROOT
HETATM    1  C1  UNL     1     -31.502  18.715  -0.029  1.00 20.00     0.015 A 
HETATM    2  C2  UNL     1     -31.940  18.229  -1.295  1.00 20.00     0.017 A 
HETATM    3  C3  UNL     1     -32.530  18.775   0.886  1.00 20.00    -0.021 A 
HETATM    4  C4  UNL     1     -33.287  17.937  -1.299  1.00 20.00    -0.002 A 
HETATM    5  C8  UNL     1     -32.483  19.221   2.296  1.00 20.00     0.056 C 
HETATM    6  S10 UNL     1     -34.017  18.248   0.218  1.00 20.00    -0.099 SA
ENDROOT
BRANCH   4   7
HETATM    7  C9  UNL     1     -34.130  17.403  -2.435  1.00 20.00     0.102 C 
HETATM    8 BR11 UNL     1     -33.555  18.238  -4.111  1.00 20.00    -0.085 Br
BRANCH   7   9
HETATM    9  C7  UNL     1     -34.088  15.918  -2.562  1.00 20.00     0.005 A 
HETATM   10  C5  UNL     1     -35.229  15.181  -3.209  1.00 20.00     0.006 A 
HETATM   11  C6  UNL     1     -33.902  15.279  -3.910  1.00 20.00     0.006 A 
ENDBRANCH   7   9
ENDBRANCH   4   7
TORSDOF 2
ENDMDL
MODEL 5
REMARK VINA RESULT:      -3.7      3.031      5.320
REMARK  2 active torsions:
REMARK  status: ('A' for Active; 'I' for Inactive)
REMARK    1  A    between atoms: C4_4  and  C9_9 
REMARK    2  A    between atoms: C7_7  and  C9_9 
ROOT
HETATM    1  C1  UNL     1     -34.549  18.383   2.248  1.00 20.00     0.015 A 
HETATM    2  C2  UNL     1     -33.902  18.160   0.999  1.00 20.00     0.017 A 
HETATM    3  C3  UNL     1     -35.916  18.241   2.156  1.00 20.00    -0.021 A 
HETATM    4  C4  UNL     1     -34.800  17.857  -0.002  1.00 20.00    -0.002 A 
HETATM    5  C8  UNL     1     -36.932  18.389   3.222  1.00 20.00     0.056 C 
HETATM    6  S10 UNL     1     -36.415  17.840   0.567  1.00 20.00    -0.099 SA
ENDROOT
BRANCH   4   7
HETATM    7  C9  UNL     1     -34.520  17.554  -1.456  1.00 20.00     0.102 C 
HETATM    8 BR11 UNL     1     -32.622  17.871  -1.826  1.00 20.00    -0.085 Br
BRANCH   7   9
HETATM    9  C7  UNL     1     -34.897  16.170  -1.861  1.00 20.00     0.005 A 
HETATM   10  C5  UNL     1     -35.682  15.937  -3.122  1.00 20.00     0.006 A 
HETATM   11  C6  UNL     1     -34.238  15.522  -3.048  1.00 20.00     0.006 A 
ENDBRANCH   7   9
ENDBRANCH   4   7
TORSDOF 2
ENDMDL
MODEL 6
REMARK VINA RESULT:      -3.7      1.777      2.262
REMARK  2 active torsions:
REMARK  status: ('A' for Active; 'I' for Inactive)
REMARK    1  A    between atoms: C4_4  and  C9_9 
REMARK    2  A    between atoms: C7_7  and  C9_9 
ROOT
HETATM    1  C1  UNL     1     -33.038  16.224  -3.231  1.00 20.00     0.015 A 
HETATM    2  C2  UNL     1     -32.935  17.293  -2.295  1.00 20.00     0.017 A 
HETATM    3  C3  UNL     1     -34.238  15.557  -3.125  1.00 20.00    -0.021 A 
HETATM    4  C4  UNL     1     -34.060  17.401  -1.508  1.00 20.00    -0.002 A 
HETATM    5  C8  UNL     1     -34.723  14.401  -3.911  1.00 20.00     0.056 C 
HETATM    6  S10 UNL     1     -35.235  16.219  -1.899  1.00 20.00    -0.099 SA
ENDROOT
BRANCH   4   7
HETATM    7  C9  UNL     1     -34.345  18.397  -0.406  1.00 20.00     0.102 C 
HETATM    8 BR11 UNL     1     -36.069  19.262  -0.750  1.00 20.00    -0.085 Br
BRANCH   7   9
HETATM    9  C7  UNL     1     -34.336  17.796   0.958  1.00 20.00     0.005 A 
HETATM   10  C5  UNL     1     -33.434  18.352   2.025  1.00 20.00     0.006 A 
HETATM   11  C6  UNL     1     -34.922  18.548   2.121  1.00 20.00     0.006 A 
ENDBRANCH   7   9
ENDBRANCH   4   7
TORSDOF 2
ENDMDL
MODEL 7
REMARK VINA RESULT:      -3.7      1.805      5.018
REMARK  2 active torsions:
REMARK  status: ('A' for Active; 'I' for Inactive)
REMARK    1  A    between atoms: C4_4  and  C9_9 
REMARK    2  A    between atoms: C7_7  and  C9_9 
ROOT
HETATM    1  C1  UNL     1     -32.742  17.497  -1.872  1.00 20.00     0.015 A 
HETATM    2  C2  UNL     1     -33.409  16.632  -2.788  1.00 20.00     0.017 A 
HETATM    3  C3  UNL     1     -33.566  17.896  -0.843  1.00 20.00    -0.021 A 
HETATM    4  C4  UNL     1     -34.718  16.403  -2.424  1.00 20.00    -0.002 A 
HETATM    5  C8  UNL     1     -33.252  18.784   0.297  1.00 20.00     0.056 C 
HETATM    6  S10 UNL     1     -35.137  17.228  -0.983  1.00 20.00    -0.099 SA
ENDROOT
BRANCH   4   7
HETATM    7  C9  UNL     1     -35.753  15.550  -3.122  1.00 20.00     0.102 C 
HETATM    8 BR11 UNL     1     -37.078  16.715  -3.974  1.00 20.00    -0.085 Br
BRANCH   7   9
HETATM    9  C7  UNL     1     -35.174  14.613  -4.125  1.00 20.00     0.005 A 
HETATM   10  C5  UNL     1     -35.910  13.355  -4.499  1.00 20.00     0.006 A 
HETATM   11  C6  UNL     1     -35.798  14.482  -5.487  1.00 20.00     0.006 A 
ENDBRANCH   7   9
ENDBRANCH   4   7
TORSDOF 2
ENDMDL
MODEL 8
REMARK VINA RESULT:      -3.6      2.235      2.581
REMARK  2 active torsions:
REMARK  status: ('A' for Active; 'I' for Inactive)
REMARK    1  A    between atoms: C4_4  and  C9_9 
REMARK    2  A    between atoms: C7_7  and  C9_9 
ROOT
HETATM    1  C1  UNL     1     -33.693  14.772  -4.353  1.00 20.00     0.015 A 
HETATM    2  C2  UNL     1     -34.050  15.399  -3.125  1.00 20.00     0.017 A 
HETATM    3  C3  UNL     1     -34.227  15.424  -5.442  1.00 20.00    -0.021 A 
HETATM    4  C4  UNL     1     -34.845  16.508  -3.322  1.00 20.00    -0.002 A 
HETATM    5  C8  UNL     1     -34.089  15.088  -6.876  1.00 20.00     0.056 C 
HETATM    6  S10 UNL     1     -35.156  16.788  -4.982  1.00 20.00    -0.099 SA
ENDROOT
BRANCH   4   7
HETATM    7  C9  UNL     1     -35.430  17.442  -2.287  1.00 20.00     0.102 C 
HETATM    8 BR11 UNL     1     -37.322  17.748  -2.694  1.00 20.00    -0.085 Br
BRANCH   7   9
HETATM    9  C7  UNL     1     -35.279  16.951  -0.888  1.00 20.00     0.005 A 
HETATM   10  C5  UNL     1     -34.592  17.804   0.143  1.00 20.00     0.006 A 
HETATM   11  C6  UNL     1     -36.076  17.577   0.223  1.00 20.00     0.006 A 
ENDBRANCH   7   9
ENDBRANCH   4   7
TORSDOF 2
ENDMDL
MODEL 9
REMARK VINA RESULT:      -3.6      2.240      2.897
REMARK  2 active torsions:
REMARK  status: ('A' for Active; 'I' for Inactive)
REMARK    1  A    between atoms: C4_4  and  C9_9 
REMARK    2  A    between atoms: C7_7  and  C9_9 
ROOT
HETATM    1  C1  UNL     1     -36.115  14.058  -5.036  1.00 20.00     0.015 A 
HETATM    2  C2  UNL     1     -35.823  14.362  -3.675  1.00 20.00     0.017 A 
HETATM    3  C3  UNL     1     -35.506  14.935  -5.905  1.00 20.00    -0.021 A 
HETATM    4  C4  UNL     1     -35.001  15.461  -3.556  1.00 20.00    -0.002 A 
HETATM    5  C8  UNL     1     -35.561  14.957  -7.383  1.00 20.00     0.056 C 
HETATM    6  S10 UNL     1     -34.585  16.121  -5.080  1.00 20.00    -0.099 SA
ENDROOT
BRANCH   4   7
HETATM    7  C9  UNL     1     -34.463  16.101  -2.296  1.00 20.00     0.102 C 
HETATM    8 BR11 UNL     1     -32.908  17.203  -2.747  1.00 20.00    -0.085 Br
BRANCH   7   9
HETATM    9  C7  UNL     1     -35.473  16.915  -1.562  1.00 20.00     0.005 A 
HETATM   10  C5  UNL     1     -35.399  17.044  -0.065  1.00 20.00     0.006 A 
HETATM   11  C6  UNL     1     -35.081  18.226  -0.939  1.00 20.00     0.006 A 
ENDBRANCH   7   9
ENDBRANCH   4   7
TORSDOF 2
ENDMDL
