MODEL 1
REMARK VINA RESULT:      -3.5      0.000      0.000
REMARK  2 active torsions:
REMARK  status: ('A' for Active; 'I' for Inactive)
REMARK    1  A    between atoms: C3_3  and  C5_5 
REMARK    2  A    between atoms: C5_5  and  S6_6 
ROOT
HETATM    1  C1  UNL     1     -35.622   5.417   4.178  1.00 20.00     0.010 A 
HETATM    2  C2  UNL     1     -34.634   4.812   5.135  1.00 20.00     0.010 A 
HETATM    3  C3  UNL     1     -34.144   5.478   3.871  1.00 20.00    -0.036 A 
HETATM    4  C4  UNL     1     -33.615   4.600   2.770  1.00 20.00     0.016 C 
ENDROOT
BRANCH   3   5
HETATM    5  C5  UNL     1     -33.452   6.807   3.998  1.00 20.00     0.079 C 
BRANCH   5   6
HETATM    6  S6  UNL     1     -32.478   7.178   2.508  1.00 20.00    -0.181 SA
HETATM    7  H16 UNL     1     -32.091   5.915   2.277  1.00 20.00     0.101 HD
ENDBRANCH   5   6
ENDBRANCH   3   5
TORSDOF 2
ENDMDL
MODEL 2
REMARK VINA RESULT:      -3.4      0.672      1.725
REMARK  2 active torsions:
REMARK  status: ('A' for Active; 'I' for Inactive)
REMARK    1  A    between atoms: C3_3  and  C5_5 
REMARK    2  A    between atoms: C5_5  and  S6_6 
ROOT
HETATM    1  C1  UNL     1     -34.601   4.554   4.825  1.00 20.00     0.010 A 
HETATM    2  C2  UNL     1     -35.572   5.497   4.171  1.00 20.00     0.010 A 
HETATM    3  C3  UNL     1     -34.095   5.812   4.157  1.00 20.00    -0.036 A 
HETATM    4  C4  UNL     1     -33.603   6.929   5.037  1.00 20.00     0.016 C 
ENDROOT
BRANCH   3   5
HETATM    5  C5  UNL     1     -33.356   5.671   2.855  1.00 20.00     0.079 C 
BRANCH   5   6
HETATM    6  S6  UNL     1     -32.471   7.204   2.440  1.00 20.00    -0.181 SA
HETATM    7  H16 UNL     1     -33.559   7.900   2.083  1.00 20.00     0.101 HD
ENDBRANCH   5   6
ENDBRANCH   3   5
TORSDOF 2
ENDMDL
MODEL 3
REMARK VINA RESULT:      -3.4      2.064      3.080
REMARK  2 active torsions:
REMARK  status: ('A' for Active; 'I' for Inactive)
REMARK    1  A    between atoms: C3_3  and  C5_5 
REMARK    2  A    between atoms: C5_5  and  S6_6 
ROOT
HETATM    1  C1  UNL     1     -31.826   7.138   2.967  1.00 20.00     0.010 A 
HETATM    2  C2  UNL     1     -32.937   7.480   2.016  1.00 20.00     0.010 A 
HETATM    3  C3  UNL     1     -33.117   6.354   3.007  1.00 20.00    -0.036 A 
HETATM    4  C4  UNL     1     -33.103   4.944   2.483  1.00 20.00     0.016 C 
ENDROOT
BRANCH   3   5
HETATM    5  C5  UNL     1     -34.043   6.580   4.170  1.00 20.00     0.079 C 
BRANCH   5   6
HETATM    6  S6  UNL     1     -34.940   5.056   4.592  1.00 20.00    -0.181 SA
HETATM    7  H16 UNL     1     -33.886   4.237   4.475  1.00 20.00     0.101 HD
ENDBRANCH   5   6
ENDBRANCH   3   5
TORSDOF 2
ENDMDL
MODEL 4
REMARK VINA RESULT:      -3.0     16.421     17.185
REMARK  2 active torsions:
REMARK  status: ('A' for Active; 'I' for Inactive)
REMARK    1  A    between atoms: C3_3  and  C5_5 
REMARK    2  A    between atoms: C5_5  and  S6_6 
ROOT
HETATM    1  C1  UNL     1     -24.419  15.834  11.725  1.00 20.00     0.010 A 
HETATM    2  C2  UNL     1     -25.063  17.169  11.482  1.00 20.00     0.010 A 
HETATM    3  C3  UNL     1     -23.595  16.978  11.181  1.00 20.00    -0.036 A 
HETATM    4  C4  UNL     1     -22.597  17.627  12.100  1.00 20.00     0.016 C 
ENDROOT
BRANCH   3   5
HETATM    5  C5  UNL     1     -23.172  16.919   9.740  1.00 20.00     0.079 C 
BRANCH   5   6
HETATM    6  S6  UNL     1     -21.752  18.011   9.434  1.00 20.00    -0.181 SA
HETATM    7  H16 UNL     1     -22.422  19.160   9.599  1.00 20.00     0.101 HD
ENDBRANCH   5   6
ENDBRANCH   3   5
TORSDOF 2
ENDMDL
MODEL 5
REMARK VINA RESULT:      -2.9      8.996      9.628
REMARK  2 active torsions:
REMARK  status: ('A' for Active; 'I' for Inactive)
REMARK    1  A    between atoms: C3_3  and  C5_5 
REMARK    2  A    between atoms: C5_5  and  S6_6 
ROOT
HETATM    1  C1  UNL     1     -41.718   7.610   0.671  1.00 20.00     0.010 A 
HETATM    2  C2  UNL     1     -41.271   8.246  -0.616  1.00 20.00     0.010 A 
HETATM    3  C3  UNL     1     -41.826   6.841  -0.625  1.00 20.00    -0.036 A 
HETATM    4  C4  UNL     1     -40.867   5.705  -0.854  1.00 20.00     0.016 C 
ENDROOT
BRANCH   3   5
HETATM    5  C5  UNL     1     -43.197   6.629  -1.207  1.00 20.00     0.079 C 
BRANCH   5   6
HETATM    6  S6  UNL     1     -43.417   4.905  -1.739  1.00 20.00    -0.181 SA
HETATM    7  H16 UNL     1     -44.330   5.167  -2.685  1.00 20.00     0.101 HD
ENDBRANCH   5   6
ENDBRANCH   3   5
TORSDOF 2
ENDMDL
MODEL 6
REMARK VINA RESULT:      -2.9     12.257     12.882
REMARK  2 active torsions:
REMARK  status: ('A' for Active; 'I' for Inactive)
REMARK    1  A    between atoms: C3_3  and  C5_5 
REMARK    2  A    between atoms: C5_5  and  S6_6 
ROOT
HETATM    1  C1  UNL     1     -34.622  15.586  -2.725  1.00 20.00     0.010 A 
HETATM    2  C2  UNL     1     -33.396  16.452  -2.793  1.00 20.00     0.010 A 
HETATM    3  C3  UNL     1     -33.809  15.638  -3.997  1.00 20.00    -0.036 A 
HETATM    4  C4  UNL     1     -32.979  14.436  -4.354  1.00 20.00     0.016 C 
ENDROOT
BRANCH   3   5
HETATM    5  C5  UNL     1     -34.391  16.368  -5.176  1.00 20.00     0.079 C 
BRANCH   5   6
HETATM    6  S6  UNL     1     -34.364  15.325  -6.664  1.00 20.00    -0.181 SA
HETATM    7  H16 UNL     1     -35.470  15.842  -7.217  1.00 20.00     0.101 HD
ENDBRANCH   5   6
ENDBRANCH   3   5
TORSDOF 2
ENDMDL
MODEL 7
REMARK VINA RESULT:      -2.9      1.403      1.893
REMARK  2 active torsions:
REMARK  status: ('A' for Active; 'I' for Inactive)
REMARK    1  A    between atoms: C3_3  and  C5_5 
REMARK    2  A    between atoms: C5_5  and  S6_6 
ROOT
HETATM    1  C1  UNL     1     -34.437   6.555   6.119  1.00 20.00     0.010 A 
HETATM    2  C2  UNL     1     -33.989   5.125   6.011  1.00 20.00     0.010 A 
HETATM    3  C3  UNL     1     -34.424   5.871   4.772  1.00 20.00    -0.036 A 
HETATM    4  C4  UNL     1     -35.747   5.503   4.155  1.00 20.00     0.016 C 
ENDROOT
BRANCH   3   5
HETATM    5  C5  UNL     1     -33.366   6.277   3.784  1.00 20.00     0.079 C 
BRANCH   5   6
HETATM    6  S6  UNL     1     -33.205   5.043   2.459  1.00 20.00    -0.181 SA
HETATM    7  H16 UNL     1     -32.438   5.796   1.660  1.00 20.00     0.101 HD
ENDBRANCH   5   6
ENDBRANCH   3   5
TORSDOF 2
ENDMDL
MODEL 8
REMARK VINA RESULT:      -2.9     17.078     17.804
REMARK  2 active torsions:
REMARK  status: ('A' for Active; 'I' for Inactive)
REMARK    1  A    between atoms: C3_3  and  C5_5 
REMARK    2  A    between atoms: C5_5  and  S6_6 
ROOT
HETATM    1  C1  UNL     1     -22.017  17.377   8.145  1.00 20.00     0.010 A 
HETATM    2  C2  UNL     1     -21.385  18.177   9.249  1.00 20.00     0.010 A 
HETATM    3  C3  UNL     1     -22.881  17.970   9.233  1.00 20.00    -0.036 A 
HETATM    4  C4  UNL     1     -23.752  19.146   8.880  1.00 20.00     0.016 C 
ENDROOT
BRANCH   3   5
HETATM    5  C5  UNL     1     -23.475  17.036  10.250  1.00 20.00     0.079 C 
BRANCH   5   6
HETATM    6  S6  UNL     1     -22.969  17.500  11.933  1.00 20.00    -0.181 SA
HETATM    7  H16 UNL     1     -21.710  17.830  11.615  1.00 20.00     0.101 HD
ENDBRANCH   5   6
ENDBRANCH   3   5
TORSDOF 2
ENDMDL
MODEL 9
REMARK VINA RESULT:      -2.8     17.078     17.725
REMARK  2 active torsions:
REMARK  status: ('A' for Active; 'I' for Inactive)
REMARK    1  A    between atoms: C3_3  and  C5_5 
REMARK    2  A    between atoms: C5_5  and  S6_6 
ROOT
HETATM    1  C1  UNL     1     -22.416  18.488   9.335  1.00 20.00     0.010 A 
HETATM    2  C2  UNL     1     -22.721  17.017   9.311  1.00 20.00     0.010 A 
HETATM    3  C3  UNL     1     -23.219  17.868  10.456  1.00 20.00    -0.036 A 
HETATM    4  C4  UNL     1     -22.553  17.708  11.795  1.00 20.00     0.016 C 
ENDROOT
BRANCH   3   5
HETATM    5  C5  UNL     1     -24.690  18.171  10.521  1.00 20.00     0.079 C 
BRANCH   5   6
HETATM    6  S6  UNL     1     -25.299  18.068  12.230  1.00 20.00    -0.181 SA
HETATM    7  H16 UNL     1     -26.565  18.406  11.948  1.00 20.00     0.101 HD
ENDBRANCH   5   6
ENDBRANCH   3   5
TORSDOF 2
ENDMDL
