MODEL 1
REMARK VINA RESULT:      -4.6      0.000      0.000
REMARK  1 active torsions:
REMARK  status: ('A' for Active; 'I' for Inactive)
REMARK    1  A    between atoms: C1_1  and  C2_2 
ROOT
HETATM    1  C1  UNL     1     -33.859   6.590   4.095  1.00 20.00     0.384 C 
HETATM    2  F3  UNL     1     -33.136   7.012   5.166  1.00 20.00    -0.181 F 
HETATM    3  F4  UNL     1     -34.694   7.617   3.779  1.00 20.00    -0.181 F 
HETATM    4 CL6  UNL     1     -32.758   6.302   2.732  1.00 20.00    -0.042 Cl
ENDROOT
BRANCH   1   5
HETATM    5  C2  UNL     1     -34.690   5.376   4.497  1.00 20.00     0.336 C 
HETATM    6  F5  UNL     1     -35.967   5.594   4.069  1.00 20.00    -0.199 F 
HETATM    7 CL7  UNL     1     -34.739   5.162   6.265  1.00 20.00    -0.058 Cl
HETATM    8 CL8  UNL     1     -34.103   3.884   3.719  1.00 20.00    -0.058 Cl
ENDBRANCH   1   5
TORSDOF 1
ENDMDL
MODEL 2
REMARK VINA RESULT:      -4.6      1.271      3.114
REMARK  1 active torsions:
REMARK  status: ('A' for Active; 'I' for Inactive)
REMARK    1  A    between atoms: C1_1  and  C2_2 
ROOT
HETATM    1  C1  UNL     1     -34.812   5.267   4.480  1.00 20.00     0.384 C 
HETATM    2  F3  UNL     1     -34.371   4.129   3.880  1.00 20.00    -0.181 F 
HETATM    3  F4  UNL     1     -36.085   5.454   4.039  1.00 20.00    -0.181 F 
HETATM    4 CL6  UNL     1     -34.842   5.018   6.238  1.00 20.00    -0.042 Cl
ENDROOT
BRANCH   1   5
HETATM    5  C2  UNL     1     -33.948   6.440   4.026  1.00 20.00     0.336 C 
HETATM    6  F5  UNL     1     -34.783   7.389   3.514  1.00 20.00    -0.199 F 
HETATM    7 CL7  UNL     1     -32.809   5.966   2.742  1.00 20.00    -0.058 Cl
HETATM    8 CL8  UNL     1     -33.061   7.174   5.387  1.00 20.00    -0.058 Cl
ENDBRANCH   1   5
TORSDOF 1
ENDMDL
MODEL 3
REMARK VINA RESULT:      -4.6      1.664      2.574
REMARK  1 active torsions:
REMARK  status: ('A' for Active; 'I' for Inactive)
REMARK    1  A    between atoms: C1_1  and  C2_2 
ROOT
HETATM    1  C1  UNL     1     -34.438   5.656   5.825  1.00 20.00     0.384 C 
HETATM    2  F3  UNL     1     -33.786   4.597   6.375  1.00 20.00    -0.181 F 
HETATM    3  F4  UNL     1     -35.665   5.686   6.411  1.00 20.00    -0.181 F 
HETATM    4 CL6  UNL     1     -33.566   7.147   6.237  1.00 20.00    -0.042 Cl
ENDROOT
BRANCH   1   5
HETATM    5  C2  UNL     1     -34.604   5.420   4.327  1.00 20.00     0.336 C 
HETATM    6  F5  UNL     1     -35.925   5.585   4.031  1.00 20.00    -0.199 F 
HETATM    7 CL7  UNL     1     -34.145   3.763   3.862  1.00 20.00    -0.058 Cl
HETATM    8 CL8  UNL     1     -33.680   6.601   3.364  1.00 20.00    -0.058 Cl
ENDBRANCH   1   5
TORSDOF 1
ENDMDL
MODEL 4
REMARK VINA RESULT:      -4.1      8.579      9.106
REMARK  1 active torsions:
REMARK  status: ('A' for Active; 'I' for Inactive)
REMARK    1  A    between atoms: C1_1  and  C2_2 
ROOT
HETATM    1  C1  UNL     1     -41.615   7.629   0.434  1.00 20.00     0.384 C 
HETATM    2  F3  UNL     1     -40.554   7.101   1.099  1.00 20.00    -0.181 F 
HETATM    3  F4  UNL     1     -42.715   7.307   1.166  1.00 20.00    -0.181 F 
HETATM    4 CL6  UNL     1     -41.449   9.396   0.391  1.00 20.00    -0.042 Cl
ENDROOT
BRANCH   1   5
HETATM    5  C2  UNL     1     -41.720   6.976  -0.941  1.00 20.00     0.336 C 
HETATM    6  F5  UNL     1     -41.149   7.825  -1.843  1.00 20.00    -0.199 F 
HETATM    7 CL7  UNL     1     -43.415   6.725  -1.428  1.00 20.00    -0.058 Cl
HETATM    8 CL8  UNL     1     -40.831   5.432  -1.011  1.00 20.00    -0.058 Cl
ENDBRANCH   1   5
TORSDOF 1
ENDMDL
MODEL 5
REMARK VINA RESULT:      -4.0      1.957      2.225
REMARK  1 active torsions:
REMARK  status: ('A' for Active; 'I' for Inactive)
REMARK    1  A    between atoms: C1_1  and  C2_2 
ROOT
HETATM    1  C1  UNL     1     -33.407   5.639   2.802  1.00 20.00     0.384 C 
HETATM    2  F3  UNL     1     -34.218   5.661   1.711  1.00 20.00    -0.181 F 
HETATM    3  F4  UNL     1     -32.619   4.539   2.661  1.00 20.00    -0.181 F 
HETATM    4 CL6  UNL     1     -32.380   7.088   2.788  1.00 20.00    -0.042 Cl
ENDROOT
BRANCH   1   5
HETATM    5  C2  UNL     1     -34.260   5.487   4.057  1.00 20.00     0.336 C 
HETATM    6  F5  UNL     1     -35.565   5.624   3.685  1.00 20.00    -0.199 F 
HETATM    7 CL7  UNL     1     -33.901   6.750   5.260  1.00 20.00    -0.058 Cl
HETATM    8 CL8  UNL     1     -34.073   3.874   4.794  1.00 20.00    -0.058 Cl
ENDBRANCH   1   5
TORSDOF 1
ENDMDL
MODEL 6
REMARK VINA RESULT:      -4.0      8.610      9.193
REMARK  1 active torsions:
REMARK  status: ('A' for Active; 'I' for Inactive)
REMARK    1  A    between atoms: C1_1  and  C2_2 
ROOT
HETATM    1  C1  UNL     1     -41.616   6.942  -1.041  1.00 20.00     0.384 C 
HETATM    2  F3  UNL     1     -40.921   7.778  -1.857  1.00 20.00    -0.181 F 
HETATM    3  F4  UNL     1     -42.869   6.862  -1.565  1.00 20.00    -0.181 F 
HETATM    4 CL6  UNL     1     -40.867   5.333  -1.091  1.00 20.00    -0.042 Cl
ENDROOT
BRANCH   1   5
HETATM    5  C2  UNL     1     -41.695   7.554   0.354  1.00 20.00     0.336 C 
HETATM    6  F5  UNL     1     -40.655   7.053   1.080  1.00 20.00    -0.199 F 
HETATM    7 CL7  UNL     1     -43.205   7.109   1.189  1.00 20.00    -0.058 Cl
HETATM    8 CL8  UNL     1     -41.523   9.328   0.311  1.00 20.00    -0.058 Cl
ENDBRANCH   1   5
TORSDOF 1
ENDMDL
MODEL 7
REMARK VINA RESULT:      -4.0      8.625      9.183
REMARK  1 active torsions:
REMARK  status: ('A' for Active; 'I' for Inactive)
REMARK    1  A    between atoms: C1_1  and  C2_2 
ROOT
HETATM    1  C1  UNL     1     -41.836   8.050  -0.548  1.00 20.00     0.384 C 
HETATM    2  F3  UNL     1     -41.828   7.869  -1.895  1.00 20.00    -0.181 F 
HETATM    3  F4  UNL     1     -40.871   8.974  -0.288  1.00 20.00    -0.181 F 
HETATM    4 CL6  UNL     1     -43.411   8.713  -0.064  1.00 20.00    -0.042 Cl
ENDROOT
BRANCH   1   5
HETATM    5  C2  UNL     1     -41.470   6.738   0.138  1.00 20.00     0.336 C 
HETATM    6  F5  UNL     1     -40.452   6.999   1.006  1.00 20.00    -0.199 F 
HETATM    7 CL7  UNL     1     -40.893   5.520  -1.027  1.00 20.00    -0.058 Cl
HETATM    8 CL8  UNL     1     -42.833   6.081   1.081  1.00 20.00    -0.058 Cl
ENDBRANCH   1   5
TORSDOF 1
ENDMDL
MODEL 8
REMARK VINA RESULT:      -3.8      8.625      9.300
REMARK  1 active torsions:
REMARK  status: ('A' for Active; 'I' for Inactive)
REMARK    1  A    between atoms: C1_1  and  C2_2 
ROOT
HETATM    1  C1  UNL     1     -41.581   6.744   0.367  1.00 20.00     0.384 C 
HETATM    2  F3  UNL     1     -42.322   5.906   1.142  1.00 20.00    -0.181 F 
HETATM    3  F4  UNL     1     -40.487   7.068   1.106  1.00 20.00    -0.181 F 
HETATM    4 CL6  UNL     1     -41.056   5.870  -1.087  1.00 20.00    -0.042 Cl
ENDROOT
BRANCH   1   5
HETATM    5  C2  UNL     1     -42.387   8.008   0.083  1.00 20.00     0.336 C 
HETATM    6  F5  UNL     1     -43.396   8.065   0.999  1.00 20.00    -0.199 F 
HETATM    7 CL7  UNL     1     -43.125   7.974  -1.537  1.00 20.00    -0.058 Cl
HETATM    8 CL8  UNL     1     -41.398   9.479   0.272  1.00 20.00    -0.058 Cl
ENDBRANCH   1   5
TORSDOF 1
ENDMDL
MODEL 9
REMARK VINA RESULT:      -3.8      8.636      9.110
REMARK  1 active torsions:
REMARK  status: ('A' for Active; 'I' for Inactive)
REMARK    1  A    between atoms: C1_1  and  C2_2 
ROOT
HETATM    1  C1  UNL     1     -41.733   7.580  -0.003  1.00 20.00     0.384 C 
HETATM    2  F3  UNL     1     -40.961   8.058  -1.015  1.00 20.00    -0.181 F 
HETATM    3  F4  UNL     1     -40.948   7.594   1.107  1.00 20.00    -0.181 F 
HETATM    4 CL6  UNL     1     -43.103   8.683   0.247  1.00 20.00    -0.042 Cl
ENDROOT
BRANCH   1   5
HETATM    5  C2  UNL     1     -42.135   6.142  -0.314  1.00 20.00     0.336 C 
HETATM    6  F5  UNL     1     -43.187   6.189  -1.181  1.00 20.00    -0.199 F 
HETATM    7 CL7  UNL     1     -42.670   5.272   1.145  1.00 20.00    -0.058 Cl
HETATM    8 CL8  UNL     1     -40.816   5.243  -1.110  1.00 20.00    -0.058 Cl
ENDBRANCH   1   5
TORSDOF 1
ENDMDL
