MODEL 1
REMARK VINA RESULT:      -3.5      0.000      0.000
REMARK  0 active torsions:
REMARK  status: ('A' for Active; 'I' for Inactive)
ROOT
HETATM    1  C1  UNL     1     -22.219  17.784   8.652  1.00 20.00     0.149 A 
HETATM    2  C2  UNL     1     -22.899  18.044   9.823  1.00 20.00     0.094 A 
HETATM    3  C3  UNL     1     -24.040  18.653   7.790  1.00 20.00     0.145 A 
HETATM    4  N4  UNL     1     -22.872  18.132   7.485  1.00 20.00    -0.244 NA
HETATM    5  S5  UNL     1     -24.417  18.755   9.462  1.00 20.00    -0.049 SA
HETATM    6 CL6  UNL     1     -22.418  17.756  11.435  1.00 20.00    -0.075 Cl
HETATM    7 BR7  UNL     1     -25.252  19.263   6.447  1.00 20.00    -0.021 Br
ENDROOT
TORSDOF 0
ENDMDL
MODEL 2
REMARK VINA RESULT:      -3.3     18.472     18.858
REMARK  0 active torsions:
REMARK  status: ('A' for Active; 'I' for Inactive)
ROOT
HETATM    1  C1  UNL     1     -35.977  13.649  -4.373  1.00 20.00     0.149 A 
HETATM    2  C2  UNL     1     -35.398  14.834  -3.971  1.00 20.00     0.094 A 
HETATM    3  C3  UNL     1     -37.790  14.877  -4.250  1.00 20.00     0.145 A 
HETATM    4  N4  UNL     1     -37.349  13.672  -4.533  1.00 20.00    -0.244 NA
HETATM    5  S5  UNL     1     -36.610  16.033  -3.784  1.00 20.00    -0.049 SA
HETATM    6 CL6  UNL     1     -33.754  15.185  -3.674  1.00 20.00    -0.075 Cl
HETATM    7 BR7  UNL     1     -39.645  15.320  -4.351  1.00 20.00    -0.021 Br
ENDROOT
TORSDOF 0
ENDMDL
MODEL 3
REMARK VINA RESULT:      -3.3     16.766     16.977
REMARK  0 active torsions:
REMARK  status: ('A' for Active; 'I' for Inactive)
ROOT
HETATM    1  C1  UNL     1     -34.113   4.642   3.612  1.00 20.00     0.149 A 
HETATM    2  C2  UNL     1     -34.281   5.443   4.722  1.00 20.00     0.094 A 
HETATM    3  C3  UNL     1     -33.191   6.476   2.839  1.00 20.00     0.145 A 
HETATM    4  N4  UNL     1     -33.488   5.233   2.531  1.00 20.00    -0.244 NA
HETATM    5  S5  UNL     1     -33.633   7.000   4.412  1.00 20.00    -0.049 SA
HETATM    6 CL6  UNL     1     -34.999   5.067   6.224  1.00 20.00    -0.075 Cl
HETATM    7 BR7  UNL     1     -32.313   7.637   1.602  1.00 20.00    -0.021 Br
ENDROOT
TORSDOF 0
ENDMDL
MODEL 4
REMARK VINA RESULT:      -3.2      3.177      3.413
REMARK  0 active torsions:
REMARK  status: ('A' for Active; 'I' for Inactive)
ROOT
HETATM    1  C1  UNL     1     -22.538  17.722  11.188  1.00 20.00     0.149 A 
HETATM    2  C2  UNL     1     -22.740  17.902   9.836  1.00 20.00     0.094 A 
HETATM    3  C3  UNL     1     -24.671  18.234  11.239  1.00 20.00     0.145 A 
HETATM    4  N4  UNL     1     -23.644  17.913  11.994  1.00 20.00    -0.244 NA
HETATM    5  S5  UNL     1     -24.378  18.325   9.550  1.00 20.00    -0.049 SA
HETATM    6 CL6  UNL     1     -21.628  17.755   8.550  1.00 20.00    -0.075 Cl
HETATM    7 BR7  UNL     1     -26.396  18.582  11.980  1.00 20.00    -0.021 Br
ENDROOT
TORSDOF 0
ENDMDL
MODEL 5
REMARK VINA RESULT:      -3.2      4.903      5.445
REMARK  0 active torsions:
REMARK  status: ('A' for Active; 'I' for Inactive)
ROOT
HETATM    1  C1  UNL     1     -25.277  19.112   4.298  1.00 20.00     0.149 A 
HETATM    2  C2  UNL     1     -26.646  19.203   4.432  1.00 20.00     0.094 A 
HETATM    3  C3  UNL     1     -25.391  19.165   6.488  1.00 20.00     0.145 A 
HETATM    4  N4  UNL     1     -24.555  19.090   5.477  1.00 20.00    -0.244 NA
HETATM    5  S5  UNL     1     -27.059  19.263   6.095  1.00 20.00    -0.049 SA
HETATM    6 CL6  UNL     1     -27.847  19.255   3.220  1.00 20.00    -0.075 Cl
HETATM    7 BR7  UNL     1     -24.784  19.164   8.299  1.00 20.00    -0.021 Br
ENDROOT
TORSDOF 0
ENDMDL
MODEL 6
REMARK VINA RESULT:      -3.2      1.876      2.112
REMARK  0 active torsions:
REMARK  status: ('A' for Active; 'I' for Inactive)
ROOT
HETATM    1  C1  UNL     1     -24.563  18.205  11.107  1.00 20.00     0.149 A 
HETATM    2  C2  UNL     1     -23.194  18.056  11.050  1.00 20.00     0.094 A 
HETATM    3  C3  UNL     1     -24.270  18.677   8.985  1.00 20.00     0.145 A 
HETATM    4  N4  UNL     1     -25.182  18.561   9.924  1.00 20.00    -0.244 NA
HETATM    5  S5  UNL     1     -22.647  18.371   9.454  1.00 20.00    -0.049 SA
HETATM    6 CL6  UNL     1     -22.102  17.630  12.290  1.00 20.00    -0.075 Cl
HETATM    7 BR7  UNL     1     -24.724  19.159   7.194  1.00 20.00    -0.021 Br
ENDROOT
TORSDOF 0
ENDMDL
MODEL 7
REMARK VINA RESULT:      -3.2     16.241     16.722
REMARK  0 active torsions:
REMARK  status: ('A' for Active; 'I' for Inactive)
ROOT
HETATM    1  C1  UNL     1     -33.590  14.602  -4.327  1.00 20.00     0.149 A 
HETATM    2  C2  UNL     1     -34.908  14.548  -3.928  1.00 20.00     0.094 A 
HETATM    3  C3  UNL     1     -33.564  16.253  -2.883  1.00 20.00     0.145 A 
HETATM    4  N4  UNL     1     -32.817  15.579  -3.729  1.00 20.00    -0.244 NA
HETATM    5  S5  UNL     1     -35.204  15.764  -2.754  1.00 20.00    -0.049 SA
HETATM    6 CL6  UNL     1     -36.147  13.490  -4.437  1.00 20.00    -0.075 Cl
HETATM    7 BR7  UNL     1     -32.862  17.697  -1.850  1.00 20.00    -0.021 Br
ENDROOT
TORSDOF 0
ENDMDL
MODEL 8
REMARK VINA RESULT:      -3.1     16.838     17.081
REMARK  0 active torsions:
REMARK  status: ('A' for Active; 'I' for Inactive)
ROOT
HETATM    1  C1  UNL     1     -33.310   5.274   2.334  1.00 20.00     0.149 A 
HETATM    2  C2  UNL     1     -32.936   6.591   2.496  1.00 20.00     0.094 A 
HETATM    3  C3  UNL     1     -34.056   5.581   4.374  1.00 20.00     0.145 A 
HETATM    4  N4  UNL     1     -33.952   4.693   3.411  1.00 20.00    -0.244 NA
HETATM    5  S5  UNL     1     -33.403   7.136   4.054  1.00 20.00    -0.049 SA
HETATM    6 CL6  UNL     1     -32.134   7.626   1.401  1.00 20.00    -0.075 Cl
HETATM    7 BR7  UNL     1     -34.888   5.165   6.042  1.00 20.00    -0.021 Br
ENDROOT
TORSDOF 0
ENDMDL
MODEL 9
REMARK VINA RESULT:      -3.1     17.421     17.720
REMARK  0 active torsions:
REMARK  status: ('A' for Active; 'I' for Inactive)
ROOT
HETATM    1  C1  UNL     1     -34.780  14.227  -3.881  1.00 20.00     0.149 A 
HETATM    2  C2  UNL     1     -34.729  15.521  -3.409  1.00 20.00     0.094 A 
HETATM    3  C3  UNL     1     -34.380  15.253  -5.778  1.00 20.00     0.145 A 
HETATM    4  N4  UNL     1     -34.580  14.071  -5.239  1.00 20.00    -0.244 NA
HETATM    5  S5  UNL     1     -34.418  16.596  -4.709  1.00 20.00    -0.049 SA
HETATM    6 CL6  UNL     1     -34.925  16.096  -1.814  1.00 20.00    -0.075 Cl
HETATM    7 BR7  UNL     1     -34.064  15.467  -7.649  1.00 20.00    -0.021 Br
ENDROOT
TORSDOF 0
ENDMDL
