MODEL 1
REMARK VINA RESULT:      -4.2      0.000      0.000
REMARK  1 active torsions:
REMARK  status: ('A' for Active; 'I' for Inactive)
REMARK    1  A    between atoms: C2_2  and  C6_6 
ROOT
HETATM    1  C1  UNL     1     -26.230  19.208   7.397  1.00 20.00     0.080 A 
HETATM    2  C2  UNL     1     -24.855  19.168   7.306  1.00 20.00     0.047 A 
HETATM    3  C3  UNL     1     -25.324  19.226   5.164  1.00 20.00     0.144 A 
HETATM    4  N7  UNL     1     -24.334  19.178   6.027  1.00 20.00    -0.238 NA
HETATM    5  S8  UNL     1     -26.909  19.263   5.823  1.00 20.00    -0.073 SA
HETATM    6 BR9  UNL     1     -25.017  19.254   3.280  1.00 20.00    -0.021 Br
ENDROOT
BRANCH   2   7
HETATM    7  C6  UNL     1     -23.948  19.115   8.548  1.00 20.00     0.038 A 
HETATM    8  C4  UNL     1     -22.836  18.093   8.587  1.00 20.00     0.011 A 
HETATM    9  C5  UNL     1     -24.039  17.914   9.459  1.00 20.00     0.011 A 
ENDBRANCH   2   7
TORSDOF 1
ENDMDL
MODEL 2
REMARK VINA RESULT:      -3.7     12.173     13.744
REMARK  1 active torsions:
REMARK  status: ('A' for Active; 'I' for Inactive)
REMARK    1  A    between atoms: C2_2  and  C6_6 
ROOT
HETATM    1  C1  UNL     1     -35.269  16.278  -1.857  1.00 20.00     0.080 A 
HETATM    2  C2  UNL     1     -34.198  15.942  -2.658  1.00 20.00     0.047 A 
HETATM    3  C3  UNL     1     -33.271  17.584  -1.537  1.00 20.00     0.144 A 
HETATM    4  N7  UNL     1     -33.051  16.691  -2.475  1.00 20.00    -0.238 NA
HETATM    5  S8  UNL     1     -34.834  17.580  -0.829  1.00 20.00    -0.073 SA
HETATM    6 BR9  UNL     1     -31.921  18.820  -0.989  1.00 20.00    -0.021 Br
ENDROOT
BRANCH   2   7
HETATM    7  C6  UNL     1     -34.266  14.807  -3.693  1.00 20.00     0.038 A 
HETATM    8  C4  UNL     1     -33.020  14.468  -4.477  1.00 20.00     0.011 A 
HETATM    9  C5  UNL     1     -34.159  15.158  -5.159  1.00 20.00     0.011 A 
ENDBRANCH   2   7
TORSDOF 1
ENDMDL
MODEL 3
REMARK VINA RESULT:      -3.7     15.007     15.767
REMARK  1 active torsions:
REMARK  status: ('A' for Active; 'I' for Inactive)
REMARK    1  A    between atoms: C2_2  and  C6_6 
ROOT
HETATM    1  C1  UNL     1     -33.153   5.591   1.945  1.00 20.00     0.080 A 
HETATM    2  C2  UNL     1     -32.896   6.914   2.237  1.00 20.00     0.047 A 
HETATM    3  C3  UNL     1     -33.706   6.300   4.181  1.00 20.00     0.144 A 
HETATM    4  N7  UNL     1     -33.214   7.322   3.518  1.00 20.00    -0.238 NA
HETATM    5  S8  UNL     1     -33.816   4.817   3.325  1.00 20.00    -0.073 SA
HETATM    6 BR9  UNL     1     -34.269   6.457   5.999  1.00 20.00    -0.021 Br
ENDROOT
BRANCH   2   7
HETATM    7  C6  UNL     1     -32.295   7.883   1.205  1.00 20.00     0.038 A 
HETATM    8  C4  UNL     1     -32.889   9.267   1.081  1.00 20.00     0.011 A 
HETATM    9  C5  UNL     1     -33.122   8.260  -0.001  1.00 20.00     0.011 A 
ENDBRANCH   2   7
TORSDOF 1
ENDMDL
MODEL 4
REMARK VINA RESULT:      -3.7      3.141      4.102
REMARK  1 active torsions:
REMARK  status: ('A' for Active; 'I' for Inactive)
REMARK    1  A    between atoms: C2_2  and  C6_6 
ROOT
HETATM    1  C1  UNL     1     -22.770  17.513  10.238  1.00 20.00     0.080 A 
HETATM    2  C2  UNL     1     -23.964  18.112  10.580  1.00 20.00     0.047 A 
HETATM    3  C3  UNL     1     -23.977  18.557   8.432  1.00 20.00     0.144 A 
HETATM    4  N7  UNL     1     -24.657  18.711   9.546  1.00 20.00    -0.238 NA
HETATM    5  S8  UNL     1     -22.495  17.700   8.555  1.00 20.00    -0.073 SA
HETATM    6 BR9  UNL     1     -24.605  19.248   6.767  1.00 20.00    -0.021 Br
ENDROOT
BRANCH   2   7
HETATM    7  C6  UNL     1     -24.499  18.118  12.022  1.00 20.00     0.038 A 
HETATM    8  C4  UNL     1     -25.751  17.332  12.332  1.00 20.00     0.011 A 
HETATM    9  C5  UNL     1     -25.802  18.828  12.307  1.00 20.00     0.011 A 
ENDBRANCH   2   7
TORSDOF 1
ENDMDL
MODEL 5
REMARK VINA RESULT:      -3.6     13.165     14.717
REMARK  1 active torsions:
REMARK  status: ('A' for Active; 'I' for Inactive)
REMARK    1  A    between atoms: C2_2  and  C6_6 
ROOT
HETATM    1  C1  UNL     1     -33.221  16.193  -3.405  1.00 20.00     0.080 A 
HETATM    2  C2  UNL     1     -34.355  15.461  -3.125  1.00 20.00     0.047 A 
HETATM    3  C3  UNL     1     -34.488  16.912  -1.486  1.00 20.00     0.144 A 
HETATM    4  N7  UNL     1     -35.082  15.871  -2.025  1.00 20.00    -0.238 NA
HETATM    5  S8  UNL     1     -33.050  17.451  -2.251  1.00 20.00    -0.073 SA
HETATM    6 BR9  UNL     1     -35.188  17.778   0.066  1.00 20.00    -0.021 Br
ENDROOT
BRANCH   2   7
HETATM    7  C6  UNL     1     -34.791  14.258  -3.980  1.00 20.00     0.038 A 
HETATM    8  C4  UNL     1     -35.285  14.511  -5.384  1.00 20.00     0.011 A 
HETATM    9  C5  UNL     1     -36.255  14.105  -4.319  1.00 20.00     0.011 A 
ENDBRANCH   2   7
TORSDOF 1
ENDMDL
MODEL 6
REMARK VINA RESULT:      -3.5     14.927     16.192
REMARK  1 active torsions:
REMARK  status: ('A' for Active; 'I' for Inactive)
REMARK    1  A    between atoms: C2_2  and  C6_6 
ROOT
HETATM    1  C1  UNL     1     -34.084  14.991  -5.971  1.00 20.00     0.080 A 
HETATM    2  C2  UNL     1     -34.792  15.384  -4.855  1.00 20.00     0.047 A 
HETATM    3  C3  UNL     1     -36.207  16.048  -6.394  1.00 20.00     0.144 A 
HETATM    4  N7  UNL     1     -36.010  15.991  -5.096  1.00 20.00    -0.238 NA
HETATM    5  S8  UNL     1     -34.970  15.390  -7.384  1.00 20.00    -0.073 SA
HETATM    6 BR9  UNL     1     -37.787  16.822  -7.138  1.00 20.00    -0.021 Br
ENDROOT
BRANCH   2   7
HETATM    7  C6  UNL     1     -34.267  15.165  -3.426  1.00 20.00     0.038 A 
HETATM    8  C4  UNL     1     -34.918  15.923  -2.293  1.00 20.00     0.011 A 
HETATM    9  C5  UNL     1     -33.541  16.300  -2.741  1.00 20.00     0.011 A 
ENDBRANCH   2   7
TORSDOF 1
ENDMDL
MODEL 7
REMARK VINA RESULT:      -3.5     10.896     12.029
REMARK  1 active torsions:
REMARK  status: ('A' for Active; 'I' for Inactive)
REMARK    1  A    between atoms: C2_2  and  C6_6 
ROOT
HETATM    1  C1  UNL     1     -34.630  17.535  -0.984  1.00 20.00     0.080 A 
HETATM    2  C2  UNL     1     -33.302  17.744  -1.291  1.00 20.00     0.047 A 
HETATM    3  C3  UNL     1     -33.742  16.189  -2.775  1.00 20.00     0.144 A 
HETATM    4  N7  UNL     1     -32.792  16.972  -2.317  1.00 20.00    -0.238 NA
HETATM    5  S8  UNL     1     -35.276  16.327  -2.017  1.00 20.00    -0.073 SA
HETATM    6 BR9  UNL     1     -33.433  14.963  -4.206  1.00 20.00    -0.021 Br
ENDROOT
BRANCH   2   7
HETATM    7  C6  UNL     1     -32.435  18.770  -0.542  1.00 20.00     0.038 A 
HETATM    8  C4  UNL     1     -31.001  18.413  -0.231  1.00 20.00     0.011 A 
HETATM    9  C5  UNL     1     -32.009  18.460   0.874  1.00 20.00     0.011 A 
ENDBRANCH   2   7
TORSDOF 1
ENDMDL
MODEL 8
REMARK VINA RESULT:      -3.5     14.350     15.271
REMARK  1 active torsions:
REMARK  status: ('A' for Active; 'I' for Inactive)
REMARK    1  A    between atoms: C2_2  and  C6_6 
ROOT
HETATM    1  C1  UNL     1     -35.795  14.780  -3.877  1.00 20.00     0.080 A 
HETATM    2  C2  UNL     1     -34.644  15.530  -3.765  1.00 20.00     0.047 A 
HETATM    3  C3  UNL     1     -34.645  15.250  -5.941  1.00 20.00     0.144 A 
HETATM    4  N7  UNL     1     -33.983  15.800  -4.947  1.00 20.00    -0.238 NA
HETATM    5  S8  UNL     1     -36.072  14.393  -5.525  1.00 20.00    -0.073 SA
HETATM    6 BR9  UNL     1     -34.049  15.397  -7.749  1.00 20.00    -0.021 Br
ENDROOT
BRANCH   2   7
HETATM    7  C6  UNL     1     -34.120  16.039  -2.411  1.00 20.00     0.038 A 
HETATM    8  C4  UNL     1     -35.115  16.556  -1.399  1.00 20.00     0.011 A 
HETATM    9  C5  UNL     1     -34.213  17.516  -2.108  1.00 20.00     0.011 A 
ENDBRANCH   2   7
TORSDOF 1
ENDMDL
MODEL 9
REMARK VINA RESULT:      -3.5      4.290      5.245
REMARK  1 active torsions:
REMARK  status: ('A' for Active; 'I' for Inactive)
REMARK    1  A    between atoms: C2_2  and  C6_6 
ROOT
HETATM    1  C1  UNL     1     -25.017  17.290  12.075  1.00 20.00     0.080 A 
HETATM    2  C2  UNL     1     -25.557  18.322  11.337  1.00 20.00     0.047 A 
HETATM    3  C3  UNL     1     -23.915  17.778   9.988  1.00 20.00     0.144 A 
HETATM    4  N7  UNL     1     -24.926  18.603  10.140  1.00 20.00    -0.238 NA
HETATM    5  S8  UNL     1     -23.665  16.637  11.245  1.00 20.00    -0.073 SA
HETATM    6 BR9  UNL     1     -22.785  17.844   8.450  1.00 20.00    -0.021 Br
ENDROOT
BRANCH   2   7
HETATM    7  C6  UNL     1     -26.786  19.118  11.809  1.00 20.00     0.038 A 
HETATM    8  C4  UNL     1     -28.066  18.369  12.094  1.00 20.00     0.011 A 
HETATM    9  C5  UNL     1     -27.971  19.238  10.879  1.00 20.00     0.011 A 
ENDBRANCH   2   7
TORSDOF 1
ENDMDL
