MODEL 1
REMARK VINA RESULT:      -4.7      0.000      0.000
REMARK  1 active torsions:
REMARK  status: ('A' for Active; 'I' for Inactive)
REMARK    1  A    between atoms: C4_4  and  C7_7 
ROOT
HETATM    1  C1  UNL     1     -36.388  14.066  -4.431  1.00 20.00     0.069 C 
HETATM    2  C6  UNL     1     -34.521  14.851  -5.847  1.00 20.00     0.031 C 
HETATM    3  C7  UNL     1     -34.940  14.418  -4.424  1.00 20.00     0.128 C 
HETATM    4  N8  UNL     1     -37.519  13.806  -4.415  1.00 20.00    -0.197 NA
ENDROOT
BRANCH   3   5
HETATM    5  C4  UNL     1     -34.596  15.412  -3.386  1.00 20.00     0.001 A 
HETATM    6  C2  UNL     1     -35.372  15.863  -2.340  1.00 20.00     0.018 A 
HETATM    7  C3  UNL     1     -34.690  16.830  -1.547  1.00 20.00     0.032 A 
HETATM    8  C5  UNL     1     -33.419  17.082  -2.015  1.00 20.00     0.075 A 
HETATM    9  S9  UNL     1     -33.052  16.154  -3.406  1.00 20.00    -0.081 SA
HETATM   10 CL10 UNL     1     -32.257  18.165  -1.371  1.00 20.00    -0.076 Cl
ENDBRANCH   3   5
TORSDOF 1
ENDMDL
MODEL 2
REMARK VINA RESULT:      -4.5      1.306      1.588
REMARK  1 active torsions:
REMARK  status: ('A' for Active; 'I' for Inactive)
REMARK    1  A    between atoms: C4_4  and  C7_7 
ROOT
HETATM    1  C1  UNL     1     -36.691  14.083  -4.615  1.00 20.00     0.069 C 
HETATM    2  C6  UNL     1     -35.153  14.877  -6.379  1.00 20.00     0.031 C 
HETATM    3  C7  UNL     1     -35.260  14.353  -4.929  1.00 20.00     0.128 C 
HETATM    4  N8  UNL     1     -37.804  13.885  -4.349  1.00 20.00    -0.197 NA
ENDROOT
BRANCH   3   5
HETATM    5  C4  UNL     1     -34.613  15.240  -3.939  1.00 20.00     0.001 A 
HETATM    6  C2  UNL     1     -33.287  15.604  -3.851  1.00 20.00     0.018 A 
HETATM    7  C3  UNL     1     -33.045  16.480  -2.753  1.00 20.00     0.032 A 
HETATM    8  C5  UNL     1     -34.194  16.753  -2.045  1.00 20.00     0.075 A 
HETATM    9  S9  UNL     1     -35.559  15.954  -2.702  1.00 20.00    -0.081 SA
HETATM   10 CL10 UNL     1     -34.364  17.751  -0.662  1.00 20.00    -0.076 Cl
ENDBRANCH   3   5
TORSDOF 1
ENDMDL
MODEL 3
REMARK VINA RESULT:      -4.3      3.723      5.148
REMARK  1 active torsions:
REMARK  status: ('A' for Active; 'I' for Inactive)
REMARK    1  A    between atoms: C4_4  and  C7_7 
ROOT
HETATM    1  C1  UNL     1     -32.025  18.267  -0.944  1.00 20.00     0.069 C 
HETATM    2  C6  UNL     1     -34.234  19.259  -1.442  1.00 20.00     0.031 C 
HETATM    3  C7  UNL     1     -33.470  17.952  -1.127  1.00 20.00     0.128 C 
HETATM    4  N8  UNL     1     -30.894  18.493  -0.818  1.00 20.00    -0.197 NA
ENDROOT
BRANCH   3   5
HETATM    5  C4  UNL     1     -33.704  16.885  -2.123  1.00 20.00     0.001 A 
HETATM    6  C2  UNL     1     -32.845  16.416  -3.094  1.00 20.00     0.018 A 
HETATM    7  C3  UNL     1     -33.432  15.374  -3.868  1.00 20.00     0.032 A 
HETATM    8  C5  UNL     1     -34.717  15.086  -3.461  1.00 20.00     0.075 A 
HETATM    9  S9  UNL     1     -35.210  16.070  -2.149  1.00 20.00    -0.081 SA
HETATM   10 CL10 UNL     1     -35.786  13.913  -4.107  1.00 20.00    -0.076 Cl
ENDBRANCH   3   5
TORSDOF 1
ENDMDL
MODEL 4
REMARK VINA RESULT:      -4.1      1.572      2.001
REMARK  1 active torsions:
REMARK  status: ('A' for Active; 'I' for Inactive)
REMARK    1  A    between atoms: C4_4  and  C7_7 
ROOT
HETATM    1  C1  UNL     1     -35.978  13.850  -4.510  1.00 20.00     0.069 C 
HETATM    2  C6  UNL     1     -37.536  15.725  -4.099  1.00 20.00     0.031 C 
HETATM    3  C7  UNL     1     -36.085  15.336  -4.465  1.00 20.00     0.128 C 
HETATM    4  N8  UNL     1     -35.874  12.694  -4.531  1.00 20.00    -0.197 NA
ENDROOT
BRANCH   3   5
HETATM    5  C4  UNL     1     -35.074  15.957  -3.583  1.00 20.00     0.001 A 
HETATM    6  C2  UNL     1     -33.702  15.945  -3.710  1.00 20.00     0.018 A 
HETATM    7  C3  UNL     1     -33.062  16.658  -2.655  1.00 20.00     0.032 A 
HETATM    8  C5  UNL     1     -33.968  17.188  -1.763  1.00 20.00     0.075 A 
HETATM    9  S9  UNL     1     -35.584  16.826  -2.197  1.00 20.00    -0.081 SA
HETATM   10 CL10 UNL     1     -33.641  18.113  -0.357  1.00 20.00    -0.076 Cl
ENDBRANCH   3   5
TORSDOF 1
ENDMDL
MODEL 5
REMARK VINA RESULT:      -4.0      3.306      4.632
REMARK  1 active torsions:
REMARK  status: ('A' for Active; 'I' for Inactive)
REMARK    1  A    between atoms: C4_4  and  C7_7 
ROOT
HETATM    1  C1  UNL     1     -34.494  17.623  -0.480  1.00 20.00     0.069 C 
HETATM    2  C6  UNL     1     -32.252  17.982  -1.455  1.00 20.00     0.031 C 
HETATM    3  C7  UNL     1     -33.743  17.713  -1.763  1.00 20.00     0.128 C 
HETATM    4  N8  UNL     1     -35.091  17.531   0.512  1.00 20.00    -0.197 NA
ENDROOT
BRANCH   3   5
HETATM    5  C4  UNL     1     -33.956  16.539  -2.636  1.00 20.00     0.001 A 
HETATM    6  C2  UNL     1     -33.031  15.859  -3.399  1.00 20.00     0.018 A 
HETATM    7  C3  UNL     1     -33.620  14.774  -4.110  1.00 20.00     0.032 A 
HETATM    8  C5  UNL     1     -34.971  14.665  -3.864  1.00 20.00     0.075 A 
HETATM    9  S9  UNL     1     -35.525  15.868  -2.779  1.00 20.00    -0.081 SA
HETATM   10 CL10 UNL     1     -36.066  13.512  -4.503  1.00 20.00    -0.076 Cl
ENDBRANCH   3   5
TORSDOF 1
ENDMDL
MODEL 6
REMARK VINA RESULT:      -4.0      2.486      2.654
REMARK  1 active torsions:
REMARK  status: ('A' for Active; 'I' for Inactive)
REMARK    1  A    between atoms: C4_4  and  C7_7 
ROOT
HETATM    1  C1  UNL     1     -35.416  13.673  -4.088  1.00 20.00     0.069 C 
HETATM    2  C6  UNL     1     -33.512  15.157  -4.619  1.00 20.00     0.031 C 
HETATM    3  C7  UNL     1     -34.496  14.698  -3.519  1.00 20.00     0.128 C 
HETATM    4  N8  UNL     1     -36.153  12.888  -4.522  1.00 20.00    -0.197 NA
ENDROOT
BRANCH   3   5
HETATM    5  C4  UNL     1     -35.213  15.817  -2.873  1.00 20.00     0.001 A 
HETATM    6  C2  UNL     1     -34.972  16.395  -1.645  1.00 20.00     0.018 A 
HETATM    7  C3  UNL     1     -35.881  17.457  -1.367  1.00 20.00     0.032 A 
HETATM    8  C5  UNL     1     -36.782  17.650  -2.391  1.00 20.00     0.075 A 
HETATM    9  S9  UNL     1     -36.530  16.554  -3.683  1.00 20.00    -0.081 SA
HETATM   10 CL10 UNL     1     -38.041  18.809  -2.479  1.00 20.00    -0.076 Cl
ENDBRANCH   3   5
TORSDOF 1
ENDMDL
MODEL 7
REMARK VINA RESULT:      -3.9     14.670     16.086
REMARK  1 active torsions:
REMARK  status: ('A' for Active; 'I' for Inactive)
REMARK    1  A    between atoms: C4_4  and  C7_7 
ROOT
HETATM    1  C1  UNL     1     -24.661  19.257   5.728  1.00 20.00     0.069 C 
HETATM    2  C6  UNL     1     -26.595  18.640   7.140  1.00 20.00     0.031 C 
HETATM    3  C7  UNL     1     -25.180  19.263   7.126  1.00 20.00     0.128 C 
HETATM    4  N8  UNL     1     -24.236  19.242   4.648  1.00 20.00    -0.197 NA
ENDROOT
BRANCH   3   5
HETATM    5  C4  UNL     1     -24.252  18.626   8.084  1.00 20.00     0.001 A 
HETATM    6  C2  UNL     1     -23.022  18.056   7.837  1.00 20.00     0.018 A 
HETATM    7  C3  UNL     1     -22.423  17.542   9.023  1.00 20.00     0.032 A 
HETATM    8  C5  UNL     1     -23.217  17.738  10.132  1.00 20.00     0.075 A 
HETATM    9  S9  UNL     1     -24.679  18.539   9.741  1.00 20.00    -0.081 SA
HETATM   10 CL10 UNL     1     -22.892  17.282  11.752  1.00 20.00    -0.076 Cl
ENDBRANCH   3   5
TORSDOF 1
ENDMDL
MODEL 8
REMARK VINA RESULT:      -3.9      3.332      4.858
REMARK  1 active torsions:
REMARK  status: ('A' for Active; 'I' for Inactive)
REMARK    1  A    between atoms: C4_4  and  C7_7 
ROOT
HETATM    1  C1  UNL     1     -33.965  18.165   0.695  1.00 20.00     0.069 C 
HETATM    2  C6  UNL     1     -31.922  18.515  -0.650  1.00 20.00     0.031 C 
HETATM    3  C7  UNL     1     -33.458  18.342  -0.694  1.00 20.00     0.128 C 
HETATM    4  N8  UNL     1     -34.375  18.007   1.770  1.00 20.00    -0.197 NA
ENDROOT
BRANCH   3   5
HETATM    5  C4  UNL     1     -33.899  17.267  -1.607  1.00 20.00     0.001 A 
HETATM    6  C2  UNL     1     -35.040  16.498  -1.539  1.00 20.00     0.018 A 
HETATM    7  C3  UNL     1     -35.116  15.557  -2.606  1.00 20.00     0.032 A 
HETATM    8  C5  UNL     1     -34.031  15.643  -3.451  1.00 20.00     0.075 A 
HETATM    9  S9  UNL     1     -32.926  16.853  -2.955  1.00 20.00    -0.081 SA
HETATM   10 CL10 UNL     1     -33.715  14.709  -4.853  1.00 20.00    -0.076 Cl
ENDBRANCH   3   5
TORSDOF 1
ENDMDL
MODEL 9
REMARK VINA RESULT:      -3.8      1.498      1.861
REMARK  1 active torsions:
REMARK  status: ('A' for Active; 'I' for Inactive)
REMARK    1  A    between atoms: C4_4  and  C7_7 
ROOT
HETATM    1  C1  UNL     1     -34.521  15.029  -5.537  1.00 20.00     0.069 C 
HETATM    2  C6  UNL     1     -36.435  14.345  -4.131  1.00 20.00     0.031 C 
HETATM    3  C7  UNL     1     -35.507  15.515  -4.530  1.00 20.00     0.128 C 
HETATM    4  N8  UNL     1     -33.734  14.662  -6.307  1.00 20.00    -0.197 NA
ENDROOT
BRANCH   3   5
HETATM    5  C4  UNL     1     -34.866  16.174  -3.372  1.00 20.00     0.001 A 
HETATM    6  C2  UNL     1     -35.352  16.315  -2.090  1.00 20.00     0.018 A 
HETATM    7  C3  UNL     1     -34.440  17.014  -1.247  1.00 20.00     0.032 A 
HETATM    8  C5  UNL     1     -33.292  17.380  -1.916  1.00 20.00     0.075 A 
HETATM    9  S9  UNL     1     -33.317  16.881  -3.554  1.00 20.00    -0.081 SA
HETATM   10 CL10 UNL     1     -31.939  18.230  -1.295  1.00 20.00    -0.076 Cl
ENDBRANCH   3   5
TORSDOF 1
ENDMDL
