MODEL 1
REMARK VINA RESULT:      -4.1      0.000      0.000
REMARK  3 active torsions:
REMARK  status: ('A' for Active; 'I' for Inactive)
REMARK    1  A    between atoms: C4_4  and  C7_7 
REMARK    2  A    between atoms: C6_6  and  N9_9 
REMARK    3  A    between atoms: C7_7  and  N9_9 
ROOT
HETATM    1  C1  UNL     1     -35.397  13.857  -4.460  1.00 20.00     0.095 C 
HETATM    2  C7  UNL     1     -34.630  15.123  -4.393  1.00 20.00     0.330 C 
HETATM    3  N8  UNL     1     -35.981  12.857  -4.530  1.00 20.00    -0.195 NA
ENDROOT
BRANCH   2   4
HETATM    4  C4  UNL     1     -34.126  15.405  -3.020  1.00 20.00     0.033 A 
HETATM    5  C2  UNL     1     -33.266  16.611  -2.762  1.00 20.00     0.008 A 
HETATM    6  C3  UNL     1     -34.674  16.566  -2.235  1.00 20.00     0.008 A 
ENDBRANCH   2   4
BRANCH   2   7
HETATM    7  N9  UNL     1     -33.549  15.063  -5.363  1.00 20.00     0.101 N 
HETATM    8  H21 UNL     1     -32.919  15.851  -5.216  1.00 20.00     0.317 HD
BRANCH   7   9
HETATM    9  C6  UNL     1     -34.066  15.113  -6.726  1.00 20.00     0.267 C 
HETATM   10  C5  UNL     1     -34.463  16.500  -7.099  1.00 20.00     0.037 C 
ENDBRANCH   7   9
ENDBRANCH   2   7
TORSDOF 3
ENDMDL
MODEL 2
REMARK VINA RESULT:      -4.0      1.566      1.867
REMARK  3 active torsions:
REMARK  status: ('A' for Active; 'I' for Inactive)
REMARK    1  A    between atoms: C4_4  and  C7_7 
REMARK    2  A    between atoms: C6_6  and  N9_9 
REMARK    3  A    between atoms: C7_7  and  N9_9 
ROOT
HETATM    1  C1  UNL     1     -37.054  14.364  -4.599  1.00 20.00     0.095 C 
HETATM    2  C7  UNL     1     -35.704  14.818  -5.009  1.00 20.00     0.330 C 
HETATM    3  N8  UNL     1     -38.112  13.997  -4.298  1.00 20.00    -0.195 NA
ENDROOT
BRANCH   2   4
HETATM    4  C4  UNL     1     -34.661  14.458  -4.009  1.00 20.00     0.033 A 
HETATM    5  C2  UNL     1     -33.203  14.597  -4.352  1.00 20.00     0.008 A 
HETATM    6  C3  UNL     1     -33.834  15.532  -3.357  1.00 20.00     0.008 A 
ENDBRANCH   2   4
BRANCH   2   7
HETATM    7  N9  UNL     1     -35.409  14.265  -6.320  1.00 20.00     0.101 N 
HETATM    8  H21 UNL     1     -34.496  13.809  -6.298  1.00 20.00     0.317 HD
BRANCH   7   9
HETATM    9  C6  UNL     1     -35.395  15.310  -7.337  1.00 20.00     0.267 C 
HETATM   10  C5  UNL     1     -34.028  15.489  -7.904  1.00 20.00     0.037 C 
ENDBRANCH   7   9
ENDBRANCH   2   7
TORSDOF 3
ENDMDL
MODEL 3
REMARK VINA RESULT:      -4.0      1.355      1.418
REMARK  3 active torsions:
REMARK  status: ('A' for Active; 'I' for Inactive)
REMARK    1  A    between atoms: C4_4  and  C7_7 
REMARK    2  A    between atoms: C6_6  and  N9_9 
REMARK    3  A    between atoms: C7_7  and  N9_9 
ROOT
HETATM    1  C1  UNL     1     -36.894  14.704  -4.197  1.00 20.00     0.095 C 
HETATM    2  C7  UNL     1     -35.920  15.796  -3.963  1.00 20.00     0.330 C 
HETATM    3  N8  UNL     1     -37.650  13.849  -4.403  1.00 20.00    -0.195 NA
ENDROOT
BRANCH   2   4
HETATM    4  C4  UNL     1     -34.982  15.485  -2.849  1.00 20.00     0.033 A 
HETATM    5  C2  UNL     1     -33.771  16.345  -2.616  1.00 20.00     0.008 A 
HETATM    6  C3  UNL     1     -34.917  16.381  -1.642  1.00 20.00     0.008 A 
ENDBRANCH   2   4
BRANCH   2   7
HETATM    7  N9  UNL     1     -35.213  16.059  -5.206  1.00 20.00     0.101 N 
HETATM    8  H21 UNL     1     -35.856  16.473  -5.880  1.00 20.00     0.317 HD
BRANCH   7   9
HETATM    9  C6  UNL     1     -34.662  14.830  -5.765  1.00 20.00     0.267 C 
HETATM   10  C5  UNL     1     -33.890  15.106  -7.010  1.00 20.00     0.037 C 
ENDBRANCH   7   9
ENDBRANCH   2   7
TORSDOF 3
ENDMDL
MODEL 4
REMARK VINA RESULT:      -3.7     16.564     18.314
REMARK  3 active torsions:
REMARK  status: ('A' for Active; 'I' for Inactive)
REMARK    1  A    between atoms: C4_4  and  C7_7 
REMARK    2  A    between atoms: C6_6  and  N9_9 
REMARK    3  A    between atoms: C7_7  and  N9_9 
ROOT
HETATM    1  C1  UNL     1     -24.906  18.749   8.611  1.00 20.00     0.095 C 
HETATM    2  C7  UNL     1     -23.871  18.106   9.454  1.00 20.00     0.330 C 
HETATM    3  N8  UNL     1     -25.725  19.263   7.970  1.00 20.00    -0.195 NA
ENDROOT
BRANCH   2   4
HETATM    4  C4  UNL     1     -22.491  18.418   8.989  1.00 20.00     0.033 A 
HETATM    5  C2  UNL     1     -21.305  17.763   9.642  1.00 20.00     0.008 A 
HETATM    6  C3  UNL     1     -21.693  17.387   8.239  1.00 20.00     0.008 A 
ENDBRANCH   2   4
BRANCH   2   7
HETATM    7  N9  UNL     1     -24.080  18.513  10.834  1.00 20.00     0.101 N 
HETATM    8  H21 UNL     1     -23.178  18.684  11.277  1.00 20.00     0.317 HD
BRANCH   7   9
HETATM    9  C6  UNL     1     -24.790  17.481  11.581  1.00 20.00     0.267 C 
HETATM   10  C5  UNL     1     -24.307  16.121  11.209  1.00 20.00     0.037 C 
ENDBRANCH   7   9
ENDBRANCH   2   7
TORSDOF 3
ENDMDL
MODEL 5
REMARK VINA RESULT:      -3.6      1.465      3.490
REMARK  3 active torsions:
REMARK  status: ('A' for Active; 'I' for Inactive)
REMARK    1  A    between atoms: C4_4  and  C7_7 
REMARK    2  A    between atoms: C6_6  and  N9_9 
REMARK    3  A    between atoms: C7_7  and  N9_9 
ROOT
HETATM    1  C1  UNL     1     -37.046  14.109  -4.584  1.00 20.00     0.095 C 
HETATM    2  C7  UNL     1     -35.627  14.136  -5.010  1.00 20.00     0.330 C 
HETATM    3  N8  UNL     1     -38.149  14.089  -4.227  1.00 20.00    -0.195 NA
ENDROOT
BRANCH   2   4
HETATM    4  C4  UNL     1     -35.347  15.245  -5.964  1.00 20.00     0.033 A 
HETATM    5  C2  UNL     1     -34.098  15.225  -6.802  1.00 20.00     0.008 A 
HETATM    6  C3  UNL     1     -35.439  15.010  -7.447  1.00 20.00     0.008 A 
ENDBRANCH   2   4
BRANCH   2   7
HETATM    7  N9  UNL     1     -34.789  14.218  -3.826  1.00 20.00     0.101 N 
HETATM    8  H21 UNL     1     -34.986  13.424  -3.216  1.00 20.00     0.317 HD
BRANCH   7   9
HETATM    9  C6  UNL     1     -35.038  15.455  -3.093  1.00 20.00     0.267 C 
HETATM   10  C5  UNL     1     -33.760  16.113  -2.701  1.00 20.00     0.037 C 
ENDBRANCH   7   9
ENDBRANCH   2   7
TORSDOF 3
ENDMDL
MODEL 6
REMARK VINA RESULT:      -3.5     11.141     12.061
REMARK  3 active torsions:
REMARK  status: ('A' for Active; 'I' for Inactive)
REMARK    1  A    between atoms: C4_4  and  C7_7 
REMARK    2  A    between atoms: C6_6  and  N9_9 
REMARK    3  A    between atoms: C7_7  and  N9_9 
ROOT
HETATM    1  C1  UNL     1     -33.366   5.112   2.716  1.00 20.00     0.095 C 
HETATM    2  C7  UNL     1     -33.632   6.302   3.557  1.00 20.00     0.330 C 
HETATM    3  N8  UNL     1     -33.138   4.192   2.047  1.00 20.00    -0.195 NA
ENDROOT
BRANCH   2   4
HETATM    4  C4  UNL     1     -33.575   5.989   5.012  1.00 20.00     0.033 A 
HETATM    5  C2  UNL     1     -34.147   6.950   6.017  1.00 20.00     0.008 A 
HETATM    6  C3  UNL     1     -34.832   5.636   5.761  1.00 20.00     0.008 A 
ENDBRANCH   2   4
BRANCH   2   7
HETATM    7  N9  UNL     1     -32.690   7.347   3.193  1.00 20.00     0.101 N 
HETATM    8  H21 UNL     1     -33.067   8.255   3.469  1.00 20.00     0.317 HD
BRANCH   7   9
HETATM    9  C6  UNL     1     -32.442   7.351   1.756  1.00 20.00     0.267 C 
HETATM   10  C5  UNL     1     -32.847   8.648   1.145  1.00 20.00     0.037 C 
ENDBRANCH   7   9
ENDBRANCH   2   7
TORSDOF 3
ENDMDL
MODEL 7
REMARK VINA RESULT:      -3.4      1.433      2.749
REMARK  3 active torsions:
REMARK  status: ('A' for Active; 'I' for Inactive)
REMARK    1  A    between atoms: C4_4  and  C7_7 
REMARK    2  A    between atoms: C6_6  and  N9_9 
REMARK    3  A    between atoms: C7_7  and  N9_9 
ROOT
HETATM    1  C1  UNL     1     -34.113  14.730  -5.447  1.00 20.00     0.095 C 
HETATM    2  C7  UNL     1     -34.631  14.662  -4.061  1.00 20.00     0.330 C 
HETATM    3  N8  UNL     1     -33.728  14.773  -6.540  1.00 20.00    -0.195 NA
ENDROOT
BRANCH   2   4
HETATM    4  C4  UNL     1     -34.704  16.004  -3.419  1.00 20.00     0.033 A 
HETATM    5  C2  UNL     1     -34.997  16.126  -1.949  1.00 20.00     0.008 A 
HETATM    6  C3  UNL     1     -33.625  16.450  -2.471  1.00 20.00     0.008 A 
ENDBRANCH   2   4
BRANCH   2   7
HETATM    7  N9  UNL     1     -35.927  14.003  -4.082  1.00 20.00     0.101 N 
HETATM    8  H21 UNL     1     -35.827  13.074  -4.492  1.00 20.00     0.317 HD
BRANCH   7   9
HETATM    9  C6  UNL     1     -36.890  14.769  -4.865  1.00 20.00     0.267 C 
HETATM   10  C5  UNL     1     -38.246  14.716  -4.247  1.00 20.00     0.037 C 
ENDBRANCH   7   9
ENDBRANCH   2   7
TORSDOF 3
ENDMDL
MODEL 8
REMARK VINA RESULT:      -3.4      2.027      3.267
REMARK  3 active torsions:
REMARK  status: ('A' for Active; 'I' for Inactive)
REMARK    1  A    between atoms: C4_4  and  C7_7 
REMARK    2  A    between atoms: C6_6  and  N9_9 
REMARK    3  A    between atoms: C7_7  and  N9_9 
ROOT
HETATM    1  C1  UNL     1     -35.799  13.916  -4.336  1.00 20.00     0.095 C 
HETATM    2  C7  UNL     1     -35.709  15.365  -4.037  1.00 20.00     0.330 C 
HETATM    3  N8  UNL     1     -35.870  12.778  -4.545  1.00 20.00    -0.195 NA
ENDROOT
BRANCH   2   4
HETATM    4  C4  UNL     1     -36.827  16.137  -4.647  1.00 20.00     0.033 A 
HETATM    5  C2  UNL     1     -37.075  17.562  -4.236  1.00 20.00     0.008 A 
HETATM    6  C3  UNL     1     -36.538  17.258  -5.607  1.00 20.00     0.008 A 
ENDBRANCH   2   4
BRANCH   2   7
HETATM    7  N9  UNL     1     -35.656  15.538  -2.595  1.00 20.00     0.101 N 
HETATM    8  H21 UNL     1     -36.480  16.054  -2.286  1.00 20.00     0.317 HD
BRANCH   7   9
HETATM    9  C6  UNL     1     -34.459  16.271  -2.200  1.00 20.00     0.267 C 
HETATM   10  C5  UNL     1     -33.352  16.056  -3.174  1.00 20.00     0.037 C 
ENDBRANCH   7   9
ENDBRANCH   2   7
TORSDOF 3
ENDMDL
MODEL 9
REMARK VINA RESULT:      -3.3      2.174      3.020
REMARK  3 active torsions:
REMARK  status: ('A' for Active; 'I' for Inactive)
REMARK    1  A    between atoms: C4_4  and  C7_7 
REMARK    2  A    between atoms: C6_6  and  N9_9 
REMARK    3  A    between atoms: C7_7  and  N9_9 
ROOT
HETATM    1  C1  UNL     1     -35.855  14.387  -5.279  1.00 20.00     0.095 C 
HETATM    2  C7  UNL     1     -35.794  14.827  -3.866  1.00 20.00     0.330 C 
HETATM    3  N8  UNL     1     -35.928  14.047  -6.386  1.00 20.00    -0.195 NA
ENDROOT
BRANCH   2   4
HETATM    4  C4  UNL     1     -34.849  15.961  -3.669  1.00 20.00     0.033 A 
HETATM    5  C2  UNL     1     -34.335  16.289  -2.294  1.00 20.00     0.008 A 
HETATM    6  C3  UNL     1     -33.410  15.697  -3.321  1.00 20.00     0.008 A 
ENDBRANCH   2   4
BRANCH   2   7
HETATM    7  N9  UNL     1     -37.138  15.161  -3.425  1.00 20.00     0.101 N 
HETATM    8  H21 UNL     1     -37.758  14.370  -3.601  1.00 20.00     0.317 HD
BRANCH   7   9
HETATM    9  C6  UNL     1     -37.645  16.331  -4.133  1.00 20.00     0.267 C 
HETATM   10  C5  UNL     1     -38.277  17.296  -3.191  1.00 20.00     0.037 C 
ENDBRANCH   7   9
ENDBRANCH   2   7
TORSDOF 3
ENDMDL
