MODEL 1
REMARK VINA RESULT:      -4.3      0.000      0.000
REMARK  3 active torsions:
REMARK  status: ('A' for Active; 'I' for Inactive)
REMARK    1  A    between atoms: C6_6  and  C8_8 
REMARK    2  A    between atoms: C7_7  and  N10_10 
REMARK    3  A    between atoms: C8_8  and  N10_10 
ROOT
HETATM    1  C1  UNL     1     -37.013  14.458  -4.434  1.00 20.00     0.095 C 
HETATM    2  C8  UNL     1     -35.669  15.047  -4.635  1.00 20.00     0.330 C 
HETATM    3  N9  UNL     1     -38.063  13.982  -4.295  1.00 20.00    -0.195 NA
ENDROOT
BRANCH   2   4
HETATM    4  C6  UNL     1     -34.810  14.919  -3.425  1.00 20.00     0.033 A 
HETATM    5  C2  UNL     1     -33.737  15.936  -3.147  1.00 20.00     0.008 A 
HETATM    6  C3  UNL     1     -34.966  15.882  -2.282  1.00 20.00     0.008 A 
ENDBRANCH   2   4
BRANCH   2   7
HETATM    7  N10 UNL     1     -35.060  14.424  -5.798  1.00 20.00     0.106 N 
HETATM    8  H22 UNL     1     -35.529  13.538  -5.992  1.00 20.00     0.318 HD
BRANCH   7   9
HETATM    9  C7  UNL     1     -35.164  15.285  -6.969  1.00 20.00     0.222 A 
HETATM   10  C4  UNL     1     -34.450  16.608  -7.007  1.00 20.00     0.038 A 
HETATM   11  C5  UNL     1     -33.984  15.480  -7.881  1.00 20.00     0.038 A 
ENDBRANCH   7   9
ENDBRANCH   2   7
TORSDOF 3
ENDMDL
MODEL 2
REMARK VINA RESULT:      -4.3      1.104      3.568
REMARK  3 active torsions:
REMARK  status: ('A' for Active; 'I' for Inactive)
REMARK    1  A    between atoms: C6_6  and  C8_8 
REMARK    2  A    between atoms: C7_7  and  N10_10 
REMARK    3  A    between atoms: C8_8  and  N10_10 
ROOT
HETATM    1  C1  UNL     1     -36.739  14.042  -4.585  1.00 20.00     0.095 C 
HETATM    2  C8  UNL     1     -35.297  14.230  -4.866  1.00 20.00     0.330 C 
HETATM    3  N9  UNL     1     -37.865  13.899  -4.342  1.00 20.00    -0.195 NA
ENDROOT
BRANCH   2   4
HETATM    4  C6  UNL     1     -35.052  15.304  -5.868  1.00 20.00     0.033 A 
HETATM    5  C2  UNL     1     -34.052  15.097  -6.972  1.00 20.00     0.008 A 
HETATM    6  C3  UNL     1     -35.521  15.137  -7.286  1.00 20.00     0.008 A 
ENDBRANCH   2   4
BRANCH   2   7
HETATM    7  N10 UNL     1     -34.612  14.495  -3.612  1.00 20.00     0.106 N 
HETATM    8  H22 UNL     1     -33.620  14.275  -3.715  1.00 20.00     0.318 HD
BRANCH   7   9
HETATM    9  C7  UNL     1     -34.753  15.892  -3.223  1.00 20.00     0.222 A 
HETATM   10  C4  UNL     1     -35.038  16.259  -1.793  1.00 20.00     0.038 A 
HETATM   11  C5  UNL     1     -33.695  16.564  -2.391  1.00 20.00     0.038 A 
ENDBRANCH   7   9
ENDBRANCH   2   7
TORSDOF 3
ENDMDL
MODEL 3
REMARK VINA RESULT:      -4.2      1.308      3.590
REMARK  3 active torsions:
REMARK  status: ('A' for Active; 'I' for Inactive)
REMARK    1  A    between atoms: C6_6  and  C8_8 
REMARK    2  A    between atoms: C7_7  and  N10_10 
REMARK    3  A    between atoms: C8_8  and  N10_10 
ROOT
HETATM    1  C1  UNL     1     -37.115  14.423  -4.382  1.00 20.00     0.095 C 
HETATM    2  C8  UNL     1     -35.765  15.033  -4.385  1.00 20.00     0.330 C 
HETATM    3  N9  UNL     1     -38.179  13.960  -4.362  1.00 20.00    -0.195 NA
ENDROOT
BRANCH   2   4
HETATM    4  C6  UNL     1     -35.405  15.602  -5.714  1.00 20.00     0.033 A 
HETATM    5  C2  UNL     1     -34.200  15.092  -6.455  1.00 20.00     0.008 A 
HETATM    6  C3  UNL     1     -35.581  14.782  -6.961  1.00 20.00     0.008 A 
ENDBRANCH   2   4
BRANCH   2   7
HETATM    7  N10 UNL     1     -35.707  16.036  -3.335  1.00 20.00     0.106 N 
HETATM    8  H22 UNL     1     -36.542  15.964  -2.752  1.00 20.00     0.318 HD
BRANCH   7   9
HETATM    9  C7  UNL     1     -34.526  15.854  -2.500  1.00 20.00     0.222 A 
HETATM   10  C4  UNL     1     -33.191  16.382  -2.947  1.00 20.00     0.038 A 
HETATM   11  C5  UNL     1     -33.903  17.026  -1.793  1.00 20.00     0.038 A 
ENDBRANCH   7   9
ENDBRANCH   2   7
TORSDOF 3
ENDMDL
MODEL 4
REMARK VINA RESULT:      -3.8      2.324      2.891
REMARK  3 active torsions:
REMARK  status: ('A' for Active; 'I' for Inactive)
REMARK    1  A    between atoms: C6_6  and  C8_8 
REMARK    2  A    between atoms: C7_7  and  N10_10 
REMARK    3  A    between atoms: C8_8  and  N10_10 
ROOT
HETATM    1  C1  UNL     1     -35.774  13.844  -4.115  1.00 20.00     0.095 C 
HETATM    2  C8  UNL     1     -35.635  15.102  -3.345  1.00 20.00     0.330 C 
HETATM    3  N9  UNL     1     -35.907  12.865  -4.724  1.00 20.00    -0.195 NA
ENDROOT
BRANCH   2   4
HETATM    4  C6  UNL     1     -34.484  15.925  -3.812  1.00 20.00     0.033 A 
HETATM    5  C2  UNL     1     -33.411  16.343  -2.845  1.00 20.00     0.008 A 
HETATM    6  C3  UNL     1     -33.111  15.321  -3.906  1.00 20.00     0.008 A 
ENDBRANCH   2   4
BRANCH   2   7
HETATM    7  N10 UNL     1     -36.888  15.834  -3.422  1.00 20.00     0.106 N 
HETATM    8  H22 UNL     1     -37.039  16.340  -2.548  1.00 20.00     0.318 HD
BRANCH   7   9
HETATM    9  C7  UNL     1     -36.874  16.784  -4.527  1.00 20.00     0.222 A 
HETATM   10  C4  UNL     1     -37.757  16.572  -5.725  1.00 20.00     0.038 A 
HETATM   11  C5  UNL     1     -38.048  17.692  -4.770  1.00 20.00     0.038 A 
ENDBRANCH   7   9
ENDBRANCH   2   7
TORSDOF 3
ENDMDL
MODEL 5
REMARK VINA RESULT:      -3.8      2.171      3.795
REMARK  3 active torsions:
REMARK  status: ('A' for Active; 'I' for Inactive)
REMARK    1  A    between atoms: C6_6  and  C8_8 
REMARK    2  A    between atoms: C7_7  and  N10_10 
REMARK    3  A    between atoms: C8_8  and  N10_10 
ROOT
HETATM    1  C1  UNL     1     -36.156  13.807  -4.659  1.00 20.00     0.095 C 
HETATM    2  C8  UNL     1     -36.531  15.227  -4.850  1.00 20.00     0.330 C 
HETATM    3  N9  UNL     1     -35.839  12.702  -4.502  1.00 20.00    -0.195 NA
ENDROOT
BRANCH   2   4
HETATM    4  C6  UNL     1     -37.767  15.589  -4.102  1.00 20.00     0.033 A 
HETATM    5  C2  UNL     1     -38.948  16.174  -4.827  1.00 20.00     0.008 A 
HETATM    6  C3  UNL     1     -39.021  14.778  -4.273  1.00 20.00     0.008 A 
ENDBRANCH   2   4
BRANCH   2   7
HETATM    7  N10 UNL     1     -35.404  16.061  -4.467  1.00 20.00     0.106 N 
HETATM    8  H22 UNL     1     -35.725  17.018  -4.322  1.00 20.00     0.318 HD
BRANCH   7   9
HETATM    9  C7  UNL     1     -34.785  15.574  -3.241  1.00 20.00     0.222 A 
HETATM   10  C4  UNL     1     -33.502  16.179  -2.743  1.00 20.00     0.038 A 
HETATM   11  C5  UNL     1     -34.782  16.421  -1.998  1.00 20.00     0.038 A 
ENDBRANCH   7   9
ENDBRANCH   2   7
TORSDOF 3
ENDMDL
MODEL 6
REMARK VINA RESULT:      -3.6      3.842      5.424
REMARK  3 active torsions:
REMARK  status: ('A' for Active; 'I' for Inactive)
REMARK    1  A    between atoms: C6_6  and  C8_8 
REMARK    2  A    between atoms: C7_7  and  N10_10 
REMARK    3  A    between atoms: C8_8  and  N10_10 
ROOT
HETATM    1  C1  UNL     1     -31.696  18.161  -0.797  1.00 20.00     0.095 C 
HETATM    2  C8  UNL     1     -32.996  17.611  -1.247  1.00 20.00     0.330 C 
HETATM    3  N9  UNL     1     -30.672  18.597  -0.469  1.00 20.00    -0.195 NA
ENDROOT
BRANCH   2   4
HETATM    4  C6  UNL     1     -34.149  18.252  -0.555  1.00 20.00     0.033 A 
HETATM    5  C2  UNL     1     -35.221  17.405   0.075  1.00 20.00     0.008 A 
HETATM    6  C3  UNL     1     -34.268  18.181   0.942  1.00 20.00     0.008 A 
ENDBRANCH   2   4
BRANCH   2   7
HETATM    7  N10 UNL     1     -33.086  17.753  -2.690  1.00 20.00     0.106 N 
HETATM    8  H22 UNL     1     -32.271  18.265  -3.031  1.00 20.00     0.318 HD
BRANCH   7   9
HETATM    9  C7  UNL     1     -33.140  16.452  -3.343  1.00 20.00     0.222 A 
HETATM   10  C4  UNL     1     -34.278  15.508  -3.067  1.00 20.00     0.038 A 
HETATM   11  C5  UNL     1     -34.165  16.173  -4.408  1.00 20.00     0.038 A 
ENDBRANCH   7   9
ENDBRANCH   2   7
TORSDOF 3
ENDMDL
MODEL 7
REMARK VINA RESULT:      -3.6      2.778      4.006
REMARK  3 active torsions:
REMARK  status: ('A' for Active; 'I' for Inactive)
REMARK    1  A    between atoms: C6_6  and  C8_8 
REMARK    2  A    between atoms: C7_7  and  N10_10 
REMARK    3  A    between atoms: C8_8  and  N10_10 
ROOT
HETATM    1  C1  UNL     1     -35.188  17.148  -0.524  1.00 20.00     0.095 C 
HETATM    2  C8  UNL     1     -34.937  16.848  -1.953  1.00 20.00     0.330 C 
HETATM    3  N9  UNL     1     -35.396  17.362   0.597  1.00 20.00    -0.195 NA
ENDROOT
BRANCH   2   4
HETATM    4  C6  UNL     1     -33.485  16.835  -2.280  1.00 20.00     0.033 A 
HETATM    5  C2  UNL     1     -32.898  17.902  -3.163  1.00 20.00     0.008 A 
HETATM    6  C3  UNL     1     -32.568  17.874  -1.697  1.00 20.00     0.008 A 
ENDBRANCH   2   4
BRANCH   2   7
HETATM    7  N10 UNL     1     -35.576  15.583  -2.279  1.00 20.00     0.106 N 
HETATM    8  H22 UNL     1     -36.576  15.650  -2.088  1.00 20.00     0.318 HD
BRANCH   7   9
HETATM    9  C7  UNL     1     -35.379  15.244  -3.683  1.00 20.00     0.222 A 
HETATM   10  C4  UNL     1     -34.706  13.956  -4.068  1.00 20.00     0.038 A 
HETATM   11  C5  UNL     1     -36.175  14.138  -4.320  1.00 20.00     0.038 A 
ENDBRANCH   7   9
ENDBRANCH   2   7
TORSDOF 3
ENDMDL
MODEL 8
REMARK VINA RESULT:      -3.6      2.142      4.033
REMARK  3 active torsions:
REMARK  status: ('A' for Active; 'I' for Inactive)
REMARK    1  A    between atoms: C6_6  and  C8_8 
REMARK    2  A    between atoms: C7_7  and  N10_10 
REMARK    3  A    between atoms: C8_8  and  N10_10 
ROOT
HETATM    1  C1  UNL     1     -33.974  15.132  -6.166  1.00 20.00     0.095 C 
HETATM    2  C8  UNL     1     -34.411  15.566  -4.819  1.00 20.00     0.330 C 
HETATM    3  N9  UNL     1     -33.609  14.797  -7.215  1.00 20.00    -0.195 NA
ENDROOT
BRANCH   2   4
HETATM    4  C6  UNL     1     -35.172  14.505  -4.103  1.00 20.00     0.033 A 
HETATM    5  C2  UNL     1     -36.633  14.693  -3.801  1.00 20.00     0.008 A 
HETATM    6  C3  UNL     1     -36.202  13.689  -4.833  1.00 20.00     0.008 A 
ENDBRANCH   2   4
BRANCH   2   7
HETATM    7  N10 UNL     1     -33.242  15.992  -4.067  1.00 20.00     0.106 N 
HETATM    8  H22 UNL     1     -32.485  16.213  -4.715  1.00 20.00     0.318 HD
BRANCH   7   9
HETATM    9  C7  UNL     1     -33.538  17.168  -3.259  1.00 20.00     0.222 A 
HETATM   10  C4  UNL     1     -34.069  17.016  -1.861  1.00 20.00     0.038 A 
HETATM   11  C5  UNL     1     -32.673  17.522  -2.081  1.00 20.00     0.038 A 
ENDBRANCH   7   9
ENDBRANCH   2   7
TORSDOF 3
ENDMDL
MODEL 9
REMARK VINA RESULT:      -3.6     10.991     12.034
REMARK  3 active torsions:
REMARK  status: ('A' for Active; 'I' for Inactive)
REMARK    1  A    between atoms: C6_6  and  C8_8 
REMARK    2  A    between atoms: C7_7  and  N10_10 
REMARK    3  A    between atoms: C8_8  and  N10_10 
ROOT
HETATM    1  C1  UNL     1     -33.437   5.192   2.790  1.00 20.00     0.095 C 
HETATM    2  C8  UNL     1     -33.586   6.485   3.497  1.00 20.00     0.330 C 
HETATM    3  N9  UNL     1     -33.302   4.189   2.222  1.00 20.00    -0.195 NA
ENDROOT
BRANCH   2   4
HETATM    4  C6  UNL     1     -33.398   6.349   4.969  1.00 20.00     0.033 A 
HETATM    5  C2  UNL     1     -34.233   7.164   5.918  1.00 20.00     0.008 A 
HETATM    6  C3  UNL     1     -34.451   5.681   5.807  1.00 20.00     0.008 A 
ENDBRANCH   2   4
BRANCH   2   7
HETATM    7  N10 UNL     1     -32.655   7.440   2.920  1.00 20.00     0.106 N 
HETATM    8  H22 UNL     1     -31.706   7.072   2.992  1.00 20.00     0.318 HD
BRANCH   7   9
HETATM    9  C7  UNL     1     -32.964   7.692   1.518  1.00 20.00     0.222 A 
HETATM   10  C4  UNL     1     -32.936   9.093   0.973  1.00 20.00     0.038 A 
HETATM   11  C5  UNL     1     -31.882   8.108   0.560  1.00 20.00     0.038 A 
ENDBRANCH   7   9
ENDBRANCH   2   7
TORSDOF 3
ENDMDL
