MODEL 1
REMARK VINA RESULT:      -5.5      0.000      0.000
REMARK  0 active torsions:
REMARK  status: ('A' for Active; 'I' for Inactive)
ROOT
HETATM    1  C1  UNL     1     -31.449  18.391  -0.869  1.00 20.00     0.068 C 
HETATM    2  C2  UNL     1     -35.188  16.019  -1.769  1.00 20.00     0.009 A 
HETATM    3  C3  UNL     1     -34.819  15.283  -2.897  1.00 20.00     0.024 A 
HETATM    4  C4  UNL     1     -32.951  16.784  -3.320  1.00 20.00     0.033 A 
HETATM    5  C5  UNL     1     -34.439  17.136  -1.439  1.00 20.00    -0.050 A 
HETATM    6  C6  UNL     1     -33.326  17.512  -2.203  1.00 20.00    -0.033 A 
HETATM    7  C7  UNL     1     -33.709  15.663  -3.667  1.00 20.00     0.034 A 
HETATM    8  C8  UNL     1     -34.621  18.051  -0.270  1.00 20.00     0.041 C 
HETATM    9  C9  UNL     1     -33.780  19.263  -0.707  1.00 20.00     0.028 C 
HETATM   10  C10 UNL     1     -32.660  18.730  -1.628  1.00 20.00     0.126 C 
HETATM   11  N11 UNL     1     -30.493  18.124  -0.269  1.00 20.00    -0.197 NA
HETATM   12 CL12 UNL     1     -33.273  14.732  -5.050  1.00 20.00    -0.084 Cl
ENDROOT
TORSDOF 0
ENDMDL
MODEL 2
REMARK VINA RESULT:      -5.4      2.981      4.596
REMARK  0 active torsions:
REMARK  status: ('A' for Active; 'I' for Inactive)
ROOT
HETATM    1  C1  UNL     1     -34.018  15.130  -5.873  1.00 20.00     0.068 C 
HETATM    2  C2  UNL     1     -35.483  16.611  -1.863  1.00 20.00     0.009 A 
HETATM    3  C3  UNL     1     -34.430  17.421  -1.433  1.00 20.00     0.024 A 
HETATM    4  C4  UNL     1     -32.918  16.380  -3.030  1.00 20.00     0.033 A 
HETATM    5  C5  UNL     1     -35.236  15.688  -2.865  1.00 20.00    -0.050 A 
HETATM    6  C6  UNL     1     -33.967  15.577  -3.449  1.00 20.00    -0.033 A 
HETATM    7  C7  UNL     1     -33.156  17.305  -2.012  1.00 20.00     0.034 A 
HETATM    8  C8  UNL     1     -36.205  14.746  -3.505  1.00 20.00     0.041 C 
HETATM    9  C9  UNL     1     -35.248  13.757  -4.193  1.00 20.00     0.028 C 
HETATM   10  C10 UNL     1     -33.957  14.535  -4.531  1.00 20.00     0.126 C 
HETATM   11  N11 UNL     1     -34.065  15.600  -6.932  1.00 20.00    -0.197 NA
HETATM   12 CL12 UNL     1     -31.877  18.321  -1.464  1.00 20.00    -0.084 Cl
ENDROOT
TORSDOF 0
ENDMDL
MODEL 3
REMARK VINA RESULT:      -5.2      2.301      3.183
REMARK  0 active torsions:
REMARK  status: ('A' for Active; 'I' for Inactive)
ROOT
HETATM    1  C1  UNL     1     -36.024  18.323  -1.612  1.00 20.00     0.068 C 
HETATM    2  C2  UNL     1     -32.918  15.786  -3.693  1.00 20.00     0.009 A 
HETATM    3  C3  UNL     1     -33.686  14.771  -4.266  1.00 20.00     0.024 A 
HETATM    4  C4  UNL     1     -35.547  15.282  -2.784  1.00 20.00     0.033 A 
HETATM    5  C5  UNL     1     -33.471  16.529  -2.664  1.00 20.00    -0.050 A 
HETATM    6  C6  UNL     1     -34.777  16.285  -2.217  1.00 20.00    -0.033 A 
HETATM    7  C7  UNL     1     -34.991  14.520  -3.814  1.00 20.00     0.034 A 
HETATM    8  C8  UNL     1     -32.859  17.678  -1.927  1.00 20.00     0.041 C 
HETATM    9  C9  UNL     1     -33.774  17.762  -0.694  1.00 20.00     0.028 C 
HETATM   10  C10 UNL     1     -35.163  17.239  -1.122  1.00 20.00     0.126 C 
HETATM   11  N11 UNL     1     -36.704  19.180  -1.998  1.00 20.00    -0.197 NA
HETATM   12 CL12 UNL     1     -35.918  13.264  -4.542  1.00 20.00    -0.084 Cl
ENDROOT
TORSDOF 0
ENDMDL
MODEL 4
REMARK VINA RESULT:      -5.0     14.119     15.414
REMARK  0 active torsions:
REMARK  status: ('A' for Active; 'I' for Inactive)
ROOT
HETATM    1  C1  UNL     1     -24.910  16.482  12.134  1.00 20.00     0.068 C 
HETATM    2  C2  UNL     1     -25.033  19.173   8.506  1.00 20.00     0.009 A 
HETATM    3  C3  UNL     1     -23.950  18.718   7.752  1.00 20.00     0.024 A 
HETATM    4  C4  UNL     1     -23.000  17.611   9.699  1.00 20.00     0.033 A 
HETATM    5  C5  UNL     1     -25.079  18.849   9.852  1.00 20.00    -0.050 A 
HETATM    6  C6  UNL     1     -24.076  18.070  10.443  1.00 20.00    -0.033 A 
HETATM    7  C7  UNL     1     -22.940  17.944   8.344  1.00 20.00     0.034 A 
HETATM    8  C8  UNL     1     -26.146  19.191  10.843  1.00 20.00     0.041 C 
HETATM    9  C9  UNL     1     -25.415  18.923  12.170  1.00 20.00     0.028 C 
HETATM   10  C10 UNL     1     -24.365  17.825  11.897  1.00 20.00     0.126 C 
HETATM   11  N11 UNL     1     -25.340  15.421  12.322  1.00 20.00    -0.197 NA
HETATM   12 CL12 UNL     1     -21.618  17.393   7.387  1.00 20.00    -0.084 Cl
ENDROOT
TORSDOF 0
ENDMDL
MODEL 5
REMARK VINA RESULT:      -5.0      2.378      3.323
REMARK  0 active torsions:
REMARK  status: ('A' for Active; 'I' for Inactive)
ROOT
HETATM    1  C1  UNL     1     -36.899  18.111  -0.341  1.00 20.00     0.068 C 
HETATM    2  C2  UNL     1     -32.809  17.500  -2.162  1.00 20.00     0.009 A 
HETATM    3  C3  UNL     1     -33.042  16.500  -3.109  1.00 20.00     0.024 A 
HETATM    4  C4  UNL     1     -35.132  15.895  -2.019  1.00 20.00     0.033 A 
HETATM    5  C5  UNL     1     -33.737  17.676  -1.149  1.00 20.00    -0.050 A 
HETATM    6  C6  UNL     1     -34.892  16.886  -1.081  1.00 20.00    -0.033 A 
HETATM    7  C7  UNL     1     -34.195  15.703  -3.037  1.00 20.00     0.034 A 
HETATM    8  C8  UNL     1     -33.719  18.695  -0.054  1.00 20.00     0.041 C 
HETATM    9  C9  UNL     1     -34.748  18.100   0.922  1.00 20.00     0.028 C 
HETATM   10  C10 UNL     1     -35.757  17.288   0.079  1.00 20.00     0.126 C 
HETATM   11  N11 UNL     1     -37.800  18.761  -0.672  1.00 20.00    -0.197 NA
HETATM   12 CL12 UNL     1     -34.459  14.480  -4.221  1.00 20.00    -0.084 Cl
ENDROOT
TORSDOF 0
ENDMDL
MODEL 6
REMARK VINA RESULT:      -5.0      3.538      5.106
REMARK  0 active torsions:
REMARK  status: ('A' for Active; 'I' for Inactive)
ROOT
HETATM    1  C1  UNL     1     -35.813  13.858  -4.609  1.00 20.00     0.068 C 
HETATM    2  C2  UNL     1     -33.742  16.838  -1.916  1.00 20.00     0.009 A 
HETATM    3  C3  UNL     1     -34.813  17.484  -1.295  1.00 20.00     0.024 A 
HETATM    4  C4  UNL     1     -36.346  16.687  -3.008  1.00 20.00     0.033 A 
HETATM    5  C5  UNL     1     -33.986  16.134  -3.083  1.00 20.00    -0.050 A 
HETATM    6  C6  UNL     1     -35.278  16.053  -3.622  1.00 20.00    -0.033 A 
HETATM    7  C7  UNL     1     -36.105  17.410  -1.838  1.00 20.00     0.034 A 
HETATM    8  C8  UNL     1     -33.015  15.342  -3.899  1.00 20.00     0.041 C 
HETATM    9  C9  UNL     1     -33.791  15.185  -5.217  1.00 20.00     0.028 C 
HETATM   10  C10 UNL     1     -35.295  15.208  -4.865  1.00 20.00     0.126 C 
HETATM   11  N11 UNL     1     -36.222  12.792  -4.407  1.00 20.00    -0.197 NA
HETATM   12 CL12 UNL     1     -37.408  18.212  -1.047  1.00 20.00    -0.084 Cl
ENDROOT
TORSDOF 0
ENDMDL
MODEL 7
REMARK VINA RESULT:      -4.7      3.788      5.472
REMARK  0 active torsions:
REMARK  status: ('A' for Active; 'I' for Inactive)
ROOT
HETATM    1  C1  UNL     1     -37.653  14.901  -4.595  1.00 20.00     0.068 C 
HETATM    2  C2  UNL     1     -33.325  15.877  -3.742  1.00 20.00     0.009 A 
HETATM    3  C3  UNL     1     -33.384  16.439  -2.465  1.00 20.00     0.024 A 
HETATM    4  C4  UNL     1     -35.774  16.832  -2.699  1.00 20.00     0.033 A 
HETATM    5  C5  UNL     1     -34.491  15.811  -4.486  1.00 20.00    -0.050 A 
HETATM    6  C6  UNL     1     -35.707  16.278  -3.967  1.00 20.00    -0.033 A 
HETATM    7  C7  UNL     1     -34.599  16.913  -1.948  1.00 20.00     0.034 A 
HETATM    8  C8  UNL     1     -34.678  15.228  -5.850  1.00 20.00     0.041 C 
HETATM    9  C9  UNL     1     -36.036  15.833  -6.248  1.00 20.00     0.028 C 
HETATM   10  C10 UNL     1     -36.829  16.066  -4.944  1.00 20.00     0.126 C 
HETATM   11  N11 UNL     1     -38.305  13.982  -4.319  1.00 20.00    -0.197 NA
HETATM   12 CL12 UNL     1     -34.643  17.596  -0.367  1.00 20.00    -0.084 Cl
ENDROOT
TORSDOF 0
ENDMDL
MODEL 8
REMARK VINA RESULT:      -4.7      3.125      4.745
REMARK  0 active torsions:
REMARK  status: ('A' for Active; 'I' for Inactive)
ROOT
HETATM    1  C1  UNL     1     -34.244  14.598  -5.483  1.00 20.00     0.068 C 
HETATM    2  C2  UNL     1     -36.338  17.280  -2.510  1.00 20.00     0.009 A 
HETATM    3  C3  UNL     1     -35.273  17.848  -1.808  1.00 20.00     0.024 A 
HETATM    4  C4  UNL     1     -33.768  16.105  -2.593  1.00 20.00     0.033 A 
HETATM    5  C5  UNL     1     -36.105  16.124  -3.236  1.00 20.00    -0.050 A 
HETATM    6  C6  UNL     1     -34.830  15.544  -3.284  1.00 20.00    -0.033 A 
HETATM    7  C7  UNL     1     -33.997  17.264  -1.849  1.00 20.00     0.034 A 
HETATM    8  C8  UNL     1     -37.072  15.362  -4.085  1.00 20.00     0.041 C 
HETATM    9  C9  UNL     1     -36.333  14.023  -4.249  1.00 20.00     0.028 C 
HETATM   10  C10 UNL     1     -34.821  14.324  -4.161  1.00 20.00     0.126 C 
HETATM   11  N11 UNL     1     -33.789  14.813  -6.528  1.00 20.00    -0.197 NA
HETATM   12 CL12 UNL     1     -32.701  17.990  -0.977  1.00 20.00    -0.084 Cl
ENDROOT
TORSDOF 0
ENDMDL
MODEL 9
REMARK VINA RESULT:      -4.6      2.960      4.141
REMARK  0 active torsions:
REMARK  status: ('A' for Active; 'I' for Inactive)
ROOT
HETATM    1  C1  UNL     1     -33.837  17.613  -4.749  1.00 20.00     0.068 C 
HETATM    2  C2  UNL     1     -35.220  16.710  -0.543  1.00 20.00     0.009 A 
HETATM    3  C3  UNL     1     -34.455  17.589   0.226  1.00 20.00     0.024 A 
HETATM    4  C4  UNL     1     -32.885  17.897  -1.608  1.00 20.00     0.033 A 
HETATM    5  C5  UNL     1     -34.801  16.428  -1.832  1.00 20.00    -0.050 A 
HETATM    6  C6  UNL     1     -33.647  17.021  -2.363  1.00 20.00    -0.033 A 
HETATM    7  C7  UNL     1     -33.295  18.178  -0.303  1.00 20.00     0.034 A 
HETATM    8  C8  UNL     1     -35.468  15.552  -2.844  1.00 20.00     0.041 C 
HETATM    9  C9  UNL     1     -34.326  15.338  -3.852  1.00 20.00     0.028 C 
HETATM   10  C10 UNL     1     -33.420  16.587  -3.784  1.00 20.00     0.126 C 
HETATM   11  N11 UNL     1     -34.165  18.423  -5.511  1.00 20.00    -0.197 NA
HETATM   12 CL12 UNL     1     -32.373  19.263   0.667  1.00 20.00    -0.084 Cl
ENDROOT
TORSDOF 0
ENDMDL
