MODEL 1
REMARK VINA RESULT:      -4.3      0.000      0.000
REMARK  2 active torsions:
REMARK  status: ('A' for Active; 'I' for Inactive)
REMARK    1  A    between atoms: C5_5  and  N8_8 
REMARK    2  A    between atoms: C7_7  and  N8_8 
ROOT
HETATM    1  C1  UNL     1     -32.898   8.243   0.791  1.00 20.00     0.013 C 
HETATM    2  C2  UNL     1     -32.546   7.790   1.844  1.00 20.00    -0.087 C 
HETATM    3  C7  UNL     1     -32.112   7.240   3.132  1.00 20.00     0.364 C 
ENDROOT
BRANCH   3   4
HETATM    4  N8  UNL     1     -32.910   6.067   3.487  1.00 20.00     0.099 N 
HETATM    5  C6  UNL     1     -33.233   5.288   2.293  1.00 20.00     0.311 C 
BRANCH   4   6
HETATM    6  C5  UNL     1     -34.133   6.471   4.180  1.00 20.00     0.223 A 
HETATM    7  C3  UNL     1     -35.115   5.435   4.655  1.00 20.00     0.038 A 
HETATM    8  C4  UNL     1     -34.300   6.208   5.651  1.00 20.00     0.038 A 
ENDBRANCH   4   6
ENDBRANCH   3   4
TORSDOF 2
ENDMDL
MODEL 2
REMARK VINA RESULT:      -4.2      0.944      1.588
REMARK  2 active torsions:
REMARK  status: ('A' for Active; 'I' for Inactive)
REMARK    1  A    between atoms: C5_5  and  N8_8 
REMARK    2  A    between atoms: C7_7  and  N8_8 
ROOT
HETATM    1  C1  UNL     1     -32.811   8.538   0.931  1.00 20.00     0.013 C 
HETATM    2  C2  UNL     1     -32.721   7.657   1.741  1.00 20.00    -0.087 C 
HETATM    3  C7  UNL     1     -32.607   6.580   2.728  1.00 20.00     0.364 C 
ENDROOT
BRANCH   3   4
HETATM    4  N8  UNL     1     -33.613   6.734   3.778  1.00 20.00     0.099 N 
HETATM    5  C6  UNL     1     -33.040   7.407   4.942  1.00 20.00     0.311 C 
BRANCH   4   6
HETATM    6  C5  UNL     1     -34.158   5.430   4.159  1.00 20.00     0.223 A 
HETATM    7  C3  UNL     1     -34.778   5.232   5.514  1.00 20.00     0.038 A 
HETATM    8  C4  UNL     1     -35.643   5.231   4.287  1.00 20.00     0.038 A 
ENDBRANCH   4   6
ENDBRANCH   3   4
TORSDOF 2
ENDMDL
MODEL 3
REMARK VINA RESULT:      -3.9      1.054      1.575
REMARK  2 active torsions:
REMARK  status: ('A' for Active; 'I' for Inactive)
REMARK    1  A    between atoms: C5_5  and  N8_8 
REMARK    2  A    between atoms: C7_7  and  N8_8 
ROOT
HETATM    1  C1  UNL     1     -32.167   7.774   2.084  1.00 20.00     0.013 C 
HETATM    2  C2  UNL     1     -32.818   6.780   2.252  1.00 20.00    -0.087 C 
HETATM    3  C7  UNL     1     -33.613   5.565   2.451  1.00 20.00     0.364 C 
ENDROOT
BRANCH   3   4
HETATM    4  N8  UNL     1     -33.610   5.172   3.859  1.00 20.00     0.099 N 
HETATM    5  C6  UNL     1     -34.126   3.813   4.013  1.00 20.00     0.311 C 
BRANCH   4   6
HETATM    6  C5  UNL     1     -34.401   6.112   4.654  1.00 20.00     0.223 A 
HETATM    7  C3  UNL     1     -34.807   5.765   6.060  1.00 20.00     0.038 A 
HETATM    8  C4  UNL     1     -33.784   6.837   5.818  1.00 20.00     0.038 A 
ENDBRANCH   4   6
ENDBRANCH   3   4
TORSDOF 2
ENDMDL
MODEL 4
REMARK VINA RESULT:      -3.7     16.160     16.637
REMARK  2 active torsions:
REMARK  status: ('A' for Active; 'I' for Inactive)
REMARK    1  A    between atoms: C5_5  and  N8_8 
REMARK    2  A    between atoms: C7_7  and  N8_8 
ROOT
HETATM    1  C1  UNL     1     -22.011  17.527   8.047  1.00 20.00     0.013 C 
HETATM    2  C2  UNL     1     -22.629  17.202   9.024  1.00 20.00    -0.087 C 
HETATM    3  C7  UNL     1     -23.382  16.801  10.215  1.00 20.00     0.364 C 
ENDROOT
BRANCH   3   4
HETATM    4  N8  UNL     1     -23.743  17.970  11.015  1.00 20.00     0.099 N 
HETATM    5  C6  UNL     1     -23.073  17.929  12.314  1.00 20.00     0.311 C 
BRANCH   4   6
HETATM    6  C5  UNL     1     -25.194  18.041  11.191  1.00 20.00     0.223 A 
HETATM    7  C3  UNL     1     -25.796  19.025  12.156  1.00 20.00     0.038 A 
HETATM    8  C4  UNL     1     -25.969  19.223  10.678  1.00 20.00     0.038 A 
ENDBRANCH   4   6
ENDBRANCH   3   4
TORSDOF 2
ENDMDL
MODEL 5
REMARK VINA RESULT:      -3.7      0.806      3.876
REMARK  2 active torsions:
REMARK  status: ('A' for Active; 'I' for Inactive)
REMARK    1  A    between atoms: C5_5  and  N8_8 
REMARK    2  A    between atoms: C7_7  and  N8_8 
ROOT
HETATM    1  C1  UNL     1     -35.088   5.128   5.276  1.00 20.00     0.013 C 
HETATM    2  C2  UNL     1     -34.346   5.918   4.761  1.00 20.00    -0.087 C 
HETATM    3  C7  UNL     1     -33.438   6.885   4.137  1.00 20.00     0.364 C 
ENDROOT
BRANCH   3   4
HETATM    4  N8  UNL     1     -33.377   6.677   2.691  1.00 20.00     0.099 N 
HETATM    5  C6  UNL     1     -33.016   5.293   2.388  1.00 20.00     0.311 C 
BRANCH   4   6
HETATM    6  C5  UNL     1     -32.419   7.600   2.082  1.00 20.00     0.223 A 
HETATM    7  C3  UNL     1     -32.202   7.596   0.593  1.00 20.00     0.038 A 
HETATM    8  C4  UNL     1     -32.897   8.755   1.246  1.00 20.00     0.038 A 
ENDBRANCH   4   6
ENDBRANCH   3   4
TORSDOF 2
ENDMDL
MODEL 6
REMARK VINA RESULT:      -3.6     15.703     16.366
REMARK  2 active torsions:
REMARK  status: ('A' for Active; 'I' for Inactive)
REMARK    1  A    between atoms: C5_5  and  N8_8 
REMARK    2  A    between atoms: C7_7  and  N8_8 
ROOT
HETATM    1  C1  UNL     1     -24.646  19.054   8.006  1.00 20.00     0.013 C 
HETATM    2  C2  UNL     1     -23.809  18.741   8.807  1.00 20.00    -0.087 C 
HETATM    3  C7  UNL     1     -22.782  18.359   9.782  1.00 20.00     0.364 C 
ENDROOT
BRANCH   3   4
HETATM    4  N8  UNL     1     -23.394  17.994  11.059  1.00 20.00     0.099 N 
HETATM    5  C6  UNL     1     -22.365  17.672  12.046  1.00 20.00     0.311 C 
BRANCH   4   6
HETATM    6  C5  UNL     1     -24.307  16.864  10.884  1.00 20.00     0.223 A 
HETATM    7  C3  UNL     1     -24.382  15.781  11.924  1.00 20.00     0.038 A 
HETATM    8  C4  UNL     1     -25.531  16.730  11.747  1.00 20.00     0.038 A 
ENDBRANCH   4   6
ENDBRANCH   3   4
TORSDOF 2
ENDMDL
MODEL 7
REMARK VINA RESULT:      -3.6     11.048     11.723
REMARK  2 active torsions:
REMARK  status: ('A' for Active; 'I' for Inactive)
REMARK    1  A    between atoms: C5_5  and  N8_8 
REMARK    2  A    between atoms: C7_7  and  N8_8 
ROOT
HETATM    1  C1  UNL     1     -38.564  14.772  -4.205  1.00 20.00     0.013 C 
HETATM    2  C2  UNL     1     -37.449  14.390  -4.432  1.00 20.00    -0.087 C 
HETATM    3  C7  UNL     1     -36.089  13.918  -4.709  1.00 20.00     0.364 C 
ENDROOT
BRANCH   3   4
HETATM    4  N8  UNL     1     -35.132  15.020  -4.616  1.00 20.00     0.099 N 
HETATM    5  C6  UNL     1     -34.141  14.929  -5.687  1.00 20.00     0.311 C 
BRANCH   4   6
HETATM    6  C5  UNL     1     -34.475  15.017  -3.309  1.00 20.00     0.223 A 
HETATM    7  C3  UNL     1     -33.525  16.121  -2.934  1.00 20.00     0.038 A 
HETATM    8  C4  UNL     1     -34.861  16.020  -2.257  1.00 20.00     0.038 A 
ENDBRANCH   4   6
ENDBRANCH   3   4
TORSDOF 2
ENDMDL
MODEL 8
REMARK VINA RESULT:      -3.5     15.456     16.458
REMARK  2 active torsions:
REMARK  status: ('A' for Active; 'I' for Inactive)
REMARK    1  A    between atoms: C5_5  and  N8_8 
REMARK    2  A    between atoms: C7_7  and  N8_8 
ROOT
HETATM    1  C1  UNL     1     -25.647  19.263   6.624  1.00 20.00     0.013 C 
HETATM    2  C2  UNL     1     -25.434  19.255   7.805  1.00 20.00    -0.087 C 
HETATM    3  C7  UNL     1     -25.178  19.250   9.248  1.00 20.00     0.364 C 
ENDROOT
BRANCH   3   4
HETATM    4  N8  UNL     1     -24.275  18.157   9.607  1.00 20.00     0.099 N 
HETATM    5  C6  UNL     1     -24.383  17.850  11.032  1.00 20.00     0.311 C 
BRANCH   4   6
HETATM    6  C5  UNL     1     -22.895  18.499   9.262  1.00 20.00     0.223 A 
HETATM    7  C3  UNL     1     -21.748  17.751   9.883  1.00 20.00     0.038 A 
HETATM    8  C4  UNL     1     -22.062  17.565   8.427  1.00 20.00     0.038 A 
ENDBRANCH   4   6
ENDBRANCH   3   4
TORSDOF 2
ENDMDL
MODEL 9
REMARK VINA RESULT:      -3.4     11.059     11.516
REMARK  2 active torsions:
REMARK  status: ('A' for Active; 'I' for Inactive)
REMARK    1  A    between atoms: C5_5  and  N8_8 
REMARK    2  A    between atoms: C7_7  and  N8_8 
ROOT
HETATM    1  C1  UNL     1     -35.274  16.871  -0.914  1.00 20.00     0.013 C 
HETATM    2  C2  UNL     1     -34.540  16.549  -1.808  1.00 20.00    -0.087 C 
HETATM    3  C7  UNL     1     -33.641  16.158  -2.897  1.00 20.00     0.364 C 
ENDROOT
BRANCH   3   4
HETATM    4  N8  UNL     1     -34.155  14.978  -3.592  1.00 20.00     0.099 N 
HETATM    5  C6  UNL     1     -33.147  14.443  -4.505  1.00 20.00     0.311 C 
BRANCH   4   6
HETATM    6  C5  UNL     1     -35.381  15.307  -4.319  1.00 20.00     0.223 A 
HETATM    7  C3  UNL     1     -35.862  14.422  -5.436  1.00 20.00     0.038 A 
HETATM    8  C4  UNL     1     -36.621  14.474  -4.142  1.00 20.00     0.038 A 
ENDBRANCH   4   6
ENDBRANCH   3   4
TORSDOF 2
ENDMDL
