MODEL 1
REMARK VINA RESULT:      -4.8      0.000      0.000
REMARK  1 active torsions:
REMARK  status: ('A' for Active; 'I' for Inactive)
REMARK    1  A    between atoms: C6_6  and  N8_8 
ROOT
HETATM    1  C1  UNL     1     -33.257   8.699   0.178  1.00 20.00     0.014 C 
HETATM    2  C2  UNL     1     -32.712   8.179   1.113  1.00 20.00    -0.096 C 
HETATM    3  C6  UNL     1     -32.044   7.547   2.254  1.00 20.00     0.243 C 
ENDROOT
BRANCH   3   4
HETATM    4  N8  UNL     1     -32.909   6.617   2.938  1.00 20.00    -0.269 N 
HETATM    5  C4  UNL     1     -33.503   6.804   4.152  1.00 20.00     0.138 A 
HETATM    6  C5  UNL     1     -34.224   5.661   4.397  1.00 20.00     0.070 A 
HETATM    7  C3  UNL     1     -33.996   4.852   3.269  1.00 20.00     0.164 A 
HETATM    8 CL9  UNL     1     -35.181   5.282   5.738  1.00 20.00    -0.081 Cl
HETATM    9  N7  UNL     1     -33.192   5.431   2.373  1.00 20.00    -0.183 NA
ENDBRANCH   3   4
TORSDOF 1
ENDMDL
MODEL 2
REMARK VINA RESULT:      -4.0     15.400     16.205
REMARK  1 active torsions:
REMARK  status: ('A' for Active; 'I' for Inactive)
REMARK    1  A    between atoms: C6_6  and  N8_8 
ROOT
HETATM    1  C1  UNL     1     -27.270  18.887   6.897  1.00 20.00     0.014 C 
HETATM    2  C2  UNL     1     -26.089  19.054   6.756  1.00 20.00    -0.096 C 
HETATM    3  C6  UNL     1     -24.649  19.259   6.579  1.00 20.00     0.243 C 
ENDROOT
BRANCH   3   4
HETATM    4  N8  UNL     1     -23.888  18.716   7.678  1.00 20.00    -0.269 N 
HETATM    5  C4  UNL     1     -24.178  18.839   9.005  1.00 20.00     0.138 A 
HETATM    6  C5  UNL     1     -23.183  18.167   9.671  1.00 20.00     0.070 A 
HETATM    7  C3  UNL     1     -22.345  17.677   8.652  1.00 20.00     0.164 A 
HETATM    8 CL9  UNL     1     -22.981  17.956  11.336  1.00 20.00    -0.081 Cl
HETATM    9  N7  UNL     1     -22.771  18.010   7.430  1.00 20.00    -0.183 NA
ENDBRANCH   3   4
TORSDOF 1
ENDMDL
MODEL 3
REMARK VINA RESULT:      -3.9     16.135     16.891
REMARK  1 active torsions:
REMARK  status: ('A' for Active; 'I' for Inactive)
REMARK    1  A    between atoms: C6_6  and  N8_8 
ROOT
HETATM    1  C1  UNL     1     -27.132  18.456  12.090  1.00 20.00     0.014 C 
HETATM    2  C2  UNL     1     -26.237  17.660  12.175  1.00 20.00    -0.096 C 
HETATM    3  C6  UNL     1     -25.147  16.686  12.280  1.00 20.00     0.243 C 
ENDROOT
BRANCH   3   4
HETATM    4  N8  UNL     1     -24.043  17.015  11.412  1.00 20.00    -0.269 N 
HETATM    5  C4  UNL     1     -23.937  16.715  10.085  1.00 20.00     0.138 A 
HETATM    6  C5  UNL     1     -22.726  17.221   9.681  1.00 20.00     0.070 A 
HETATM    7  C3  UNL     1     -22.184  17.805  10.841  1.00 20.00     0.164 A 
HETATM    8 CL9  UNL     1     -22.019  17.172   8.147  1.00 20.00    -0.081 Cl
HETATM    9  N7  UNL     1     -22.984  17.682  11.903  1.00 20.00    -0.183 NA
ENDBRANCH   3   4
TORSDOF 1
ENDMDL
MODEL 4
REMARK VINA RESULT:      -3.9     11.746     12.202
REMARK  1 active torsions:
REMARK  status: ('A' for Active; 'I' for Inactive)
REMARK    1  A    between atoms: C6_6  and  N8_8 
ROOT
HETATM    1  C1  UNL     1     -33.398  16.216  -2.953  1.00 20.00     0.014 C 
HETATM    2  C2  UNL     1     -32.926  17.247  -2.559  1.00 20.00    -0.096 C 
HETATM    3  C6  UNL     1     -32.351  18.508  -2.081  1.00 20.00     0.243 C 
ENDROOT
BRANCH   3   4
HETATM    4  N8  UNL     1     -31.946  18.427  -0.699  1.00 20.00    -0.269 N 
HETATM    5  C4  UNL     1     -32.772  18.393   0.387  1.00 20.00     0.138 A 
HETATM    6  C5  UNL     1     -31.948  18.318   1.483  1.00 20.00     0.070 A 
HETATM    7  C3  UNL     1     -30.647  18.312   0.946  1.00 20.00     0.164 A 
HETATM    8 CL9  UNL     1     -32.368  18.245   3.118  1.00 20.00    -0.081 Cl
HETATM    9  N7  UNL     1     -30.640  18.380  -0.388  1.00 20.00    -0.183 NA
ENDBRANCH   3   4
TORSDOF 1
ENDMDL
MODEL 5
REMARK VINA RESULT:      -3.9     11.206     11.880
REMARK  1 active torsions:
REMARK  status: ('A' for Active; 'I' for Inactive)
REMARK    1  A    between atoms: C6_6  and  N8_8 
ROOT
HETATM    1  C1  UNL     1     -30.952  18.264   0.445  1.00 20.00     0.014 C 
HETATM    2  C2  UNL     1     -31.525  18.373  -0.604  1.00 20.00    -0.096 C 
HETATM    3  C6  UNL     1     -32.223  18.508  -1.886  1.00 20.00     0.243 C 
ENDROOT
BRANCH   3   4
HETATM    4  N8  UNL     1     -33.182  17.451  -2.093  1.00 20.00    -0.269 N 
HETATM    5  C4  UNL     1     -33.117  16.471  -3.041  1.00 20.00     0.138 A 
HETATM    6  C5  UNL     1     -34.239  15.700  -2.860  1.00 20.00     0.070 A 
HETATM    7  C3  UNL     1     -34.910  16.301  -1.779  1.00 20.00     0.164 A 
HETATM    8 CL9  UNL     1     -34.730  14.331  -3.722  1.00 20.00    -0.081 Cl
HETATM    9  N7  UNL     1     -34.269  17.373  -1.306  1.00 20.00    -0.183 NA
ENDBRANCH   3   4
TORSDOF 1
ENDMDL
MODEL 6
REMARK VINA RESULT:      -3.8     10.748     11.247
REMARK  1 active torsions:
REMARK  status: ('A' for Active; 'I' for Inactive)
REMARK    1  A    between atoms: C6_6  and  N8_8 
ROOT
HETATM    1  C1  UNL     1     -33.402  17.350  -1.893  1.00 20.00     0.014 C 
HETATM    2  C2  UNL     1     -33.376  16.493  -2.733  1.00 20.00    -0.096 C 
HETATM    3  C6  UNL     1     -33.341  15.448  -3.760  1.00 20.00     0.243 C 
ENDROOT
BRANCH   3   4
HETATM    4  N8  UNL     1     -34.644  14.870  -3.987  1.00 20.00    -0.269 N 
HETATM    5  C4  UNL     1     -35.845  15.505  -3.862  1.00 20.00     0.138 A 
HETATM    6  C5  UNL     1     -36.799  14.567  -4.175  1.00 20.00     0.070 A 
HETATM    7  C3  UNL     1     -36.065  13.404  -4.474  1.00 20.00     0.164 A 
HETATM    8 CL9  UNL     1     -38.480  14.739  -4.205  1.00 20.00    -0.081 Cl
HETATM    9  N7  UNL     1     -34.746  13.583  -4.360  1.00 20.00    -0.183 NA
ENDBRANCH   3   4
TORSDOF 1
ENDMDL
MODEL 7
REMARK VINA RESULT:      -3.8     11.029     11.433
REMARK  1 active torsions:
REMARK  status: ('A' for Active; 'I' for Inactive)
REMARK    1  A    between atoms: C6_6  and  N8_8 
ROOT
HETATM    1  C1  UNL     1     -38.465  15.008  -4.205  1.00 20.00     0.014 C 
HETATM    2  C2  UNL     1     -37.439  14.401  -4.349  1.00 20.00    -0.096 C 
HETATM    3  C6  UNL     1     -36.189  13.657  -4.526  1.00 20.00     0.243 C 
ENDROOT
BRANCH   3   4
HETATM    4  N8  UNL     1     -35.040  14.429  -4.120  1.00 20.00    -0.269 N 
HETATM    5  C4  UNL     1     -35.014  15.407  -3.169  1.00 20.00     0.138 A 
HETATM    6  C5  UNL     1     -33.716  15.856  -3.127  1.00 20.00     0.070 A 
HETATM    7  C3  UNL     1     -33.044  15.082  -4.091  1.00 20.00     0.164 A 
HETATM    8 CL9  UNL     1     -33.046  17.061  -2.150  1.00 20.00    -0.081 Cl
HETATM    9  N7  UNL     1     -33.849  14.208  -4.703  1.00 20.00    -0.183 NA
ENDBRANCH   3   4
TORSDOF 1
ENDMDL
MODEL 8
REMARK VINA RESULT:      -3.8     15.228     16.020
REMARK  1 active torsions:
REMARK  status: ('A' for Active; 'I' for Inactive)
REMARK    1  A    between atoms: C6_6  and  N8_8 
ROOT
HETATM    1  C1  UNL     1     -22.072  17.018   8.574  1.00 20.00     0.014 C 
HETATM    2  C2  UNL     1     -22.759  18.001   8.612  1.00 20.00    -0.096 C 
HETATM    3  C6  UNL     1     -23.596  19.203   8.662  1.00 20.00     0.243 C 
ENDROOT
BRANCH   3   4
HETATM    4  N8  UNL     1     -24.580  19.221   7.608  1.00 20.00    -0.269 N 
HETATM    5  C4  UNL     1     -25.936  19.231   7.764  1.00 20.00     0.138 A 
HETATM    6  C5  UNL     1     -26.459  19.245   6.494  1.00 20.00     0.070 A 
HETATM    7  C3  UNL     1     -25.334  19.242   5.649  1.00 20.00     0.164 A 
HETATM    8 CL9  UNL     1     -28.082  19.263   6.020  1.00 20.00    -0.081 Cl
HETATM    9  N7  UNL     1     -24.182  19.227   6.324  1.00 20.00    -0.183 NA
ENDBRANCH   3   4
TORSDOF 1
ENDMDL
MODEL 9
REMARK VINA RESULT:      -3.7     11.332     12.000
REMARK  1 active torsions:
REMARK  status: ('A' for Active; 'I' for Inactive)
REMARK    1  A    between atoms: C6_6  and  N8_8 
ROOT
HETATM    1  C1  UNL     1     -33.537  15.536  -3.464  1.00 20.00     0.014 C 
HETATM    2  C2  UNL     1     -34.441  14.820  -3.797  1.00 20.00    -0.096 C 
HETATM    3  C6  UNL     1     -35.542  13.943  -4.205  1.00 20.00     0.243 C 
ENDROOT
BRANCH   3   4
HETATM    4  N8  UNL     1     -36.814  14.621  -4.169  1.00 20.00    -0.269 N 
HETATM    5  C4  UNL     1     -37.016  15.958  -3.983  1.00 20.00     0.138 A 
HETATM    6  C5  UNL     1     -38.377  16.141  -4.023  1.00 20.00     0.070 A 
HETATM    7  C3  UNL     1     -38.900  14.852  -4.238  1.00 20.00     0.164 A 
HETATM    8 CL9  UNL     1     -39.255  17.575  -3.857  1.00 20.00    -0.081 Cl
HETATM    9  N7  UNL     1     -37.949  13.918  -4.328  1.00 20.00    -0.183 NA
ENDBRANCH   3   4
TORSDOF 1
ENDMDL
