MODEL 1
REMARK VINA RESULT:      -4.3      0.000      0.000
REMARK  3 active torsions:
REMARK  status: ('A' for Active; 'I' for Inactive)
REMARK    1  A    between atoms: C6_6  and  N11_11 
REMARK    2  A    between atoms: C8_8  and  C9_9 
REMARK    3  A    between atoms: C9_9  and  N11_11 
ROOT
HETATM    1  C1  UNL     1     -37.666  14.997  -4.710  1.00 20.00     0.060 C 
HETATM    2  C8  UNL     1     -37.094  16.254  -5.213  1.00 20.00     0.153 C 
HETATM    3  N10 UNL     1     -38.119  14.005  -4.313  1.00 20.00    -0.197 NA
ENDROOT
BRANCH   2   4
HETATM    4  C9  UNL     1     -35.586  16.152  -5.419  1.00 20.00     0.284 C 
BRANCH   4   5
HETATM    5  N11 UNL     1     -34.871  16.888  -4.390  1.00 20.00     0.093 N 
HETATM    6  H27 UNL     1     -34.185  17.501  -4.822  1.00 20.00     0.316 HD
BRANCH   5   7
HETATM    7  C6  UNL     1     -34.182  15.975  -3.497  1.00 20.00     0.154 C 
HETATM    8  C4  UNL     1     -35.033  15.691  -2.255  1.00 20.00     0.041 C 
HETATM    9  C2  UNL     1     -34.847  16.919  -1.367  1.00 20.00     0.003 C 
HETATM   10  C3  UNL     1     -33.510  17.538  -1.771  1.00 20.00     0.003 C 
HETATM   11  C5  UNL     1     -32.951  16.651  -2.883  1.00 20.00     0.041 C 
HETATM   12  C7  UNL     1     -33.824  14.703  -4.257  1.00 20.00     0.049 C 
ENDBRANCH   5   7
ENDBRANCH   4   5
ENDBRANCH   2   4
TORSDOF 3
ENDMDL
MODEL 2
REMARK VINA RESULT:      -4.2      1.545      2.279
REMARK  3 active torsions:
REMARK  status: ('A' for Active; 'I' for Inactive)
REMARK    1  A    between atoms: C6_6  and  N11_11 
REMARK    2  A    between atoms: C8_8  and  C9_9 
REMARK    3  A    between atoms: C9_9  and  N11_11 
ROOT
HETATM    1  C1  UNL     1     -36.206  13.795  -4.347  1.00 20.00     0.060 C 
HETATM    2  C8  UNL     1     -34.756  13.790  -4.101  1.00 20.00     0.153 C 
HETATM    3  N10 UNL     1     -37.349  13.797  -4.539  1.00 20.00    -0.197 NA
ENDROOT
BRANCH   2   4
HETATM    4  C9  UNL     1     -34.039  14.873  -4.900  1.00 20.00     0.284 C 
BRANCH   4   5
HETATM    5  N11 UNL     1     -33.239  15.716  -4.029  1.00 20.00     0.093 N 
HETATM    6  H27 UNL     1     -33.171  15.291  -3.108  1.00 20.00     0.316 HD
BRANCH   5   7
HETATM    7  C6  UNL     1     -33.846  17.027  -3.891  1.00 20.00     0.154 C 
HETATM    8  C4  UNL     1     -32.840  18.030  -3.317  1.00 20.00     0.041 C 
HETATM    9  C2  UNL     1     -32.808  17.735  -1.819  1.00 20.00     0.003 C 
HETATM   10  C3  UNL     1     -34.147  17.077  -1.487  1.00 20.00     0.003 C 
HETATM   11  C5  UNL     1     -34.924  17.009  -2.801  1.00 20.00     0.041 C 
HETATM   12  C7  UNL     1     -34.398  17.470  -5.242  1.00 20.00     0.049 C 
ENDBRANCH   5   7
ENDBRANCH   4   5
ENDBRANCH   2   4
TORSDOF 3
ENDMDL
MODEL 3
REMARK VINA RESULT:      -4.2      1.570      2.587
REMARK  3 active torsions:
REMARK  status: ('A' for Active; 'I' for Inactive)
REMARK    1  A    between atoms: C6_6  and  N11_11 
REMARK    2  A    between atoms: C8_8  and  C9_9 
REMARK    3  A    between atoms: C9_9  and  N11_11 
ROOT
HETATM    1  C1  UNL     1     -36.718  13.731  -4.542  1.00 20.00     0.060 C 
HETATM    2  C8  UNL     1     -37.763  14.764  -4.539  1.00 20.00     0.153 C 
HETATM    3  N10 UNL     1     -35.894  12.914  -4.545  1.00 20.00    -0.197 NA
ENDROOT
BRANCH   2   4
HETATM    4  C9  UNL     1     -37.335  16.007  -3.765  1.00 20.00     0.284 C 
BRANCH   4   5
HETATM    5  N11 UNL     1     -36.209  15.713  -2.895  1.00 20.00     0.093 N 
HETATM    6  H27 UNL     1     -36.534  15.609  -1.938  1.00 20.00     0.316 HD
BRANCH   5   7
HETATM    7  C6  UNL     1     -35.236  16.789  -2.941  1.00 20.00     0.154 C 
HETATM    8  C4  UNL     1     -34.950  17.195  -4.391  1.00 20.00     0.041 C 
HETATM    9  C2  UNL     1     -33.995  16.124  -4.913  1.00 20.00     0.003 C 
HETATM   10  C3  UNL     1     -33.297  15.541  -3.685  1.00 20.00     0.003 C 
HETATM   11  C5  UNL     1     -33.862  16.291  -2.480  1.00 20.00     0.041 C 
HETATM   12  C7  UNL     1     -35.739  17.958  -2.101  1.00 20.00     0.049 C 
ENDBRANCH   5   7
ENDBRANCH   4   5
ENDBRANCH   2   4
TORSDOF 3
ENDMDL
MODEL 4
REMARK VINA RESULT:      -4.1      1.531      2.147
REMARK  3 active torsions:
REMARK  status: ('A' for Active; 'I' for Inactive)
REMARK    1  A    between atoms: C6_6  and  N11_11 
REMARK    2  A    between atoms: C8_8  and  C9_9 
REMARK    3  A    between atoms: C9_9  and  N11_11 
ROOT
HETATM    1  C1  UNL     1     -37.008  14.194  -4.557  1.00 20.00     0.060 C 
HETATM    2  C8  UNL     1     -35.588  14.326  -4.913  1.00 20.00     0.153 C 
HETATM    3  N10 UNL     1     -38.130  14.090  -4.279  1.00 20.00    -0.197 NA
ENDROOT
BRANCH   2   4
HETATM    4  C9  UNL     1     -34.712  14.556  -3.686  1.00 20.00     0.284 C 
BRANCH   4   5
HETATM    5  N11 UNL     1     -35.417  15.337  -2.684  1.00 20.00     0.093 N 
HETATM    6  H27 UNL     1     -36.362  15.529  -3.003  1.00 20.00     0.316 HD
BRANCH   5   7
HETATM    7  C6  UNL     1     -34.739  16.600  -2.454  1.00 20.00     0.154 C 
HETATM    8  C4  UNL     1     -34.933  17.059  -1.005  1.00 20.00     0.041 C 
HETATM    9  C2  UNL     1     -36.341  17.650  -0.970  1.00 20.00     0.003 C 
HETATM   10  C3  UNL     1     -36.658  18.078  -2.402  1.00 20.00     0.003 C 
HETATM   11  C5  UNL     1     -35.424  17.728  -3.232  1.00 20.00     0.041 C 
HETATM   12  C7  UNL     1     -33.266  16.455  -2.822  1.00 20.00     0.049 C 
ENDBRANCH   5   7
ENDBRANCH   4   5
ENDBRANCH   2   4
TORSDOF 3
ENDMDL
MODEL 5
REMARK VINA RESULT:      -4.1      1.531      2.405
REMARK  3 active torsions:
REMARK  status: ('A' for Active; 'I' for Inactive)
REMARK    1  A    between atoms: C6_6  and  N11_11 
REMARK    2  A    between atoms: C8_8  and  C9_9 
REMARK    3  A    between atoms: C9_9  and  N11_11 
ROOT
HETATM    1  C1  UNL     1     -36.662  13.731  -4.515  1.00 20.00     0.060 C 
HETATM    2  C8  UNL     1     -37.755  14.709  -4.411  1.00 20.00     0.153 C 
HETATM    3  N10 UNL     1     -35.802  12.957  -4.597  1.00 20.00    -0.197 NA
ENDROOT
BRANCH   2   4
HETATM    4  C9  UNL     1     -37.295  16.117  -4.774  1.00 20.00     0.284 C 
BRANCH   4   5
HETATM    5  N11 UNL     1     -35.851  16.169  -4.924  1.00 20.00     0.093 N 
HETATM    6  H27 UNL     1     -35.444  15.289  -4.621  1.00 20.00     0.316 HD
BRANCH   5   7
HETATM    7  C6  UNL     1     -35.294  17.241  -4.119  1.00 20.00     0.154 C 
HETATM    8  C4  UNL     1     -33.771  17.104  -4.020  1.00 20.00     0.041 C 
HETATM    9  C2  UNL     1     -33.546  16.014  -2.974  1.00 20.00     0.003 C 
HETATM   10  C3  UNL     1     -34.797  16.002  -2.096  1.00 20.00     0.003 C 
HETATM   11  C5  UNL     1     -35.717  17.088  -2.654  1.00 20.00     0.041 C 
HETATM   12  C7  UNL     1     -35.717  18.583  -4.705  1.00 20.00     0.049 C 
ENDBRANCH   5   7
ENDBRANCH   4   5
ENDBRANCH   2   4
TORSDOF 3
ENDMDL
MODEL 6
REMARK VINA RESULT:      -4.1      1.620      1.937
REMARK  3 active torsions:
REMARK  status: ('A' for Active; 'I' for Inactive)
REMARK    1  A    between atoms: C6_6  and  N11_11 
REMARK    2  A    between atoms: C8_8  and  C9_9 
REMARK    3  A    between atoms: C9_9  and  N11_11 
ROOT
HETATM    1  C1  UNL     1     -36.339  16.039  -6.480  1.00 20.00     0.060 C 
HETATM    2  C8  UNL     1     -35.408  15.089  -7.106  1.00 20.00     0.153 C 
HETATM    3  N10 UNL     1     -37.076  16.788  -5.987  1.00 20.00    -0.197 NA
ENDROOT
BRANCH   2   4
HETATM    4  C9  UNL     1     -34.045  15.093  -6.423  1.00 20.00     0.284 C 
BRANCH   4   5
HETATM    5  N11 UNL     1     -34.022  16.033  -5.316  1.00 20.00     0.093 N 
HETATM    6  H27 UNL     1     -33.371  16.786  -5.519  1.00 20.00     0.316 HD
BRANCH   5   7
HETATM    7  C6  UNL     1     -33.600  15.371  -4.094  1.00 20.00     0.154 C 
HETATM    8  C4  UNL     1     -34.810  14.810  -3.340  1.00 20.00     0.041 C 
HETATM    9  C2  UNL     1     -35.424  16.019  -2.637  1.00 20.00     0.003 C 
HETATM   10  C3  UNL     1     -34.295  17.037  -2.478  1.00 20.00     0.003 C 
HETATM   11  C5  UNL     1     -33.053  16.392  -3.091  1.00 20.00     0.041 C 
HETATM   12  C7  UNL     1     -32.580  14.290  -4.435  1.00 20.00     0.049 C 
ENDBRANCH   5   7
ENDBRANCH   4   5
ENDBRANCH   2   4
TORSDOF 3
ENDMDL
MODEL 7
REMARK VINA RESULT:      -4.1      2.128      4.829
REMARK  3 active torsions:
REMARK  status: ('A' for Active; 'I' for Inactive)
REMARK    1  A    between atoms: C6_6  and  N11_11 
REMARK    2  A    between atoms: C8_8  and  C9_9 
REMARK    3  A    between atoms: C9_9  and  N11_11 
ROOT
HETATM    1  C1  UNL     1     -31.822  18.097  -0.961  1.00 20.00     0.060 C 
HETATM    2  C8  UNL     1     -33.153  17.681  -1.426  1.00 20.00     0.153 C 
HETATM    3  N10 UNL     1     -30.773  18.426  -0.592  1.00 20.00    -0.197 NA
ENDROOT
BRANCH   2   4
HETATM    4  C9  UNL     1     -33.074  16.805  -2.672  1.00 20.00     0.284 C 
BRANCH   4   5
HETATM    5  N11 UNL     1     -34.138  15.815  -2.678  1.00 20.00     0.093 N 
HETATM    6  H27 UNL     1     -33.967  15.125  -1.952  1.00 20.00     0.316 HD
BRANCH   5   7
HETATM    7  C6  UNL     1     -34.195  15.138  -3.960  1.00 20.00     0.154 C 
HETATM    8  C4  UNL     1     -34.817  16.049  -5.024  1.00 20.00     0.041 C 
HETATM    9  C2  UNL     1     -36.320  15.980  -4.764  1.00 20.00     0.003 C 
HETATM   10  C3  UNL     1     -36.567  14.652  -4.049  1.00 20.00     0.003 C 
HETATM   11  C5  UNL     1     -35.201  13.982  -3.913  1.00 20.00     0.041 C 
HETATM   12  C7  UNL     1     -32.796  14.670  -4.346  1.00 20.00     0.049 C 
ENDBRANCH   5   7
ENDBRANCH   4   5
ENDBRANCH   2   4
TORSDOF 3
ENDMDL
MODEL 8
REMARK VINA RESULT:      -4.1     11.184     13.061
REMARK  3 active torsions:
REMARK  status: ('A' for Active; 'I' for Inactive)
REMARK    1  A    between atoms: C6_6  and  N11_11 
REMARK    2  A    between atoms: C8_8  and  C9_9 
REMARK    3  A    between atoms: C9_9  and  N11_11 
ROOT
HETATM    1  C1  UNL     1     -42.210   3.110  -3.237  1.00 20.00     0.060 C 
HETATM    2  C8  UNL     1     -43.039   3.837  -2.265  1.00 20.00     0.153 C 
HETATM    3  N10 UNL     1     -41.557   2.536  -4.004  1.00 20.00    -0.197 NA
ENDROOT
BRANCH   2   4
HETATM    4  C9  UNL     1     -42.244   4.905  -1.522  1.00 20.00     0.284 C 
BRANCH   4   5
HETATM    5  N11 UNL     1     -43.125   5.928  -0.985  1.00 20.00     0.093 N 
HETATM    6  H27 UNL     1     -43.116   6.741  -1.594  1.00 20.00     0.316 HD
BRANCH   5   7
HETATM    7  C6  UNL     1     -42.687   6.333   0.339  1.00 20.00     0.154 C 
HETATM    8  C4  UNL     1     -43.417   7.605   0.782  1.00 20.00     0.041 C 
HETATM    9  C2  UNL     1     -42.703   8.739   0.048  1.00 20.00     0.003 C 
HETATM   10  C3  UNL     1     -41.298   8.225  -0.263  1.00 20.00     0.003 C 
HETATM   11  C5  UNL     1     -41.230   6.807   0.301  1.00 20.00     0.041 C 
HETATM   12  C7  UNL     1     -42.894   5.178   1.313  1.00 20.00     0.049 C 
ENDBRANCH   5   7
ENDBRANCH   4   5
ENDBRANCH   2   4
TORSDOF 3
ENDMDL
MODEL 9
REMARK VINA RESULT:      -4.1      1.288      2.595
REMARK  3 active torsions:
REMARK  status: ('A' for Active; 'I' for Inactive)
REMARK    1  A    between atoms: C6_6  and  N11_11 
REMARK    2  A    between atoms: C8_8  and  C9_9 
REMARK    3  A    between atoms: C9_9  and  N11_11 
ROOT
HETATM    1  C1  UNL     1     -38.060  15.062  -4.195  1.00 20.00     0.060 C 
HETATM    2  C8  UNL     1     -38.095  16.503  -3.908  1.00 20.00     0.153 C 
HETATM    3  N10 UNL     1     -38.035  13.925  -4.423  1.00 20.00    -0.197 NA
ENDROOT
BRANCH   2   4
HETATM    4  C9  UNL     1     -36.864  16.960  -3.131  1.00 20.00     0.284 C 
BRANCH   4   5
HETATM    5  N11 UNL     1     -35.944  15.855  -2.921  1.00 20.00     0.093 N 
HETATM    6  H27 UNL     1     -35.997  15.545  -1.955  1.00 20.00     0.316 HD
BRANCH   5   7
HETATM    7  C6  UNL     1     -34.582  16.266  -3.204  1.00 20.00     0.154 C 
HETATM    8  C4  UNL     1     -34.540  17.187  -4.428  1.00 20.00     0.041 C 
HETATM    9  C2  UNL     1     -34.651  16.246  -5.626  1.00 20.00     0.003 C 
HETATM   10  C3  UNL     1     -34.144  14.887  -5.147  1.00 20.00     0.003 C 
HETATM   11  C5  UNL     1     -33.748  15.073  -3.683  1.00 20.00     0.041 C 
HETATM   12  C7  UNL     1     -33.987  16.925  -1.964  1.00 20.00     0.049 C 
ENDBRANCH   5   7
ENDBRANCH   4   5
ENDBRANCH   2   4
TORSDOF 3
ENDMDL
