MODEL 1
REMARK VINA RESULT:      -5.9      0.000      0.000
REMARK  1 active torsions:
REMARK  status: ('A' for Active; 'I' for Inactive)
REMARK    1  A    between atoms: C7_7  and  C8_8 
ROOT
HETATM    1  C1  UNL     1     -32.590   8.212   0.846  1.00 20.00     0.012 C 
HETATM    2  C2  UNL     1     -32.513   7.642   1.900  1.00 20.00    -0.117 C 
HETATM    3  C8  UNL     1     -32.418   6.945   3.191  1.00 20.00     0.105 C 
ENDROOT
BRANCH   3   4
HETATM    4  C7  UNL     1     -33.787   6.573   3.722  1.00 20.00     0.066 C 
HETATM    5  C3  UNL     1     -33.856   6.575   5.235  1.00 20.00     0.132 C 
HETATM    6  C4  UNL     1     -34.579   5.364   5.770  1.00 20.00     0.079 C 
HETATM    7  O9  UNL     1     -33.383   7.451   5.948  1.00 20.00    -0.298 OA
HETATM    8  C5  UNL     1     -35.175   4.766   4.502  1.00 20.00     0.008 C 
HETATM    9  C6  UNL     1     -34.179   5.127   3.407  1.00 20.00     0.013 C 
ENDBRANCH   3   4
TORSDOF 1
ENDMDL
MODEL 2
REMARK VINA RESULT:      -5.0      1.686      2.093
REMARK  1 active torsions:
REMARK  status: ('A' for Active; 'I' for Inactive)
REMARK    1  A    between atoms: C7_7  and  C8_8 
ROOT
HETATM    1  C1  UNL     1     -32.445   8.190   1.452  1.00 20.00     0.012 C 
HETATM    2  C2  UNL     1     -32.847   7.138   1.870  1.00 20.00    -0.117 C 
HETATM    3  C8  UNL     1     -33.340   5.851   2.380  1.00 20.00     0.105 C 
ENDROOT
BRANCH   3   4
HETATM    4  C7  UNL     1     -33.256   5.787   3.892  1.00 20.00     0.066 C 
HETATM    5  C3  UNL     1     -34.223   4.790   4.496  1.00 20.00     0.132 C 
HETATM    6  C4  UNL     1     -34.936   5.352   5.701  1.00 20.00     0.079 C 
HETATM    7  O9  UNL     1     -34.411   3.659   4.065  1.00 20.00    -0.298 OA
HETATM    8  C5  UNL     1     -34.162   6.639   5.954  1.00 20.00     0.008 C 
HETATM    9  C6  UNL     1     -33.701   7.084   4.571  1.00 20.00     0.013 C 
ENDBRANCH   3   4
TORSDOF 1
ENDMDL
MODEL 3
REMARK VINA RESULT:      -4.4     11.034     11.853
REMARK  1 active torsions:
REMARK  status: ('A' for Active; 'I' for Inactive)
REMARK    1  A    between atoms: C7_7  and  C8_8 
ROOT
HETATM    1  C1  UNL     1     -32.810  17.890  -1.547  1.00 20.00     0.012 C 
HETATM    2  C2  UNL     1     -33.025  17.047  -2.374  1.00 20.00    -0.117 C 
HETATM    3  C8  UNL     1     -33.286  16.014  -3.386  1.00 20.00     0.105 C 
ENDROOT
BRANCH   3   4
HETATM    4  C7  UNL     1     -34.606  15.313  -3.134  1.00 20.00     0.066 C 
HETATM    5  C3  UNL     1     -34.757  14.032  -3.927  1.00 20.00     0.132 C 
HETATM    6  C4  UNL     1     -36.122  13.915  -4.559  1.00 20.00     0.079 C 
HETATM    7  O9  UNL     1     -33.880  13.185  -4.048  1.00 20.00    -0.298 OA
HETATM    8  C5  UNL     1     -36.878  15.057  -3.893  1.00 20.00     0.008 C 
HETATM    9  C6  UNL     1     -35.812  16.115  -3.630  1.00 20.00     0.013 C 
ENDBRANCH   3   4
TORSDOF 1
ENDMDL
MODEL 4
REMARK VINA RESULT:      -4.4     11.315     12.133
REMARK  1 active torsions:
REMARK  status: ('A' for Active; 'I' for Inactive)
REMARK    1  A    between atoms: C7_7  and  C8_8 
ROOT
HETATM    1  C1  UNL     1     -33.796  15.129  -7.062  1.00 20.00     0.012 C 
HETATM    2  C2  UNL     1     -33.701  14.879  -5.892  1.00 20.00    -0.117 C 
HETATM    3  C8  UNL     1     -33.585  14.574  -4.459  1.00 20.00     0.105 C 
ENDROOT
BRANCH   3   4
HETATM    4  C7  UNL     1     -34.913  14.734  -3.748  1.00 20.00     0.066 C 
HETATM    5  C3  UNL     1     -35.982  13.798  -4.272  1.00 20.00     0.132 C 
HETATM    6  C4  UNL     1     -37.302  14.500  -4.471  1.00 20.00     0.079 C 
HETATM    7  O9  UNL     1     -35.805  12.609  -4.509  1.00 20.00    -0.298 OA
HETATM    8  C5  UNL     1     -37.051  15.842  -3.794  1.00 20.00     0.008 C 
HETATM    9  C6  UNL     1     -35.563  16.098  -3.997  1.00 20.00     0.013 C 
ENDBRANCH   3   4
TORSDOF 1
ENDMDL
MODEL 5
REMARK VINA RESULT:      -4.2     11.642     12.372
REMARK  1 active torsions:
REMARK  status: ('A' for Active; 'I' for Inactive)
REMARK    1  A    between atoms: C7_7  and  C8_8 
ROOT
HETATM    1  C1  UNL     1     -38.964  14.984  -4.254  1.00 20.00     0.012 C 
HETATM    2  C2  UNL     1     -37.829  14.595  -4.292  1.00 20.00    -0.117 C 
HETATM    3  C8  UNL     1     -36.439  14.118  -4.340  1.00 20.00     0.105 C 
ENDROOT
BRANCH   3   4
HETATM    4  C7  UNL     1     -35.456  15.258  -4.161  1.00 20.00     0.066 C 
HETATM    5  C3  UNL     1     -34.100  14.970  -4.769  1.00 20.00     0.132 C 
HETATM    6  C4  UNL     1     -32.972  15.367  -3.849  1.00 20.00     0.079 C 
HETATM    7  O9  UNL     1     -33.928  14.473  -5.875  1.00 20.00    -0.298 OA
HETATM    8  C5  UNL     1     -33.706  16.150  -2.769  1.00 20.00     0.008 C 
HETATM    9  C6  UNL     1     -35.083  15.501  -2.697  1.00 20.00     0.013 C 
ENDBRANCH   3   4
TORSDOF 1
ENDMDL
MODEL 6
REMARK VINA RESULT:      -4.2     11.462     12.437
REMARK  1 active torsions:
REMARK  status: ('A' for Active; 'I' for Inactive)
REMARK    1  A    between atoms: C7_7  and  C8_8 
ROOT
HETATM    1  C1  UNL     1     -34.981  16.589  -1.483  1.00 20.00     0.012 C 
HETATM    2  C2  UNL     1     -34.235  16.208  -2.343  1.00 20.00    -0.117 C 
HETATM    3  C8  UNL     1     -33.321  15.743  -3.396  1.00 20.00     0.105 C 
ENDROOT
BRANCH   3   4
HETATM    4  C7  UNL     1     -34.055  14.938  -4.450  1.00 20.00     0.066 C 
HETATM    5  C3  UNL     1     -34.930  15.791  -5.343  1.00 20.00     0.132 C 
HETATM    6  C4  UNL     1     -36.288  15.171  -5.562  1.00 20.00     0.079 C 
HETATM    7  O9  UNL     1     -34.586  16.858  -5.834  1.00 20.00    -0.298 OA
HETATM    8  C5  UNL     1     -36.099  13.778  -4.975  1.00 20.00     0.008 C 
HETATM    9  C6  UNL     1     -35.083  13.972  -3.856  1.00 20.00     0.013 C 
ENDBRANCH   3   4
TORSDOF 1
ENDMDL
MODEL 7
REMARK VINA RESULT:      -4.1     11.311     11.961
REMARK  1 active torsions:
REMARK  status: ('A' for Active; 'I' for Inactive)
REMARK    1  A    between atoms: C7_7  and  C8_8 
ROOT
HETATM    1  C1  UNL     1     -35.557  17.387   0.810  1.00 20.00     0.012 C 
HETATM    2  C2  UNL     1     -35.561  17.250  -0.383  1.00 20.00    -0.117 C 
HETATM    3  C8  UNL     1     -35.565  17.084  -1.843  1.00 20.00     0.105 C 
ENDROOT
BRANCH   3   4
HETATM    4  C7  UNL     1     -34.839  15.821  -2.259  1.00 20.00     0.066 C 
HETATM    5  C3  UNL     1     -33.518  16.096  -2.946  1.00 20.00     0.132 C 
HETATM    6  C4  UNL     1     -33.332  15.243  -4.177  1.00 20.00     0.079 C 
HETATM    7  O9  UNL     1     -32.693  16.913  -2.558  1.00 20.00    -0.298 OA
HETATM    8  C5  UNL     1     -34.482  14.252  -4.052  1.00 20.00     0.008 C 
HETATM    9  C6  UNL     1     -35.581  15.034  -3.342  1.00 20.00     0.013 C 
ENDBRANCH   3   4
TORSDOF 1
ENDMDL
MODEL 8
REMARK VINA RESULT:      -4.1     15.453     16.050
REMARK  1 active torsions:
REMARK  status: ('A' for Active; 'I' for Inactive)
REMARK    1  A    between atoms: C7_7  and  C8_8 
ROOT
HETATM    1  C1  UNL     1     -21.521  17.816   8.954  1.00 20.00     0.012 C 
HETATM    2  C2  UNL     1     -22.509  17.305   9.407  1.00 20.00    -0.117 C 
HETATM    3  C8  UNL     1     -23.717  16.679   9.961  1.00 20.00     0.105 C 
ENDROOT
BRANCH   3   4
HETATM    4  C7  UNL     1     -24.266  17.473  11.130  1.00 20.00     0.066 C 
HETATM    5  C3  UNL     1     -25.245  16.683  11.973  1.00 20.00     0.132 C 
HETATM    6  C4  UNL     1     -26.469  17.493  12.325  1.00 20.00     0.079 C 
HETATM    7  O9  UNL     1     -25.073  15.525  12.332  1.00 20.00    -0.298 OA
HETATM    8  C5  UNL     1     -26.063  18.891  11.878  1.00 20.00     0.008 C 
HETATM    9  C6  UNL     1     -25.133  18.656  10.694  1.00 20.00     0.013 C 
ENDBRANCH   3   4
TORSDOF 1
ENDMDL
MODEL 9
REMARK VINA RESULT:      -4.1     15.488     16.366
REMARK  1 active torsions:
REMARK  status: ('A' for Active; 'I' for Inactive)
REMARK    1  A    between atoms: C7_7  and  C8_8 
ROOT
HETATM    1  C1  UNL     1     -25.378  19.240   6.258  1.00 20.00     0.012 C 
HETATM    2  C2  UNL     1     -25.278  19.250   7.454  1.00 20.00    -0.117 C 
HETATM    3  C8  UNL     1     -25.155  19.263   8.919  1.00 20.00     0.105 C 
ENDROOT
BRANCH   3   4
HETATM    4  C7  UNL     1     -24.210  18.183   9.405  1.00 20.00     0.066 C 
HETATM    5  C3  UNL     1     -24.360  17.887  10.882  1.00 20.00     0.132 C 
HETATM    6  C4  UNL     1     -23.025  17.770  11.575  1.00 20.00     0.079 C 
HETATM    7  O9  UNL     1     -25.434  17.756  11.457  1.00 20.00    -0.298 OA
HETATM    8  C5  UNL     1     -22.059  17.747  10.397  1.00 20.00     0.008 C 
HETATM    9  C6  UNL     1     -22.739  18.599   9.332  1.00 20.00     0.013 C 
ENDBRANCH   3   4
TORSDOF 1
ENDMDL
