MODEL 1
REMARK VINA RESULT:      -4.0      0.000      0.000
REMARK  4 active torsions:
REMARK  status: ('A' for Active; 'I' for Inactive)
REMARK    1  A    between atoms: C6_6  and  N10_10 
REMARK    2  A    between atoms: C7_7  and  C8_8 
REMARK    3  A    between atoms: C7_7  and  C9_9 
REMARK    4  A    between atoms: C8_8  and  N10_10 
ROOT
HETATM    1  C1  UNL     1     -34.792   5.025   6.176  1.00 20.00     0.013 C 
HETATM    2  C2  UNL     1     -34.483   5.797   5.311  1.00 20.00    -0.087 C 
HETATM    3  C6  UNL     1     -34.108   6.744   4.256  1.00 20.00     0.364 C 
ENDROOT
BRANCH   3   4
HETATM    4  N10 UNL     1     -32.928   6.263   3.521  1.00 20.00     0.095 N 
HETATM    5  C5  UNL     1     -33.333   5.197   2.590  1.00 20.00     0.310 C 
BRANCH   4   6
HETATM    6  C8  UNL     1     -32.264   7.335   2.834  1.00 20.00     0.273 C 
BRANCH   6   7
HETATM    7  C7  UNL     1     -32.479   7.282   1.324  1.00 20.00     0.034 C 
BRANCH   7   8
HETATM    8  C9  UNL     1     -32.584   8.656   0.630  1.00 20.00    -0.021 C 
HETATM    9  C3  UNL     1     -33.166   9.683   1.605  1.00 20.00     0.009 C 
HETATM   10  C4  UNL     1     -33.437   8.607  -0.637  1.00 20.00     0.009 C 
ENDBRANCH   7   8
ENDBRANCH   6   7
ENDBRANCH   4   6
ENDBRANCH   3   4
TORSDOF 4
ENDMDL
MODEL 2
REMARK VINA RESULT:      -3.8     10.705     11.465
REMARK  4 active torsions:
REMARK  status: ('A' for Active; 'I' for Inactive)
REMARK    1  A    between atoms: C6_6  and  N10_10 
REMARK    2  A    between atoms: C7_7  and  C8_8 
REMARK    3  A    between atoms: C7_7  and  C9_9 
REMARK    4  A    between atoms: C8_8  and  N10_10 
ROOT
HETATM    1  C1  UNL     1     -38.338  14.959  -4.194  1.00 20.00     0.013 C 
HETATM    2  C2  UNL     1     -37.313  14.383  -4.435  1.00 20.00    -0.087 C 
HETATM    3  C6  UNL     1     -36.063  13.676  -4.728  1.00 20.00     0.364 C 
ENDROOT
BRANCH   3   4
HETATM    4  N10 UNL     1     -35.144  14.537  -5.489  1.00 20.00     0.095 N 
HETATM    5  C5  UNL     1     -35.733  14.839  -6.804  1.00 20.00     0.310 C 
BRANCH   4   6
HETATM    6  C8  UNL     1     -34.832  15.739  -4.767  1.00 20.00     0.273 C 
BRANCH   6   7
HETATM    7  C7  UNL     1     -33.571  15.601  -3.920  1.00 20.00     0.034 C 
BRANCH   7   8
HETATM    8  C9  UNL     1     -33.667  16.199  -2.502  1.00 20.00    -0.021 C 
HETATM    9  C3  UNL     1     -35.125  16.188  -2.035  1.00 20.00     0.009 C 
HETATM   10  C4  UNL     1     -33.114  17.623  -2.430  1.00 20.00     0.009 C 
ENDBRANCH   7   8
ENDBRANCH   6   7
ENDBRANCH   4   6
ENDBRANCH   3   4
TORSDOF 4
ENDMDL
MODEL 3
REMARK VINA RESULT:      -3.8     10.540     11.478
REMARK  4 active torsions:
REMARK  status: ('A' for Active; 'I' for Inactive)
REMARK    1  A    between atoms: C6_6  and  N10_10 
REMARK    2  A    between atoms: C7_7  and  C8_8 
REMARK    3  A    between atoms: C7_7  and  C9_9 
REMARK    4  A    between atoms: C8_8  and  N10_10 
ROOT
HETATM    1  C1  UNL     1     -31.222  18.319  -0.308  1.00 20.00     0.013 C 
HETATM    2  C2  UNL     1     -32.409  18.493  -0.264  1.00 20.00    -0.087 C 
HETATM    3  C6  UNL     1     -33.857  18.710  -0.211  1.00 20.00     0.364 C 
ENDROOT
BRANCH   3   4
HETATM    4  N10 UNL     1     -34.577  17.429  -0.270  1.00 20.00     0.095 N 
HETATM    5  C5  UNL     1     -35.554  17.366   0.829  1.00 20.00     0.310 C 
BRANCH   4   6
HETATM    6  C8  UNL     1     -35.211  17.241  -1.546  1.00 20.00     0.273 C 
BRANCH   6   7
HETATM    7  C7  UNL     1     -34.769  15.952  -2.233  1.00 20.00     0.034 C 
BRANCH   7   8
HETATM    8  C9  UNL     1     -33.451  16.053  -3.026  1.00 20.00    -0.021 C 
HETATM    9  C3  UNL     1     -33.356  17.426  -3.697  1.00 20.00     0.009 C 
HETATM   10  C4  UNL     1     -33.318  14.954  -4.081  1.00 20.00     0.009 C 
ENDBRANCH   7   8
ENDBRANCH   6   7
ENDBRANCH   4   6
ENDBRANCH   3   4
TORSDOF 4
ENDMDL
MODEL 4
REMARK VINA RESULT:      -3.8      1.116      4.931
REMARK  4 active torsions:
REMARK  status: ('A' for Active; 'I' for Inactive)
REMARK    1  A    between atoms: C6_6  and  N10_10 
REMARK    2  A    between atoms: C7_7  and  C8_8 
REMARK    3  A    between atoms: C7_7  and  C9_9 
REMARK    4  A    between atoms: C8_8  and  N10_10 
ROOT
HETATM    1  C1  UNL     1     -33.147   8.539  -0.640  1.00 20.00     0.013 C 
HETATM    2  C2  UNL     1     -33.004   8.538   0.552  1.00 20.00    -0.087 C 
HETATM    3  C6  UNL     1     -32.832   8.541   2.007  1.00 20.00     0.364 C 
ENDROOT
BRANCH   3   4
HETATM    4  N10 UNL     1     -32.247   7.271   2.464  1.00 20.00     0.095 N 
HETATM    5  C5  UNL     1     -31.458   7.507   3.685  1.00 20.00     0.310 C 
BRANCH   4   6
HETATM    6  C8  UNL     1     -33.258   6.273   2.678  1.00 20.00     0.273 C 
BRANCH   6   7
HETATM    7  C7  UNL     1     -34.118   6.567   3.904  1.00 20.00     0.034 C 
BRANCH   7   8
HETATM    8  C9  UNL     1     -34.805   5.337   4.530  1.00 20.00    -0.021 C 
HETATM    9  C3  UNL     1     -34.642   5.374   6.052  1.00 20.00     0.009 C 
HETATM   10  C4  UNL     1     -34.253   4.019   3.985  1.00 20.00     0.009 C 
ENDBRANCH   7   8
ENDBRANCH   6   7
ENDBRANCH   4   6
ENDBRANCH   3   4
TORSDOF 4
ENDMDL
MODEL 5
REMARK VINA RESULT:      -3.8      0.926      4.985
REMARK  4 active torsions:
REMARK  status: ('A' for Active; 'I' for Inactive)
REMARK    1  A    between atoms: C6_6  and  N10_10 
REMARK    2  A    between atoms: C7_7  and  C8_8 
REMARK    3  A    between atoms: C7_7  and  C9_9 
REMARK    4  A    between atoms: C8_8  and  N10_10 
ROOT
HETATM    1  C1  UNL     1     -32.909   9.015   0.242  1.00 20.00     0.013 C 
HETATM    2  C2  UNL     1     -32.612   8.159   1.029  1.00 20.00    -0.087 C 
HETATM    3  C6  UNL     1     -32.247   7.115   1.991  1.00 20.00     0.364 C 
ENDROOT
BRANCH   3   4
HETATM    4  N10 UNL     1     -33.422   6.309   2.355  1.00 20.00     0.095 N 
HETATM    5  C5  UNL     1     -33.018   4.903   2.522  1.00 20.00     0.310 C 
BRANCH   4   6
HETATM    6  C8  UNL     1     -34.060   6.815   3.539  1.00 20.00     0.273 C 
BRANCH   6   7
HETATM    7  C7  UNL     1     -34.902   5.756   4.246  1.00 20.00     0.034 C 
BRANCH   7   8
HETATM    8  C9  UNL     1     -34.754   5.723   5.781  1.00 20.00    -0.021 C 
HETATM    9  C3  UNL     1     -33.947   6.938   6.248  1.00 20.00     0.009 C 
HETATM   10  C4  UNL     1     -34.087   4.440   6.276  1.00 20.00     0.009 C 
ENDBRANCH   7   8
ENDBRANCH   6   7
ENDBRANCH   4   6
ENDBRANCH   3   4
TORSDOF 4
ENDMDL
MODEL 6
REMARK VINA RESULT:      -3.8     10.359     11.508
REMARK  4 active torsions:
REMARK  status: ('A' for Active; 'I' for Inactive)
REMARK    1  A    between atoms: C6_6  and  N10_10 
REMARK    2  A    between atoms: C7_7  and  C8_8 
REMARK    3  A    between atoms: C7_7  and  C9_9 
REMARK    4  A    between atoms: C8_8  and  N10_10 
ROOT
HETATM    1  C1  UNL     1     -30.727  18.457   0.598  1.00 20.00     0.013 C 
HETATM    2  C2  UNL     1     -31.363  18.434  -0.419  1.00 20.00    -0.087 C 
HETATM    3  C6  UNL     1     -32.137  18.409  -1.664  1.00 20.00     0.364 C 
ENDROOT
BRANCH   3   4
HETATM    4  N10 UNL     1     -33.264  17.470  -1.556  1.00 20.00     0.095 N 
HETATM    5  C5  UNL     1     -34.516  18.226  -1.383  1.00 20.00     0.310 C 
BRANCH   4   6
HETATM    6  C8  UNL     1     -33.332  16.597  -2.695  1.00 20.00     0.273 C 
BRANCH   6   7
HETATM    7  C7  UNL     1     -34.606  15.757  -2.711  1.00 20.00     0.034 C 
BRANCH   7   8
HETATM    8  C9  UNL     1     -34.549  14.503  -3.608  1.00 20.00    -0.021 C 
HETATM    9  C3  UNL     1     -33.318  14.573  -4.516  1.00 20.00     0.009 C 
HETATM   10  C4  UNL     1     -35.809  14.336  -4.459  1.00 20.00     0.009 C 
ENDBRANCH   7   8
ENDBRANCH   6   7
ENDBRANCH   4   6
ENDBRANCH   3   4
TORSDOF 4
ENDMDL
MODEL 7
REMARK VINA RESULT:      -3.7      9.627     10.311
REMARK  4 active torsions:
REMARK  status: ('A' for Active; 'I' for Inactive)
REMARK    1  A    between atoms: C6_6  and  N10_10 
REMARK    2  A    between atoms: C7_7  and  C8_8 
REMARK    3  A    between atoms: C7_7  and  C9_9 
REMARK    4  A    between atoms: C8_8  and  N10_10 
ROOT
HETATM    1  C1  UNL     1     -42.322   2.880  -3.246  1.00 20.00     0.013 C 
HETATM    2  C2  UNL     1     -42.747   3.712  -2.494  1.00 20.00    -0.087 C 
HETATM    3  C6  UNL     1     -43.271   4.729  -1.577  1.00 20.00     0.364 C 
ENDROOT
BRANCH   3   4
HETATM    4  N10 UNL     1     -42.299   5.018  -0.511  1.00 20.00     0.095 N 
HETATM    5  C5  UNL     1     -41.036   5.476  -1.113  1.00 20.00     0.310 C 
BRANCH   4   6
HETATM    6  C8  UNL     1     -42.814   5.981   0.422  1.00 20.00     0.273 C 
BRANCH   6   7
HETATM    7  C7  UNL     1     -41.841   7.129   0.673  1.00 20.00     0.034 C 
BRANCH   7   8
HETATM    8  C9  UNL     1     -42.424   8.540   0.451  1.00 20.00    -0.021 C 
HETATM    9  C3  UNL     1     -43.344   8.531  -0.773  1.00 20.00     0.009 C 
HETATM   10  C4  UNL     1     -41.337   9.600   0.271  1.00 20.00     0.009 C 
ENDBRANCH   7   8
ENDBRANCH   6   7
ENDBRANCH   4   6
ENDBRANCH   3   4
TORSDOF 4
ENDMDL
MODEL 8
REMARK VINA RESULT:      -3.7     10.326     11.320
REMARK  4 active torsions:
REMARK  status: ('A' for Active; 'I' for Inactive)
REMARK    1  A    between atoms: C6_6  and  N10_10 
REMARK    2  A    between atoms: C7_7  and  C8_8 
REMARK    3  A    between atoms: C7_7  and  C9_9 
REMARK    4  A    between atoms: C8_8  and  N10_10 
ROOT
HETATM    1  C1  UNL     1     -37.342  14.634  -4.213  1.00 20.00     0.013 C 
HETATM    2  C2  UNL     1     -36.177  14.350  -4.161  1.00 20.00    -0.087 C 
HETATM    3  C6  UNL     1     -34.755  14.001  -4.096  1.00 20.00     0.364 C 
ENDROOT
BRANCH   3   4
HETATM    4  N10 UNL     1     -33.946  14.968  -4.854  1.00 20.00     0.095 N 
HETATM    5  C5  UNL     1     -34.360  14.949  -6.267  1.00 20.00     0.310 C 
BRANCH   4   6
HETATM    6  C8  UNL     1     -34.046  16.288  -4.297  1.00 20.00     0.273 C 
BRANCH   6   7
HETATM    7  C7  UNL     1     -33.387  16.393  -2.924  1.00 20.00     0.034 C 
BRANCH   7   8
HETATM    8  C9  UNL     1     -34.075  17.363  -1.942  1.00 20.00    -0.021 C 
HETATM    9  C3  UNL     1     -33.033  17.961  -0.992  1.00 20.00     0.009 C 
HETATM   10  C4  UNL     1     -35.182  16.687  -1.133  1.00 20.00     0.009 C 
ENDBRANCH   7   8
ENDBRANCH   6   7
ENDBRANCH   4   6
ENDBRANCH   3   4
TORSDOF 4
ENDMDL
MODEL 9
REMARK VINA RESULT:      -3.6     10.658     11.998
REMARK  4 active torsions:
REMARK  status: ('A' for Active; 'I' for Inactive)
REMARK    1  A    between atoms: C6_6  and  N10_10 
REMARK    2  A    between atoms: C7_7  and  C8_8 
REMARK    3  A    between atoms: C7_7  and  C9_9 
REMARK    4  A    between atoms: C8_8  and  N10_10 
ROOT
HETATM    1  C1  UNL     1     -36.511  17.687  -4.912  1.00 20.00     0.013 C 
HETATM    2  C2  UNL     1     -36.511  16.519  -5.189  1.00 20.00    -0.087 C 
HETATM    3  C6  UNL     1     -36.516  15.094  -5.530  1.00 20.00     0.364 C 
ENDROOT
BRANCH   3   4
HETATM    4  N10 UNL     1     -35.169  14.520  -5.385  1.00 20.00     0.095 N 
HETATM    5  C5  UNL     1     -34.239  15.220  -6.286  1.00 20.00     0.310 C 
BRANCH   4   6
HETATM    6  C8  UNL     1     -34.719  14.576  -4.022  1.00 20.00     0.273 C 
BRANCH   6   7
HETATM    7  C7  UNL     1     -33.359  15.255  -3.883  1.00 20.00     0.034 C 
BRANCH   7   8
HETATM    8  C9  UNL     1     -33.291  16.369  -2.818  1.00 20.00    -0.021 C 
HETATM    9  C3  UNL     1     -34.581  16.374  -1.993  1.00 20.00     0.009 C 
HETATM   10  C4  UNL     1     -33.067  17.751  -3.432  1.00 20.00     0.009 C 
ENDBRANCH   7   8
ENDBRANCH   6   7
ENDBRANCH   4   6
ENDBRANCH   3   4
TORSDOF 4
ENDMDL
