MODEL 1
REMARK VINA RESULT:      -5.7      0.000      0.000
REMARK  3 active torsions:
REMARK  status: ('A' for Active; 'I' for Inactive)
REMARK    1  A    between atoms: C5_5  and  C8_8 
REMARK    2  A    between atoms: C8_8  and  C9_9 
REMARK    3  A    between atoms: C9_9  and  C10_10 
ROOT
HETATM    1  C1  UNL     1     -34.389   4.966   4.482  1.00 20.00     0.131 C 
HETATM    2  C2  UNL     1     -34.455   5.083   5.983  1.00 20.00     0.079 C 
HETATM    3  C3  UNL     1     -34.355   6.590   6.187  1.00 20.00     0.008 C 
HETATM    4  C4  UNL     1     -33.494   7.073   5.028  1.00 20.00     0.013 C 
HETATM    5  C5  UNL     1     -34.006   6.277   3.826  1.00 20.00     0.055 C 
HETATM    6  O11 UNL     1     -34.619   3.928   3.872  1.00 20.00    -0.298 OA
ENDROOT
BRANCH   5   7
HETATM    7  C8  UNL     1     -32.964   6.113   2.738  1.00 20.00     0.012 C 
BRANCH   7   8
HETATM    8  C9  UNL     1     -32.321   7.454   2.374  1.00 20.00     0.005 C 
BRANCH   8   9
HETATM    9  C10 UNL     1     -32.807   8.021   1.027  1.00 20.00    -0.023 C 
HETATM   10  C6  UNL     1     -31.767   7.740  -0.059  1.00 20.00     0.009 C 
HETATM   11  C7  UNL     1     -33.090   9.523   1.094  1.00 20.00     0.009 C 
ENDBRANCH   8   9
ENDBRANCH   7   8
ENDBRANCH   5   7
TORSDOF 3
ENDMDL
MODEL 2
REMARK VINA RESULT:      -4.9      1.510      2.248
REMARK  3 active torsions:
REMARK  status: ('A' for Active; 'I' for Inactive)
REMARK    1  A    between atoms: C5_5  and  C8_8 
REMARK    2  A    between atoms: C8_8  and  C9_9 
REMARK    3  A    between atoms: C9_9  and  C10_10 
ROOT
HETATM    1  C1  UNL     1     -33.937   6.366   4.824  1.00 20.00     0.131 C 
HETATM    2  C2  UNL     1     -34.958   5.257   4.809  1.00 20.00     0.079 C 
HETATM    3  C3  UNL     1     -34.362   4.293   3.791  1.00 20.00     0.008 C 
HETATM    4  C4  UNL     1     -33.616   5.189   2.812  1.00 20.00     0.013 C 
HETATM    5  C5  UNL     1     -32.927   6.224   3.704  1.00 20.00     0.055 C 
HETATM    6  O11 UNL     1     -33.933   7.273   5.649  1.00 20.00    -0.298 OA
ENDROOT
BRANCH   5   7
HETATM    7  C8  UNL     1     -32.650   7.531   2.987  1.00 20.00     0.012 C 
BRANCH   7   8
HETATM    8  C9  UNL     1     -32.531   7.323   1.475  1.00 20.00     0.005 C 
BRANCH   8   9
HETATM    9  C10 UNL     1     -32.584   8.634   0.670  1.00 20.00    -0.023 C 
HETATM   10  C6  UNL     1     -33.138   9.760   1.546  1.00 20.00     0.009 C 
HETATM   11  C7  UNL     1     -33.428   8.507  -0.599  1.00 20.00     0.009 C 
ENDBRANCH   8   9
ENDBRANCH   7   8
ENDBRANCH   5   7
TORSDOF 3
ENDMDL
MODEL 3
REMARK VINA RESULT:      -4.8     11.105     12.117
REMARK  3 active torsions:
REMARK  status: ('A' for Active; 'I' for Inactive)
REMARK    1  A    between atoms: C5_5  and  C8_8 
REMARK    2  A    between atoms: C8_8  and  C9_9 
REMARK    3  A    between atoms: C9_9  and  C10_10 
ROOT
HETATM    1  C1  UNL     1     -36.354  13.898  -4.756  1.00 20.00     0.131 C 
HETATM    2  C2  UNL     1     -37.726  14.412  -4.398  1.00 20.00     0.079 C 
HETATM    3  C3  UNL     1     -37.807  15.693  -5.219  1.00 20.00     0.008 C 
HETATM    4  C4  UNL     1     -36.370  16.190  -5.289  1.00 20.00     0.013 C 
HETATM    5  C5  UNL     1     -35.548  14.922  -5.527  1.00 20.00     0.055 C 
HETATM    6  O11 UNL     1     -35.948  12.782  -4.453  1.00 20.00    -0.298 OA
ENDROOT
BRANCH   5   7
HETATM    7  C8  UNL     1     -34.119  15.042  -5.036  1.00 20.00     0.012 C 
BRANCH   7   8
HETATM    8  C9  UNL     1     -33.895  16.360  -4.290  1.00 20.00     0.005 C 
BRANCH   8   9
HETATM    9  C10 UNL     1     -33.626  16.175  -2.786  1.00 20.00    -0.023 C 
HETATM   10  C6  UNL     1     -34.951  16.018  -2.036  1.00 20.00     0.009 C 
HETATM   11  C7  UNL     1     -32.830  17.337  -2.188  1.00 20.00     0.009 C 
ENDBRANCH   8   9
ENDBRANCH   7   8
ENDBRANCH   5   7
TORSDOF 3
ENDMDL
MODEL 4
REMARK VINA RESULT:      -4.6     15.340     16.637
REMARK  3 active torsions:
REMARK  status: ('A' for Active; 'I' for Inactive)
REMARK    1  A    between atoms: C5_5  and  C8_8 
REMARK    2  A    between atoms: C8_8  and  C9_9 
REMARK    3  A    between atoms: C9_9  and  C10_10 
ROOT
HETATM    1  C1  UNL     1     -24.016  18.766   7.362  1.00 20.00     0.131 C 
HETATM    2  C2  UNL     1     -25.443  18.652   6.889  1.00 20.00     0.079 C 
HETATM    3  C3  UNL     1     -26.212  19.261   8.055  1.00 20.00     0.008 C 
HETATM    4  C4  UNL     1     -25.371  18.927   9.279  1.00 20.00     0.013 C 
HETATM    5  C5  UNL     1     -23.932  19.167   8.820  1.00 20.00     0.055 C 
HETATM    6  O11 UNL     1     -23.046  18.556   6.644  1.00 20.00    -0.298 OA
ENDROOT
BRANCH   5   7
HETATM    7  C8  UNL     1     -22.918  18.353   9.600  1.00 20.00     0.012 C 
BRANCH   7   8
HETATM    8  C9  UNL     1     -23.499  17.003  10.029  1.00 20.00     0.005 C 
BRANCH   8   9
HETATM    9  C10 UNL     1     -23.362  16.728  11.538  1.00 20.00    -0.023 C 
HETATM   10  C6  UNL     1     -24.670  16.148  12.081  1.00 20.00     0.009 C 
HETATM   11  C7  UNL     1     -22.986  17.982  12.328  1.00 20.00     0.009 C 
ENDBRANCH   8   9
ENDBRANCH   7   8
ENDBRANCH   5   7
TORSDOF 3
ENDMDL
MODEL 5
REMARK VINA RESULT:      -4.6     10.939     12.151
REMARK  3 active torsions:
REMARK  status: ('A' for Active; 'I' for Inactive)
REMARK    1  A    between atoms: C5_5  and  C8_8 
REMARK    2  A    between atoms: C8_8  and  C9_9 
REMARK    3  A    between atoms: C9_9  and  C10_10 
ROOT
HETATM    1  C1  UNL     1     -33.686  14.833  -4.053  1.00 20.00     0.131 C 
HETATM    2  C2  UNL     1     -33.122  16.080  -3.422  1.00 20.00     0.079 C 
HETATM    3  C3  UNL     1     -34.092  16.319  -2.271  1.00 20.00     0.008 C 
HETATM    4  C4  UNL     1     -35.423  15.783  -2.780  1.00 20.00     0.013 C 
HETATM    5  C5  UNL     1     -35.052  14.484  -3.498  1.00 20.00     0.055 C 
HETATM    6  O11 UNL     1     -33.102  14.184  -4.913  1.00 20.00    -0.298 OA
ENDROOT
BRANCH   5   7
HETATM    7  C8  UNL     1     -36.047  14.097  -4.574  1.00 20.00     0.012 C 
BRANCH   7   8
HETATM    8  C9  UNL     1     -36.911  15.291  -4.989  1.00 20.00     0.005 C 
BRANCH   8   9
HETATM    9  C10 UNL     1     -36.509  15.897  -6.346  1.00 20.00    -0.023 C 
HETATM   10  C6  UNL     1     -35.726  14.867  -7.163  1.00 20.00     0.009 C 
HETATM   11  C7  UNL     1     -35.680  17.173  -6.193  1.00 20.00     0.009 C 
ENDBRANCH   8   9
ENDBRANCH   7   8
ENDBRANCH   5   7
TORSDOF 3
ENDMDL
MODEL 6
REMARK VINA RESULT:      -4.6      1.504      1.997
REMARK  3 active torsions:
REMARK  status: ('A' for Active; 'I' for Inactive)
REMARK    1  A    between atoms: C5_5  and  C8_8 
REMARK    2  A    between atoms: C8_8  and  C9_9 
REMARK    3  A    between atoms: C9_9  and  C10_10 
ROOT
HETATM    1  C1  UNL     1     -33.995   6.305   4.984  1.00 20.00     0.131 C 
HETATM    2  C2  UNL     1     -35.034   5.217   4.889  1.00 20.00     0.079 C 
HETATM    3  C3  UNL     1     -34.453   4.319   3.803  1.00 20.00     0.008 C 
HETATM    4  C4  UNL     1     -33.691   5.272   2.892  1.00 20.00     0.013 C 
HETATM    5  C5  UNL     1     -32.987   6.228   3.856  1.00 20.00     0.055 C 
HETATM    6  O11 UNL     1     -33.977   7.150   5.873  1.00 20.00    -0.298 OA
ENDROOT
BRANCH   5   7
HETATM    7  C8  UNL     1     -32.687   7.579   3.237  1.00 20.00     0.012 C 
BRANCH   7   8
HETATM    8  C9  UNL     1     -32.408   7.454   1.737  1.00 20.00     0.005 C 
BRANCH   8   9
HETATM    9  C10 UNL     1     -33.236   8.426   0.876  1.00 20.00    -0.023 C 
HETATM   10  C6  UNL     1     -33.076   8.073  -0.605  1.00 20.00     0.009 C 
HETATM   11  C7  UNL     1     -32.845   9.886   1.103  1.00 20.00     0.009 C 
ENDBRANCH   8   9
ENDBRANCH   7   8
ENDBRANCH   5   7
TORSDOF 3
ENDMDL
MODEL 7
REMARK VINA RESULT:      -4.6     11.019     12.100
REMARK  3 active torsions:
REMARK  status: ('A' for Active; 'I' for Inactive)
REMARK    1  A    between atoms: C5_5  and  C8_8 
REMARK    2  A    between atoms: C8_8  and  C9_9 
REMARK    3  A    between atoms: C9_9  and  C10_10 
ROOT
HETATM    1  C1  UNL     1     -35.980  14.235  -4.763  1.00 20.00     0.131 C 
HETATM    2  C2  UNL     1     -35.871  14.524  -6.239  1.00 20.00     0.079 C 
HETATM    3  C3  UNL     1     -34.396  14.881  -6.382  1.00 20.00     0.008 C 
HETATM    4  C4  UNL     1     -34.030  15.520  -5.050  1.00 20.00     0.013 C 
HETATM    5  C5  UNL     1     -34.731  14.644  -4.010  1.00 20.00     0.055 C 
HETATM    6  O11 UNL     1     -36.968  13.729  -4.243  1.00 20.00    -0.298 OA
ENDROOT
BRANCH   5   7
HETATM    7  C8  UNL     1     -35.033  15.382  -2.721  1.00 20.00     0.012 C 
BRANCH   7   8
HETATM    8  C9  UNL     1     -33.910  16.359  -2.363  1.00 20.00     0.005 C 
BRANCH   8   9
HETATM    9  C10 UNL     1     -34.365  17.503  -1.438  1.00 20.00    -0.023 C 
HETATM   10  C6  UNL     1     -33.148  18.136  -0.758  1.00 20.00     0.009 C 
HETATM   11  C7  UNL     1     -35.362  17.035  -0.377  1.00 20.00     0.009 C 
ENDBRANCH   8   9
ENDBRANCH   7   8
ENDBRANCH   5   7
TORSDOF 3
ENDMDL
MODEL 8
REMARK VINA RESULT:      -4.5     11.485     12.398
REMARK  3 active torsions:
REMARK  status: ('A' for Active; 'I' for Inactive)
REMARK    1  A    between atoms: C5_5  and  C8_8 
REMARK    2  A    between atoms: C8_8  and  C9_9 
REMARK    3  A    between atoms: C9_9  and  C10_10 
ROOT
HETATM    1  C1  UNL     1     -31.450  18.402  -0.026  1.00 20.00     0.131 C 
HETATM    2  C2  UNL     1     -31.850  18.942   1.324  1.00 20.00     0.079 C 
HETATM    3  C3  UNL     1     -33.334  18.602   1.373  1.00 20.00     0.008 C 
HETATM    4  C4  UNL     1     -33.787  18.672  -0.079  1.00 20.00     0.013 C 
HETATM    5  C5  UNL     1     -32.652  18.003  -0.857  1.00 20.00     0.055 C 
HETATM    6  O11 UNL     1     -30.286  18.304  -0.399  1.00 20.00    -0.298 OA
ENDROOT
BRANCH   5   7
HETATM    7  C8  UNL     1     -32.561  18.475  -2.294  1.00 20.00     0.012 C 
BRANCH   7   8
HETATM    8  C9  UNL     1     -33.489  17.667  -3.206  1.00 20.00     0.005 C 
BRANCH   8   9
HETATM    9  C10 UNL     1     -33.614  16.188  -2.798  1.00 20.00    -0.023 C 
HETATM   10  C6  UNL     1     -33.131  15.291  -3.940  1.00 20.00     0.009 C 
HETATM   11  C7  UNL     1     -35.044  15.807  -2.412  1.00 20.00     0.009 C 
ENDBRANCH   8   9
ENDBRANCH   7   8
ENDBRANCH   5   7
TORSDOF 3
ENDMDL
MODEL 9
REMARK VINA RESULT:      -4.5     10.917     11.892
REMARK  3 active torsions:
REMARK  status: ('A' for Active; 'I' for Inactive)
REMARK    1  A    between atoms: C5_5  and  C8_8 
REMARK    2  A    between atoms: C8_8  and  C9_9 
REMARK    3  A    between atoms: C9_9  and  C10_10 
ROOT
HETATM    1  C1  UNL     1     -35.070  13.939  -4.371  1.00 20.00     0.131 C 
HETATM    2  C2  UNL     1     -36.508  13.944  -4.823  1.00 20.00     0.079 C 
HETATM    3  C3  UNL     1     -36.616  15.295  -5.519  1.00 20.00     0.008 C 
HETATM    4  C4  UNL     1     -35.639  16.188  -4.766  1.00 20.00     0.013 C 
HETATM    5  C5  UNL     1     -34.417  15.295  -4.538  1.00 20.00     0.055 C 
HETATM    6  O11 UNL     1     -34.504  12.949  -3.921  1.00 20.00    -0.298 OA
ENDROOT
BRANCH   5   7
HETATM    7  C8  UNL     1     -33.597  15.711  -3.333  1.00 20.00     0.012 C 
BRANCH   7   8
HETATM    8  C9  UNL     1     -34.494  16.110  -2.159  1.00 20.00     0.005 C 
BRANCH   8   9
HETATM    9  C10 UNL     1     -34.165  17.498  -1.580  1.00 20.00    -0.023 C 
HETATM   10  C6  UNL     1     -32.660  17.757  -1.675  1.00 20.00     0.009 C 
HETATM   11  C7  UNL     1     -34.624  17.650  -0.129  1.00 20.00     0.009 C 
ENDBRANCH   8   9
ENDBRANCH   7   8
ENDBRANCH   5   7
TORSDOF 3
ENDMDL
