MODEL 1
REMARK VINA RESULT:      -5.1      0.000      0.000
REMARK  3 active torsions:
REMARK  status: ('A' for Active; 'I' for Inactive)
REMARK    1  A    between atoms: C5_5  and  C8_8 
REMARK    2  A    between atoms: C8_8  and  C9_9 
REMARK    3  A    between atoms: C9_9  and  C10_10 
ROOT
HETATM    1  C1  UNL     1     -33.986   6.553   5.117  1.00 20.00     0.131 C 
HETATM    2  C2  UNL     1     -34.578   5.227   5.522  1.00 20.00     0.079 C 
HETATM    3  C3  UNL     1     -34.925   4.610   4.173  1.00 20.00     0.008 C 
HETATM    4  C4  UNL     1     -33.873   5.163   3.220  1.00 20.00     0.013 C 
HETATM    5  C5  UNL     1     -33.739   6.633   3.624  1.00 20.00     0.055 C 
HETATM    6  O11 UNL     1     -33.734   7.452   5.910  1.00 20.00    -0.298 OA
ENDROOT
BRANCH   5   7
HETATM    7  C8  UNL     1     -32.387   7.221   3.277  1.00 20.00     0.012 C 
BRANCH   7   8
HETATM    8  C9  UNL     1     -32.205   7.350   1.764  1.00 20.00     0.005 C 
BRANCH   8   9
HETATM    9  C10 UNL     1     -33.208   8.314   1.105  1.00 20.00    -0.023 C 
HETATM   10  C6  UNL     1     -33.203   8.112  -0.412  1.00 20.00     0.009 C 
HETATM   11  C7  UNL     1     -32.912   9.778   1.431  1.00 20.00     0.009 C 
ENDBRANCH   8   9
ENDBRANCH   7   8
ENDBRANCH   5   7
TORSDOF 3
ENDMDL
MODEL 2
REMARK VINA RESULT:      -4.9      1.475      1.895
REMARK  3 active torsions:
REMARK  status: ('A' for Active; 'I' for Inactive)
REMARK    1  A    between atoms: C5_5  and  C8_8 
REMARK    2  A    between atoms: C8_8  and  C9_9 
REMARK    3  A    between atoms: C9_9  and  C10_10 
ROOT
HETATM    1  C1  UNL     1     -34.220   4.885   4.327  1.00 20.00     0.131 C 
HETATM    2  C2  UNL     1     -34.940   5.320   5.578  1.00 20.00     0.079 C 
HETATM    3  C3  UNL     1     -34.141   6.549   5.993  1.00 20.00     0.008 C 
HETATM    4  C4  UNL     1     -33.646   7.142   4.679  1.00 20.00     0.013 C 
HETATM    5  C5  UNL     1     -33.221   5.923   3.857  1.00 20.00     0.055 C 
HETATM    6  O11 UNL     1     -34.428   3.819   3.762  1.00 20.00    -0.298 OA
ENDROOT
BRANCH   5   7
HETATM    7  C8  UNL     1     -33.278   6.168   2.363  1.00 20.00     0.012 C 
BRANCH   7   8
HETATM    8  C9  UNL     1     -32.484   7.415   1.970  1.00 20.00     0.005 C 
BRANCH   8   9
HETATM    9  C10 UNL     1     -33.251   8.359   1.027  1.00 20.00    -0.023 C 
HETATM   10  C6  UNL     1     -32.957   7.991  -0.428  1.00 20.00     0.009 C 
HETATM   11  C7  UNL     1     -32.908   9.830   1.266  1.00 20.00     0.009 C 
ENDBRANCH   8   9
ENDBRANCH   7   8
ENDBRANCH   5   7
TORSDOF 3
ENDMDL
MODEL 3
REMARK VINA RESULT:      -4.7     10.860     11.751
REMARK  3 active torsions:
REMARK  status: ('A' for Active; 'I' for Inactive)
REMARK    1  A    between atoms: C5_5  and  C8_8 
REMARK    2  A    between atoms: C8_8  and  C9_9 
REMARK    3  A    between atoms: C9_9  and  C10_10 
ROOT
HETATM    1  C1  UNL     1     -31.663  18.387  -0.081  1.00 20.00     0.131 C 
HETATM    2  C2  UNL     1     -31.782  18.404   1.422  1.00 20.00     0.079 C 
HETATM    3  C3  UNL     1     -33.261  18.713   1.619  1.00 20.00     0.008 C 
HETATM    4  C4  UNL     1     -33.945  18.081   0.412  1.00 20.00     0.013 C 
HETATM    5  C5  UNL     1     -33.018  18.416  -0.759  1.00 20.00     0.055 C 
HETATM    6  O11 UNL     1     -30.592  18.351  -0.675  1.00 20.00    -0.298 OA
ENDROOT
BRANCH   5   7
HETATM    7  C8  UNL     1     -33.130  17.428  -1.902  1.00 20.00     0.012 C 
BRANCH   7   8
HETATM    8  C9  UNL     1     -34.446  16.650  -1.842  1.00 20.00     0.005 C 
BRANCH   8   9
HETATM    9  C10 UNL     1     -34.491  15.445  -2.798  1.00 20.00    -0.023 C 
HETATM   10  C6  UNL     1     -33.326  15.522  -3.786  1.00 20.00     0.009 C 
HETATM   11  C7  UNL     1     -35.811  15.355  -3.564  1.00 20.00     0.009 C 
ENDBRANCH   8   9
ENDBRANCH   7   8
ENDBRANCH   5   7
TORSDOF 3
ENDMDL
MODEL 4
REMARK VINA RESULT:      -4.6     10.632     11.962
REMARK  3 active torsions:
REMARK  status: ('A' for Active; 'I' for Inactive)
REMARK    1  A    between atoms: C5_5  and  C8_8 
REMARK    2  A    between atoms: C8_8  and  C9_9 
REMARK    3  A    between atoms: C9_9  and  C10_10 
ROOT
HETATM    1  C1  UNL     1     -35.930  13.997  -4.959  1.00 20.00     0.131 C 
HETATM    2  C2  UNL     1     -35.918  14.367  -6.420  1.00 20.00     0.079 C 
HETATM    3  C3  UNL     1     -36.240  15.855  -6.374  1.00 20.00     0.008 C 
HETATM    4  C4  UNL     1     -35.642  16.332  -5.057  1.00 20.00     0.013 C 
HETATM    5  C5  UNL     1     -35.989  15.219  -4.065  1.00 20.00     0.055 C 
HETATM    6  O11 UNL     1     -35.893  12.842  -4.552  1.00 20.00    -0.298 OA
ENDROOT
BRANCH   5   7
HETATM    7  C8  UNL     1     -35.026  15.146  -2.898  1.00 20.00     0.012 C 
BRANCH   7   8
HETATM    8  C9  UNL     1     -33.664  15.742  -3.259  1.00 20.00     0.005 C 
BRANCH   8   9
HETATM    9  C10 UNL     1     -33.245  16.912  -2.350  1.00 20.00    -0.023 C 
HETATM   10  C6  UNL     1     -34.373  17.238  -1.370  1.00 20.00     0.009 C 
HETATM   11  C7  UNL     1     -32.873  18.165  -3.144  1.00 20.00     0.009 C 
ENDBRANCH   8   9
ENDBRANCH   7   8
ENDBRANCH   5   7
TORSDOF 3
ENDMDL
MODEL 5
REMARK VINA RESULT:      -4.4     10.989     11.865
REMARK  3 active torsions:
REMARK  status: ('A' for Active; 'I' for Inactive)
REMARK    1  A    between atoms: C5_5  and  C8_8 
REMARK    2  A    between atoms: C8_8  and  C9_9 
REMARK    3  A    between atoms: C9_9  and  C10_10 
ROOT
HETATM    1  C1  UNL     1     -34.519  14.646  -5.316  1.00 20.00     0.131 C 
HETATM    2  C2  UNL     1     -35.992  14.548  -5.621  1.00 20.00     0.079 C 
HETATM    3  C3  UNL     1     -36.590  14.330  -4.237  1.00 20.00     0.008 C 
HETATM    4  C4  UNL     1     -35.652  15.078  -3.298  1.00 20.00     0.013 C 
HETATM    5  C5  UNL     1     -34.254  14.752  -3.827  1.00 20.00     0.055 C 
HETATM    6  O11 UNL     1     -33.647  14.644  -6.176  1.00 20.00    -0.298 OA
ENDROOT
BRANCH   5   7
HETATM    7  C8  UNL     1     -33.228  15.811  -3.482  1.00 20.00     0.012 C 
BRANCH   7   8
HETATM    8  C9  UNL     1     -33.703  16.692  -2.325  1.00 20.00     0.005 C 
BRANCH   8   9
HETATM    9  C10 UNL     1     -32.663  17.738  -1.883  1.00 20.00    -0.023 C 
HETATM   10  C6  UNL     1     -33.016  18.265  -0.490  1.00 20.00     0.009 C 
HETATM   11  C7  UNL     1     -32.556  18.906  -2.864  1.00 20.00     0.009 C 
ENDBRANCH   8   9
ENDBRANCH   7   8
ENDBRANCH   5   7
TORSDOF 3
ENDMDL
MODEL 6
REMARK VINA RESULT:      -4.4     10.620     11.954
REMARK  3 active torsions:
REMARK  status: ('A' for Active; 'I' for Inactive)
REMARK    1  A    between atoms: C5_5  and  C8_8 
REMARK    2  A    between atoms: C8_8  and  C9_9 
REMARK    3  A    between atoms: C9_9  and  C10_10 
ROOT
HETATM    1  C1  UNL     1     -35.892  14.036  -4.999  1.00 20.00     0.131 C 
HETATM    2  C2  UNL     1     -35.825  14.378  -6.466  1.00 20.00     0.079 C 
HETATM    3  C3  UNL     1     -35.981  15.893  -6.447  1.00 20.00     0.008 C 
HETATM    4  C4  UNL     1     -35.347  16.323  -5.130  1.00 20.00     0.013 C 
HETATM    5  C5  UNL     1     -35.825  15.272  -4.125  1.00 20.00     0.055 C 
HETATM    6  O11 UNL     1     -35.988  12.891  -4.574  1.00 20.00    -0.298 OA
ENDROOT
BRANCH   5   7
HETATM    7  C8  UNL     1     -34.888  15.113  -2.945  1.00 20.00     0.012 C 
BRANCH   7   8
HETATM    8  C9  UNL     1     -33.843  16.230  -2.906  1.00 20.00     0.005 C 
BRANCH   8   9
HETATM    9  C10 UNL     1     -34.186  17.357  -1.915  1.00 20.00    -0.023 C 
HETATM   10  C6  UNL     1     -32.906  17.879  -1.259  1.00 20.00     0.009 C 
HETATM   11  C7  UNL     1     -35.171  16.906  -0.835  1.00 20.00     0.009 C 
ENDBRANCH   8   9
ENDBRANCH   7   8
ENDBRANCH   5   7
TORSDOF 3
ENDMDL
MODEL 7
REMARK VINA RESULT:      -4.3     10.916     11.648
REMARK  3 active torsions:
REMARK  status: ('A' for Active; 'I' for Inactive)
REMARK    1  A    between atoms: C5_5  and  C8_8 
REMARK    2  A    between atoms: C8_8  and  C9_9 
REMARK    3  A    between atoms: C9_9  and  C10_10 
ROOT
HETATM    1  C1  UNL     1     -33.313  17.556  -1.924  1.00 20.00     0.131 C 
HETATM    2  C2  UNL     1     -34.105  17.670  -0.646  1.00 20.00     0.079 C 
HETATM    3  C3  UNL     1     -35.412  16.982  -1.021  1.00 20.00     0.008 C 
HETATM    4  C4  UNL     1     -35.005  15.923  -2.038  1.00 20.00     0.013 C 
HETATM    5  C5  UNL     1     -33.978  16.631  -2.923  1.00 20.00     0.055 C 
HETATM    6  O11 UNL     1     -32.256  18.144  -2.120  1.00 20.00    -0.298 OA
ENDROOT
BRANCH   5   7
HETATM    7  C8  UNL     1     -33.005  15.675  -3.583  1.00 20.00     0.012 C 
BRANCH   7   8
HETATM    8  C9  UNL     1     -33.738  14.609  -4.401  1.00 20.00     0.005 C 
BRANCH   8   9
HETATM    9  C10 UNL     1     -34.560  15.188  -5.566  1.00 20.00    -0.023 C 
HETATM   10  C6  UNL     1     -35.919  14.489  -5.641  1.00 20.00     0.009 C 
HETATM   11  C7  UNL     1     -33.841  15.060  -6.910  1.00 20.00     0.009 C 
ENDBRANCH   8   9
ENDBRANCH   7   8
ENDBRANCH   5   7
TORSDOF 3
ENDMDL
MODEL 8
REMARK VINA RESULT:      -4.2     10.728     12.034
REMARK  3 active torsions:
REMARK  status: ('A' for Active; 'I' for Inactive)
REMARK    1  A    between atoms: C5_5  and  C8_8 
REMARK    2  A    between atoms: C8_8  and  C9_9 
REMARK    3  A    between atoms: C9_9  and  C10_10 
ROOT
HETATM    1  C1  UNL     1     -35.635  16.683  -3.032  1.00 20.00     0.131 C 
HETATM    2  C2  UNL     1     -35.070  18.070  -2.860  1.00 20.00     0.079 C 
HETATM    3  C3  UNL     1     -33.740  17.789  -2.172  1.00 20.00     0.008 C 
HETATM    4  C4  UNL     1     -33.316  16.427  -2.709  1.00 20.00     0.013 C 
HETATM    5  C5  UNL     1     -34.611  15.611  -2.719  1.00 20.00     0.055 C 
HETATM    6  O11 UNL     1     -36.786  16.459  -3.386  1.00 20.00    -0.298 OA
ENDROOT
BRANCH   5   7
HETATM    7  C8  UNL     1     -34.596  14.490  -3.738  1.00 20.00     0.012 C 
BRANCH   7   8
HETATM    8  C9  UNL     1     -33.648  14.803  -4.898  1.00 20.00     0.005 C 
BRANCH   8   9
HETATM    9  C10 UNL     1     -34.375  15.081  -6.226  1.00 20.00    -0.023 C 
HETATM   10  C6  UNL     1     -34.420  16.587  -6.489  1.00 20.00     0.009 C 
HETATM   11  C7  UNL     1     -35.794  14.512  -6.246  1.00 20.00     0.009 C 
ENDBRANCH   8   9
ENDBRANCH   7   8
ENDBRANCH   5   7
TORSDOF 3
ENDMDL
MODEL 9
REMARK VINA RESULT:      -4.2     10.743     11.887
REMARK  3 active torsions:
REMARK  status: ('A' for Active; 'I' for Inactive)
REMARK    1  A    between atoms: C5_5  and  C8_8 
REMARK    2  A    between atoms: C8_8  and  C9_9 
REMARK    3  A    between atoms: C9_9  and  C10_10 
ROOT
HETATM    1  C1  UNL     1     -34.838  15.704  -5.409  1.00 20.00     0.131 C 
HETATM    2  C2  UNL     1     -36.192  15.100  -5.683  1.00 20.00     0.079 C 
HETATM    3  C3  UNL     1     -36.084  13.750  -4.987  1.00 20.00     0.008 C 
HETATM    4  C4  UNL     1     -35.148  14.002  -3.812  1.00 20.00     0.013 C 
HETATM    5  C5  UNL     1     -34.053  14.899  -4.393  1.00 20.00     0.055 C 
HETATM    6  O11 UNL     1     -34.431  16.727  -5.946  1.00 20.00    -0.298 OA
ENDROOT
BRANCH   5   7
HETATM    7  C8  UNL     1     -33.379  15.762  -3.346  1.00 20.00     0.012 C 
BRANCH   7   8
HETATM    8  C9  UNL     1     -34.366  16.201  -2.263  1.00 20.00     0.005 C 
BRANCH   8   9
HETATM    9  C10 UNL     1     -34.037  17.574  -1.651  1.00 20.00    -0.023 C 
HETATM   10  C6  UNL     1     -32.529  17.824  -1.716  1.00 20.00     0.009 C 
HETATM   11  C7  UNL     1     -34.519  17.701  -0.205  1.00 20.00     0.009 C 
ENDBRANCH   8   9
ENDBRANCH   7   8
ENDBRANCH   5   7
TORSDOF 3
ENDMDL
