MODEL 1
REMARK VINA RESULT:      -4.2      0.000      0.000
REMARK  0 active torsions:
REMARK  status: ('A' for Active; 'I' for Inactive)
ROOT
HETATM    1  C1  UNL     1     -33.943  15.121  -4.892  1.00 20.00     0.225 C 
HETATM    2  C2  UNL     1     -34.396  16.647  -2.427  1.00 20.00     0.021 C 
HETATM    3  C3  UNL     1     -35.232  15.406  -2.705  1.00 20.00     0.020 C 
HETATM    4  C4  UNL     1     -32.998  16.438  -2.969  1.00 20.00     0.122 C 
HETATM    5  C5  UNL     1     -35.321  15.101  -4.212  1.00 20.00     0.034 C 
HETATM    6  C6  UNL     1     -36.196  16.144  -4.931  1.00 20.00     0.025 C 
HETATM    7  C7  UNL     1     -35.959  13.714  -4.397  1.00 20.00     0.025 C 
HETATM    8  N8  UNL     1     -32.977  15.925  -4.326  1.00 20.00    -0.360 N 
HETATM    9  O9  UNL     1     -33.741  14.526  -5.954  1.00 20.00    -0.273 OA
HETATM   10  H22 UNL     1     -32.184  16.180  -4.906  1.00 20.00     0.162 HD
ENDROOT
TORSDOF 0
ENDMDL
MODEL 2
REMARK VINA RESULT:      -4.1     17.039     18.084
REMARK  0 active torsions:
REMARK  status: ('A' for Active; 'I' for Inactive)
ROOT
HETATM    1  C1  UNL     1     -24.752  18.633   9.485  1.00 20.00     0.225 C 
HETATM    2  C2  UNL     1     -24.837  17.920  12.330  1.00 20.00     0.021 C 
HETATM    3  C3  UNL     1     -23.493  18.171  11.660  1.00 20.00     0.020 C 
HETATM    4  C4  UNL     1     -25.875  18.841  11.725  1.00 20.00     0.122 C 
HETATM    5  C5  UNL     1     -23.557  17.923  10.140  1.00 20.00     0.034 C 
HETATM    6  C6  UNL     1     -23.698  16.421   9.837  1.00 20.00     0.025 C 
HETATM    7  C7  UNL     1     -22.252  18.432   9.504  1.00 20.00     0.025 C 
HETATM    8  N8  UNL     1     -25.860  18.852  10.275  1.00 20.00    -0.360 N 
HETATM    9  O9  UNL     1     -24.760  18.899   8.280  1.00 20.00    -0.273 OA
HETATM   10  H22 UNL     1     -26.739  19.038   9.803  1.00 20.00     0.162 HD
ENDROOT
TORSDOF 0
ENDMDL
MODEL 3
REMARK VINA RESULT:      -4.1      1.538      2.873
REMARK  0 active torsions:
REMARK  status: ('A' for Active; 'I' for Inactive)
ROOT
HETATM    1  C1  UNL     1     -33.367  14.753  -4.918  1.00 20.00     0.225 C 
HETATM    2  C2  UNL     1     -35.703  15.315  -6.604  1.00 20.00     0.021 C 
HETATM    3  C3  UNL     1     -35.703  15.764  -5.150  1.00 20.00     0.020 C 
HETATM    4  C4  UNL     1     -34.297  15.419  -7.158  1.00 20.00     0.122 C 
HETATM    5  C5  UNL     1     -34.760  14.906  -4.285  1.00 20.00     0.034 C 
HETATM    6  C6  UNL     1     -35.330  13.488  -4.098  1.00 20.00     0.025 C 
HETATM    7  C7  UNL     1     -34.621  15.566  -2.903  1.00 20.00     0.025 C 
HETATM    8  N8  UNL     1     -33.292  14.833  -6.292  1.00 20.00    -0.360 N 
HETATM    9  O9  UNL     1     -32.379  14.470  -4.236  1.00 20.00    -0.273 OA
HETATM   10  H22 UNL     1     -32.464  14.449  -6.736  1.00 20.00     0.162 HD
ENDROOT
TORSDOF 0
ENDMDL
MODEL 4
REMARK VINA RESULT:      -4.0     11.376     12.662
REMARK  0 active torsions:
REMARK  status: ('A' for Active; 'I' for Inactive)
ROOT
HETATM    1  C1  UNL     1     -41.394   5.958  -0.269  1.00 20.00     0.225 C 
HETATM    2  C2  UNL     1     -43.411   6.472   1.801  1.00 20.00     0.021 C 
HETATM    3  C3  UNL     1     -43.417   7.302   0.526  1.00 20.00     0.020 C 
HETATM    4  C4  UNL     1     -42.969   5.060   1.475  1.00 20.00     0.122 C 
HETATM    5  C5  UNL     1     -42.025   7.353  -0.132  1.00 20.00     0.034 C 
HETATM    6  C6  UNL     1     -41.057   8.208   0.704  1.00 20.00     0.025 C 
HETATM    7  C7  UNL     1     -42.162   7.988  -1.527  1.00 20.00     0.025 C 
HETATM    8  N8  UNL     1     -41.776   5.006   0.653  1.00 20.00    -0.360 N 
HETATM    9  O9  UNL     1     -40.511   5.730  -1.099  1.00 20.00    -0.273 OA
HETATM   10  H22 UNL     1     -41.171   4.198   0.765  1.00 20.00     0.162 HD
ENDROOT
TORSDOF 0
ENDMDL
MODEL 5
REMARK VINA RESULT:      -4.0      2.166      3.318
REMARK  0 active torsions:
REMARK  status: ('A' for Active; 'I' for Inactive)
ROOT
HETATM    1  C1  UNL     1     -36.291  13.993  -4.409  1.00 20.00     0.225 C 
HETATM    2  C2  UNL     1     -37.209  16.752  -4.007  1.00 20.00     0.021 C 
HETATM    3  C3  UNL     1     -35.962  16.490  -4.839  1.00 20.00     0.020 C 
HETATM    4  C4  UNL     1     -38.197  15.624  -4.222  1.00 20.00     0.122 C 
HETATM    5  C5  UNL     1     -35.289  15.157  -4.460  1.00 20.00     0.034 C 
HETATM    6  C6  UNL     1     -34.633  15.252  -3.070  1.00 20.00     0.025 C 
HETATM    7  C7  UNL     1     -34.198  14.844  -5.498  1.00 20.00     0.025 C 
HETATM    8  N8  UNL     1     -37.600  14.307  -4.111  1.00 20.00    -0.360 N 
HETATM    9  O9  UNL     1     -35.923  12.822  -4.528  1.00 20.00    -0.273 OA
HETATM   10  H22 UNL     1     -38.197  13.553  -3.786  1.00 20.00     0.162 HD
ENDROOT
TORSDOF 0
ENDMDL
MODEL 6
REMARK VINA RESULT:      -4.0     17.899     18.564
REMARK  0 active torsions:
REMARK  status: ('A' for Active; 'I' for Inactive)
ROOT
HETATM    1  C1  UNL     1     -23.330  16.609   9.815  1.00 20.00     0.225 C 
HETATM    2  C2  UNL     1     -24.638  17.363  12.332  1.00 20.00     0.021 C 
HETATM    3  C3  UNL     1     -24.363  18.430  11.281  1.00 20.00     0.020 C 
HETATM    4  C4  UNL     1     -24.969  16.057  11.641  1.00 20.00     0.122 C 
HETATM    5  C5  UNL     1     -23.190  18.039  10.362  1.00 20.00     0.034 C 
HETATM    6  C6  UNL     1     -21.854  18.104  11.123  1.00 20.00     0.025 C 
HETATM    7  C7  UNL     1     -23.134  19.030   9.187  1.00 20.00     0.025 C 
HETATM    8  N8  UNL     1     -24.036  15.710  10.586  1.00 20.00    -0.360 N 
HETATM    9  O9  UNL     1     -22.751  16.255   8.784  1.00 20.00    -0.273 OA
HETATM   10  H22 UNL     1     -23.890  14.723  10.401  1.00 20.00     0.162 HD
ENDROOT
TORSDOF 0
ENDMDL
MODEL 7
REMARK VINA RESULT:      -4.0      1.920      3.122
REMARK  0 active torsions:
REMARK  status: ('A' for Active; 'I' for Inactive)
ROOT
HETATM    1  C1  UNL     1     -35.504  13.982  -4.442  1.00 20.00     0.225 C 
HETATM    2  C2  UNL     1     -36.118  16.775  -5.103  1.00 20.00     0.021 C 
HETATM    3  C3  UNL     1     -34.669  16.308  -5.092  1.00 20.00     0.020 C 
HETATM    4  C4  UNL     1     -37.002  15.645  -5.589  1.00 20.00     0.122 C 
HETATM    5  C5  UNL     1     -34.468  15.086  -4.176  1.00 20.00     0.034 C 
HETATM    6  C6  UNL     1     -34.602  15.485  -2.695  1.00 20.00     0.025 C 
HETATM    7  C7  UNL     1     -33.055  14.524  -4.408  1.00 20.00     0.025 C 
HETATM    8  N8  UNL     1     -36.728  14.378  -4.938  1.00 20.00    -0.360 N 
HETATM    9  O9  UNL     1     -35.288  12.808  -4.129  1.00 20.00    -0.273 OA
HETATM   10  H22 UNL     1     -37.502  13.730  -4.841  1.00 20.00     0.162 HD
ENDROOT
TORSDOF 0
ENDMDL
MODEL 8
REMARK VINA RESULT:      -3.8      1.793      2.005
REMARK  0 active torsions:
REMARK  status: ('A' for Active; 'I' for Inactive)
ROOT
HETATM    1  C1  UNL     1     -35.724  13.932  -4.262  1.00 20.00     0.225 C 
HETATM    2  C2  UNL     1     -34.981  16.672  -3.517  1.00 20.00     0.021 C 
HETATM    3  C3  UNL     1     -36.451  16.277  -3.551  1.00 20.00     0.020 C 
HETATM    4  C4  UNL     1     -34.157  15.488  -3.058  1.00 20.00     0.122 C 
HETATM    5  C5  UNL     1     -36.703  15.092  -4.504  1.00 20.00     0.034 C 
HETATM    6  C6  UNL     1     -36.538  15.526  -5.972  1.00 20.00     0.025 C 
HETATM    7  C7  UNL     1     -38.143  14.593  -4.298  1.00 20.00     0.025 C 
HETATM    8  N8  UNL     1     -34.487  14.255  -3.746  1.00 20.00    -0.360 N 
HETATM    9  O9  UNL     1     -35.994  12.780  -4.610  1.00 20.00    -0.273 OA
HETATM   10  H22 UNL     1     -33.744  13.572  -3.857  1.00 20.00     0.162 HD
ENDROOT
TORSDOF 0
ENDMDL
MODEL 9
REMARK VINA RESULT:      -3.8     11.420     12.288
REMARK  0 active torsions:
REMARK  status: ('A' for Active; 'I' for Inactive)
ROOT
HETATM    1  C1  UNL     1     -42.874   6.637  -1.395  1.00 20.00     0.225 C 
HETATM    2  C2  UNL     1     -41.699   8.316   0.706  1.00 20.00     0.021 C 
HETATM    3  C3  UNL     1     -40.912   7.130   0.166  1.00 20.00     0.020 C 
HETATM    4  C4  UNL     1     -42.514   8.926  -0.415  1.00 20.00     0.122 C 
HETATM    5  C5  UNL     1     -41.838   6.050  -0.424  1.00 20.00     0.034 C 
HETATM    6  C6  UNL     1     -42.619   5.330   0.691  1.00 20.00     0.025 C 
HETATM    7  C7  UNL     1     -40.975   5.014  -1.166  1.00 20.00     0.025 C 
HETATM    8  N8  UNL     1     -43.254   7.947  -1.188  1.00 20.00    -0.360 N 
HETATM    9  O9  UNL     1     -43.417   5.940  -2.256  1.00 20.00    -0.273 OA
HETATM   10  H22 UNL     1     -44.125   8.251  -1.611  1.00 20.00     0.162 HD
ENDROOT
TORSDOF 0
ENDMDL
