MODEL 1
REMARK VINA RESULT:      -4.3      0.000      0.000
REMARK  3 active torsions:
REMARK  status: ('A' for Active; 'I' for Inactive)
REMARK    1  A    between atoms: C6_6  and  C9_9 
REMARK    2  A    between atoms: C7_7  and  C10_10 
REMARK    3  A    between atoms: C10_10  and  N11_11 
ROOT
HETATM    1  C1  UNL     1     -32.917  17.230  -3.197  1.00 20.00     0.032 C 
HETATM    2  C2  UNL     1     -34.325  17.614  -1.144  1.00 20.00     0.032 C 
HETATM    3  C3  UNL     1     -33.788  16.036  -3.564  1.00 20.00     0.235 C 
HETATM    4  C4  UNL     1     -35.189  16.418  -1.521  1.00 20.00     0.235 C 
HETATM    5  C6  UNL     1     -32.897  17.476  -1.684  1.00 20.00    -0.012 C 
HETATM    6  N11 UNL     1     -35.181  16.245  -3.021  1.00 20.00    -0.069 N 
HETATM    7  H32 UNL     1     -35.542  17.117  -3.431  1.00 20.00     0.280 HD
ENDROOT
BRANCH   6   8
HETATM    8  C10 UNL     1     -36.116  15.152  -3.458  1.00 20.00     0.268 C 
BRANCH   8   9
HETATM    9  C7  UNL     1     -35.379  14.205  -4.379  1.00 20.00     0.171 A 
HETATM   10  C5  UNL     1     -35.920  13.861  -5.738  1.00 20.00     0.201 A 
HETATM   11  O12 UNL     1     -36.053  12.966  -4.623  1.00 20.00    -0.380 OA
ENDBRANCH   8   9
ENDBRANCH   6   8
BRANCH   5  12
HETATM   12  C9  UNL     1     -32.069  18.715  -1.346  1.00 20.00     0.000 C 
HETATM   13  C8  UNL     1     -31.095  18.445  -0.248  1.00 20.00     0.005 C 
ENDBRANCH   5  12
TORSDOF 3
ENDMDL
MODEL 2
REMARK VINA RESULT:      -4.2     16.223     17.210
REMARK  3 active torsions:
REMARK  status: ('A' for Active; 'I' for Inactive)
REMARK    1  A    between atoms: C6_6  and  C9_9 
REMARK    2  A    between atoms: C7_7  and  C10_10 
REMARK    3  A    between atoms: C10_10  and  N11_11 
ROOT
HETATM    1  C1  UNL     1     -25.524  18.685  10.242  1.00 20.00     0.032 C 
HETATM    2  C2  UNL     1     -24.362  17.590  12.191  1.00 20.00     0.032 C 
HETATM    3  C3  UNL     1     -24.173  19.109   9.683  1.00 20.00     0.235 C 
HETATM    4  C4  UNL     1     -23.017  18.020  11.621  1.00 20.00     0.235 C 
HETATM    5  C6  UNL     1     -25.487  18.541  11.768  1.00 20.00    -0.012 C 
HETATM    6  N11 UNL     1     -23.117  18.123  10.119  1.00 20.00    -0.069 N 
HETATM    7  H32 UNL     1     -23.398  17.198   9.767  1.00 20.00     0.280 HD
ENDROOT
BRANCH   6   8
HETATM    8  C10 UNL     1     -21.783  18.426   9.493  1.00 20.00     0.268 C 
BRANCH   8   9
HETATM    9  C7  UNL     1     -21.306  17.213   8.725  1.00 20.00     0.171 A 
HETATM   10  C5  UNL     1     -21.293  17.199   7.223  1.00 20.00     0.201 A 
HETATM   11  O12 UNL     1     -22.325  16.544   7.976  1.00 20.00    -0.380 OA
ENDBRANCH   8   9
ENDBRANCH   6   8
BRANCH   5  12
HETATM   12  C9  UNL     1     -26.835  18.055  12.300  1.00 20.00     0.000 C 
HETATM   13  C8  UNL     1     -27.975  18.722  11.604  1.00 20.00     0.005 C 
ENDBRANCH   5  12
TORSDOF 3
ENDMDL
MODEL 3
REMARK VINA RESULT:      -4.2      1.304      1.936
REMARK  3 active torsions:
REMARK  status: ('A' for Active; 'I' for Inactive)
REMARK    1  A    between atoms: C6_6  and  C9_9 
REMARK    2  A    between atoms: C7_7  and  C10_10 
REMARK    3  A    between atoms: C10_10  and  N11_11 
ROOT
HETATM    1  C1  UNL     1     -34.731  17.082  -0.885  1.00 20.00     0.032 C 
HETATM    2  C2  UNL     1     -32.592  17.267  -2.204  1.00 20.00     0.032 C 
HETATM    3  C3  UNL     1     -35.366  16.312  -2.035  1.00 20.00     0.235 C 
HETATM    4  C4  UNL     1     -33.238  16.496  -3.347  1.00 20.00     0.235 C 
HETATM    5  C6  UNL     1     -33.631  18.031  -1.375  1.00 20.00    -0.012 C 
HETATM    6  N11 UNL     1     -34.294  15.569  -2.795  1.00 20.00    -0.069 N 
HETATM    7  H32 UNL     1     -33.828  14.938  -2.129  1.00 20.00     0.280 HD
ENDROOT
BRANCH   6   8
HETATM    8  C10 UNL     1     -34.881  14.694  -3.868  1.00 20.00     0.268 C 
BRANCH   8   9
HETATM    9  C7  UNL     1     -34.639  15.333  -5.218  1.00 20.00     0.171 A 
HETATM   10  C5  UNL     1     -35.296  14.800  -6.460  1.00 20.00     0.201 A 
HETATM   11  O12 UNL     1     -33.925  14.511  -6.147  1.00 20.00    -0.380 OA
ENDBRANCH   8   9
ENDBRANCH   6   8
BRANCH   5  12
HETATM   12  C9  UNL     1     -32.967  18.745  -0.199  1.00 20.00     0.000 C 
HETATM   13  C8  UNL     1     -31.480  18.615  -0.243  1.00 20.00     0.005 C 
ENDBRANCH   5  12
TORSDOF 3
ENDMDL
MODEL 4
REMARK VINA RESULT:      -4.2      1.160      1.953
REMARK  3 active torsions:
REMARK  status: ('A' for Active; 'I' for Inactive)
REMARK    1  A    between atoms: C6_6  and  C9_9 
REMARK    2  A    between atoms: C7_7  and  C10_10 
REMARK    3  A    between atoms: C10_10  and  N11_11 
ROOT
HETATM    1  C1  UNL     1     -35.103  16.653  -1.195  1.00 20.00     0.032 C 
HETATM    2  C2  UNL     1     -32.838  17.479  -1.925  1.00 20.00     0.032 C 
HETATM    3  C3  UNL     1     -35.257  15.920  -2.520  1.00 20.00     0.235 C 
HETATM    4  C4  UNL     1     -33.003  16.742  -3.247  1.00 20.00     0.235 C 
HETATM    5  C6  UNL     1     -34.191  17.879  -1.325  1.00 20.00    -0.012 C 
HETATM    6  N11 UNL     1     -33.893  15.539  -3.044  1.00 20.00    -0.069 N 
HETATM    7  H32 UNL     1     -33.446  14.945  -2.332  1.00 20.00     0.280 HD
ENDROOT
BRANCH   6   8
HETATM    8  C10 UNL     1     -33.991  14.705  -4.292  1.00 20.00     0.268 C 
BRANCH   8   9
HETATM    9  C7  UNL     1     -35.396  14.799  -4.844  1.00 20.00     0.171 A 
HETATM   10  C5  UNL     1     -36.326  13.618  -4.812  1.00 20.00     0.201 A 
HETATM   11  O12 UNL     1     -35.632  14.003  -6.010  1.00 20.00    -0.380 OA
ENDBRANCH   8   9
ENDBRANCH   6   8
BRANCH   5  12
HETATM   12  C9  UNL     1     -34.003  18.561   0.029  1.00 20.00     0.000 C 
HETATM   13  C8  UNL     1     -32.570  18.567   0.449  1.00 20.00     0.005 C 
ENDBRANCH   5  12
TORSDOF 3
ENDMDL
MODEL 5
REMARK VINA RESULT:      -4.2      3.164      5.581
REMARK  3 active torsions:
REMARK  status: ('A' for Active; 'I' for Inactive)
REMARK    1  A    between atoms: C6_6  and  C9_9 
REMARK    2  A    between atoms: C7_7  and  C10_10 
REMARK    3  A    between atoms: C10_10  and  N11_11 
ROOT
HETATM    1  C1  UNL     1     -35.260  16.221  -2.110  1.00 20.00     0.032 C 
HETATM    2  C2  UNL     1     -33.018  17.204  -2.702  1.00 20.00     0.032 C 
HETATM    3  C3  UNL     1     -35.225  16.957  -0.778  1.00 20.00     0.235 C 
HETATM    4  C4  UNL     1     -32.993  17.935  -1.367  1.00 20.00     0.235 C 
HETATM    5  C6  UNL     1     -33.850  15.918  -2.630  1.00 20.00    -0.012 C 
HETATM    6  N11 UNL     1     -34.408  18.219  -0.923  1.00 20.00    -0.069 N 
HETATM    7  H32 UNL     1     -34.851  18.787  -1.658  1.00 20.00     0.280 HD
ENDROOT
BRANCH   6   8
HETATM    8  C10 UNL     1     -34.441  19.048   0.332  1.00 20.00     0.268 C 
BRANCH   8   9
HETATM    9  C7  UNL     1     -34.667  18.141   1.521  1.00 20.00     0.171 A 
HETATM   10  C5  UNL     1     -34.486  18.641   2.927  1.00 20.00     0.201 A 
HETATM   11  O12 UNL     1     -33.487  17.841   2.274  1.00 20.00    -0.380 OA
ENDBRANCH   8   9
ENDBRANCH   6   8
BRANCH   5  12
HETATM   12  C9  UNL     1     -33.911  15.236  -3.996  1.00 20.00     0.000 C 
HETATM   13  C8  UNL     1     -34.879  14.100  -4.003  1.00 20.00     0.005 C 
ENDBRANCH   5  12
TORSDOF 3
ENDMDL
MODEL 6
REMARK VINA RESULT:      -4.1     12.174     14.034
REMARK  3 active torsions:
REMARK  status: ('A' for Active; 'I' for Inactive)
REMARK    1  A    between atoms: C6_6  and  C9_9 
REMARK    2  A    between atoms: C7_7  and  C10_10 
REMARK    3  A    between atoms: C10_10  and  N11_11 
ROOT
HETATM    1  C1  UNL     1     -41.002   6.027  -1.015  1.00 20.00     0.032 C 
HETATM    2  C2  UNL     1     -43.042   5.996   0.462  1.00 20.00     0.032 C 
HETATM    3  C3  UNL     1     -41.387   4.661  -1.566  1.00 20.00     0.235 C 
HETATM    4  C4  UNL     1     -43.417   4.630  -0.095  1.00 20.00     0.235 C 
HETATM    5  C6  UNL     1     -41.529   6.235   0.409  1.00 20.00    -0.012 C 
HETATM    6  N11 UNL     1     -42.888   4.499  -1.503  1.00 20.00    -0.069 N 
HETATM    7  H32 UNL     1     -43.301   5.260  -2.058  1.00 20.00     0.280 HD
ENDROOT
BRANCH   6   8
HETATM    8  C10 UNL     1     -43.334   3.215  -2.146  1.00 20.00     0.268 C 
BRANCH   8   9
HETATM    9  C7  UNL     1     -42.276   2.754  -3.124  1.00 20.00     0.171 A 
HETATM   10  C5  UNL     1     -42.646   2.231  -4.484  1.00 20.00     0.201 A 
HETATM   11  O12 UNL     1     -42.295   1.350  -3.405  1.00 20.00    -0.380 OA
ENDBRANCH   8   9
ENDBRANCH   6   8
BRANCH   5  12
HETATM   12  C9  UNL     1     -41.184   7.635   0.916  1.00 20.00     0.000 C 
HETATM   13  C8  UNL     1     -41.547   8.687  -0.080  1.00 20.00     0.005 C 
ENDBRANCH   5  12
TORSDOF 3
ENDMDL
MODEL 7
REMARK VINA RESULT:      -4.1      3.106      5.784
REMARK  3 active torsions:
REMARK  status: ('A' for Active; 'I' for Inactive)
REMARK    1  A    between atoms: C6_6  and  C9_9 
REMARK    2  A    between atoms: C7_7  and  C10_10 
REMARK    3  A    between atoms: C10_10  and  N11_11 
ROOT
HETATM    1  C1  UNL     1     -33.073  16.644  -2.587  1.00 20.00     0.032 C 
HETATM    2  C2  UNL     1     -35.136  16.633  -1.141  1.00 20.00     0.032 C 
HETATM    3  C3  UNL     1     -32.627  17.943  -1.931  1.00 20.00     0.235 C 
HETATM    4  C4  UNL     1     -34.679  17.933  -0.492  1.00 20.00     0.235 C 
HETATM    5  C6  UNL     1     -34.599  16.493  -2.570  1.00 20.00    -0.012 C 
HETATM    6  N11 UNL     1     -33.172  18.008  -0.525  1.00 20.00    -0.069 N 
HETATM    7  H32 UNL     1     -32.814  17.187  -0.019  1.00 20.00     0.280 HD
ENDROOT
BRANCH   6   8
HETATM    8  C10 UNL     1     -32.661  19.216   0.212  1.00 20.00     0.268 C 
BRANCH   8   9
HETATM    9  C7  UNL     1     -31.770  18.765   1.349  1.00 20.00     0.171 A 
HETATM   10  C5  UNL     1     -30.357  19.261   1.474  1.00 20.00     0.201 A 
HETATM   11  O12 UNL     1     -30.657  17.959   0.949  1.00 20.00    -0.380 OA
ENDBRANCH   8   9
ENDBRANCH   6   8
BRANCH   5  12
HETATM   12  C9  UNL     1     -35.018  15.155  -3.177  1.00 20.00     0.000 C 
HETATM   13  C8  UNL     1     -34.134  14.763  -4.314  1.00 20.00     0.005 C 
ENDBRANCH   5  12
TORSDOF 3
ENDMDL
MODEL 8
REMARK VINA RESULT:      -4.0      2.683      3.841
REMARK  3 active torsions:
REMARK  status: ('A' for Active; 'I' for Inactive)
REMARK    1  A    between atoms: C6_6  and  C9_9 
REMARK    2  A    between atoms: C7_7  and  C10_10 
REMARK    3  A    between atoms: C10_10  and  N11_11 
ROOT
HETATM    1  C1  UNL     1     -35.612  16.560  -3.235  1.00 20.00     0.032 C 
HETATM    2  C2  UNL     1     -35.104  14.211  -3.991  1.00 20.00     0.032 C 
HETATM    3  C3  UNL     1     -37.022  16.428  -3.792  1.00 20.00     0.235 C 
HETATM    4  C4  UNL     1     -36.517  14.091  -4.544  1.00 20.00     0.235 C 
HETATM    5  C6  UNL     1     -34.618  15.665  -3.985  1.00 20.00    -0.012 C 
HETATM    6  N11 UNL     1     -37.445  14.979  -3.751  1.00 20.00    -0.069 N 
HETATM    7  H32 UNL     1     -37.396  14.673  -2.770  1.00 20.00     0.280 HD
ENDROOT
BRANCH   6   8
HETATM    8  C10 UNL     1     -38.877  14.807  -4.177  1.00 20.00     0.268 C 
BRANCH   8   9
HETATM    9  C7  UNL     1     -39.325  16.042  -4.927  1.00 20.00     0.171 A 
HETATM   10  C5  UNL     1     -40.664  16.098  -5.607  1.00 20.00     0.201 A 
HETATM   11  O12 UNL     1     -39.452  15.867  -6.342  1.00 20.00    -0.380 OA
ENDBRANCH   8   9
ENDBRANCH   6   8
BRANCH   5  12
HETATM   12  C9  UNL     1     -33.224  15.767  -3.369  1.00 20.00     0.000 C 
HETATM   13  C8  UNL     1     -33.107  16.945  -2.460  1.00 20.00     0.005 C 
ENDBRANCH   5  12
TORSDOF 3
ENDMDL
MODEL 9
REMARK VINA RESULT:      -4.0      1.603      2.337
REMARK  3 active torsions:
REMARK  status: ('A' for Active; 'I' for Inactive)
REMARK    1  A    between atoms: C6_6  and  C9_9 
REMARK    2  A    between atoms: C7_7  and  C10_10 
REMARK    3  A    between atoms: C10_10  and  N11_11 
ROOT
HETATM    1  C1  UNL     1     -34.714  16.903  -1.646  1.00 20.00     0.032 C 
HETATM    2  C2  UNL     1     -32.996  16.131  -3.317  1.00 20.00     0.032 C 
HETATM    3  C3  UNL     1     -35.817  16.324  -2.520  1.00 20.00     0.235 C 
HETATM    4  C4  UNL     1     -34.107  15.555  -4.184  1.00 20.00     0.235 C 
HETATM    5  C6  UNL     1     -33.488  17.311  -2.471  1.00 20.00    -0.012 C 
HETATM    6  N11 UNL     1     -35.272  15.157  -3.309  1.00 20.00    -0.069 N 
HETATM    7  H32 UNL     1     -34.923  14.466  -2.632  1.00 20.00     0.280 HD
ENDROOT
BRANCH   6   8
HETATM    8  C10 UNL     1     -36.350  14.470  -4.100  1.00 20.00     0.268 C 
BRANCH   8   9
HETATM    9  C7  UNL     1     -37.536  15.399  -4.237  1.00 20.00     0.171 A 
HETATM   10  C5  UNL     1     -38.943  14.872  -4.233  1.00 20.00     0.201 A 
HETATM   11  O12 UNL     1     -38.279  15.242  -5.451  1.00 20.00    -0.380 OA
ENDBRANCH   8   9
ENDBRANCH   6   8
BRANCH   5  12
HETATM   12  C9  UNL     1     -32.373  17.831  -1.566  1.00 20.00     0.000 C 
HETATM   13  C8  UNL     1     -32.915  18.418  -0.305  1.00 20.00     0.005 C 
ENDBRANCH   5  12
TORSDOF 3
ENDMDL
