MODEL 1
REMARK VINA RESULT:      -4.8      0.000      0.000
REMARK  3 active torsions:
REMARK  status: ('A' for Active; 'I' for Inactive)
REMARK    1  A    between atoms: C3_3  and  C4_4 
REMARK    2  A    between atoms: C3_3  and  C5_5 
REMARK    3  A    between atoms: C4_4  and  N6_6 
ROOT
HETATM    1  C3  UNL     1     -34.067   6.498   4.367  1.00 20.00     0.152 C 
ENDROOT
BRANCH   1   2
HETATM    2  C4  UNL     1     -32.904   6.095   3.446  1.00 20.00     0.224 C 
HETATM    3  C1  UNL     1     -33.429   5.375   2.204  1.00 20.00     0.043 C 
BRANCH   2   4
HETATM    4  N6  UNL     1     -32.133   7.263   3.019  1.00 20.00     0.083 N 
HETATM    5  C2  UNL     1     -32.499   7.655   1.667  1.00 20.00     0.307 C 
HETATM    6  H19 UNL     1     -31.142   7.032   3.049  1.00 20.00     0.315 HD
ENDBRANCH   2   4
ENDBRANCH   1   2
BRANCH   1   7
HETATM    7  C5  UNL     1     -34.921   5.332   4.829  1.00 20.00     0.389 C 
HETATM    8  F7  UNL     1     -34.326   4.144   4.594  1.00 20.00    -0.171 F 
HETATM    9  F8  UNL     1     -36.104   5.330   4.175  1.00 20.00    -0.171 F 
HETATM   10  F9  UNL     1     -35.185   5.413   6.150  1.00 20.00    -0.171 F 
ENDBRANCH   1   7
TORSDOF 3
ENDMDL
MODEL 2
REMARK VINA RESULT:      -4.5      1.187      1.733
REMARK  3 active torsions:
REMARK  status: ('A' for Active; 'I' for Inactive)
REMARK    1  A    between atoms: C3_3  and  C4_4 
REMARK    2  A    between atoms: C3_3  and  C5_5 
REMARK    3  A    between atoms: C4_4  and  N6_6 
ROOT
HETATM    1  C3  UNL     1     -34.644   5.746   4.417  1.00 20.00     0.152 C 
ENDROOT
BRANCH   1   2
HETATM    2  C4  UNL     1     -33.318   5.822   3.644  1.00 20.00     0.224 C 
HETATM    3  C1  UNL     1     -33.393   4.983   2.369  1.00 20.00     0.043 C 
BRANCH   2   4
HETATM    4  N6  UNL     1     -32.990   7.200   3.279  1.00 20.00     0.083 N 
HETATM    5  C2  UNL     1     -32.496   7.267   1.912  1.00 20.00     0.307 C 
HETATM    6  H19 UNL     1     -32.276   7.548   3.915  1.00 20.00     0.315 HD
ENDBRANCH   2   4
ENDBRANCH   1   2
BRANCH   1   7
HETATM    7  C5  UNL     1     -34.478   5.678   5.923  1.00 20.00     0.389 C 
HETATM    8  F7  UNL     1     -35.662   5.741   6.567  1.00 20.00    -0.171 F 
HETATM    9  F8  UNL     1     -33.724   6.713   6.359  1.00 20.00    -0.171 F 
HETATM   10  F9  UNL     1     -33.859   4.538   6.296  1.00 20.00    -0.171 F 
ENDBRANCH   1   7
TORSDOF 3
ENDMDL
MODEL 3
REMARK VINA RESULT:      -4.5      8.768      9.480
REMARK  3 active torsions:
REMARK  status: ('A' for Active; 'I' for Inactive)
REMARK    1  A    between atoms: C3_3  and  C4_4 
REMARK    2  A    between atoms: C3_3  and  C5_5 
REMARK    3  A    between atoms: C4_4  and  N6_6 
ROOT
HETATM    1  C3  UNL     1     -41.238   7.386   0.712  1.00 20.00     0.152 C 
ENDROOT
BRANCH   1   2
HETATM    2  C4  UNL     1     -41.854   6.112   0.112  1.00 20.00     0.224 C 
HETATM    3  C1  UNL     1     -40.912   5.499  -0.925  1.00 20.00     0.043 C 
BRANCH   2   4
HETATM    4  N6  UNL     1     -42.125   5.113   1.145  1.00 20.00     0.083 N 
HETATM    5  C2  UNL     1     -43.413   5.360   1.775  1.00 20.00     0.307 C 
HETATM    6  H19 UNL     1     -41.390   5.156   1.847  1.00 20.00     0.315 HD
ENDBRANCH   2   4
ENDBRANCH   1   2
BRANCH   1   7
HETATM    7  C5  UNL     1     -41.831   8.673   0.170  1.00 20.00     0.389 C 
HETATM    8  F7  UNL     1     -41.758   8.738  -1.175  1.00 20.00    -0.171 F 
HETATM    9  F8  UNL     1     -41.165   9.741   0.665  1.00 20.00    -0.171 F 
HETATM   10  F9  UNL     1     -43.128   8.801   0.525  1.00 20.00    -0.171 F 
ENDBRANCH   1   7
TORSDOF 3
ENDMDL
MODEL 4
REMARK VINA RESULT:      -4.4      2.972      3.919
REMARK  3 active torsions:
REMARK  status: ('A' for Active; 'I' for Inactive)
REMARK    1  A    between atoms: C3_3  and  C4_4 
REMARK    2  A    between atoms: C3_3  and  C5_5 
REMARK    3  A    between atoms: C4_4  and  N6_6 
ROOT
HETATM    1  C3  UNL     1     -33.035   5.842   2.668  1.00 20.00     0.152 C 
ENDROOT
BRANCH   1   2
HETATM    2  C4  UNL     1     -34.199   5.817   3.672  1.00 20.00     0.224 C 
HETATM    3  C1  UNL     1     -34.497   4.385   4.112  1.00 20.00     0.043 C 
BRANCH   2   4
HETATM    4  N6  UNL     1     -33.899   6.619   4.858  1.00 20.00     0.083 N 
HETATM    5  C2  UNL     1     -34.469   6.009   6.049  1.00 20.00     0.307 C 
HETATM    6  H19 UNL     1     -34.289   7.550   4.734  1.00 20.00     0.315 HD
ENDBRANCH   2   4
ENDBRANCH   1   2
BRANCH   1   7
HETATM    7  C5  UNL     1     -32.484   7.228   2.394  1.00 20.00     0.389 C 
HETATM    8  F7  UNL     1     -33.461   8.155   2.318  1.00 20.00    -0.171 F 
HETATM    9  F8  UNL     1     -31.818   7.244   1.218  1.00 20.00    -0.171 F 
HETATM   10  F9  UNL     1     -31.620   7.611   3.358  1.00 20.00    -0.171 F 
ENDBRANCH   1   7
TORSDOF 3
ENDMDL
MODEL 5
REMARK VINA RESULT:      -4.4      3.514      4.467
REMARK  3 active torsions:
REMARK  status: ('A' for Active; 'I' for Inactive)
REMARK    1  A    between atoms: C3_3  and  C4_4 
REMARK    2  A    between atoms: C3_3  and  C5_5 
REMARK    3  A    between atoms: C4_4  and  N6_6 
ROOT
HETATM    1  C3  UNL     1     -32.355   7.359   2.386  1.00 20.00     0.152 C 
ENDROOT
BRANCH   1   2
HETATM    2  C4  UNL     1     -33.505   6.406   2.747  1.00 20.00     0.224 C 
HETATM    3  C1  UNL     1     -33.108   4.957   2.466  1.00 20.00     0.043 C 
BRANCH   2   4
HETATM    4  N6  UNL     1     -33.875   6.525   4.157  1.00 20.00     0.083 N 
HETATM    5  C2  UNL     1     -34.831   5.493   4.528  1.00 20.00     0.307 C 
HETATM    6  H19 UNL     1     -34.288   7.442   4.313  1.00 20.00     0.315 HD
ENDBRANCH   2   4
ENDBRANCH   1   2
BRANCH   1   7
HETATM    7  C5  UNL     1     -32.536   8.072   1.059  1.00 20.00     0.389 C 
HETATM    8  F7  UNL     1     -33.631   7.643   0.399  1.00 20.00    -0.171 F 
HETATM    9  F8  UNL     1     -31.468   7.853   0.259  1.00 20.00    -0.171 F 
HETATM   10  F9  UNL     1     -32.648   9.407   1.232  1.00 20.00    -0.171 F 
ENDBRANCH   1   7
TORSDOF 3
ENDMDL
MODEL 6
REMARK VINA RESULT:      -4.3      1.489      2.149
REMARK  3 active torsions:
REMARK  status: ('A' for Active; 'I' for Inactive)
REMARK    1  A    between atoms: C3_3  and  C4_4 
REMARK    2  A    between atoms: C3_3  and  C5_5 
REMARK    3  A    between atoms: C4_4  and  N6_6 
ROOT
HETATM    1  C3  UNL     1     -33.532   6.621   5.093  1.00 20.00     0.152 C 
ENDROOT
BRANCH   1   2
HETATM    2  C4  UNL     1     -33.732   6.485   3.575  1.00 20.00     0.224 C 
HETATM    3  C1  UNL     1     -32.499   6.987   2.826  1.00 20.00     0.043 C 
BRANCH   2   4
HETATM    4  N6  UNL     1     -33.980   5.095   3.192  1.00 20.00     0.083 N 
HETATM    5  C2  UNL     1     -33.017   4.657   2.193  1.00 20.00     0.307 C 
HETATM    6  H19 UNL     1     -34.921   5.021   2.811  1.00 20.00     0.315 HD
ENDBRANCH   2   4
ENDBRANCH   1   2
BRANCH   1   7
HETATM    7  C5  UNL     1     -34.544   5.852   5.921  1.00 20.00     0.389 C 
HETATM    8  F7  UNL     1     -35.643   5.530   5.207  1.00 20.00    -0.171 F 
HETATM    9  F8  UNL     1     -34.949   6.596   6.975  1.00 20.00    -0.171 F 
HETATM   10  F9  UNL     1     -34.012   4.711   6.407  1.00 20.00    -0.171 F 
ENDBRANCH   1   7
TORSDOF 3
ENDMDL
MODEL 7
REMARK VINA RESULT:      -4.2      2.972      3.941
REMARK  3 active torsions:
REMARK  status: ('A' for Active; 'I' for Inactive)
REMARK    1  A    between atoms: C3_3  and  C4_4 
REMARK    2  A    between atoms: C3_3  and  C5_5 
REMARK    3  A    between atoms: C4_4  and  N6_6 
ROOT
HETATM    1  C3  UNL     1     -33.806   7.175   3.597  1.00 20.00     0.152 C 
ENDROOT
BRANCH   1   2
HETATM    2  C4  UNL     1     -33.820   6.210   4.794  1.00 20.00     0.224 C 
HETATM    3  C1  UNL     1     -34.010   6.981   6.100  1.00 20.00     0.043 C 
BRANCH   2   4
HETATM    4  N6  UNL     1     -34.893   5.223   4.672  1.00 20.00     0.083 N 
HETATM    5  C2  UNL     1     -34.397   3.996   4.069  1.00 20.00     0.307 C 
HETATM    6  H19 UNL     1     -35.634   5.612   4.093  1.00 20.00     0.315 HD
ENDBRANCH   2   4
ENDBRANCH   1   2
BRANCH   1   7
HETATM    7  C5  UNL     1     -32.584   7.040   2.709  1.00 20.00     0.389 C 
HETATM    8  F7  UNL     1     -32.674   7.805   1.602  1.00 20.00    -0.171 F 
HETATM    9  F8  UNL     1     -32.437   5.758   2.305  1.00 20.00    -0.171 F 
HETATM   10  F9  UNL     1     -31.459   7.391   3.369  1.00 20.00    -0.171 F 
ENDBRANCH   1   7
TORSDOF 3
ENDMDL
MODEL 8
REMARK VINA RESULT:      -4.2      1.239      1.965
REMARK  3 active torsions:
REMARK  status: ('A' for Active; 'I' for Inactive)
REMARK    1  A    between atoms: C3_3  and  C4_4 
REMARK    2  A    between atoms: C3_3  and  C5_5 
REMARK    3  A    between atoms: C4_4  and  N6_6 
ROOT
HETATM    1  C3  UNL     1     -33.371   5.577   2.951  1.00 20.00     0.152 C 
ENDROOT
BRANCH   1   2
HETATM    2  C4  UNL     1     -32.990   7.050   2.731  1.00 20.00     0.224 C 
HETATM    3  C1  UNL     1     -31.849   7.451   3.665  1.00 20.00     0.043 C 
BRANCH   2   4
HETATM    4  N6  UNL     1     -32.572   7.293   1.350  1.00 20.00     0.083 N 
HETATM    5  C2  UNL     1     -32.867   8.662   0.957  1.00 20.00     0.307 C 
HETATM    6  H19 UNL     1     -33.068   6.650   0.738  1.00 20.00     0.315 HD
ENDBRANCH   2   4
ENDBRANCH   1   2
BRANCH   1   7
HETATM    7  C5  UNL     1     -34.378   5.359   4.064  1.00 20.00     0.389 C 
HETATM    8  F7  UNL     1     -34.116   6.128   5.141  1.00 20.00    -0.171 F 
HETATM    9  F8  UNL     1     -34.355   4.070   4.471  1.00 20.00    -0.171 F 
HETATM   10  F9  UNL     1     -35.633   5.633   3.650  1.00 20.00    -0.171 F 
ENDBRANCH   1   7
TORSDOF 3
ENDMDL
MODEL 9
REMARK VINA RESULT:      -4.1     16.616     17.332
REMARK  3 active torsions:
REMARK  status: ('A' for Active; 'I' for Inactive)
REMARK    1  A    between atoms: C3_3  and  C4_4 
REMARK    2  A    between atoms: C3_3  and  C5_5 
REMARK    3  A    between atoms: C4_4  and  N6_6 
ROOT
HETATM    1  C3  UNL     1     -24.457  18.167  10.009  1.00 20.00     0.152 C 
ENDROOT
BRANCH   1   2
HETATM    2  C4  UNL     1     -25.066  17.961  11.406  1.00 20.00     0.224 C 
HETATM    3  C1  UNL     1     -26.113  19.036  11.696  1.00 20.00     0.043 C 
BRANCH   2   4
HETATM    4  N6  UNL     1     -25.697  16.647  11.526  1.00 20.00     0.083 N 
HETATM    5  C2  UNL     1     -24.711  15.630  11.852  1.00 20.00     0.307 C 
HETATM    6  H19 UNL     1     -26.145  16.415  10.642  1.00 20.00     0.315 HD
ENDBRANCH   2   4
ENDBRANCH   1   2
BRANCH   1   7
HETATM    7  C5  UNL     1     -22.942  18.097   9.979  1.00 20.00     0.389 C 
HETATM    8  F7  UNL     1     -22.403  19.098   9.253  1.00 20.00    -0.171 F 
HETATM    9  F8  UNL     1     -22.538  16.931   9.427  1.00 20.00    -0.171 F 
HETATM   10  F9  UNL     1     -22.425  18.158  11.225  1.00 20.00    -0.171 F 
ENDBRANCH   1   7
TORSDOF 3
ENDMDL
