MODEL 1
REMARK VINA RESULT:      -4.2      0.000      0.000
REMARK  1 active torsions:
REMARK  status: ('A' for Active; 'I' for Inactive)
REMARK    1  A    between atoms: C7_7  and  N9_9 
ROOT
HETATM    1  C1  UNL     1     -21.643  17.389   8.142  1.00 20.00     0.089 C 
HETATM    2  C7  UNL     1     -21.607  18.229   9.337  1.00 20.00     0.395 C 
HETATM    3  N8  UNL     1     -21.668  16.722   7.192  1.00 20.00    -0.195 NA
ENDROOT
BRANCH   2   4
HETATM    4  N9  UNL     1     -22.896  18.201  10.033  1.00 20.00     0.102 N 
HETATM    5  C3  UNL     1     -24.013  18.320   9.091  1.00 20.00     0.274 C 
HETATM    6  C2  UNL     1     -25.096  19.263   9.632  1.00 20.00     0.040 C 
HETATM    7  C5  UNL     1     -25.994  18.718  10.739  1.00 20.00     0.075 C 
HETATM    8  S10 UNL     1     -25.125  18.195  12.247  1.00 20.00    -0.167 SA
HETATM    9  C6  UNL     1     -24.304  16.720  11.581  1.00 20.00     0.104 C 
HETATM   10  C4  UNL     1     -22.967  17.017  10.899  1.00 20.00     0.283 C 
ENDBRANCH   2   4
TORSDOF 1
ENDMDL
MODEL 2
REMARK VINA RESULT:      -4.2      1.750      2.929
REMARK  1 active torsions:
REMARK  status: ('A' for Active; 'I' for Inactive)
REMARK    1  A    between atoms: C7_7  and  N9_9 
ROOT
HETATM    1  C1  UNL     1     -24.625  19.065   7.141  1.00 20.00     0.089 C 
HETATM    2  C7  UNL     1     -25.561  19.263   8.245  1.00 20.00     0.395 C 
HETATM    3  N8  UNL     1     -23.883  18.908   6.261  1.00 20.00    -0.195 NA
ENDROOT
BRANCH   2   4
HETATM    4  N9  UNL     1     -25.092  18.584   9.455  1.00 20.00     0.102 N 
HETATM    5  C3  UNL     1     -23.639  18.709   9.607  1.00 20.00     0.274 C 
HETATM    6  C2  UNL     1     -23.014  17.384  10.063  1.00 20.00     0.040 C 
HETATM    7  C5  UNL     1     -23.205  16.999  11.528  1.00 20.00     0.075 C 
HETATM    8  S10 UNL     1     -24.935  16.832  12.059  1.00 20.00    -0.167 SA
HETATM    9  C6  UNL     1     -25.400  18.585  12.000  1.00 20.00     0.104 C 
HETATM   10  C4  UNL     1     -25.857  19.054  10.617  1.00 20.00     0.283 C 
ENDBRANCH   2   4
TORSDOF 1
ENDMDL
MODEL 3
REMARK VINA RESULT:      -4.0     17.657     18.537
REMARK  1 active torsions:
REMARK  status: ('A' for Active; 'I' for Inactive)
REMARK    1  A    between atoms: C7_7  and  N9_9 
ROOT
HETATM    1  C1  UNL     1     -36.649  14.011  -4.323  1.00 20.00     0.089 C 
HETATM    2  C7  UNL     1     -35.198  14.071  -4.162  1.00 20.00     0.395 C 
HETATM    3  N8  UNL     1     -37.801  13.961  -4.452  1.00 20.00    -0.195 NA
ENDROOT
BRANCH   2   4
HETATM    4  N9  UNL     1     -34.731  15.459  -4.142  1.00 20.00     0.102 N 
HETATM    5  C3  UNL     1     -33.327  15.544  -3.732  1.00 20.00     0.274 C 
HETATM    6  C2  UNL     1     -33.102  16.711  -2.761  1.00 20.00     0.040 C 
HETATM    7  C5  UNL     1     -33.083  18.113  -3.363  1.00 20.00     0.075 C 
HETATM    8  S10 UNL     1     -34.605  18.598  -4.231  1.00 20.00    -0.167 SA
HETATM    9  C6  UNL     1     -34.451  17.501  -5.668  1.00 20.00     0.104 C 
HETATM   10  C4  UNL     1     -35.015  16.098  -5.434  1.00 20.00     0.283 C 
ENDBRANCH   2   4
TORSDOF 1
ENDMDL
MODEL 4
REMARK VINA RESULT:      -3.9     17.107     18.008
REMARK  1 active torsions:
REMARK  status: ('A' for Active; 'I' for Inactive)
REMARK    1  A    between atoms: C7_7  and  N9_9 
ROOT
HETATM    1  C1  UNL     1     -36.307  13.834  -4.408  1.00 20.00     0.089 C 
HETATM    2  C7  UNL     1     -36.851  15.167  -4.161  1.00 20.00     0.395 C 
HETATM    3  N8  UNL     1     -35.878  12.773  -4.606  1.00 20.00    -0.195 NA
ENDROOT
BRANCH   2   4
HETATM    4  N9  UNL     1     -35.917  15.974  -3.373  1.00 20.00     0.102 N 
HETATM    5  C3  UNL     1     -34.658  16.187  -4.093  1.00 20.00     0.274 C 
HETATM    6  C2  UNL     1     -33.452  16.038  -3.157  1.00 20.00     0.040 C 
HETATM    7  C5  UNL     1     -33.179  17.192  -2.196  1.00 20.00     0.075 C 
HETATM    8  S10 UNL     1     -34.535  17.574  -1.048  1.00 20.00    -0.167 SA
HETATM    9  C6  UNL     1     -35.708  18.268  -2.246  1.00 20.00     0.104 C 
HETATM   10  C4  UNL     1     -36.574  17.214  -2.939  1.00 20.00     0.283 C 
ENDBRANCH   2   4
TORSDOF 1
ENDMDL
MODEL 5
REMARK VINA RESULT:      -3.8     17.467     18.343
REMARK  1 active torsions:
REMARK  status: ('A' for Active; 'I' for Inactive)
REMARK    1  A    between atoms: C7_7  and  N9_9 
ROOT
HETATM    1  C1  UNL     1     -36.969  14.367  -4.676  1.00 20.00     0.089 C 
HETATM    2  C7  UNL     1     -35.691  14.905  -5.138  1.00 20.00     0.395 C 
HETATM    3  N8  UNL     1     -37.984  13.939  -4.312  1.00 20.00    -0.195 NA
ENDROOT
BRANCH   2   4
HETATM    4  N9  UNL     1     -35.218  15.967  -4.246  1.00 20.00     0.102 N 
HETATM    5  C3  UNL     1     -34.568  15.412  -3.055  1.00 20.00     0.274 C 
HETATM    6  C2  UNL     1     -34.981  16.178  -1.791  1.00 20.00     0.040 C 
HETATM    7  C5  UNL     1     -34.351  17.552  -1.581  1.00 20.00     0.075 C 
HETATM    8  S10 UNL     1     -34.673  18.756  -2.905  1.00 20.00    -0.167 SA
HETATM    9  C6  UNL     1     -33.656  17.999  -4.203  1.00 20.00     0.104 C 
HETATM   10  C4  UNL     1     -34.382  16.912  -4.998  1.00 20.00     0.283 C 
ENDBRANCH   2   4
TORSDOF 1
ENDMDL
MODEL 6
REMARK VINA RESULT:      -3.7     17.494     18.320
REMARK  1 active torsions:
REMARK  status: ('A' for Active; 'I' for Inactive)
REMARK    1  A    between atoms: C7_7  and  N9_9 
ROOT
HETATM    1  C1  UNL     1     -36.688  14.039  -4.380  1.00 20.00     0.089 C 
HETATM    2  C7  UNL     1     -35.227  14.067  -4.398  1.00 20.00     0.395 C 
HETATM    3  N8  UNL     1     -37.849  14.014  -4.368  1.00 20.00    -0.195 NA
ENDROOT
BRANCH   2   4
HETATM    4  N9  UNL     1     -34.726  15.391  -4.020  1.00 20.00     0.102 N 
HETATM    5  C3  UNL     1     -35.359  16.447  -4.815  1.00 20.00     0.274 C 
HETATM    6  C2  UNL     1     -34.334  17.502  -5.251  1.00 20.00     0.040 C 
HETATM    7  C5  UNL     1     -33.864  18.488  -4.185  1.00 20.00     0.075 C 
HETATM    8  S10 UNL     1     -33.073  17.733  -2.734  1.00 20.00    -0.167 SA
HETATM    9  C6  UNL     1     -34.543  16.962  -2.002  1.00 20.00     0.104 C 
HETATM   10  C4  UNL     1     -34.857  15.576  -2.568  1.00 20.00     0.283 C 
ENDBRANCH   2   4
TORSDOF 1
ENDMDL
MODEL 7
REMARK VINA RESULT:      -3.7     16.900     17.758
REMARK  1 active torsions:
REMARK  status: ('A' for Active; 'I' for Inactive)
REMARK    1  A    between atoms: C7_7  and  N9_9 
ROOT
HETATM    1  C1  UNL     1     -35.724  13.921  -4.668  1.00 20.00     0.089 C 
HETATM    2  C7  UNL     1     -35.197  15.253  -4.955  1.00 20.00     0.395 C 
HETATM    3  N8  UNL     1     -36.144  12.862  -4.442  1.00 20.00    -0.195 NA
ENDROOT
BRANCH   2   4
HETATM    4  N9  UNL     1     -35.034  16.027  -3.723  1.00 20.00     0.102 N 
HETATM    5  C3  UNL     1     -33.901  16.952  -3.820  1.00 20.00     0.274 C 
HETATM    6  C2  UNL     1     -33.083  16.966  -2.522  1.00 20.00     0.040 C 
HETATM    7  C5  UNL     1     -33.686  17.718  -1.337  1.00 20.00     0.075 C 
HETATM    8  S10 UNL     1     -35.308  17.111  -0.786  1.00 20.00    -0.167 SA
HETATM    9  C6  UNL     1     -36.293  17.666  -2.205  1.00 20.00     0.104 C 
HETATM   10  C4  UNL     1     -36.305  16.675  -3.371  1.00 20.00     0.283 C 
ENDBRANCH   2   4
TORSDOF 1
ENDMDL
MODEL 8
REMARK VINA RESULT:      -3.6     17.072     17.906
REMARK  1 active torsions:
REMARK  status: ('A' for Active; 'I' for Inactive)
REMARK    1  A    between atoms: C7_7  and  N9_9 
ROOT
HETATM    1  C1  UNL     1     -35.221  13.697  -4.180  1.00 20.00     0.089 C 
HETATM    2  C7  UNL     1     -34.327  14.769  -3.746  1.00 20.00     0.395 C 
HETATM    3  N8  UNL     1     -35.928  12.844  -4.526  1.00 20.00    -0.195 NA
ENDROOT
BRANCH   2   4
HETATM    4  N9  UNL     1     -35.086  15.876  -3.160  1.00 20.00     0.102 N 
HETATM    5  C3  UNL     1     -34.335  16.523  -2.080  1.00 20.00     0.274 C 
HETATM    6  C2  UNL     1     -35.245  16.844  -0.887  1.00 20.00     0.040 C 
HETATM    7  C5  UNL     1     -36.188  18.034  -1.040  1.00 20.00     0.075 C 
HETATM    8  S10 UNL     1     -37.363  17.911  -2.421  1.00 20.00    -0.167 SA
HETATM    9  C6  UNL     1     -36.185  18.105  -3.788  1.00 20.00     0.104 C 
HETATM   10  C4  UNL     1     -35.522  16.795  -4.219  1.00 20.00     0.283 C 
ENDBRANCH   2   4
TORSDOF 1
ENDMDL
MODEL 9
REMARK VINA RESULT:      -3.5     14.449     15.363
REMARK  1 active torsions:
REMARK  status: ('A' for Active; 'I' for Inactive)
REMARK    1  A    between atoms: C7_7  and  N9_9 
ROOT
HETATM    1  C1  UNL     1     -31.440  18.524   0.290  1.00 20.00     0.089 C 
HETATM    2  C7  UNL     1     -32.886  18.590   0.084  1.00 20.00     0.395 C 
HETATM    3  N8  UNL     1     -30.292  18.475   0.455  1.00 20.00    -0.195 NA
ENDROOT
BRANCH   2   4
HETATM    4  N9  UNL     1     -33.285  17.786  -1.073  1.00 20.00     0.102 N 
HETATM    5  C3  UNL     1     -34.744  17.688  -1.175  1.00 20.00     0.274 C 
HETATM    6  C2  UNL     1     -35.180  16.263  -1.543  1.00 20.00     0.040 C 
HETATM    7  C5  UNL     1     -34.978  15.834  -2.993  1.00 20.00     0.075 C 
HETATM    8  S10 UNL     1     -33.260  15.894  -3.582  1.00 20.00    -0.167 SA
HETATM    9  C6  UNL     1     -33.059  17.698  -3.625  1.00 20.00     0.104 C 
HETATM   10  C4  UNL     1     -32.635  18.301  -2.284  1.00 20.00     0.283 C 
ENDBRANCH   2   4
TORSDOF 1
ENDMDL
