MODEL 1
REMARK VINA RESULT:      -4.6      0.000      0.000
REMARK  2 active torsions:
REMARK  status: ('A' for Active; 'I' for Inactive)
REMARK    1  A    between atoms: C6_6  and  C9_9 
REMARK    2  A    between atoms: C7_7  and  N10_10 
ROOT
HETATM    1  C1  UNL     1     -25.048  19.044   6.761  1.00 20.00     0.158 C 
HETATM    2  N10 UNL     1     -23.928  18.881   7.068  1.00 20.00    -0.270 NA
HETATM    3  S11 UNL     1     -26.559  19.263   6.310  1.00 20.00    -0.055 SA
ENDROOT
BRANCH   2   4
HETATM    4  C7  UNL     1     -23.669  18.971   8.509  1.00 20.00     0.109 C 
HETATM    5  C4  UNL     1     -22.528  18.023   8.875  1.00 20.00     0.028 C 
HETATM    6  C2  UNL     1     -22.290  17.989  10.384  1.00 20.00     0.007 C 
HETATM    7  C6  UNL     1     -23.561  17.672  11.187  1.00 20.00    -0.015 C 
HETATM    8  C3  UNL     1     -24.711  18.606  10.781  1.00 20.00     0.007 C 
HETATM    9  C5  UNL     1     -24.951  18.640   9.272  1.00 20.00     0.028 C 
BRANCH   7  10
HETATM   10  C9  UNL     1     -23.957  16.199  11.057  1.00 20.00     0.000 C 
HETATM   11  C8  UNL     1     -25.083  15.847  11.973  1.00 20.00     0.005 C 
ENDBRANCH   7  10
ENDBRANCH   2   4
TORSDOF 2
ENDMDL
MODEL 2
REMARK VINA RESULT:      -4.6     15.843     18.132
REMARK  2 active torsions:
REMARK  status: ('A' for Active; 'I' for Inactive)
REMARK    1  A    between atoms: C6_6  and  C9_9 
REMARK    2  A    between atoms: C7_7  and  N10_10 
ROOT
HETATM    1  C1  UNL     1     -38.706  14.691  -4.273  1.00 20.00     0.158 C 
HETATM    2  N10 UNL     1     -37.811  13.937  -4.347  1.00 20.00    -0.270 NA
HETATM    3  S11 UNL     1     -39.943  15.688  -4.164  1.00 20.00    -0.055 SA
ENDROOT
BRANCH   2   4
HETATM    4  C7  UNL     1     -36.529  14.543  -4.722  1.00 20.00     0.109 C 
HETATM    5  C4  UNL     1     -35.395  13.791  -4.026  1.00 20.00     0.028 C 
HETATM    6  C2  UNL     1     -34.043  14.451  -4.287  1.00 20.00     0.007 C 
HETATM    7  C6  UNL     1     -34.023  15.946  -3.934  1.00 20.00    -0.015 C 
HETATM    8  C3  UNL     1     -35.191  16.682  -4.608  1.00 20.00     0.007 C 
HETATM    9  C5  UNL     1     -36.545  16.025  -4.345  1.00 20.00     0.028 C 
BRANCH   7  10
HETATM   10  C9  UNL     1     -34.016  16.167  -2.419  1.00 20.00     0.000 C 
HETATM   11  C8  UNL     1     -33.144  17.317  -2.033  1.00 20.00     0.005 C 
ENDBRANCH   7  10
ENDBRANCH   2   4
TORSDOF 2
ENDMDL
MODEL 3
REMARK VINA RESULT:      -4.5     16.333     17.487
REMARK  2 active torsions:
REMARK  status: ('A' for Active; 'I' for Inactive)
REMARK    1  A    between atoms: C6_6  and  C9_9 
REMARK    2  A    between atoms: C7_7  and  N10_10 
ROOT
HETATM    1  C1  UNL     1     -35.762  14.470  -6.184  1.00 20.00     0.158 C 
HETATM    2  N10 UNL     1     -35.653  13.734  -5.279  1.00 20.00    -0.270 NA
HETATM    3  S11 UNL     1     -35.926  15.446  -7.432  1.00 20.00    -0.055 SA
ENDROOT
BRANCH   2   4
HETATM    4  C7  UNL     1     -34.905  14.272  -4.137  1.00 20.00     0.109 C 
HETATM    5  C4  UNL     1     -35.792  15.254  -3.373  1.00 20.00     0.028 C 
HETATM    6  C2  UNL     1     -35.025  15.934  -2.240  1.00 20.00     0.007 C 
HETATM    7  C6  UNL     1     -33.724  16.603  -2.709  1.00 20.00    -0.015 C 
HETATM    8  C3  UNL     1     -32.861  15.616  -3.510  1.00 20.00     0.007 C 
HETATM    9  C5  UNL     1     -33.625  14.936  -4.645  1.00 20.00     0.028 C 
BRANCH   7  10
HETATM   10  C9  UNL     1     -34.002  17.883  -3.501  1.00 20.00     0.000 C 
HETATM   11  C8  UNL     1     -32.793  18.755  -3.582  1.00 20.00     0.005 C 
ENDBRANCH   7  10
ENDBRANCH   2   4
TORSDOF 2
ENDMDL
MODEL 4
REMARK VINA RESULT:      -4.4     14.071     16.664
REMARK  2 active torsions:
REMARK  status: ('A' for Active; 'I' for Inactive)
REMARK    1  A    between atoms: C6_6  and  C9_9 
REMARK    2  A    between atoms: C7_7  and  N10_10 
ROOT
HETATM    1  C1  UNL     1     -33.012  17.936  -1.274  1.00 20.00     0.158 C 
HETATM    2  N10 UNL     1     -34.047  17.620  -1.724  1.00 20.00    -0.270 NA
HETATM    3  S11 UNL     1     -31.620  18.398  -0.654  1.00 20.00    -0.055 SA
ENDROOT
BRANCH   2   4
HETATM    4  C7  UNL     1     -34.075  16.275  -2.312  1.00 20.00     0.109 C 
HETATM    5  C4  UNL     1     -33.051  16.201  -3.444  1.00 20.00     0.028 C 
HETATM    6  C2  UNL     1     -33.116  14.858  -4.170  1.00 20.00     0.007 C 
HETATM    7  C6  UNL     1     -34.528  14.511  -4.667  1.00 20.00    -0.015 C 
HETATM    8  C3  UNL     1     -35.553  14.629  -3.529  1.00 20.00     0.007 C 
HETATM    9  C5  UNL     1     -35.490  15.972  -2.803  1.00 20.00     0.028 C 
BRANCH   7  10
HETATM   10  C9  UNL     1     -34.925  15.362  -5.876  1.00 20.00     0.000 C 
HETATM   11  C8  UNL     1     -33.990  15.162  -7.023  1.00 20.00     0.005 C 
ENDBRANCH   7  10
ENDBRANCH   2   4
TORSDOF 2
ENDMDL
MODEL 5
REMARK VINA RESULT:      -4.3     16.349     18.638
REMARK  2 active torsions:
REMARK  status: ('A' for Active; 'I' for Inactive)
REMARK    1  A    between atoms: C6_6  and  C9_9 
REMARK    2  A    between atoms: C7_7  and  N10_10 
ROOT
HETATM    1  C1  UNL     1     -36.932  16.358  -6.946  1.00 20.00     0.158 C 
HETATM    2  N10 UNL     1     -36.481  15.364  -7.373  1.00 20.00    -0.270 NA
HETATM    3  S11 UNL     1     -37.561  17.714  -6.397  1.00 20.00    -0.055 SA
ENDROOT
BRANCH   2   4
HETATM    4  C7  UNL     1     -35.629  14.625  -6.434  1.00 20.00     0.109 C 
HETATM    5  C4  UNL     1     -36.456  14.225  -5.213  1.00 20.00     0.028 C 
HETATM    6  C2  UNL     1     -35.592  13.552  -4.148  1.00 20.00     0.007 C 
HETATM    7  C6  UNL     1     -34.369  14.392  -3.746  1.00 20.00    -0.015 C 
HETATM    8  C3  UNL     1     -33.569  14.821  -4.985  1.00 20.00     0.007 C 
HETATM    9  C5  UNL     1     -34.432  15.496  -6.051  1.00 20.00     0.028 C 
BRANCH   7  10
HETATM   10  C9  UNL     1     -34.770  15.594  -2.887  1.00 20.00     0.000 C 
HETATM   11  C8  UNL     1     -33.589  16.440  -2.537  1.00 20.00     0.005 C 
ENDBRANCH   7  10
ENDBRANCH   2   4
TORSDOF 2
ENDMDL
MODEL 6
REMARK VINA RESULT:      -4.3      2.970      4.267
REMARK  2 active torsions:
REMARK  status: ('A' for Active; 'I' for Inactive)
REMARK    1  A    between atoms: C6_6  and  C9_9 
REMARK    2  A    between atoms: C7_7  and  N10_10 
ROOT
HETATM    1  C1  UNL     1     -26.825  17.288  12.284  1.00 20.00     0.158 C 
HETATM    2  N10 UNL     1     -25.747  16.828  12.322  1.00 20.00    -0.270 NA
HETATM    3  S11 UNL     1     -28.301  17.882  12.246  1.00 20.00    -0.055 SA
ENDROOT
BRANCH   2   4
HETATM    4  C7  UNL     1     -24.689  17.701  11.800  1.00 20.00     0.109 C 
HETATM    5  C4  UNL     1     -24.973  18.010  10.330  1.00 20.00     0.028 C 
HETATM    6  C2  UNL     1     -23.842  18.823   9.702  1.00 20.00     0.007 C 
HETATM    7  C6  UNL     1     -22.462  18.173   9.881  1.00 20.00    -0.015 C 
HETATM    8  C3  UNL     1     -22.206  17.830  11.357  1.00 20.00     0.007 C 
HETATM    9  C5  UNL     1     -23.336  17.016  11.987  1.00 20.00     0.028 C 
BRANCH   7  10
HETATM   10  C9  UNL     1     -22.295  16.947   8.980  1.00 20.00     0.000 C 
HETATM   11  C8  UNL     1     -21.598  17.291   7.704  1.00 20.00     0.005 C 
ENDBRANCH   7  10
ENDBRANCH   2   4
TORSDOF 2
ENDMDL
MODEL 7
REMARK VINA RESULT:      -4.3     17.031     18.597
REMARK  2 active torsions:
REMARK  status: ('A' for Active; 'I' for Inactive)
REMARK    1  A    between atoms: C6_6  and  C9_9 
REMARK    2  A    between atoms: C7_7  and  N10_10 
ROOT
HETATM    1  C1  UNL     1     -38.277  14.872  -4.268  1.00 20.00     0.158 C 
HETATM    2  N10 UNL     1     -37.702  13.855  -4.363  1.00 20.00    -0.270 NA
HETATM    3  S11 UNL     1     -39.088  16.236  -4.134  1.00 20.00    -0.055 SA
ENDROOT
BRANCH   2   4
HETATM    4  C7  UNL     1     -36.262  13.985  -4.608  1.00 20.00     0.109 C 
HETATM    5  C4  UNL     1     -35.619  14.729  -3.438  1.00 20.00     0.028 C 
HETATM    6  C2  UNL     1     -34.136  14.997  -3.692  1.00 20.00     0.007 C 
HETATM    7  C6  UNL     1     -33.874  15.715  -5.025  1.00 20.00    -0.015 C 
HETATM    8  C3  UNL     1     -34.559  14.980  -6.187  1.00 20.00     0.007 C 
HETATM    9  C5  UNL     1     -36.043  14.713  -5.934  1.00 20.00     0.028 C 
BRANCH   7  10
HETATM   10  C9  UNL     1     -34.291  17.187  -4.963  1.00 20.00     0.000 C 
HETATM   11  C8  UNL     1     -33.577  17.918  -3.874  1.00 20.00     0.005 C 
ENDBRANCH   7  10
ENDBRANCH   2   4
TORSDOF 2
ENDMDL
MODEL 8
REMARK VINA RESULT:      -4.3     18.000     19.349
REMARK  2 active torsions:
REMARK  status: ('A' for Active; 'I' for Inactive)
REMARK    1  A    between atoms: C6_6  and  C9_9 
REMARK    2  A    between atoms: C7_7  and  N10_10 
ROOT
HETATM    1  C1  UNL     1     -39.070  14.709  -4.261  1.00 20.00     0.158 C 
HETATM    2  N10 UNL     1     -38.107  14.043  -4.328  1.00 20.00    -0.270 NA
HETATM    3  S11 UNL     1     -40.397  15.584  -4.176  1.00 20.00    -0.055 SA
ENDROOT
BRANCH   2   4
HETATM    4  C7  UNL     1     -36.844  14.776  -4.187  1.00 20.00     0.109 C 
HETATM    5  C4  UNL     1     -36.749  15.830  -5.289  1.00 20.00     0.028 C 
HETATM    6  C2  UNL     1     -35.400  16.547  -5.263  1.00 20.00     0.007 C 
HETATM    7  C6  UNL     1     -34.205  15.584  -5.305  1.00 20.00    -0.015 C 
HETATM    8  C3  UNL     1     -34.333  14.505  -4.218  1.00 20.00     0.007 C 
HETATM    9  C5  UNL     1     -35.680  13.785  -4.245  1.00 20.00     0.028 C 
BRANCH   7  10
HETATM   10  C9  UNL     1     -34.027  14.967  -6.695  1.00 20.00     0.000 C 
HETATM   11  C8  UNL     1     -34.035  16.008  -7.766  1.00 20.00     0.005 C 
ENDBRANCH   7  10
ENDBRANCH   2   4
TORSDOF 2
ENDMDL
MODEL 9
REMARK VINA RESULT:      -4.1     12.706     15.344
REMARK  2 active torsions:
REMARK  status: ('A' for Active; 'I' for Inactive)
REMARK    1  A    between atoms: C6_6  and  C9_9 
REMARK    2  A    between atoms: C7_7  and  N10_10 
ROOT
HETATM    1  C1  UNL     1     -31.393  18.692  -0.483  1.00 20.00     0.158 C 
HETATM    2  N10 UNL     1     -31.889  18.524  -1.532  1.00 20.00    -0.270 NA
HETATM    3  S11 UNL     1     -30.702  18.947   0.928  1.00 20.00    -0.055 SA
ENDROOT
BRANCH   2   4
HETATM    4  C7  UNL     1     -32.788  17.366  -1.607  1.00 20.00     0.109 C 
HETATM    5  C4  UNL     1     -32.857  16.876  -3.053  1.00 20.00     0.028 C 
HETATM    6  C2  UNL     1     -33.869  15.743  -3.211  1.00 20.00     0.007 C 
HETATM    7  C6  UNL     1     -35.263  16.101  -2.673  1.00 20.00    -0.015 C 
HETATM    8  C3  UNL     1     -35.175  16.630  -1.233  1.00 20.00     0.007 C 
HETATM    9  C5  UNL     1     -34.164  17.764  -1.073  1.00 20.00     0.028 C 
BRANCH   7  10
HETATM   10  C9  UNL     1     -35.986  17.088  -3.594  1.00 20.00     0.000 C 
HETATM   11  C8  UNL     1     -36.045  16.588  -5.001  1.00 20.00     0.005 C 
ENDBRANCH   7  10
ENDBRANCH   2   4
TORSDOF 2
ENDMDL
