MODEL 1
REMARK VINA RESULT:      -3.8      0.000      0.000
REMARK  1 active torsions:
REMARK  status: ('A' for Active; 'I' for Inactive)
REMARK    1  A    between atoms: C5_5  and  N7_7 
ROOT
HETATM    1  C1  UNL     1     -24.710  19.143   7.330  1.00 20.00     0.158 C 
HETATM    2  N7  UNL     1     -23.608  19.109   7.739  1.00 20.00    -0.268 NA
HETATM    3  S9  UNL     1     -26.198  19.217   6.767  1.00 20.00    -0.055 SA
ENDROOT
BRANCH   2   4
HETATM    4  C5  UNL     1     -23.258  17.888   8.465  1.00 20.00     0.139 C 
HETATM    5  C2  UNL     1     -21.740  17.722   8.509  1.00 20.00     0.059 C 
HETATM    6  C3  UNL     1     -21.372  17.935   9.970  1.00 20.00     0.274 C 
HETATM    7  N8  UNL     1     -22.563  17.447  10.664  1.00 20.00     0.086 N 
HETATM    8  C4  UNL     1     -23.694  18.010   9.923  1.00 20.00     0.299 C 
HETATM    9  C6  UNL     1     -22.578  17.820  12.070  1.00 20.00     0.310 C 
ENDBRANCH   2   4
TORSDOF 1
ENDMDL
MODEL 2
REMARK VINA RESULT:      -3.7      1.125      1.921
REMARK  1 active torsions:
REMARK  status: ('A' for Active; 'I' for Inactive)
REMARK    1  A    between atoms: C5_5  and  N7_7 
ROOT
HETATM    1  C1  UNL     1     -24.704  18.884   7.055  1.00 20.00     0.158 C 
HETATM    2  N7  UNL     1     -23.711  18.594   7.613  1.00 20.00    -0.268 NA
HETATM    3  S9  UNL     1     -26.041  19.263   6.275  1.00 20.00    -0.055 SA
ENDROOT
BRANCH   2   4
HETATM    4  C5  UNL     1     -23.589  19.126   8.970  1.00 20.00     0.139 C 
HETATM    5  C2  UNL     1     -24.965  19.204   9.629  1.00 20.00     0.059 C 
HETATM    6  C3  UNL     1     -24.928  18.147  10.723  1.00 20.00     0.274 C 
HETATM    7  N8  UNL     1     -23.515  18.143  11.101  1.00 20.00     0.086 N 
HETATM    8  C4  UNL     1     -22.781  18.160   9.834  1.00 20.00     0.299 C 
HETATM    9  C6  UNL     1     -23.166  16.999  11.930  1.00 20.00     0.310 C 
ENDBRANCH   2   4
TORSDOF 1
ENDMDL
MODEL 3
REMARK VINA RESULT:      -3.5     17.163     18.983
REMARK  1 active torsions:
REMARK  status: ('A' for Active; 'I' for Inactive)
REMARK    1  A    between atoms: C5_5  and  N7_7 
ROOT
HETATM    1  C1  UNL     1     -37.805  14.982  -4.251  1.00 20.00     0.158 C 
HETATM    2  N7  UNL     1     -37.509  13.864  -4.461  1.00 20.00    -0.268 NA
HETATM    3  S9  UNL     1     -38.233  16.488  -3.961  1.00 20.00    -0.055 SA
ENDROOT
BRANCH   2   4
HETATM    4  C5  UNL     1     -36.115  13.658  -4.855  1.00 20.00     0.139 C 
HETATM    5  C2  UNL     1     -35.791  14.495  -6.092  1.00 20.00     0.059 C 
HETATM    6  C3  UNL     1     -34.826  15.560  -5.592  1.00 20.00     0.274 C 
HETATM    7  N8  UNL     1     -34.132  14.866  -4.508  1.00 20.00     0.086 N 
HETATM    8  C4  UNL     1     -35.186  14.176  -3.760  1.00 20.00     0.299 C 
HETATM    9  C6  UNL     1     -33.360  15.773  -3.672  1.00 20.00     0.310 C 
ENDBRANCH   2   4
TORSDOF 1
ENDMDL
MODEL 4
REMARK VINA RESULT:      -3.5     16.547     17.120
REMARK  1 active torsions:
REMARK  status: ('A' for Active; 'I' for Inactive)
REMARK    1  A    between atoms: C5_5  and  N7_7 
ROOT
HETATM    1  C1  UNL     1     -32.581   7.652   1.708  1.00 20.00     0.158 C 
HETATM    2  N7  UNL     1     -32.550   6.818   2.536  1.00 20.00    -0.268 NA
HETATM    3  S9  UNL     1     -32.595   8.788   0.591  1.00 20.00    -0.055 SA
ENDROOT
BRANCH   2   4
HETATM    4  C5  UNL     1     -33.841   6.201   2.837  1.00 20.00     0.139 C 
HETATM    5  C2  UNL     1     -33.743   4.683   2.691  1.00 20.00     0.059 C 
HETATM    6  C3  UNL     1     -33.877   4.151   4.110  1.00 20.00     0.274 C 
HETATM    7  N8  UNL     1     -34.739   5.152   4.737  1.00 20.00     0.086 N 
HETATM    8  C4  UNL     1     -34.202   6.444   4.301  1.00 20.00     0.299 C 
HETATM    9  C6  UNL     1     -34.773   5.026   6.186  1.00 20.00     0.310 C 
ENDBRANCH   2   4
TORSDOF 1
ENDMDL
MODEL 5
REMARK VINA RESULT:      -3.4     17.465     18.638
REMARK  1 active torsions:
REMARK  status: ('A' for Active; 'I' for Inactive)
REMARK    1  A    between atoms: C5_5  and  N7_7 
ROOT
HETATM    1  C1  UNL     1     -35.406  14.751  -6.474  1.00 20.00     0.158 C 
HETATM    2  N7  UNL     1     -36.021  13.898  -5.950  1.00 20.00    -0.268 NA
HETATM    3  S9  UNL     1     -34.579  15.897  -7.210  1.00 20.00    -0.055 SA
ENDROOT
BRANCH   2   4
HETATM    4  C5  UNL     1     -36.038  13.959  -4.489  1.00 20.00     0.139 C 
HETATM    5  C2  UNL     1     -34.612  13.915  -3.944  1.00 20.00     0.059 C 
HETATM    6  C3  UNL     1     -34.379  15.302  -3.364  1.00 20.00     0.274 C 
HETATM    7  N8  UNL     1     -35.722  15.685  -2.929  1.00 20.00     0.086 N 
HETATM    8  C4  UNL     1     -36.604  15.302  -4.034  1.00 20.00     0.299 C 
HETATM    9  C6  UNL     1     -35.817  17.101  -2.607  1.00 20.00     0.310 C 
ENDBRANCH   2   4
TORSDOF 1
ENDMDL
MODEL 6
REMARK VINA RESULT:      -3.4     17.594     18.763
REMARK  1 active torsions:
REMARK  status: ('A' for Active; 'I' for Inactive)
REMARK    1  A    between atoms: C5_5  and  N7_7 
ROOT
HETATM    1  C1  UNL     1     -33.945  14.883  -5.921  1.00 20.00     0.158 C 
HETATM    2  N7  UNL     1     -33.612  14.225  -5.006  1.00 20.00    -0.268 NA
HETATM    3  S9  UNL     1     -34.370  15.771  -7.173  1.00 20.00    -0.055 SA
ENDROOT
BRANCH   2   4
HETATM    4  C5  UNL     1     -34.616  14.081  -3.952  1.00 20.00     0.139 C 
HETATM    5  C2  UNL     1     -34.724  15.377  -3.150  1.00 20.00     0.059 C 
HETATM    6  C3  UNL     1     -36.096  15.932  -3.501  1.00 20.00     0.274 C 
HETATM    7  N8  UNL     1     -36.868  14.715  -3.753  1.00 20.00     0.086 N 
HETATM    8  C4  UNL     1     -35.994  13.873  -4.574  1.00 20.00     0.299 C 
HETATM    9  C6  UNL     1     -38.142  14.990  -4.399  1.00 20.00     0.310 C 
ENDBRANCH   2   4
TORSDOF 1
ENDMDL
MODEL 7
REMARK VINA RESULT:      -3.4     23.299     24.513
REMARK  1 active torsions:
REMARK  status: ('A' for Active; 'I' for Inactive)
REMARK    1  A    between atoms: C5_5  and  N7_7 
ROOT
HETATM    1  C1  UNL     1     -43.300   4.378  -1.306  1.00 20.00     0.158 C 
HETATM    2  N7  UNL     1     -43.417   5.046  -0.346  1.00 20.00    -0.268 NA
HETATM    3  S9  UNL     1     -43.169   3.467  -2.607  1.00 20.00    -0.055 SA
ENDROOT
BRANCH   2   4
HETATM    4  C5  UNL     1     -42.172   5.619   0.162  1.00 20.00     0.139 C 
HETATM    5  C2  UNL     1     -41.192   5.849  -0.988  1.00 20.00     0.059 C 
HETATM    6  C3  UNL     1     -41.093   7.362  -1.110  1.00 20.00     0.274 C 
HETATM    7  N8  UNL     1     -41.309   7.800   0.269  1.00 20.00     0.086 N 
HETATM    8  C4  UNL     1     -42.440   7.002   0.750  1.00 20.00     0.299 C 
HETATM    9  C6  UNL     1     -41.557   9.230   0.365  1.00 20.00     0.310 C 
ENDBRANCH   2   4
TORSDOF 1
ENDMDL
MODEL 8
REMARK VINA RESULT:      -3.4     16.458     17.492
REMARK  1 active torsions:
REMARK  status: ('A' for Active; 'I' for Inactive)
REMARK    1  A    between atoms: C5_5  and  N7_7 
ROOT
HETATM    1  C1  UNL     1     -34.727  15.531  -6.026  1.00 20.00     0.158 C 
HETATM    2  N7  UNL     1     -34.626  14.438  -5.606  1.00 20.00    -0.268 NA
HETATM    3  S9  UNL     1     -34.870  17.002  -6.622  1.00 20.00    -0.055 SA
ENDROOT
BRANCH   2   4
HETATM    4  C5  UNL     1     -34.242  14.352  -4.198  1.00 20.00     0.139 C 
HETATM    5  C2  UNL     1     -32.936  15.108  -3.962  1.00 20.00     0.059 C 
HETATM    6  C3  UNL     1     -33.335  16.311  -3.121  1.00 20.00     0.274 C 
HETATM    7  N8  UNL     1     -34.471  15.793  -2.358  1.00 20.00     0.086 N 
HETATM    8  C4  UNL     1     -35.282  15.060  -3.333  1.00 20.00     0.299 C 
HETATM    9  C6  UNL     1     -35.220  16.848  -1.693  1.00 20.00     0.310 C 
ENDBRANCH   2   4
TORSDOF 1
ENDMDL
MODEL 9
REMARK VINA RESULT:      -3.4      2.468      3.272
REMARK  1 active torsions:
REMARK  status: ('A' for Active; 'I' for Inactive)
REMARK    1  A    between atoms: C5_5  and  N7_7 
ROOT
HETATM    1  C1  UNL     1     -25.531  19.244   8.221  1.00 20.00     0.158 C 
HETATM    2  N7  UNL     1     -26.130  19.262   9.232  1.00 20.00    -0.268 NA
HETATM    3  S9  UNL     1     -24.743  19.222   6.837  1.00 20.00    -0.055 SA
ENDROOT
BRANCH   2   4
HETATM    4  C5  UNL     1     -25.318  19.076  10.434  1.00 20.00     0.139 C 
HETATM    5  C2  UNL     1     -26.214  19.032  11.670  1.00 20.00     0.059 C 
HETATM    6  C3  UNL     1     -26.124  17.594  12.159  1.00 20.00     0.274 C 
HETATM    7  N8  UNL     1     -24.771  17.213  11.754  1.00 20.00     0.086 N 
HETATM    8  C4  UNL     1     -24.626  17.716  10.386  1.00 20.00     0.299 C 
HETATM    9  C6  UNL     1     -24.547  15.778  11.846  1.00 20.00     0.310 C 
ENDBRANCH   2   4
TORSDOF 1
ENDMDL
