MODEL 1
REMARK VINA RESULT:      -3.8      0.000      0.000
REMARK  3 active torsions:
REMARK  status: ('A' for Active; 'I' for Inactive)
REMARK    1  A    between atoms: C4_4  and  N11_11 
REMARK    2  A    between atoms: C8_8  and  C9_9 
REMARK    3  A    between atoms: C8_8  and  N11_11 
ROOT
HETATM    1  C1  UNL     1     -34.827  13.999  -3.979  1.00 20.00     0.067 C 
HETATM    2  C2  UNL     1     -36.258  14.492  -4.154  1.00 20.00     0.274 C 
HETATM    3  C3  UNL     1     -34.963  15.931  -5.432  1.00 20.00     0.307 C 
HETATM    4  C4  UNL     1     -33.979  14.913  -4.865  1.00 20.00     0.250 C 
HETATM    5  C7  UNL     1     -37.377  16.041  -5.649  1.00 20.00     0.310 C 
HETATM    6  N10 UNL     1     -36.220  15.181  -5.445  1.00 20.00     0.086 N 
ENDROOT
BRANCH   4   7
HETATM    7  N11 UNL     1     -32.898  15.538  -4.153  1.00 20.00     0.090 N 
HETATM    8  H31 UNL     1     -32.099  15.642  -4.780  1.00 20.00     0.316 HD
BRANCH   7   9
HETATM    9  C8  UNL     1     -33.290  16.850  -3.656  1.00 20.00     0.274 C 
BRANCH   9  10
HETATM   10  C9  UNL     1     -33.322  16.890  -2.124  1.00 20.00     0.005 C 
HETATM   11  C5  UNL     1     -32.576  18.100  -1.558  1.00 20.00     0.011 C 
HETATM   12  C6  UNL     1     -34.750  16.834  -1.577  1.00 20.00     0.011 C 
ENDBRANCH   9  10
ENDBRANCH   7   9
ENDBRANCH   4   7
TORSDOF 3
ENDMDL
MODEL 2
REMARK VINA RESULT:      -3.8     10.498     11.767
REMARK  3 active torsions:
REMARK  status: ('A' for Active; 'I' for Inactive)
REMARK    1  A    between atoms: C4_4  and  N11_11 
REMARK    2  A    between atoms: C8_8  and  C9_9 
REMARK    3  A    between atoms: C8_8  and  N11_11 
ROOT
HETATM    1  C1  UNL     1     -33.490   5.163   2.616  1.00 20.00     0.067 C 
HETATM    2  C2  UNL     1     -34.005   4.441   3.854  1.00 20.00     0.274 C 
HETATM    3  C3  UNL     1     -33.812   6.664   4.488  1.00 20.00     0.307 C 
HETATM    4  C4  UNL     1     -33.414   6.638   3.016  1.00 20.00     0.250 C 
HETATM    5  C7  UNL     1     -34.947   5.126   5.982  1.00 20.00     0.310 C 
HETATM    6  N10 UNL     1     -34.690   5.499   4.598  1.00 20.00     0.086 N 
ENDROOT
BRANCH   4   7
HETATM    7  N11 UNL     1     -32.117   7.214   2.791  1.00 20.00     0.090 N 
HETATM    8  H31 UNL     1     -31.400   6.516   2.991  1.00 20.00     0.316 HD
BRANCH   7   9
HETATM    9  C8  UNL     1     -31.977   7.662   1.412  1.00 20.00     0.274 C 
BRANCH   9  10
HETATM   10  C9  UNL     1     -33.136   8.570   0.988  1.00 20.00     0.005 C 
HETATM   11  C5  UNL     1     -32.929  10.020   1.426  1.00 20.00     0.011 C 
HETATM   12  C6  UNL     1     -33.405   8.495  -0.516  1.00 20.00     0.011 C 
ENDBRANCH   9  10
ENDBRANCH   7   9
ENDBRANCH   4   7
TORSDOF 3
ENDMDL
MODEL 3
REMARK VINA RESULT:      -3.7      0.997      1.464
REMARK  3 active torsions:
REMARK  status: ('A' for Active; 'I' for Inactive)
REMARK    1  A    between atoms: C4_4  and  N11_11 
REMARK    2  A    between atoms: C8_8  and  C9_9 
REMARK    3  A    between atoms: C8_8  and  N11_11 
ROOT
HETATM    1  C1  UNL     1     -34.833  14.038  -4.117  1.00 20.00     0.067 C 
HETATM    2  C2  UNL     1     -35.953  14.332  -5.107  1.00 20.00     0.274 C 
HETATM    3  C3  UNL     1     -34.098  15.443  -5.947  1.00 20.00     0.307 C 
HETATM    4  C4  UNL     1     -33.596  14.724  -4.699  1.00 20.00     0.250 C 
HETATM    5  C7  UNL     1     -36.078  15.273  -7.339  1.00 20.00     0.310 C 
HETATM    6  N10 UNL     1     -35.235  14.615  -6.351  1.00 20.00     0.086 N 
ENDROOT
BRANCH   4   7
HETATM    7  N11 UNL     1     -32.964  15.621  -3.771  1.00 20.00     0.090 N 
HETATM    8  H31 UNL     1     -31.971  15.696  -3.998  1.00 20.00     0.316 HD
BRANCH   7   9
HETATM    9  C8  UNL     1     -33.568  16.945  -3.830  1.00 20.00     0.274 C 
BRANCH   9  10
HETATM   10  C9  UNL     1     -33.845  17.507  -2.431  1.00 20.00     0.005 C 
HETATM   11  C5  UNL     1     -34.789  16.616  -1.623  1.00 20.00     0.011 C 
HETATM   12  C6  UNL     1     -32.555  17.771  -1.653  1.00 20.00     0.011 C 
ENDBRANCH   9  10
ENDBRANCH   7   9
ENDBRANCH   4   7
TORSDOF 3
ENDMDL
MODEL 4
REMARK VINA RESULT:      -3.7      1.749      2.249
REMARK  3 active torsions:
REMARK  status: ('A' for Active; 'I' for Inactive)
REMARK    1  A    between atoms: C4_4  and  N11_11 
REMARK    2  A    between atoms: C8_8  and  C9_9 
REMARK    3  A    between atoms: C8_8  and  N11_11 
ROOT
HETATM    1  C1  UNL     1     -35.602  14.573  -6.279  1.00 20.00     0.067 C 
HETATM    2  C2  UNL     1     -36.519  15.753  -6.572  1.00 20.00     0.274 C 
HETATM    3  C3  UNL     1     -34.370  16.570  -6.878  1.00 20.00     0.307 C 
HETATM    4  C4  UNL     1     -34.187  15.095  -6.533  1.00 20.00     0.250 C 
HETATM    5  C7  UNL     1     -36.243  17.944  -7.576  1.00 20.00     0.310 C 
HETATM    6  N10 UNL     1     -35.713  16.593  -7.459  1.00 20.00     0.086 N 
ENDROOT
BRANCH   4   7
HETATM    7  N11 UNL     1     -33.308  14.902  -5.413  1.00 20.00     0.090 N 
HETATM    8  H31 UNL     1     -32.871  15.792  -5.170  1.00 20.00     0.316 HD
BRANCH   7   9
HETATM    9  C8  UNL     1     -34.038  14.397  -4.258  1.00 20.00     0.274 C 
BRANCH   9  10
HETATM   10  C9  UNL     1     -34.026  15.397  -3.096  1.00 20.00     0.005 C 
HETATM   11  C5  UNL     1     -33.068  16.563  -3.343  1.00 20.00     0.011 C 
HETATM   12  C6  UNL     1     -35.428  15.912  -2.766  1.00 20.00     0.011 C 
ENDBRANCH   9  10
ENDBRANCH   7   9
ENDBRANCH   4   7
TORSDOF 3
ENDMDL
MODEL 5
REMARK VINA RESULT:      -3.7      1.079      1.638
REMARK  3 active torsions:
REMARK  status: ('A' for Active; 'I' for Inactive)
REMARK    1  A    between atoms: C4_4  and  N11_11 
REMARK    2  A    between atoms: C8_8  and  C9_9 
REMARK    3  A    between atoms: C8_8  and  N11_11 
ROOT
HETATM    1  C1  UNL     1     -33.600  14.700  -4.269  1.00 20.00     0.067 C 
HETATM    2  C2  UNL     1     -34.901  13.983  -3.931  1.00 20.00     0.274 C 
HETATM    3  C3  UNL     1     -35.549  16.045  -4.772  1.00 20.00     0.307 C 
HETATM    4  C4  UNL     1     -34.028  16.038  -4.875  1.00 20.00     0.250 C 
HETATM    5  C7  UNL     1     -37.248  14.350  -4.417  1.00 20.00     0.310 C 
HETATM    6  N10 UNL     1     -35.875  14.619  -4.819  1.00 20.00     0.086 N 
ENDROOT
BRANCH   4   7
HETATM    7  N11 UNL     1     -33.431  17.168  -4.217  1.00 20.00     0.090 N 
HETATM    8  H31 UNL     1     -34.102  17.936  -4.194  1.00 20.00     0.316 HD
BRANCH   7   9
HETATM    9  C8  UNL     1     -33.042  16.833  -2.854  1.00 20.00     0.274 C 
BRANCH   9  10
HETATM   10  C9  UNL     1     -33.901  17.569  -1.820  1.00 20.00     0.005 C 
HETATM   11  C5  UNL     1     -35.024  16.692  -1.265  1.00 20.00     0.011 C 
HETATM   12  C6  UNL     1     -33.059  18.149  -0.682  1.00 20.00     0.011 C 
ENDBRANCH   9  10
ENDBRANCH   7   9
ENDBRANCH   4   7
TORSDOF 3
ENDMDL
MODEL 6
REMARK VINA RESULT:      -3.5      2.091      5.225
REMARK  3 active torsions:
REMARK  status: ('A' for Active; 'I' for Inactive)
REMARK    1  A    between atoms: C4_4  and  N11_11 
REMARK    2  A    between atoms: C8_8  and  C9_9 
REMARK    3  A    between atoms: C8_8  and  N11_11 
ROOT
HETATM    1  C1  UNL     1     -35.055  17.840  -0.089  1.00 20.00     0.067 C 
HETATM    2  C2  UNL     1     -33.667  18.225   0.408  1.00 20.00     0.274 C 
HETATM    3  C3  UNL     1     -33.337  17.430  -1.746  1.00 20.00     0.307 C 
HETATM    4  C4  UNL     1     -34.846  17.367  -1.529  1.00 20.00     0.250 C 
HETATM    5  C7  UNL     1     -31.490  18.527  -0.619  1.00 20.00     0.310 C 
HETATM    6  N10 UNL     1     -32.931  18.494  -0.828  1.00 20.00     0.086 N 
ENDROOT
BRANCH   4   7
HETATM    7  N11 UNL     1     -35.377  16.054  -1.771  1.00 20.00     0.090 N 
HETATM    8  H31 UNL     1     -36.265  15.954  -1.276  1.00 20.00     0.316 HD
BRANCH   7   9
HETATM    9  C8  UNL     1     -35.596  15.833  -3.193  1.00 20.00     0.274 C 
BRANCH   9  10
HETATM   10  C9  UNL     1     -35.044  14.477  -3.649  1.00 20.00     0.005 C 
HETATM   11  C5  UNL     1     -36.015  13.733  -4.567  1.00 20.00     0.011 C 
HETATM   12  C6  UNL     1     -33.672  14.609  -4.312  1.00 20.00     0.011 C 
ENDBRANCH   9  10
ENDBRANCH   7   9
ENDBRANCH   4   7
TORSDOF 3
ENDMDL
MODEL 7
REMARK VINA RESULT:      -3.5      1.716      2.708
REMARK  3 active torsions:
REMARK  status: ('A' for Active; 'I' for Inactive)
REMARK    1  A    between atoms: C4_4  and  N11_11 
REMARK    2  A    between atoms: C8_8  and  C9_9 
REMARK    3  A    between atoms: C8_8  and  N11_11 
ROOT
HETATM    1  C1  UNL     1     -36.479  16.925  -5.353  1.00 20.00     0.067 C 
HETATM    2  C2  UNL     1     -35.450  17.020  -6.473  1.00 20.00     0.274 C 
HETATM    3  C3  UNL     1     -35.537  14.768  -5.924  1.00 20.00     0.307 C 
HETATM    4  C4  UNL     1     -36.577  15.433  -5.028  1.00 20.00     0.250 C 
HETATM    5  C7  UNL     1     -34.318  15.432  -7.914  1.00 20.00     0.310 C 
HETATM    6  N10 UNL     1     -35.474  15.682  -7.065  1.00 20.00     0.086 N 
ENDROOT
BRANCH   4   7
HETATM    7  N11 UNL     1     -36.360  15.148  -3.636  1.00 20.00     0.090 N 
HETATM    8  H31 UNL     1     -36.974  14.384  -3.350  1.00 20.00     0.316 HD
BRANCH   7   9
HETATM    9  C8  UNL     1     -34.976  14.766  -3.391  1.00 20.00     0.274 C 
BRANCH   9  10
HETATM   10  C9  UNL     1     -34.253  15.788  -2.505  1.00 20.00     0.005 C 
HETATM   11  C5  UNL     1     -33.265  16.646  -3.295  1.00 20.00     0.011 C 
HETATM   12  C6  UNL     1     -35.233  16.671  -1.730  1.00 20.00     0.011 C 
ENDBRANCH   9  10
ENDBRANCH   7   9
ENDBRANCH   4   7
TORSDOF 3
ENDMDL
MODEL 8
REMARK VINA RESULT:      -3.5      1.537      2.226
REMARK  3 active torsions:
REMARK  status: ('A' for Active; 'I' for Inactive)
REMARK    1  A    between atoms: C4_4  and  N11_11 
REMARK    2  A    between atoms: C8_8  and  C9_9 
REMARK    3  A    between atoms: C8_8  and  N11_11 
ROOT
HETATM    1  C1  UNL     1     -35.056  15.848  -2.336  1.00 20.00     0.067 C 
HETATM    2  C2  UNL     1     -35.985  15.445  -3.474  1.00 20.00     0.274 C 
HETATM    3  C3  UNL     1     -33.881  15.597  -4.439  1.00 20.00     0.307 C 
HETATM    4  C4  UNL     1     -33.659  15.895  -2.959  1.00 20.00     0.250 C 
HETATM    5  C7  UNL     1     -35.685  14.624  -5.736  1.00 20.00     0.310 C 
HETATM    6  N10 UNL     1     -35.090  14.772  -4.416  1.00 20.00     0.086 N 
ENDROOT
BRANCH   4   7
HETATM    7  N11 UNL     1     -32.994  17.152  -2.750  1.00 20.00     0.090 N 
HETATM    8  H31 UNL     1     -32.783  17.575  -3.655  1.00 20.00     0.316 HD
BRANCH   7   9
HETATM    9  C8  UNL     1     -33.829  18.063  -1.979  1.00 20.00     0.274 C 
BRANCH   9  10
HETATM   10  C9  UNL     1     -33.073  18.652  -0.783  1.00 20.00     0.005 C 
HETATM   11  C5  UNL     1     -33.718  18.280   0.553  1.00 20.00     0.011 C 
HETATM   12  C6  UNL     1     -31.592  18.266  -0.792  1.00 20.00     0.011 C 
ENDBRANCH   9  10
ENDBRANCH   7   9
ENDBRANCH   4   7
TORSDOF 3
ENDMDL
MODEL 9
REMARK VINA RESULT:      -3.5      1.733      4.716
REMARK  3 active torsions:
REMARK  status: ('A' for Active; 'I' for Inactive)
REMARK    1  A    between atoms: C4_4  and  N11_11 
REMARK    2  A    between atoms: C8_8  and  C9_9 
REMARK    3  A    between atoms: C8_8  and  N11_11 
ROOT
HETATM    1  C1  UNL     1     -33.515  16.252  -3.042  1.00 20.00     0.067 C 
HETATM    2  C2  UNL     1     -32.973  17.571  -2.509  1.00 20.00     0.274 C 
HETATM    3  C3  UNL     1     -34.868  17.142  -1.242  1.00 20.00     0.307 C 
HETATM    4  C4  UNL     1     -34.734  15.940  -2.171  1.00 20.00     0.250 C 
HETATM    5  C7  UNL     1     -33.401  18.950  -0.560  1.00 20.00     0.310 C 
HETATM    6  N10 UNL     1     -33.488  17.617  -1.140  1.00 20.00     0.086 N 
ENDROOT
BRANCH   4   7
HETATM    7  N11 UNL     1     -35.926  15.707  -2.938  1.00 20.00     0.090 N 
HETATM    8  H31 UNL     1     -36.687  16.270  -2.556  1.00 20.00     0.316 HD
BRANCH   7   9
HETATM    9  C8  UNL     1     -35.725  16.061  -4.337  1.00 20.00     0.274 C 
BRANCH   9  10
HETATM   10  C9  UNL     1     -36.172  14.937  -5.278  1.00 20.00     0.005 C 
HETATM   11  C5  UNL     1     -35.297  14.844  -6.529  1.00 20.00     0.011 C 
HETATM   12  C6  UNL     1     -36.239  13.585  -4.566  1.00 20.00     0.011 C 
ENDBRANCH   9  10
ENDBRANCH   7   9
ENDBRANCH   4   7
TORSDOF 3
ENDMDL
