MODEL 1
REMARK VINA RESULT:      -4.9      0.000      0.000
REMARK  2 active torsions:
REMARK  status: ('A' for Active; 'I' for Inactive)
REMARK    1  A    between atoms: C6_6  and  C7_7 
REMARK    2  A    between atoms: C7_7  and  N8_8 
ROOT
HETATM    1  C1  UNL     1     -32.610   7.953   1.266  1.00 20.00     0.157 C 
HETATM    2  N8  UNL     1     -32.288   7.071   1.975  1.00 20.00    -0.273 NA
HETATM    3  S10 UNL     1     -33.044   9.134   0.288  1.00 20.00    -0.055 SA
ENDROOT
BRANCH   2   4
HETATM    4  C7  UNL     1     -32.270   7.395   3.398  1.00 20.00     0.182 C 
BRANCH   4   5
HETATM    5  C6  UNL     1     -33.527   6.833   4.045  1.00 20.00     0.141 C 
HETATM    6  C4  UNL     1     -33.422   6.867   5.572  1.00 20.00     0.034 C 
HETATM    7  C2  UNL     1     -34.636   6.199   6.209  1.00 20.00     0.005 C 
HETATM    8  C3  UNL     1     -34.865   4.816   5.609  1.00 20.00     0.026 C 
HETATM    9  C5  UNL     1     -34.886   4.887   4.088  1.00 20.00     0.168 C 
HETATM   10  O9  UNL     1     -33.690   5.486   3.591  1.00 20.00    -0.384 OA
ENDBRANCH   4   5
ENDBRANCH   2   4
TORSDOF 2
ENDMDL
MODEL 2
REMARK VINA RESULT:      -4.3     11.684     12.154
REMARK  2 active torsions:
REMARK  status: ('A' for Active; 'I' for Inactive)
REMARK    1  A    between atoms: C6_6  and  C7_7 
REMARK    2  A    between atoms: C7_7  and  N8_8 
ROOT
HETATM    1  C1  UNL     1     -38.783  14.722  -4.240  1.00 20.00     0.157 C 
HETATM    2  N8  UNL     1     -37.893  13.953  -4.256  1.00 20.00    -0.273 NA
HETATM    3  S10 UNL     1     -40.000  15.750  -4.203  1.00 20.00    -0.055 SA
ENDROOT
BRANCH   2   4
HETATM    4  C7  UNL     1     -36.764  14.330  -5.100  1.00 20.00     0.182 C 
BRANCH   4   5
HETATM    5  C6  UNL     1     -35.517  14.433  -4.234  1.00 20.00     0.141 C 
HETATM    6  C4  UNL     1     -35.562  15.680  -3.347  1.00 20.00     0.034 C 
HETATM    7  C2  UNL     1     -34.260  15.833  -2.568  1.00 20.00     0.005 C 
HETATM    8  C3  UNL     1     -33.061  15.753  -3.506  1.00 20.00     0.026 C 
HETATM    9  C5  UNL     1     -33.148  14.513  -4.386  1.00 20.00     0.168 C 
HETATM   10  O9  UNL     1     -34.382  14.487  -5.104  1.00 20.00    -0.384 OA
ENDBRANCH   4   5
ENDBRANCH   2   4
TORSDOF 2
ENDMDL
MODEL 3
REMARK VINA RESULT:      -4.1     14.697     15.677
REMARK  2 active torsions:
REMARK  status: ('A' for Active; 'I' for Inactive)
REMARK    1  A    between atoms: C6_6  and  C7_7 
REMARK    2  A    between atoms: C7_7  and  N8_8 
ROOT
HETATM    1  C1  UNL     1     -26.276  18.740   5.250  1.00 20.00     0.157 C 
HETATM    2  N8  UNL     1     -26.067  18.608   6.401  1.00 20.00    -0.273 NA
HETATM    3  S10 UNL     1     -26.579  18.905   3.695  1.00 20.00    -0.055 SA
ENDROOT
BRANCH   2   4
HETATM    4  C7  UNL     1     -24.858  19.263   6.889  1.00 20.00     0.182 C 
BRANCH   4   5
HETATM    5  C6  UNL     1     -24.134  18.315   7.834  1.00 20.00     0.141 C 
HETATM    6  C4  UNL     1     -24.112  18.870   9.261  1.00 20.00     0.034 C 
HETATM    7  C2  UNL     1     -23.288  17.970  10.175  1.00 20.00     0.005 C 
HETATM    8  C3  UNL     1     -21.916  17.698   9.568  1.00 20.00     0.026 C 
HETATM    9  C5  UNL     1     -22.051  17.214   8.130  1.00 20.00     0.168 C 
HETATM   10  O9  UNL     1     -22.798  18.146   7.349  1.00 20.00    -0.384 OA
ENDBRANCH   4   5
ENDBRANCH   2   4
TORSDOF 2
ENDMDL
MODEL 4
REMARK VINA RESULT:      -4.0     15.313     15.613
REMARK  2 active torsions:
REMARK  status: ('A' for Active; 'I' for Inactive)
REMARK    1  A    between atoms: C6_6  and  C7_7 
REMARK    2  A    between atoms: C7_7  and  N8_8 
ROOT
HETATM    1  C1  UNL     1     -25.623  19.200   7.113  1.00 20.00     0.157 C 
HETATM    2  N8  UNL     1     -25.339  19.235   8.254  1.00 20.00    -0.273 NA
HETATM    3  S10 UNL     1     -26.027  19.165   5.572  1.00 20.00    -0.055 SA
ENDROOT
BRANCH   2   4
HETATM    4  C7  UNL     1     -24.131  18.500   8.614  1.00 20.00     0.182 C 
BRANCH   4   5
HETATM    5  C6  UNL     1     -24.195  18.145  10.092  1.00 20.00     0.141 C 
HETATM    6  C4  UNL     1     -24.099  16.630  10.299  1.00 20.00     0.034 C 
HETATM    7  C2  UNL     1     -24.278  16.277  11.772  1.00 20.00     0.005 C 
HETATM    8  C3  UNL     1     -25.540  16.926  12.331  1.00 20.00     0.026 C 
HETATM    9  C5  UNL     1     -25.565  18.415  12.013  1.00 20.00     0.168 C 
HETATM   10  O9  UNL     1     -25.436  18.636  10.609  1.00 20.00    -0.384 OA
ENDBRANCH   4   5
ENDBRANCH   2   4
TORSDOF 2
ENDMDL
MODEL 5
REMARK VINA RESULT:      -4.0     11.838     12.403
REMARK  2 active torsions:
REMARK  status: ('A' for Active; 'I' for Inactive)
REMARK    1  A    between atoms: C6_6  and  C7_7 
REMARK    2  A    between atoms: C7_7  and  N8_8 
ROOT
HETATM    1  C1  UNL     1     -31.195  18.528   0.333  1.00 20.00     0.157 C 
HETATM    2  N8  UNL     1     -30.928  18.540  -0.812  1.00 20.00    -0.273 NA
HETATM    3  S10 UNL     1     -31.535  18.509   1.890  1.00 20.00    -0.055 SA
ENDROOT
BRANCH   2   4
HETATM    4  C7  UNL     1     -32.061  18.741  -1.710  1.00 20.00     0.182 C 
BRANCH   4   5
HETATM    5  C6  UNL     1     -32.957  17.512  -1.652  1.00 20.00     0.141 C 
HETATM    6  C4  UNL     1     -33.033  16.821  -3.017  1.00 20.00     0.034 C 
HETATM    7  C2  UNL     1     -34.021  15.660  -2.977  1.00 20.00     0.005 C 
HETATM    8  C3  UNL     1     -35.361  16.113  -2.408  1.00 20.00     0.026 C 
HETATM    9  C5  UNL     1     -35.164  16.844  -1.086  1.00 20.00     0.168 C 
HETATM   10  O9  UNL     1     -34.260  17.937  -1.241  1.00 20.00    -0.384 OA
ENDBRANCH   4   5
ENDBRANCH   2   4
TORSDOF 2
ENDMDL
MODEL 6
REMARK VINA RESULT:      -3.9     11.680     12.216
REMARK  2 active torsions:
REMARK  status: ('A' for Active; 'I' for Inactive)
REMARK    1  A    between atoms: C6_6  and  C7_7 
REMARK    2  A    between atoms: C7_7  and  N8_8 
ROOT
HETATM    1  C1  UNL     1     -36.353  15.102  -6.690  1.00 20.00     0.157 C 
HETATM    2  N8  UNL     1     -35.925  14.074  -6.308  1.00 20.00    -0.273 NA
HETATM    3  S10 UNL     1     -36.922  16.489  -7.228  1.00 20.00    -0.055 SA
ENDROOT
BRANCH   2   4
HETATM    4  C7  UNL     1     -36.239  13.751  -4.920  1.00 20.00     0.182 C 
BRANCH   4   5
HETATM    5  C6  UNL     1     -35.080  14.195  -4.039  1.00 20.00     0.141 C 
HETATM    6  C4  UNL     1     -35.439  15.459  -3.253  1.00 20.00     0.034 C 
HETATM    7  C2  UNL     1     -34.235  15.959  -2.462  1.00 20.00     0.005 C 
HETATM    8  C3  UNL     1     -33.013  16.087  -3.365  1.00 20.00     0.026 C 
HETATM    9  C5  UNL     1     -32.787  14.800  -4.148  1.00 20.00     0.168 C 
HETATM   10  O9  UNL     1     -33.954  14.443  -4.887  1.00 20.00    -0.384 OA
ENDBRANCH   4   5
ENDBRANCH   2   4
TORSDOF 2
ENDMDL
MODEL 7
REMARK VINA RESULT:      -3.8     11.786     12.265
REMARK  2 active torsions:
REMARK  status: ('A' for Active; 'I' for Inactive)
REMARK    1  A    between atoms: C6_6  and  C7_7 
REMARK    2  A    between atoms: C7_7  and  N8_8 
ROOT
HETATM    1  C1  UNL     1     -35.509  14.772  -6.778  1.00 20.00     0.157 C 
HETATM    2  N8  UNL     1     -36.286  14.211  -6.096  1.00 20.00    -0.273 NA
HETATM    3  S10 UNL     1     -34.471  15.532  -7.719  1.00 20.00    -0.055 SA
ENDROOT
BRANCH   2   4
HETATM    4  C7  UNL     1     -35.841  13.958  -4.730  1.00 20.00     0.182 C 
BRANCH   4   5
HETATM    5  C6  UNL     1     -35.238  15.236  -4.165  1.00 20.00     0.141 C 
HETATM    6  C4  UNL     1     -33.788  15.015  -3.728  1.00 20.00     0.034 C 
HETATM    7  C2  UNL     1     -33.230  16.268  -3.062  1.00 20.00     0.005 C 
HETATM    8  C3  UNL     1     -34.168  16.753  -1.962  1.00 20.00     0.026 C 
HETATM    9  C5  UNL     1     -35.593  16.876  -2.485  1.00 20.00     0.168 C 
HETATM   10  O9  UNL     1     -36.035  15.640  -3.047  1.00 20.00    -0.384 OA
ENDBRANCH   4   5
ENDBRANCH   2   4
TORSDOF 2
ENDMDL
MODEL 8
REMARK VINA RESULT:      -3.7     11.757     12.396
REMARK  2 active torsions:
REMARK  status: ('A' for Active; 'I' for Inactive)
REMARK    1  A    between atoms: C6_6  and  C7_7 
REMARK    2  A    between atoms: C7_7  and  N8_8 
ROOT
HETATM    1  C1  UNL     1     -34.149  15.006  -6.443  1.00 20.00     0.157 C 
HETATM    2  N8  UNL     1     -34.194  14.554  -5.357  1.00 20.00    -0.273 NA
HETATM    3  S10 UNL     1     -34.110  15.610  -7.916  1.00 20.00    -0.055 SA
ENDROOT
BRANCH   2   4
HETATM    4  C7  UNL     1     -32.981  14.725  -4.565  1.00 20.00     0.182 C 
BRANCH   4   5
HETATM    5  C6  UNL     1     -33.293  15.625  -3.378  1.00 20.00     0.141 C 
HETATM    6  C4  UNL     1     -34.735  15.427  -2.901  1.00 20.00     0.034 C 
HETATM    7  C2  UNL     1     -35.072  16.412  -1.786  1.00 20.00     0.005 C 
HETATM    8  C3  UNL     1     -34.722  17.836  -2.204  1.00 20.00     0.026 C 
HETATM    9  C5  UNL     1     -33.291  17.908  -2.723  1.00 20.00     0.168 C 
HETATM   10  O9  UNL     1     -33.092  16.981  -3.790  1.00 20.00    -0.384 OA
ENDBRANCH   4   5
ENDBRANCH   2   4
TORSDOF 2
ENDMDL
MODEL 9
REMARK VINA RESULT:      -3.7     15.626     16.540
REMARK  2 active torsions:
REMARK  status: ('A' for Active; 'I' for Inactive)
REMARK    1  A    between atoms: C6_6  and  C7_7 
REMARK    2  A    between atoms: C7_7  and  N8_8 
ROOT
HETATM    1  C1  UNL     1     -28.117  18.536  11.675  1.00 20.00     0.157 C 
HETATM    2  N8  UNL     1     -27.077  19.079  11.598  1.00 20.00    -0.273 NA
HETATM    3  S10 UNL     1     -29.536  17.817  11.768  1.00 20.00    -0.055 SA
ENDROOT
BRANCH   2   4
HETATM    4  C7  UNL     1     -25.956  18.356  12.190  1.00 20.00     0.182 C 
BRANCH   4   5
HETATM    5  C6  UNL     1     -24.975  17.984  11.087  1.00 20.00     0.141 C 
HETATM    6  C4  UNL     1     -23.539  17.949  11.616  1.00 20.00     0.034 C 
HETATM    7  C2  UNL     1     -22.555  17.687  10.480  1.00 20.00     0.005 C 
HETATM    8  C3  UNL     1     -22.794  18.655   9.327  1.00 20.00     0.026 C 
HETATM    9  C5  UNL     1     -24.263  18.660   8.925  1.00 20.00     0.168 C 
HETATM   10  O9  UNL     1     -25.095  18.958  10.046  1.00 20.00    -0.384 OA
ENDBRANCH   4   5
ENDBRANCH   2   4
TORSDOF 2
ENDMDL
