MODEL 1
REMARK VINA RESULT:      -5.1      0.000      0.000
REMARK  1 active torsions:
REMARK  status: ('A' for Active; 'I' for Inactive)
REMARK    1  A    between atoms: C1_1  and  O10_10 
ROOT
HETATM    1  C1  UNL     1     -35.953  13.643  -4.883  1.00 20.00     0.099 C 
HETATM    2  C2  UNL     1     -35.049  14.632  -5.066  1.00 20.00     0.026 C 
HETATM    3  C3  UNL     1     -37.165  14.451  -4.552  1.00 20.00     0.183 C 
HETATM    4  C4  UNL     1     -34.058  14.909  -3.964  1.00 20.00     0.018 C 
HETATM    5  C5  UNL     1     -35.708  15.897  -5.553  1.00 20.00     0.030 C 
HETATM    6  C6  UNL     1     -34.881  15.440  -2.760  1.00 20.00     0.002 C 
HETATM    7  C7  UNL     1     -36.142  16.285  -3.135  1.00 20.00     0.013 C 
HETATM    8  C8  UNL     1     -36.793  15.922  -4.497  1.00 20.00     0.063 C 
HETATM    9  O9  UNL     1     -38.251  13.976  -4.262  1.00 20.00    -0.290 OA
ENDROOT
BRANCH   1  10
HETATM   10  O10 UNL     1     -35.770  12.440  -4.268  1.00 20.00    -0.360 OA
HETATM   11  H20 UNL     1     -36.467  12.282  -3.616  1.00 20.00     0.217 HD
ENDBRANCH   1  10
TORSDOF 1
ENDMDL
MODEL 2
REMARK VINA RESULT:      -5.0      1.815      2.506
REMARK  1 active torsions:
REMARK  status: ('A' for Active; 'I' for Inactive)
REMARK    1  A    between atoms: C1_1  and  O10_10 
ROOT
HETATM    1  C1  UNL     1     -33.507  14.861  -4.826  1.00 20.00     0.099 C 
HETATM    2  C2  UNL     1     -33.977  16.126  -4.746  1.00 20.00     0.026 C 
HETATM    3  C3  UNL     1     -34.593  14.131  -4.106  1.00 20.00     0.183 C 
HETATM    4  C4  UNL     1     -33.364  17.055  -3.729  1.00 20.00     0.018 C 
HETATM    5  C5  UNL     1     -35.483  16.152  -4.687  1.00 20.00     0.030 C 
HETATM    6  C6  UNL     1     -33.735  16.484  -2.335  1.00 20.00     0.002 C 
HETATM    7  C7  UNL     1     -35.127  15.775  -2.255  1.00 20.00     0.013 C 
HETATM    8  C8  UNL     1     -35.610  15.127  -3.579  1.00 20.00     0.063 C 
HETATM    9  O9  UNL     1     -34.587  12.930  -3.886  1.00 20.00    -0.290 OA
ENDROOT
BRANCH   1  10
HETATM   10  O10 UNL     1     -32.219  14.432  -4.693  1.00 20.00    -0.360 OA
HETATM   11  H20 UNL     1     -31.760  14.941  -4.011  1.00 20.00     0.217 HD
ENDBRANCH   1  10
TORSDOF 1
ENDMDL
MODEL 3
REMARK VINA RESULT:      -4.7      1.386      2.210
REMARK  1 active torsions:
REMARK  status: ('A' for Active; 'I' for Inactive)
REMARK    1  A    between atoms: C1_1  and  O10_10 
ROOT
HETATM    1  C1  UNL     1     -35.859  13.874  -4.543  1.00 20.00     0.099 C 
HETATM    2  C2  UNL     1     -34.859  14.354  -3.769  1.00 20.00     0.026 C 
HETATM    3  C3  UNL     1     -35.489  14.482  -5.856  1.00 20.00     0.183 C 
HETATM    4  C4  UNL     1     -35.157  15.512  -2.851  1.00 20.00     0.018 C 
HETATM    5  C5  UNL     1     -33.605  14.588  -4.571  1.00 20.00     0.030 C 
HETATM    6  C6  UNL     1     -35.469  16.726  -3.765  1.00 20.00     0.002 C 
HETATM    7  C7  UNL     1     -34.679  16.764  -5.115  1.00 20.00     0.013 C 
HETATM    8  C8  UNL     1     -34.276  15.375  -5.678  1.00 20.00     0.063 C 
HETATM    9  O9  UNL     1     -36.143  14.359  -6.880  1.00 20.00    -0.290 OA
ENDROOT
BRANCH   1  10
HETATM   10  O10 UNL     1     -37.177  13.736  -4.224  1.00 20.00    -0.360 OA
HETATM   11  H20 UNL     1     -37.734  14.176  -4.881  1.00 20.00     0.217 HD
ENDBRANCH   1  10
TORSDOF 1
ENDMDL
MODEL 4
REMARK VINA RESULT:      -4.7      0.918      2.666
REMARK  1 active torsions:
REMARK  status: ('A' for Active; 'I' for Inactive)
REMARK    1  A    between atoms: C1_1  and  O10_10 
ROOT
HETATM    1  C1  UNL     1     -36.750  14.799  -4.251  1.00 20.00     0.099 C 
HETATM    2  C2  UNL     1     -36.027  15.864  -3.835  1.00 20.00     0.026 C 
HETATM    3  C3  UNL     1     -35.702  13.736  -4.206  1.00 20.00     0.183 C 
HETATM    4  C4  UNL     1     -35.559  16.858  -4.867  1.00 20.00     0.018 C 
HETATM    5  C5  UNL     1     -34.908  15.445  -2.916  1.00 20.00     0.030 C 
HETATM    6  C6  UNL     1     -34.541  16.107  -5.766  1.00 20.00     0.002 C 
HETATM    7  C7  UNL     1     -33.684  15.020  -5.039  1.00 20.00     0.013 C 
HETATM    8  C8  UNL     1     -34.371  14.353  -3.818  1.00 20.00     0.063 C 
HETATM    9  O9  UNL     1     -35.883  12.577  -4.544  1.00 20.00    -0.290 OA
ENDROOT
BRANCH   1  10
HETATM   10  O10 UNL     1     -37.696  14.757  -5.232  1.00 20.00    -0.360 OA
HETATM   11  H20 UNL     1     -38.454  15.310  -4.999  1.00 20.00     0.217 HD
ENDBRANCH   1  10
TORSDOF 1
ENDMDL
MODEL 5
REMARK VINA RESULT:      -4.6      1.382      2.029
REMARK  1 active torsions:
REMARK  status: ('A' for Active; 'I' for Inactive)
REMARK    1  A    between atoms: C1_1  and  O10_10 
ROOT
HETATM    1  C1  UNL     1     -35.570  14.838  -5.895  1.00 20.00     0.099 C 
HETATM    2  C2  UNL     1     -35.649  16.090  -5.390  1.00 20.00     0.026 C 
HETATM    3  C3  UNL     1     -35.898  14.041  -4.675  1.00 20.00     0.183 C 
HETATM    4  C4  UNL     1     -34.367  16.817  -5.074  1.00 20.00     0.018 C 
HETATM    5  C5  UNL     1     -36.628  16.162  -4.246  1.00 20.00     0.030 C 
HETATM    6  C6  UNL     1     -33.701  16.040  -3.907  1.00 20.00     0.002 C 
HETATM    7  C7  UNL     1     -34.693  15.380  -2.894  1.00 20.00     0.013 C 
HETATM    8  C8  UNL     1     -36.067  14.975  -3.491  1.00 20.00     0.063 C 
HETATM    9  O9  UNL     1     -35.910  12.822  -4.632  1.00 20.00    -0.290 OA
ENDROOT
BRANCH   1  10
HETATM   10  O10 UNL     1     -34.661  14.345  -6.784  1.00 20.00    -0.360 OA
HETATM   11  H20 UNL     1     -33.760  14.546  -6.495  1.00 20.00     0.217 HD
ENDBRANCH   1  10
TORSDOF 1
ENDMDL
MODEL 6
REMARK VINA RESULT:      -4.5      2.099      2.501
REMARK  1 active torsions:
REMARK  status: ('A' for Active; 'I' for Inactive)
REMARK    1  A    between atoms: C1_1  and  O10_10 
ROOT
HETATM    1  C1  UNL     1     -34.246  15.345  -6.378  1.00 20.00     0.099 C 
HETATM    2  C2  UNL     1     -34.328  15.864  -5.132  1.00 20.00     0.026 C 
HETATM    3  C3  UNL     1     -35.675  14.975  -6.604  1.00 20.00     0.183 C 
HETATM    4  C4  UNL     1     -33.863  15.019  -3.973  1.00 20.00     0.018 C 
HETATM    5  C5  UNL     1     -35.685  16.466  -4.874  1.00 20.00     0.030 C 
HETATM    6  C6  UNL     1     -34.841  13.818  -3.888  1.00 20.00     0.002 C 
HETATM    7  C7  UNL     1     -36.317  14.128  -4.305  1.00 20.00     0.013 C 
HETATM    8  C8  UNL     1     -36.477  15.265  -5.349  1.00 20.00     0.063 C 
HETATM    9  O9  UNL     1     -36.091  14.420  -7.608  1.00 20.00    -0.290 OA
ENDROOT
BRANCH   1  10
HETATM   10  O10 UNL     1     -33.265  14.551  -6.896  1.00 20.00    -0.360 OA
HETATM   11  H20 UNL     1     -33.204  13.722  -6.402  1.00 20.00     0.217 HD
ENDBRANCH   1  10
TORSDOF 1
ENDMDL
MODEL 7
REMARK VINA RESULT:      -4.5      1.284      2.920
REMARK  1 active torsions:
REMARK  status: ('A' for Active; 'I' for Inactive)
REMARK    1  A    between atoms: C1_1  and  O10_10 
ROOT
HETATM    1  C1  UNL     1     -35.371  13.769  -3.890  1.00 20.00     0.099 C 
HETATM    2  C2  UNL     1     -35.912  14.928  -3.452  1.00 20.00     0.026 C 
HETATM    3  C3  UNL     1     -33.945  14.186  -4.046  1.00 20.00     0.183 C 
HETATM    4  C4  UNL     1     -36.695  15.768  -4.430  1.00 20.00     0.018 C 
HETATM    5  C5  UNL     1     -34.906  15.753  -2.690  1.00 20.00     0.030 C 
HETATM    6  C6  UNL     1     -35.677  16.266  -5.490  1.00 20.00     0.002 C 
HETATM    7  C7  UNL     1     -34.233  16.533  -4.954  1.00 20.00     0.013 C 
HETATM    8  C8  UNL     1     -33.814  15.666  -3.736  1.00 20.00     0.063 C 
HETATM    9  O9  UNL     1     -33.059  13.462  -4.469  1.00 20.00    -0.290 OA
ENDROOT
BRANCH   1  10
HETATM   10  O10 UNL     1     -35.901  12.874  -4.772  1.00 20.00    -0.360 OA
HETATM   11  H20 UNL     1     -36.103  13.306  -5.614  1.00 20.00     0.217 HD
ENDBRANCH   1  10
TORSDOF 1
ENDMDL
MODEL 8
REMARK VINA RESULT:      -4.3     18.224     19.533
REMARK  1 active torsions:
REMARK  status: ('A' for Active; 'I' for Inactive)
REMARK    1  A    between atoms: C1_1  and  O10_10 
ROOT
HETATM    1  C1  UNL     1     -25.849  17.099  12.264  1.00 20.00     0.099 C 
HETATM    2  C2  UNL     1     -25.362  18.359  12.199  1.00 20.00     0.026 C 
HETATM    3  C3  UNL     1     -24.686  16.339  11.716  1.00 20.00     0.183 C 
HETATM    4  C4  UNL     1     -25.834  19.251  11.078  1.00 20.00     0.018 C 
HETATM    5  C5  UNL     1     -23.861  18.378  12.332  1.00 20.00     0.030 C 
HETATM    6  C6  UNL     1     -25.292  18.627   9.765  1.00 20.00     0.002 C 
HETATM    7  C7  UNL     1     -23.907  17.911   9.889  1.00 20.00     0.013 C 
HETATM    8  C8  UNL     1     -23.602  17.311  11.288  1.00 20.00     0.063 C 
HETATM    9  O9  UNL     1     -24.674  15.131  11.542  1.00 20.00    -0.290 OA
ENDROOT
BRANCH   1  10
HETATM   10  O10 UNL     1     -27.113  16.670  11.984  1.00 20.00    -0.360 OA
HETATM   11  H20 UNL     1     -27.204  15.728  12.182  1.00 20.00     0.217 HD
ENDBRANCH   1  10
TORSDOF 1
ENDMDL
MODEL 9
REMARK VINA RESULT:      -4.3     18.426     19.655
REMARK  1 active torsions:
REMARK  status: ('A' for Active; 'I' for Inactive)
REMARK    1  A    between atoms: C1_1  and  O10_10 
ROOT
HETATM    1  C1  UNL     1     -25.007  18.161  11.096  1.00 20.00     0.099 C 
HETATM    2  C2  UNL     1     -24.305  17.061  11.451  1.00 20.00     0.026 C 
HETATM    3  C3  UNL     1     -24.520  18.344   9.696  1.00 20.00     0.183 C 
HETATM    4  C4  UNL     1     -23.094  17.238  12.332  1.00 20.00     0.018 C 
HETATM    5  C5  UNL     1     -24.003  16.192  10.257  1.00 20.00     0.030 C 
HETATM    6  C6  UNL     1     -22.055  18.028  11.493  1.00 20.00     0.002 C 
HETATM    7  C7  UNL     1     -22.076  17.735   9.957  1.00 20.00     0.013 C 
HETATM    8  C8  UNL     1     -23.455  17.307   9.390  1.00 20.00     0.063 C 
HETATM    9  O9  UNL     1     -24.856  19.263   8.966  1.00 20.00    -0.290 OA
ENDROOT
BRANCH   1  10
HETATM   10  O10 UNL     1     -25.282  19.263  11.852  1.00 20.00    -0.360 OA
HETATM   11  H20 UNL     1     -25.078  19.097  12.782  1.00 20.00     0.217 HD
ENDBRANCH   1  10
TORSDOF 1
ENDMDL
