MODEL 1
REMARK VINA RESULT:      -4.2      0.000      0.000
REMARK  1 active torsions:
REMARK  status: ('A' for Active; 'I' for Inactive)
REMARK    1  A    between atoms: C3_3  and  O8_8 
ROOT
HETATM    1  C1  UNL     1     -36.628  15.899  -4.923  1.00 20.00     0.040 C 
HETATM    2  C2  UNL     1     -37.879  15.264  -4.345  1.00 20.00     0.172 C 
HETATM    3  C3  UNL     1     -36.353  13.572  -4.844  1.00 20.00     0.264 C 
HETATM    4  C4  UNL     1     -35.552  14.863  -4.622  1.00 20.00     0.004 C 
HETATM    5  C5  UNL     1     -35.051  15.003  -3.173  1.00 20.00     0.020 C 
HETATM    6  C6  UNL     1     -34.359  14.970  -5.574  1.00 20.00     0.020 C 
HETATM    7  O7  UNL     1     -37.684  13.842  -4.375  1.00 20.00    -0.361 OA
ENDROOT
BRANCH   3   8
HETATM    8  O8  UNL     1     -35.765  12.468  -4.177  1.00 20.00    -0.371 OA
HETATM    9  H20 UNL     1     -34.855  12.726  -3.963  1.00 20.00     0.212 HD
ENDBRANCH   3   8
TORSDOF 1
ENDMDL
MODEL 2
REMARK VINA RESULT:      -4.1      2.460      3.365
REMARK  1 active torsions:
REMARK  status: ('A' for Active; 'I' for Inactive)
REMARK    1  A    between atoms: C3_3  and  O8_8 
ROOT
HETATM    1  C1  UNL     1     -34.989  15.479  -2.811  1.00 20.00     0.040 C 
HETATM    2  C2  UNL     1     -33.666  16.218  -2.729  1.00 20.00     0.172 C 
HETATM    3  C3  UNL     1     -33.493  14.574  -4.374  1.00 20.00     0.264 C 
HETATM    4  C4  UNL     1     -34.979  14.928  -4.232  1.00 20.00     0.004 C 
HETATM    5  C5  UNL     1     -35.426  16.005  -5.237  1.00 20.00     0.020 C 
HETATM    6  C6  UNL     1     -35.879  13.701  -4.386  1.00 20.00     0.020 C 
HETATM    7  O7  UNL     1     -32.771  15.589  -3.657  1.00 20.00    -0.361 OA
ENDROOT
BRANCH   3   8
HETATM    8  O8  UNL     1     -33.098  14.496  -5.734  1.00 20.00    -0.371 OA
HETATM    9  H20 UNL     1     -33.906  14.584  -6.262  1.00 20.00     0.212 HD
ENDBRANCH   3   8
TORSDOF 1
ENDMDL
MODEL 3
REMARK VINA RESULT:      -4.0      2.321      2.911
REMARK  1 active torsions:
REMARK  status: ('A' for Active; 'I' for Inactive)
REMARK    1  A    between atoms: C3_3  and  O8_8 
ROOT
HETATM    1  C1  UNL     1     -35.375  15.843  -5.277  1.00 20.00     0.040 C 
HETATM    2  C2  UNL     1     -34.858  15.323  -6.605  1.00 20.00     0.172 C 
HETATM    3  C3  UNL     1     -33.414  14.610  -4.920  1.00 20.00     0.264 C 
HETATM    4  C4  UNL     1     -34.784  14.858  -4.276  1.00 20.00     0.004 C 
HETATM    5  C5  UNL     1     -35.639  13.580  -4.200  1.00 20.00     0.020 C 
HETATM    6  C6  UNL     1     -34.661  15.457  -2.874  1.00 20.00     0.020 C 
HETATM    7  O7  UNL     1     -33.629  14.631  -6.340  1.00 20.00    -0.361 OA
ENDROOT
BRANCH   3   8
HETATM    8  O8  UNL     1     -32.842  13.388  -4.484  1.00 20.00    -0.371 OA
HETATM    9  H20 UNL     1     -32.151  13.618  -3.843  1.00 20.00     0.212 HD
ENDBRANCH   3   8
TORSDOF 1
ENDMDL
MODEL 4
REMARK VINA RESULT:      -4.0     19.391     19.956
REMARK  1 active torsions:
REMARK  status: ('A' for Active; 'I' for Inactive)
REMARK    1  A    between atoms: C3_3  and  O8_8 
ROOT
HETATM    1  C1  UNL     1     -24.732  18.362  10.403  1.00 20.00     0.040 C 
HETATM    2  C2  UNL     1     -25.665  18.223  11.591  1.00 20.00     0.172 C 
HETATM    3  C3  UNL     1     -24.465  16.238  11.358  1.00 20.00     0.264 C 
HETATM    4  C4  UNL     1     -23.631  17.356  10.718  1.00 20.00     0.004 C 
HETATM    5  C5  UNL     1     -22.606  17.959  11.696  1.00 20.00     0.020 C 
HETATM    6  C6  UNL     1     -22.900  16.881   9.461  1.00 20.00     0.020 C 
HETATM    7  O7  UNL     1     -25.507  16.890  12.100  1.00 20.00    -0.361 OA
ENDROOT
BRANCH   3   8
HETATM    8  O8  UNL     1     -23.672  15.394  12.178  1.00 20.00    -0.371 OA
HETATM    9  H20 UNL     1     -23.556  15.859  13.021  1.00 20.00     0.212 HD
ENDBRANCH   3   8
TORSDOF 1
ENDMDL
MODEL 5
REMARK VINA RESULT:      -4.0     18.075     19.439
REMARK  1 active torsions:
REMARK  status: ('A' for Active; 'I' for Inactive)
REMARK    1  A    between atoms: C3_3  and  O8_8 
ROOT
HETATM    1  C1  UNL     1     -24.215  18.740   9.760  1.00 20.00     0.040 C 
HETATM    2  C2  UNL     1     -24.289  18.532   8.259  1.00 20.00     0.172 C 
HETATM    3  C3  UNL     1     -22.325  17.552   9.045  1.00 20.00     0.264 C 
HETATM    4  C4  UNL     1     -23.317  17.597  10.216  1.00 20.00     0.004 C 
HETATM    5  C5  UNL     1     -24.122  16.292  10.355  1.00 20.00     0.020 C 
HETATM    6  C6  UNL     1     -22.623  17.897  11.545  1.00 20.00     0.020 C 
HETATM    7  O7  UNL     1     -23.085  17.857   7.865  1.00 20.00    -0.361 OA
ENDROOT
BRANCH   3   8
HETATM    8  O8  UNL     1     -21.677  16.293   8.953  1.00 20.00    -0.371 OA
HETATM    9  H20 UNL     1     -22.316  15.682   8.555  1.00 20.00     0.212 HD
ENDBRANCH   3   8
TORSDOF 1
ENDMDL
MODEL 6
REMARK VINA RESULT:      -4.0     19.246     19.898
REMARK  1 active torsions:
REMARK  status: ('A' for Active; 'I' for Inactive)
REMARK    1  A    between atoms: C3_3  and  O8_8 
ROOT
HETATM    1  C1  UNL     1     -22.963  16.846   9.578  1.00 20.00     0.040 C 
HETATM    2  C2  UNL     1     -22.795  18.215   8.947  1.00 20.00     0.172 C 
HETATM    3  C3  UNL     1     -24.645  18.278  10.364  1.00 20.00     0.264 C 
HETATM    4  C4  UNL     1     -23.721  17.158  10.863  1.00 20.00     0.004 C 
HETATM    5  C5  UNL     1     -22.757  17.636  11.963  1.00 20.00     0.020 C 
HETATM    6  C6  UNL     1     -24.508  15.952  11.381  1.00 20.00     0.020 C 
HETATM    7  O7  UNL     1     -23.879  19.032   9.411  1.00 20.00    -0.361 OA
ENDROOT
BRANCH   3   8
HETATM    8  O8  UNL     1     -25.115  19.085  11.431  1.00 20.00    -0.371 OA
HETATM    9  H20 UNL     1     -26.078  18.970  11.461  1.00 20.00     0.212 HD
ENDBRANCH   3   8
TORSDOF 1
ENDMDL
MODEL 7
REMARK VINA RESULT:      -3.9      1.085      2.328
REMARK  1 active torsions:
REMARK  status: ('A' for Active; 'I' for Inactive)
REMARK    1  A    between atoms: C3_3  and  O8_8 
ROOT
HETATM    1  C1  UNL     1     -34.520  15.487  -5.436  1.00 20.00     0.040 C 
HETATM    2  C2  UNL     1     -35.102  14.879  -6.699  1.00 20.00     0.172 C 
HETATM    3  C3  UNL     1     -36.150  13.905  -4.858  1.00 20.00     0.264 C 
HETATM    4  C4  UNL     1     -35.634  15.281  -4.417  1.00 20.00     0.004 C 
HETATM    5  C5  UNL     1     -36.704  16.381  -4.551  1.00 20.00     0.020 C 
HETATM    6  C6  UNL     1     -35.113  15.267  -2.980  1.00 20.00     0.020 C 
HETATM    7  O7  UNL     1     -36.046  13.878  -6.290  1.00 20.00    -0.361 OA
ENDROOT
BRANCH   3   8
HETATM    8  O8  UNL     1     -37.477  13.673  -4.414  1.00 20.00    -0.371 OA
HETATM    9  H20 UNL     1     -37.994  14.452  -4.672  1.00 20.00     0.212 HD
ENDBRANCH   3   8
TORSDOF 1
ENDMDL
MODEL 8
REMARK VINA RESULT:      -3.9     10.203     11.127
REMARK  1 active torsions:
REMARK  status: ('A' for Active; 'I' for Inactive)
REMARK    1  A    between atoms: C3_3  and  O8_8 
ROOT
HETATM    1  C1  UNL     1     -42.150   7.445  -1.331  1.00 20.00     0.040 C 
HETATM    2  C2  UNL     1     -41.376   8.131  -0.221  1.00 20.00     0.172 C 
HETATM    3  C3  UNL     1     -42.400   6.229   0.658  1.00 20.00     0.264 C 
HETATM    4  C4  UNL     1     -42.223   6.001  -0.849  1.00 20.00     0.004 C 
HETATM    5  C5  UNL     1     -40.922   5.249  -1.182  1.00 20.00     0.020 C 
HETATM    6  C6  UNL     1     -43.405   5.244  -1.458  1.00 20.00     0.020 C 
HETATM    7  O7  UNL     1     -41.611   7.385   0.982  1.00 20.00    -0.361 OA
ENDROOT
BRANCH   3   8
HETATM    8  O8  UNL     1     -42.015   5.091   1.411  1.00 20.00    -0.371 OA
HETATM    9  H20 UNL     1     -41.292   5.374   1.992  1.00 20.00     0.212 HD
ENDBRANCH   3   8
TORSDOF 1
ENDMDL
MODEL 9
REMARK VINA RESULT:      -3.8     19.127     19.717
REMARK  1 active torsions:
REMARK  status: ('A' for Active; 'I' for Inactive)
REMARK    1  A    between atoms: C3_3  and  O8_8 
ROOT
HETATM    1  C1  UNL     1     -24.811  18.172  11.397  1.00 20.00     0.040 C 
HETATM    2  C2  UNL     1     -24.975  16.780  11.978  1.00 20.00     0.172 C 
HETATM    3  C3  UNL     1     -23.965  16.593   9.885  1.00 20.00     0.264 C 
HETATM    4  C4  UNL     1     -23.654  17.997  10.421  1.00 20.00     0.004 C 
HETATM    5  C5  UNL     1     -22.304  18.059  11.160  1.00 20.00     0.020 C 
HETATM    6  C6  UNL     1     -23.662  19.051   9.313  1.00 20.00     0.020 C 
HETATM    7  O7  UNL     1     -24.500  15.852  10.992  1.00 20.00    -0.361 OA
ENDROOT
BRANCH   3   8
HETATM    8  O8  UNL     1     -22.814  15.975   9.332  1.00 20.00    -0.371 OA
HETATM    9  H20 UNL     1     -22.903  15.024   9.502  1.00 20.00     0.212 HD
ENDBRANCH   3   8
TORSDOF 1
ENDMDL
