MODEL 1
REMARK VINA RESULT:      -5.3      0.000      0.000
REMARK  3 active torsions:
REMARK  status: ('A' for Active; 'I' for Inactive)
REMARK    1  A    between atoms: C3_3  and  C4_4 
REMARK    2  A    between atoms: C4_4  and  C5_5 
REMARK    3  A    between atoms: C4_4  and  O6_6 
ROOT
HETATM    1  C4  UNL     1     -34.099   6.557   4.344  1.00 20.00     0.229 C 
ENDROOT
BRANCH   1   2
HETATM    2  C3  UNL     1     -33.018   6.333   3.344  1.00 20.00     0.023 A 
HETATM    3  C1  UNL     1     -32.936   7.192   2.112  1.00 20.00     0.008 A 
HETATM    4  C2  UNL     1     -31.904   7.332   3.197  1.00 20.00     0.008 A 
ENDBRANCH   1   2
BRANCH   1   5
HETATM    5  C5  UNL     1     -34.928   5.309   4.590  1.00 20.00     0.413 C 
HETATM    6  F7  UNL     1     -35.104   5.095   5.913  1.00 20.00    -0.168 F 
HETATM    7  F8  UNL     1     -36.154   5.426   4.033  1.00 20.00    -0.168 F 
HETATM    8  F9  UNL     1     -34.340   4.210   4.070  1.00 20.00    -0.168 F 
ENDBRANCH   1   5
BRANCH   1   9
HETATM    9  O6  UNL     1     -33.530   6.956   5.593  1.00 20.00    -0.386 OA
HETATM   10  H16 UNL     1     -33.924   7.816   5.808  1.00 20.00     0.210 HD
ENDBRANCH   1   9
TORSDOF 3
ENDMDL
MODEL 2
REMARK VINA RESULT:      -4.7      1.470      1.889
REMARK  3 active torsions:
REMARK  status: ('A' for Active; 'I' for Inactive)
REMARK    1  A    between atoms: C3_3  and  C4_4 
REMARK    2  A    between atoms: C4_4  and  C5_5 
REMARK    3  A    between atoms: C4_4  and  O6_6 
ROOT
HETATM    1  C4  UNL     1     -33.551   5.563   3.734  1.00 20.00     0.229 C 
ENDROOT
BRANCH   1   2
HETATM    2  C3  UNL     1     -33.264   6.969   3.338  1.00 20.00     0.023 A 
HETATM    3  C1  UNL     1     -31.860   7.504   3.405  1.00 20.00     0.008 A 
HETATM    4  C2  UNL     1     -32.509   7.260   2.071  1.00 20.00     0.008 A 
ENDBRANCH   1   2
BRANCH   1   5
HETATM    5  C5  UNL     1     -34.686   5.463   4.737  1.00 20.00     0.413 C 
HETATM    6  F7  UNL     1     -34.650   4.283   5.396  1.00 20.00    -0.168 F 
HETATM    7  F8  UNL     1     -34.601   6.444   5.662  1.00 20.00    -0.168 F 
HETATM    8  F9  UNL     1     -35.892   5.562   4.137  1.00 20.00    -0.168 F 
ENDBRANCH   1   5
BRANCH   1   9
HETATM    9  O6  UNL     1     -33.918   4.799   2.583  1.00 20.00    -0.386 OA
HETATM   10  H16 UNL     1     -33.094   4.603   2.112  1.00 20.00     0.210 HD
ENDBRANCH   1   9
TORSDOF 3
ENDMDL
MODEL 3
REMARK VINA RESULT:      -4.6      1.473      1.662
REMARK  3 active torsions:
REMARK  status: ('A' for Active; 'I' for Inactive)
REMARK    1  A    between atoms: C3_3  and  C4_4 
REMARK    2  A    between atoms: C4_4  and  C5_5 
REMARK    3  A    between atoms: C4_4  and  O6_6 
ROOT
HETATM    1  C4  UNL     1     -33.550   5.563   3.726  1.00 20.00     0.229 C 
ENDROOT
BRANCH   1   2
HETATM    2  C3  UNL     1     -33.265   6.970   3.330  1.00 20.00     0.023 A 
HETATM    3  C1  UNL     1     -31.863   7.509   3.405  1.00 20.00     0.008 A 
HETATM    4  C2  UNL     1     -32.503   7.261   2.067  1.00 20.00     0.008 A 
ENDBRANCH   1   2
BRANCH   1   5
HETATM    5  C5  UNL     1     -34.678   5.462   4.737  1.00 20.00     0.413 C 
HETATM    6  F7  UNL     1     -34.602   6.455   5.651  1.00 20.00    -0.168 F 
HETATM    7  F8  UNL     1     -35.881   5.563   4.130  1.00 20.00    -0.168 F 
HETATM    8  F9  UNL     1     -34.646   4.287   5.402  1.00 20.00    -0.168 F 
ENDBRANCH   1   5
BRANCH   1   9
HETATM    9  O6  UNL     1     -33.924   4.801   2.577  1.00 20.00    -0.386 OA
HETATM   10  H16 UNL     1     -33.746   3.873   2.795  1.00 20.00     0.210 HD
ENDBRANCH   1   9
TORSDOF 3
ENDMDL
MODEL 4
REMARK VINA RESULT:      -4.5      2.024      2.485
REMARK  3 active torsions:
REMARK  status: ('A' for Active; 'I' for Inactive)
REMARK    1  A    between atoms: C3_3  and  C4_4 
REMARK    2  A    between atoms: C4_4  and  C5_5 
REMARK    3  A    between atoms: C4_4  and  O6_6 
ROOT
HETATM    1  C4  UNL     1     -34.272   5.236   4.712  1.00 20.00     0.229 C 
ENDROOT
BRANCH   1   2
HETATM    2  C3  UNL     1     -34.078   5.827   3.358  1.00 20.00     0.023 A 
HETATM    3  C1  UNL     1     -32.736   6.373   2.955  1.00 20.00     0.008 A 
HETATM    4  C2  UNL     1     -33.252   5.107   2.329  1.00 20.00     0.008 A 
ENDBRANCH   1   2
BRANCH   1   5
HETATM    5  C5  UNL     1     -34.292   6.288   5.806  1.00 20.00     0.413 C 
HETATM    6  F7  UNL     1     -35.238   6.010   6.730  1.00 20.00    -0.168 F 
HETATM    7  F8  UNL     1     -33.104   6.340   6.448  1.00 20.00    -0.168 F 
HETATM    8  F9  UNL     1     -34.550   7.517   5.310  1.00 20.00    -0.168 F 
ENDBRANCH   1   5
BRANCH   1   9
HETATM    9  O6  UNL     1     -35.514   4.531   4.761  1.00 20.00    -0.386 OA
HETATM   10  H16 UNL     1     -36.031   4.939   5.472  1.00 20.00     0.210 HD
ENDBRANCH   1   9
TORSDOF 3
ENDMDL
MODEL 5
REMARK VINA RESULT:      -4.5      1.905      3.057
REMARK  3 active torsions:
REMARK  status: ('A' for Active; 'I' for Inactive)
REMARK    1  A    between atoms: C3_3  and  C4_4 
REMARK    2  A    between atoms: C4_4  and  C5_5 
REMARK    3  A    between atoms: C4_4  and  O6_6 
ROOT
HETATM    1  C4  UNL     1     -33.244   5.962   3.758  1.00 20.00     0.229 C 
ENDROOT
BRANCH   1   2
HETATM    2  C3  UNL     1     -34.369   6.291   4.677  1.00 20.00     0.023 A 
HETATM    3  C1  UNL     1     -34.576   5.495   5.936  1.00 20.00     0.008 A 
HETATM    4  C2  UNL     1     -34.095   6.917   6.015  1.00 20.00     0.008 A 
ENDBRANCH   1   2
BRANCH   1   5
HETATM    5  C5  UNL     1     -33.592   4.841   2.794  1.00 20.00     0.413 C 
HETATM    6  F7  UNL     1     -32.475   4.273   2.287  1.00 20.00    -0.168 F 
HETATM    7  F8  UNL     1     -34.292   3.868   3.417  1.00 20.00    -0.168 F 
HETATM    8  F9  UNL     1     -34.333   5.288   1.758  1.00 20.00    -0.168 F 
ENDBRANCH   1   5
BRANCH   1   9
HETATM    9  O6  UNL     1     -32.897   7.112   2.983  1.00 20.00    -0.386 OA
HETATM   10  H16 UNL     1     -32.515   7.752   3.603  1.00 20.00     0.210 HD
ENDBRANCH   1   9
TORSDOF 3
ENDMDL
MODEL 6
REMARK VINA RESULT:      -4.5      2.731      3.673
REMARK  3 active torsions:
REMARK  status: ('A' for Active; 'I' for Inactive)
REMARK    1  A    between atoms: C3_3  and  C4_4 
REMARK    2  A    between atoms: C4_4  and  C5_5 
REMARK    3  A    between atoms: C4_4  and  O6_6 
ROOT
HETATM    1  C4  UNL     1     -33.898   6.341   3.676  1.00 20.00     0.229 C 
ENDROOT
BRANCH   1   2
HETATM    2  C3  UNL     1     -33.596   6.123   5.118  1.00 20.00     0.023 A 
HETATM    3  C1  UNL     1     -34.217   7.008   6.164  1.00 20.00     0.008 A 
HETATM    4  C2  UNL     1     -34.651   5.574   6.038  1.00 20.00     0.008 A 
ENDBRANCH   1   2
BRANCH   1   5
HETATM    5  C5  UNL     1     -32.700   6.871   2.907  1.00 20.00     0.413 C 
HETATM    6  F7  UNL     1     -31.796   7.432   3.740  1.00 20.00    -0.168 F 
HETATM    7  F8  UNL     1     -32.074   5.874   2.244  1.00 20.00    -0.168 F 
HETATM    8  F9  UNL     1     -33.064   7.806   2.003  1.00 20.00    -0.168 F 
ENDBRANCH   1   5
BRANCH   1   9
HETATM    9  O6  UNL     1     -34.296   5.109   3.071  1.00 20.00    -0.386 OA
HETATM   10  H16 UNL     1     -34.086   4.412   3.711  1.00 20.00     0.210 HD
ENDBRANCH   1   9
TORSDOF 3
ENDMDL
MODEL 7
REMARK VINA RESULT:      -4.4      2.296      3.495
REMARK  3 active torsions:
REMARK  status: ('A' for Active; 'I' for Inactive)
REMARK    1  A    between atoms: C3_3  and  C4_4 
REMARK    2  A    between atoms: C4_4  and  C5_5 
REMARK    3  A    between atoms: C4_4  and  O6_6 
ROOT
HETATM    1  C4  UNL     1     -33.038   6.486   4.418  1.00 20.00     0.229 C 
ENDROOT
BRANCH   1   2
HETATM    2  C3  UNL     1     -34.474   6.144   4.611  1.00 20.00     0.023 A 
HETATM    3  C1  UNL     1     -34.927   4.711   4.542  1.00 20.00     0.008 A 
HETATM    4  C2  UNL     1     -34.923   5.436   5.859  1.00 20.00     0.008 A 
ENDBRANCH   1   2
BRANCH   1   5
HETATM    5  C5  UNL     1     -32.711   6.826   2.975  1.00 20.00     0.413 C 
HETATM    6  F7  UNL     1     -31.481   7.376   2.871  1.00 20.00    -0.168 F 
HETATM    7  F8  UNL     1     -32.724   5.717   2.203  1.00 20.00    -0.168 F 
HETATM    8  F9  UNL     1     -33.598   7.702   2.457  1.00 20.00    -0.168 F 
ENDBRANCH   1   5
BRANCH   1   9
HETATM    9  O6  UNL     1     -32.696   7.618   5.221  1.00 20.00    -0.386 OA
HETATM   10  H16 UNL     1     -32.654   7.300   6.136  1.00 20.00     0.210 HD
ENDBRANCH   1   9
TORSDOF 3
ENDMDL
MODEL 8
REMARK VINA RESULT:      -4.2      2.635      3.354
REMARK  3 active torsions:
REMARK  status: ('A' for Active; 'I' for Inactive)
REMARK    1  A    between atoms: C3_3  and  C4_4 
REMARK    2  A    between atoms: C4_4  and  C5_5 
REMARK    3  A    between atoms: C4_4  and  O6_6 
ROOT
HETATM    1  C4  UNL     1     -34.259   5.220   3.771  1.00 20.00     0.229 C 
ENDROOT
BRANCH   1   2
HETATM    2  C3  UNL     1     -33.740   5.730   5.070  1.00 20.00     0.023 A 
HETATM    3  C1  UNL     1     -34.263   7.020   5.641  1.00 20.00     0.008 A 
HETATM    4  C2  UNL     1     -34.613   5.711   6.294  1.00 20.00     0.008 A 
ENDBRANCH   1   2
BRANCH   1   5
HETATM    5  C5  UNL     1     -33.282   5.440   2.630  1.00 20.00     0.413 C 
HETATM    6  F7  UNL     1     -32.576   4.317   2.372  1.00 20.00    -0.168 F 
HETATM    7  F8  UNL     1     -33.933   5.777   1.494  1.00 20.00    -0.168 F 
HETATM    8  F9  UNL     1     -32.402   6.424   2.911  1.00 20.00    -0.168 F 
ENDBRANCH   1   5
BRANCH   1   9
HETATM    9  O6  UNL     1     -34.512   3.817   3.865  1.00 20.00    -0.386 OA
HETATM   10  H16 UNL     1     -35.338   3.657   3.384  1.00 20.00     0.210 HD
ENDBRANCH   1   9
TORSDOF 3
ENDMDL
MODEL 9
REMARK VINA RESULT:      -4.0     11.592     12.159
REMARK  3 active torsions:
REMARK  status: ('A' for Active; 'I' for Inactive)
REMARK    1  A    between atoms: C3_3  and  C4_4 
REMARK    2  A    between atoms: C4_4  and  C5_5 
REMARK    3  A    between atoms: C4_4  and  O6_6 
ROOT
HETATM    1  C4  UNL     1     -35.811  15.302  -4.033  1.00 20.00     0.229 C 
ENDROOT
BRANCH   1   2
HETATM    2  C3  UNL     1     -34.599  15.125  -3.186  1.00 20.00     0.023 A 
HETATM    3  C1  UNL     1     -33.322  15.841  -3.532  1.00 20.00     0.008 A 
HETATM    4  C2  UNL     1     -34.110  16.251  -2.319  1.00 20.00     0.008 A 
ENDBRANCH   1   2
BRANCH   1   5
HETATM    5  C5  UNL     1     -36.278  13.999  -4.656  1.00 20.00     0.413 C 
HETATM    6  F7  UNL     1     -35.658  12.939  -4.091  1.00 20.00    -0.168 F 
HETATM    7  F8  UNL     1     -37.607  13.829  -4.480  1.00 20.00    -0.168 F 
HETATM    8  F9  UNL     1     -36.028  13.963  -5.982  1.00 20.00    -0.168 F 
ENDBRANCH   1   5
BRANCH   1   9
HETATM    9  O6  UNL     1     -36.884  15.819  -3.244  1.00 20.00    -0.386 OA
HETATM   10  H16 UNL     1     -36.551  16.629  -2.830  1.00 20.00     0.210 HD
ENDBRANCH   1   9
TORSDOF 3
ENDMDL
