MODEL 1
REMARK VINA RESULT:      -4.5      0.000      0.000
REMARK  0 active torsions:
REMARK  status: ('A' for Active; 'I' for Inactive)
ROOT
HETATM    1  C1  UNL     1     -33.794   6.109   3.770  1.00 20.00     0.137 C 
HETATM    2  C2  UNL     1     -34.694   5.405   5.971  1.00 20.00     0.108 C 
HETATM    3  C3  UNL     1     -34.748   5.253   4.467  1.00 20.00     0.326 C 
HETATM    4  N4  UNL     1     -33.036   6.791   3.214  1.00 20.00    -0.191 NA
HETATM    5  F5  UNL     1     -36.001   5.538   4.031  1.00 20.00    -0.190 F 
HETATM    6  F6  UNL     1     -34.506   3.959   4.138  1.00 20.00    -0.190 F 
ENDROOT
TORSDOF 0
ENDMDL
MODEL 2
REMARK VINA RESULT:      -4.1      1.186      1.186
REMARK  0 active torsions:
REMARK  status: ('A' for Active; 'I' for Inactive)
ROOT
HETATM    1  C1  UNL     1     -33.893   5.180   3.389  1.00 20.00     0.137 C 
HETATM    2  C2  UNL     1     -34.201   6.567   5.422  1.00 20.00     0.108 C 
HETATM    3  C3  UNL     1     -34.693   5.405   4.588  1.00 20.00     0.326 C 
HETATM    4  N4  UNL     1     -33.259   5.002   2.433  1.00 20.00    -0.191 NA
HETATM    5  F5  UNL     1     -35.983   5.625   4.228  1.00 20.00    -0.190 F 
HETATM    6  F6  UNL     1     -34.687   4.277   5.343  1.00 20.00    -0.190 F 
ENDROOT
TORSDOF 0
ENDMDL
MODEL 3
REMARK VINA RESULT:      -4.0      1.416      1.675
REMARK  0 active torsions:
REMARK  status: ('A' for Active; 'I' for Inactive)
ROOT
HETATM    1  C1  UNL     1     -33.943   5.093   3.401  1.00 20.00     0.137 C 
HETATM    2  C2  UNL     1     -34.641   4.942   5.776  1.00 20.00     0.108 C 
HETATM    3  C3  UNL     1     -34.775   5.665   4.454  1.00 20.00     0.326 C 
HETATM    4  N4  UNL     1     -33.281   4.639   2.562  1.00 20.00    -0.191 NA
HETATM    5  F5  UNL     1     -34.445   6.970   4.620  1.00 20.00    -0.190 F 
HETATM    6  F6  UNL     1     -36.073   5.639   4.058  1.00 20.00    -0.190 F 
ENDROOT
TORSDOF 0
ENDMDL
MODEL 4
REMARK VINA RESULT:      -4.0      1.406      2.256
REMARK  0 active torsions:
REMARK  status: ('A' for Active; 'I' for Inactive)
ROOT
HETATM    1  C1  UNL     1     -34.175   6.186   5.208  1.00 20.00     0.137 C 
HETATM    2  C2  UNL     1     -33.771   5.354   2.907  1.00 20.00     0.108 C 
HETATM    3  C3  UNL     1     -34.560   5.215   4.189  1.00 20.00     0.326 C 
HETATM    4  N4  UNL     1     -33.868   6.957   6.020  1.00 20.00    -0.191 NA
HETATM    5  F5  UNL     1     -34.395   3.962   4.685  1.00 20.00    -0.190 F 
HETATM    6  F6  UNL     1     -35.883   5.356   3.920  1.00 20.00    -0.190 F 
ENDROOT
TORSDOF 0
ENDMDL
MODEL 5
REMARK VINA RESULT:      -3.6      1.161      1.613
REMARK  0 active torsions:
REMARK  status: ('A' for Active; 'I' for Inactive)
ROOT
HETATM    1  C1  UNL     1     -33.687   6.398   3.759  1.00 20.00     0.137 C 
HETATM    2  C2  UNL     1     -34.369   4.085   4.336  1.00 20.00     0.108 C 
HETATM    3  C3  UNL     1     -34.631   5.566   4.496  1.00 20.00     0.326 C 
HETATM    4  N4  UNL     1     -32.935   7.062   3.174  1.00 20.00    -0.191 NA
HETATM    5  F5  UNL     1     -34.578   5.892   5.812  1.00 20.00    -0.190 F 
HETATM    6  F6  UNL     1     -35.891   5.846   4.076  1.00 20.00    -0.190 F 
ENDROOT
TORSDOF 0
ENDMDL
MODEL 6
REMARK VINA RESULT:      -3.6      2.405      3.074
REMARK  0 active torsions:
REMARK  status: ('A' for Active; 'I' for Inactive)
ROOT
HETATM    1  C1  UNL     1     -34.340   4.946   3.771  1.00 20.00     0.137 C 
HETATM    2  C2  UNL     1     -32.764   6.661   2.918  1.00 20.00     0.108 C 
HETATM    3  C3  UNL     1     -33.454   5.337   2.679  1.00 20.00     0.326 C 
HETATM    4  N4  UNL     1     -35.043   4.633   4.639  1.00 20.00    -0.191 NA
HETATM    5  F5  UNL     1     -32.520   4.370   2.496  1.00 20.00    -0.190 F 
HETATM    6  F6  UNL     1     -34.172   5.407   1.529  1.00 20.00    -0.190 F 
ENDROOT
TORSDOF 0
ENDMDL
MODEL 7
REMARK VINA RESULT:      -3.6     11.948     12.383
REMARK  0 active torsions:
REMARK  status: ('A' for Active; 'I' for Inactive)
ROOT
HETATM    1  C1  UNL     1     -36.547  14.060  -4.292  1.00 20.00     0.137 C 
HETATM    2  C2  UNL     1     -34.774  15.307  -3.088  1.00 20.00     0.108 C 
HETATM    3  C3  UNL     1     -35.112  14.232  -4.097  1.00 20.00     0.326 C 
HETATM    4  N4  UNL     1     -37.689  13.921  -4.447  1.00 20.00    -0.191 NA
HETATM    5  F5  UNL     1     -34.574  13.053  -3.694  1.00 20.00    -0.190 F 
HETATM    6  F6  UNL     1     -34.535  14.537  -5.287  1.00 20.00    -0.190 F 
ENDROOT
TORSDOF 0
ENDMDL
MODEL 8
REMARK VINA RESULT:      -3.5      8.262      8.778
REMARK  0 active torsions:
REMARK  status: ('A' for Active; 'I' for Inactive)
ROOT
HETATM    1  C1  UNL     1     -41.529   9.049   0.383  1.00 20.00     0.137 C 
HETATM    2  C2  UNL     1     -41.809   7.030  -1.029  1.00 20.00     0.108 C 
HETATM    3  C3  UNL     1     -41.658   7.596   0.365  1.00 20.00     0.326 C 
HETATM    4  N4  UNL     1     -41.424  10.205   0.399  1.00 20.00    -0.191 NA
HETATM    5  F5  UNL     1     -40.569   7.045   0.957  1.00 20.00    -0.190 F 
HETATM    6  F6  UNL     1     -42.732   7.237   1.113  1.00 20.00    -0.190 F 
ENDROOT
TORSDOF 0
ENDMDL
MODEL 9
REMARK VINA RESULT:      -3.4      8.330      8.721
REMARK  0 active torsions:
REMARK  status: ('A' for Active; 'I' for Inactive)
ROOT
HETATM    1  C1  UNL     1     -41.546   9.017   0.326  1.00 20.00     0.137 C 
HETATM    2  C2  UNL     1     -42.960   7.073   0.935  1.00 20.00     0.108 C 
HETATM    3  C3  UNL     1     -41.699   7.568   0.263  1.00 20.00     0.326 C 
HETATM    4  N4  UNL     1     -41.424  10.171   0.374  1.00 20.00    -0.191 NA
HETATM    5  F5  UNL     1     -41.698   7.177  -1.036  1.00 20.00    -0.190 F 
HETATM    6  F6  UNL     1     -40.621   6.983   0.846  1.00 20.00    -0.190 F 
ENDROOT
TORSDOF 0
ENDMDL
