MODEL 1
REMARK VINA RESULT:      -4.5      0.000      0.000
REMARK  2 active torsions:
REMARK  status: ('A' for Active; 'I' for Inactive)
REMARK    1  A    between atoms: C3_3  and  C8_8 
REMARK    2  A    between atoms: C7_7  and  C8_8 
ROOT
HETATM    1  C1  UNL     1     -35.547  13.798  -4.139  1.00 20.00     0.088 C 
HETATM    2  C2  UNL     1     -35.093  14.947  -3.437  1.00 20.00     0.096 C 
HETATM    3  C3  UNL     1     -33.828  15.408  -3.465  1.00 20.00    -0.070 C 
HETATM    4  C4  UNL     1     -32.799  14.671  -4.291  1.00 20.00     0.044 C 
HETATM    5  N9  UNL     1     -35.926  12.860  -4.710  1.00 20.00    -0.192 NA
ENDROOT
BRANCH   3   6
HETATM    6  C8  UNL     1     -33.351  16.646  -2.705  1.00 20.00     0.010 C 
HETATM    7  C6  UNL     1     -33.131  17.830  -3.656  1.00 20.00     0.015 C 
BRANCH   6   8
HETATM    8  C7  UNL     1     -34.291  17.078  -1.561  1.00 20.00     0.004 C 
HETATM    9  C5  UNL     1     -33.650  18.060  -0.589  1.00 20.00     0.006 C 
ENDBRANCH   6   8
ENDBRANCH   3   6
TORSDOF 2
ENDMDL
MODEL 2
REMARK VINA RESULT:      -4.5      0.875      1.389
REMARK  2 active torsions:
REMARK  status: ('A' for Active; 'I' for Inactive)
REMARK    1  A    between atoms: C3_3  and  C8_8 
REMARK    2  A    between atoms: C7_7  and  C8_8 
ROOT
HETATM    1  C1  UNL     1     -35.768  13.839  -4.116  1.00 20.00     0.088 C 
HETATM    2  C2  UNL     1     -35.604  15.033  -3.362  1.00 20.00     0.096 C 
HETATM    3  C3  UNL     1     -34.443  15.704  -3.239  1.00 20.00    -0.070 C 
HETATM    4  C4  UNL     1     -33.214  15.174  -3.939  1.00 20.00     0.044 C 
HETATM    5  N9  UNL     1     -35.910  12.864  -4.730  1.00 20.00    -0.192 NA
ENDROOT
BRANCH   3   6
HETATM    6  C8  UNL     1     -34.279  16.988  -2.424  1.00 20.00     0.010 C 
HETATM    7  C6  UNL     1     -35.018  16.891  -1.083  1.00 20.00     0.015 C 
BRANCH   6   8
HETATM    8  C7  UNL     1     -32.810  17.384  -2.171  1.00 20.00     0.004 C 
HETATM    9  C5  UNL     1     -32.610  18.180  -0.887  1.00 20.00     0.006 C 
ENDBRANCH   6   8
ENDBRANCH   3   6
TORSDOF 2
ENDMDL
MODEL 3
REMARK VINA RESULT:      -4.4     15.019     16.954
REMARK  2 active torsions:
REMARK  status: ('A' for Active; 'I' for Inactive)
REMARK    1  A    between atoms: C3_3  and  C8_8 
REMARK    2  A    between atoms: C7_7  and  C8_8 
ROOT
HETATM    1  C1  UNL     1     -24.335  18.915   7.546  1.00 20.00     0.088 C 
HETATM    2  C2  UNL     1     -24.566  18.672   8.927  1.00 20.00     0.096 C 
HETATM    3  C3  UNL     1     -23.603  18.375   9.821  1.00 20.00    -0.070 C 
HETATM    4  C4  UNL     1     -22.170  18.286   9.351  1.00 20.00     0.044 C 
HETATM    5  N9  UNL     1     -24.154  19.115   6.417  1.00 20.00    -0.192 NA
ENDROOT
BRANCH   3   6
HETATM    6  C8  UNL     1     -23.864  18.116  11.306  1.00 20.00     0.010 C 
HETATM    7  C6  UNL     1     -25.330  18.387  11.666  1.00 20.00     0.015 C 
BRANCH   6   8
HETATM    8  C7  UNL     1     -23.478  16.696  11.769  1.00 20.00     0.004 C 
HETATM    9  C5  UNL     1     -24.636  15.707  11.719  1.00 20.00     0.006 C 
ENDBRANCH   6   8
ENDBRANCH   3   6
TORSDOF 2
ENDMDL
MODEL 4
REMARK VINA RESULT:      -4.4     15.184     16.925
REMARK  2 active torsions:
REMARK  status: ('A' for Active; 'I' for Inactive)
REMARK    1  A    between atoms: C3_3  and  C8_8 
REMARK    2  A    between atoms: C7_7  and  C8_8 
ROOT
HETATM    1  C1  UNL     1     -24.327  18.879   7.779  1.00 20.00     0.088 C 
HETATM    2  C2  UNL     1     -24.621  18.703   9.159  1.00 20.00     0.096 C 
HETATM    3  C3  UNL     1     -23.965  17.859   9.978  1.00 20.00    -0.070 C 
HETATM    4  C4  UNL     1     -22.834  17.029   9.418  1.00 20.00     0.044 C 
HETATM    5  N9  UNL     1     -24.092  19.028   6.652  1.00 20.00    -0.192 NA
ENDROOT
BRANCH   3   6
HETATM    6  C8  UNL     1     -24.292  17.678  11.461  1.00 20.00     0.010 C 
HETATM    7  C6  UNL     1     -23.040  17.858  12.329  1.00 20.00     0.015 C 
BRANCH   6   8
HETATM    8  C7  UNL     1     -25.408  18.612  11.973  1.00 20.00     0.004 C 
HETATM    9  C5  UNL     1     -26.726  17.894  12.232  1.00 20.00     0.006 C 
ENDBRANCH   6   8
ENDBRANCH   3   6
TORSDOF 2
ENDMDL
MODEL 5
REMARK VINA RESULT:      -4.4      1.114      1.725
REMARK  2 active torsions:
REMARK  status: ('A' for Active; 'I' for Inactive)
REMARK    1  A    between atoms: C3_3  and  C8_8 
REMARK    2  A    between atoms: C7_7  and  C8_8 
ROOT
HETATM    1  C1  UNL     1     -34.469  14.161  -4.015  1.00 20.00     0.088 C 
HETATM    2  C2  UNL     1     -33.589  15.255  -3.792  1.00 20.00     0.096 C 
HETATM    3  C3  UNL     1     -33.764  16.196  -2.845  1.00 20.00    -0.070 C 
HETATM    4  C4  UNL     1     -34.973  16.109  -1.943  1.00 20.00     0.044 C 
HETATM    5  N9  UNL     1     -35.184  13.266  -4.202  1.00 20.00    -0.192 NA
ENDROOT
BRANCH   3   6
HETATM    6  C8  UNL     1     -32.809  17.368  -2.616  1.00 20.00     0.010 C 
HETATM    7  C6  UNL     1     -33.030  18.474  -3.656  1.00 20.00     0.015 C 
BRANCH   6   8
HETATM    8  C7  UNL     1     -32.892  17.974  -1.199  1.00 20.00     0.004 C 
HETATM    9  C5  UNL     1     -31.530  18.301  -0.601  1.00 20.00     0.006 C 
ENDBRANCH   6   8
ENDBRANCH   3   6
TORSDOF 2
ENDMDL
MODEL 6
REMARK VINA RESULT:      -4.4     16.312     17.362
REMARK  2 active torsions:
REMARK  status: ('A' for Active; 'I' for Inactive)
REMARK    1  A    between atoms: C3_3  and  C8_8 
REMARK    2  A    between atoms: C7_7  and  C8_8 
ROOT
HETATM    1  C1  UNL     1     -21.993  17.410   7.928  1.00 20.00     0.088 C 
HETATM    2  C2  UNL     1     -22.401  17.346   9.288  1.00 20.00     0.096 C 
HETATM    3  C3  UNL     1     -23.358  18.120   9.835  1.00 20.00    -0.070 C 
HETATM    4  C4  UNL     1     -24.063  19.136   8.966  1.00 20.00     0.044 C 
HETATM    5  N9  UNL     1     -21.655  17.456   6.818  1.00 20.00    -0.192 NA
ENDROOT
BRANCH   3   6
HETATM    6  C8  UNL     1     -23.788  18.043  11.300  1.00 20.00     0.010 C 
HETATM    7  C6  UNL     1     -25.268  18.411  11.464  1.00 20.00     0.015 C 
BRANCH   6   8
HETATM    8  C7  UNL     1     -23.526  16.671  11.957  1.00 20.00     0.004 C 
HETATM    9  C5  UNL     1     -24.671  15.683  11.770  1.00 20.00     0.006 C 
ENDBRANCH   6   8
ENDBRANCH   3   6
TORSDOF 2
ENDMDL
MODEL 7
REMARK VINA RESULT:      -4.3      1.376      2.261
REMARK  2 active torsions:
REMARK  status: ('A' for Active; 'I' for Inactive)
REMARK    1  A    between atoms: C3_3  and  C8_8 
REMARK    2  A    between atoms: C7_7  and  C8_8 
ROOT
HETATM    1  C1  UNL     1     -37.102  14.245  -4.247  1.00 20.00     0.088 C 
HETATM    2  C2  UNL     1     -35.707  14.420  -4.037  1.00 20.00     0.096 C 
HETATM    3  C3  UNL     1     -35.155  15.488  -3.431  1.00 20.00    -0.070 C 
HETATM    4  C4  UNL     1     -36.056  16.592  -2.930  1.00 20.00     0.044 C 
HETATM    5  N9  UNL     1     -38.240  14.094  -4.421  1.00 20.00    -0.192 NA
ENDROOT
BRANCH   3   6
HETATM    6  C8  UNL     1     -33.652  15.665  -3.212  1.00 20.00     0.010 C 
HETATM    7  C6  UNL     1     -32.843  14.848  -4.227  1.00 20.00     0.015 C 
BRANCH   6   8
HETATM    8  C7  UNL     1     -33.184  17.135  -3.250  1.00 20.00     0.004 C 
HETATM    9  C5  UNL     1     -32.700  17.651  -1.900  1.00 20.00     0.006 C 
ENDBRANCH   6   8
ENDBRANCH   3   6
TORSDOF 2
ENDMDL
MODEL 8
REMARK VINA RESULT:      -4.3      1.584      2.654
REMARK  2 active torsions:
REMARK  status: ('A' for Active; 'I' for Inactive)
REMARK    1  A    between atoms: C3_3  and  C8_8 
REMARK    2  A    between atoms: C7_7  and  C8_8 
ROOT
HETATM    1  C1  UNL     1     -33.306  15.018  -4.037  1.00 20.00     0.088 C 
HETATM    2  C2  UNL     1     -33.005  16.187  -3.286  1.00 20.00     0.096 C 
HETATM    3  C3  UNL     1     -33.802  16.710  -2.335  1.00 20.00    -0.070 C 
HETATM    4  C4  UNL     1     -35.114  16.028  -2.024  1.00 20.00     0.044 C 
HETATM    5  N9  UNL     1     -33.546  14.065  -4.654  1.00 20.00    -0.192 NA
ENDROOT
BRANCH   3   6
HETATM    6  C8  UNL     1     -33.466  17.968  -1.533  1.00 20.00     0.010 C 
HETATM    7  C6  UNL     1     -34.089  17.916  -0.132  1.00 20.00     0.015 C 
BRANCH   6   8
HETATM    8  C7  UNL     1     -31.953  18.246  -1.411  1.00 20.00     0.004 C 
HETATM    9  C5  UNL     1     -31.480  18.390   0.030  1.00 20.00     0.006 C 
ENDBRANCH   6   8
ENDBRANCH   3   6
TORSDOF 2
ENDMDL
MODEL 9
REMARK VINA RESULT:      -4.2      2.500      4.146
REMARK  2 active torsions:
REMARK  status: ('A' for Active; 'I' for Inactive)
REMARK    1  A    between atoms: C3_3  and  C8_8 
REMARK    2  A    between atoms: C7_7  and  C8_8 
ROOT
HETATM    1  C1  UNL     1     -35.182  16.945  -0.787  1.00 20.00     0.088 C 
HETATM    2  C2  UNL     1     -35.177  16.079  -1.913  1.00 20.00     0.096 C 
HETATM    3  C3  UNL     1     -34.174  15.996  -2.809  1.00 20.00    -0.070 C 
HETATM    4  C4  UNL     1     -32.958  16.874  -2.628  1.00 20.00     0.044 C 
HETATM    5  N9  UNL     1     -35.193  17.650   0.135  1.00 20.00    -0.192 NA
ENDROOT
BRANCH   3   6
HETATM    6  C8  UNL     1     -34.181  15.059  -4.017  1.00 20.00     0.010 C 
HETATM    7  C6  UNL     1     -32.758  14.615  -4.382  1.00 20.00     0.015 C 
BRANCH   6   8
HETATM    8  C7  UNL     1     -35.075  13.815  -3.839  1.00 20.00     0.004 C 
HETATM    9  C5  UNL     1     -36.327  13.841  -4.706  1.00 20.00     0.006 C 
ENDBRANCH   6   8
ENDBRANCH   3   6
TORSDOF 2
ENDMDL
