MODEL 1
REMARK VINA RESULT:      -3.7      0.000      0.000
REMARK  4 active torsions:
REMARK  status: ('A' for Active; 'I' for Inactive)
REMARK    1  A    between atoms: C4_4  and  C5_5 
REMARK    2  A    between atoms: C4_4  and  O8_8 
REMARK    3  A    between atoms: C5_5  and  S9_9 
REMARK    4  A    between atoms: C6_6  and  S9_9 
ROOT
HETATM    1  C1  UNL     1     -22.239  17.572   8.200  1.00 20.00     0.074 C 
HETATM    2  C2  UNL     1     -22.577  17.866  10.626  1.00 20.00     0.037 C 
HETATM    3  C6  UNL     1     -22.823  18.438   9.234  1.00 20.00     0.150 C 
HETATM    4  N7  UNL     1     -21.777  16.893   7.380  1.00 20.00    -0.196 NA
ENDROOT
BRANCH   3   5
HETATM    5  S9  UNL     1     -24.600  18.649   8.979  1.00 20.00    -0.148 SA
BRANCH   5   6
HETATM    6  C5  UNL     1     -24.552  19.171   7.237  1.00 20.00     0.101 C 
BRANCH   6   7
HETATM    7  C4  UNL     1     -25.900  18.973   6.561  1.00 20.00     0.177 C 
BRANCH   7   8
HETATM    8  O8  UNL     1     -25.717  18.493   5.236  1.00 20.00    -0.395 OA
HETATM    9  C3  UNL     1     -26.775  18.904   4.381  1.00 20.00     0.201 C 
ENDBRANCH   7   8
ENDBRANCH   6   7
ENDBRANCH   5   6
ENDBRANCH   3   5
TORSDOF 4
ENDMDL
MODEL 2
REMARK VINA RESULT:      -3.6     12.552     15.091
REMARK  4 active torsions:
REMARK  status: ('A' for Active; 'I' for Inactive)
REMARK    1  A    between atoms: C4_4  and  C5_5 
REMARK    2  A    between atoms: C4_4  and  O8_8 
REMARK    3  A    between atoms: C5_5  and  S9_9 
REMARK    4  A    between atoms: C6_6  and  S9_9 
ROOT
HETATM    1  C1  UNL     1     -35.391  13.790  -4.311  1.00 20.00     0.074 C 
HETATM    2  C2  UNL     1     -33.046  14.539  -4.467  1.00 20.00     0.037 C 
HETATM    3  C6  UNL     1     -34.497  14.954  -4.247  1.00 20.00     0.150 C 
HETATM    4  N7  UNL     1     -36.102  12.874  -4.363  1.00 20.00    -0.196 NA
ENDROOT
BRANCH   3   5
HETATM    5  S9  UNL     1     -34.642  15.800  -2.656  1.00 20.00    -0.148 SA
BRANCH   5   6
HETATM    6  C5  UNL     1     -33.070  16.716  -2.705  1.00 20.00     0.101 C 
BRANCH   6   7
HETATM    7  C4  UNL     1     -33.044  17.828  -1.668  1.00 20.00     0.177 C 
BRANCH   7   8
HETATM    8  O8  UNL     1     -31.766  18.450  -1.651  1.00 20.00    -0.395 OA
HETATM    9  C3  UNL     1     -31.162  18.366  -0.367  1.00 20.00     0.201 C 
ENDBRANCH   7   8
ENDBRANCH   6   7
ENDBRANCH   5   6
ENDBRANCH   3   5
TORSDOF 4
ENDMDL
MODEL 3
REMARK VINA RESULT:      -3.6      3.423      4.506
REMARK  4 active torsions:
REMARK  status: ('A' for Active; 'I' for Inactive)
REMARK    1  A    between atoms: C4_4  and  C5_5 
REMARK    2  A    between atoms: C4_4  and  O8_8 
REMARK    3  A    between atoms: C5_5  and  S9_9 
REMARK    4  A    between atoms: C6_6  and  S9_9 
ROOT
HETATM    1  C1  UNL     1     -22.273  17.327   8.087  1.00 20.00     0.074 C 
HETATM    2  C2  UNL     1     -23.692  19.134   8.985  1.00 20.00     0.037 C 
HETATM    3  C6  UNL     1     -23.065  17.769   9.244  1.00 20.00     0.150 C 
HETATM    4  N7  UNL     1     -21.648  16.974   7.175  1.00 20.00    -0.196 NA
ENDROOT
BRANCH   3   5
HETATM    5  S9  UNL     1     -22.048  17.851  10.736  1.00 20.00    -0.148 SA
BRANCH   5   6
HETATM    6  C5  UNL     1     -23.298  17.294  11.934  1.00 20.00     0.101 C 
BRANCH   6   7
HETATM    7  C4  UNL     1     -24.260  16.295  11.309  1.00 20.00     0.177 C 
BRANCH   7   8
HETATM    8  O8  UNL     1     -25.575  16.508  11.803  1.00 20.00    -0.395 OA
HETATM    9  C3  UNL     1     -25.846  17.892  11.984  1.00 20.00     0.201 C 
ENDBRANCH   7   8
ENDBRANCH   6   7
ENDBRANCH   5   6
ENDBRANCH   3   5
TORSDOF 4
ENDMDL
MODEL 4
REMARK VINA RESULT:      -3.6     15.425     16.741
REMARK  4 active torsions:
REMARK  status: ('A' for Active; 'I' for Inactive)
REMARK    1  A    between atoms: C4_4  and  C5_5 
REMARK    2  A    between atoms: C4_4  and  O8_8 
REMARK    3  A    between atoms: C5_5  and  S9_9 
REMARK    4  A    between atoms: C6_6  and  S9_9 
ROOT
HETATM    1  C1  UNL     1     -33.312  14.978  -4.191  1.00 20.00     0.074 C 
HETATM    2  C2  UNL     1     -34.265  16.239  -2.297  1.00 20.00     0.037 C 
HETATM    3  C6  UNL     1     -33.932  16.247  -3.785  1.00 20.00     0.150 C 
HETATM    4  N7  UNL     1     -32.821  13.978  -4.515  1.00 20.00    -0.196 NA
ENDROOT
BRANCH   3   5
HETATM    5  S9  UNL     1     -35.436  16.569  -4.734  1.00 20.00    -0.148 SA
BRANCH   5   6
HETATM    6  C5  UNL     1     -36.574  15.514  -3.784  1.00 20.00     0.101 C 
BRANCH   6   7
HETATM    7  C4  UNL     1     -36.838  14.198  -4.500  1.00 20.00     0.177 C 
BRANCH   7   8
HETATM    8  O8  UNL     1     -38.212  13.849  -4.388  1.00 20.00    -0.395 OA
HETATM    9  C3  UNL     1     -39.030  14.999  -4.221  1.00 20.00     0.201 C 
ENDBRANCH   7   8
ENDBRANCH   6   7
ENDBRANCH   5   6
ENDBRANCH   3   5
TORSDOF 4
ENDMDL
MODEL 5
REMARK VINA RESULT:      -3.4     15.589     16.846
REMARK  4 active torsions:
REMARK  status: ('A' for Active; 'I' for Inactive)
REMARK    1  A    between atoms: C4_4  and  C5_5 
REMARK    2  A    between atoms: C4_4  and  O8_8 
REMARK    3  A    between atoms: C5_5  and  S9_9 
REMARK    4  A    between atoms: C6_6  and  S9_9 
ROOT
HETATM    1  C1  UNL     1     -34.928  16.164  -2.179  1.00 20.00     0.074 C 
HETATM    2  C2  UNL     1     -33.148  15.457  -3.735  1.00 20.00     0.037 C 
HETATM    3  C6  UNL     1     -34.650  15.554  -3.487  1.00 20.00     0.150 C 
HETATM    4  N7  UNL     1     -35.152  16.644  -1.147  1.00 20.00    -0.196 NA
ENDROOT
BRANCH   3   5
HETATM    5  S9  UNL     1     -35.417  16.499  -4.823  1.00 20.00    -0.148 SA
BRANCH   5   6
HETATM    6  C5  UNL     1     -36.448  15.172  -5.520  1.00 20.00     0.101 C 
BRANCH   6   7
HETATM    7  C4  UNL     1     -36.665  14.051  -4.515  1.00 20.00     0.177 C 
BRANCH   7   8
HETATM    8  O8  UNL     1     -38.049  13.739  -4.423  1.00 20.00    -0.395 OA
HETATM    9  C3  UNL     1     -38.831  14.902  -4.184  1.00 20.00     0.201 C 
ENDBRANCH   7   8
ENDBRANCH   6   7
ENDBRANCH   5   6
ENDBRANCH   3   5
TORSDOF 4
ENDMDL
MODEL 6
REMARK VINA RESULT:      -3.4      4.010      4.442
REMARK  4 active torsions:
REMARK  status: ('A' for Active; 'I' for Inactive)
REMARK    1  A    between atoms: C4_4  and  C5_5 
REMARK    2  A    between atoms: C4_4  and  O8_8 
REMARK    3  A    between atoms: C5_5  and  S9_9 
REMARK    4  A    between atoms: C6_6  and  S9_9 
ROOT
HETATM    1  C1  UNL     1     -22.845  17.013   9.799  1.00 20.00     0.074 C 
HETATM    2  C2  UNL     1     -22.414  17.629  12.148  1.00 20.00     0.037 C 
HETATM    3  C6  UNL     1     -23.469  17.393  11.074  1.00 20.00     0.150 C 
HETATM    4  N7  UNL     1     -22.355  16.714   8.790  1.00 20.00    -0.196 NA
ENDROOT
BRANCH   3   5
HETATM    5  S9  UNL     1     -24.624  16.123  11.638  1.00 20.00    -0.148 SA
BRANCH   5   6
HETATM    6  C5  UNL     1     -25.899  17.220  12.332  1.00 20.00     0.101 C 
BRANCH   6   7
HETATM    7  C4  UNL     1     -25.770  18.635  11.788  1.00 20.00     0.177 C 
BRANCH   7   8
HETATM    8  O8  UNL     1     -26.950  18.996  11.082  1.00 20.00    -0.395 OA
HETATM    9  C3  UNL     1     -28.118  18.539  11.751  1.00 20.00     0.201 C 
ENDBRANCH   7   8
ENDBRANCH   6   7
ENDBRANCH   5   6
ENDBRANCH   3   5
TORSDOF 4
ENDMDL
MODEL 7
REMARK VINA RESULT:      -3.4     16.123     17.075
REMARK  4 active torsions:
REMARK  status: ('A' for Active; 'I' for Inactive)
REMARK    1  A    between atoms: C4_4  and  C5_5 
REMARK    2  A    between atoms: C4_4  and  O8_8 
REMARK    3  A    between atoms: C5_5  and  S9_9 
REMARK    4  A    between atoms: C6_6  and  S9_9 
ROOT
HETATM    1  C1  UNL     1     -37.102  14.839  -4.087  1.00 20.00     0.074 C 
HETATM    2  C2  UNL     1     -36.531  17.171  -4.654  1.00 20.00     0.037 C 
HETATM    3  C6  UNL     1     -36.681  16.137  -3.543  1.00 20.00     0.150 C 
HETATM    4  N7  UNL     1     -37.437  13.812  -4.512  1.00 20.00    -0.196 NA
ENDROOT
BRANCH   3   5
HETATM    5  S9  UNL     1     -35.118  15.991  -2.647  1.00 20.00    -0.148 SA
BRANCH   5   6
HETATM    6  C5  UNL     1     -33.991  16.086  -4.072  1.00 20.00     0.101 C 
BRANCH   6   7
HETATM    7  C4  UNL     1     -33.326  14.745  -4.344  1.00 20.00     0.177 C 
BRANCH   7   8
HETATM    8  O8  UNL     1     -33.866  14.162  -5.522  1.00 20.00    -0.395 OA
HETATM    9  C3  UNL     1     -34.136  15.143  -6.514  1.00 20.00     0.201 C 
ENDBRANCH   7   8
ENDBRANCH   6   7
ENDBRANCH   5   6
ENDBRANCH   3   5
TORSDOF 4
ENDMDL
MODEL 8
REMARK VINA RESULT:      -3.4     16.204     17.660
REMARK  4 active torsions:
REMARK  status: ('A' for Active; 'I' for Inactive)
REMARK    1  A    between atoms: C4_4  and  C5_5 
REMARK    2  A    between atoms: C4_4  and  O8_8 
REMARK    3  A    between atoms: C5_5  and  S9_9 
REMARK    4  A    between atoms: C6_6  and  S9_9 
ROOT
HETATM    1  C1  UNL     1     -35.270  13.798  -4.231  1.00 20.00     0.074 C 
HETATM    2  C2  UNL     1     -34.851  15.602  -2.601  1.00 20.00     0.037 C 
HETATM    3  C6  UNL     1     -34.436  14.969  -3.925  1.00 20.00     0.150 C 
HETATM    4  N7  UNL     1     -35.925  12.872  -4.476  1.00 20.00    -0.196 NA
ENDROOT
BRANCH   3   5
HETATM    5  S9  UNL     1     -34.543  16.205  -5.239  1.00 20.00    -0.148 SA
BRANCH   5   6
HETATM    6  C5  UNL     1     -34.199  15.113  -6.652  1.00 20.00     0.101 C 
BRANCH   6   7
HETATM    7  C4  UNL     1     -35.256  15.258  -7.736  1.00 20.00     0.177 C 
BRANCH   7   8
HETATM    8  O8  UNL     1     -36.544  15.385  -7.148  1.00 20.00    -0.395 OA
HETATM    9  C3  UNL     1     -37.309  16.402  -7.782  1.00 20.00     0.201 C 
ENDBRANCH   7   8
ENDBRANCH   6   7
ENDBRANCH   5   6
ENDBRANCH   3   5
TORSDOF 4
ENDMDL
MODEL 9
REMARK VINA RESULT:      -3.3     15.213     16.810
REMARK  4 active torsions:
REMARK  status: ('A' for Active; 'I' for Inactive)
REMARK    1  A    between atoms: C4_4  and  C5_5 
REMARK    2  A    between atoms: C4_4  and  O8_8 
REMARK    3  A    between atoms: C5_5  and  S9_9 
REMARK    4  A    between atoms: C6_6  and  S9_9 
ROOT
HETATM    1  C1  UNL     1     -35.939  13.842  -5.043  1.00 20.00     0.074 C 
HETATM    2  C2  UNL     1     -34.326  15.061  -6.456  1.00 20.00     0.037 C 
HETATM    3  C6  UNL     1     -35.702  15.079  -5.799  1.00 20.00     0.150 C 
HETATM    4  N7  UNL     1     -36.131  12.865  -4.446  1.00 20.00    -0.196 NA
ENDROOT
BRANCH   3   5
HETATM    5  S9  UNL     1     -35.835  16.531  -4.730  1.00 20.00    -0.148 SA
BRANCH   5   6
HETATM    6  C5  UNL     1     -34.110  16.590  -4.156  1.00 20.00     0.101 C 
BRANCH   6   7
HETATM    7  C4  UNL     1     -33.952  15.922  -2.799  1.00 20.00     0.177 C 
BRANCH   7   8
HETATM    8  O8  UNL     1     -35.198  15.909  -2.114  1.00 20.00    -0.395 OA
HETATM    9  C3  UNL     1     -35.203  16.822  -1.024  1.00 20.00     0.201 C 
ENDBRANCH   7   8
ENDBRANCH   6   7
ENDBRANCH   5   6
ENDBRANCH   3   5
TORSDOF 4
ENDMDL
