MODEL 1
REMARK VINA RESULT:      -4.3      0.000      0.000
REMARK  4 active torsions:
REMARK  status: ('A' for Active; 'I' for Inactive)
REMARK    1  A    between atoms: C1_1  and  C9_9 
REMARK    2  A    between atoms: C6_6  and  C7_7 
REMARK    3  A    between atoms: C6_6  and  C8_8 
REMARK    4  A    between atoms: C7_7  and  C9_9 
ROOT
HETATM    1  C7  UNL     1     -34.539  14.967  -3.432  1.00 20.00     0.016 C 
ENDROOT
BRANCH   1   2
HETATM    2  C6  UNL     1     -33.163  15.638  -3.560  1.00 20.00     0.005 C 
BRANCH   2   3
HETATM    3  C8  UNL     1     -33.029  16.920  -2.714  1.00 20.00    -0.023 C 
HETATM    4  C2  UNL     1     -34.171  16.992  -1.697  1.00 20.00     0.009 C 
HETATM    5  C3  UNL     1     -33.021  18.188  -3.570  1.00 20.00     0.009 C 
ENDBRANCH   2   3
ENDBRANCH   1   2
BRANCH   1   6
HETATM    6  C9  UNL     1     -35.401  15.006  -4.717  1.00 20.00     0.006 C 
HETATM    7  C4  UNL     1     -34.473  15.001  -5.942  1.00 20.00     0.022 C 
HETATM    8  C5  UNL     1     -36.299  16.248  -4.772  1.00 20.00     0.022 C 
BRANCH   6   9
HETATM    9  C1  UNL     1     -36.236  13.730  -4.794  1.00 20.00     0.239 C 
HETATM   10  O10 UNL     1     -35.830  12.613  -4.493  1.00 20.00    -0.306 OA
ENDBRANCH   6   9
ENDBRANCH   1   6
TORSDOF 4
ENDMDL
MODEL 2
REMARK VINA RESULT:      -4.2      0.743      1.257
REMARK  4 active torsions:
REMARK  status: ('A' for Active; 'I' for Inactive)
REMARK    1  A    between atoms: C1_1  and  C9_9 
REMARK    2  A    between atoms: C6_6  and  C7_7 
REMARK    3  A    between atoms: C6_6  and  C8_8 
REMARK    4  A    between atoms: C7_7  and  C9_9 
ROOT
HETATM    1  C7  UNL     1     -34.711  15.074  -3.190  1.00 20.00     0.016 C 
ENDROOT
BRANCH   1   2
HETATM    2  C6  UNL     1     -33.525  16.048  -3.092  1.00 20.00     0.005 C 
BRANCH   2   3
HETATM    3  C8  UNL     1     -33.826  17.289  -2.229  1.00 20.00    -0.023 C 
HETATM    4  C2  UNL     1     -32.534  17.799  -1.586  1.00 20.00     0.009 C 
HETATM    5  C3  UNL     1     -34.866  17.009  -1.143  1.00 20.00     0.009 C 
ENDBRANCH   2   3
ENDBRANCH   1   2
BRANCH   1   6
HETATM    6  C9  UNL     1     -35.393  15.022  -4.578  1.00 20.00     0.006 C 
HETATM    7  C4  UNL     1     -34.310  14.925  -5.665  1.00 20.00     0.022 C 
HETATM    8  C5  UNL     1     -36.261  16.260  -4.841  1.00 20.00     0.022 C 
BRANCH   6   9
HETATM    9  C1  UNL     1     -36.226  13.746  -4.674  1.00 20.00     0.239 C 
HETATM   10  O10 UNL     1     -35.788  12.613  -4.504  1.00 20.00    -0.306 OA
ENDBRANCH   6   9
ENDBRANCH   1   6
TORSDOF 4
ENDMDL
MODEL 3
REMARK VINA RESULT:      -4.1      1.022      1.860
REMARK  4 active torsions:
REMARK  status: ('A' for Active; 'I' for Inactive)
REMARK    1  A    between atoms: C1_1  and  C9_9 
REMARK    2  A    between atoms: C6_6  and  C7_7 
REMARK    3  A    between atoms: C6_6  and  C8_8 
REMARK    4  A    between atoms: C7_7  and  C9_9 
ROOT
HETATM    1  C7  UNL     1     -35.556  15.992  -3.721  1.00 20.00     0.016 C 
ENDROOT
BRANCH   1   2
HETATM    2  C6  UNL     1     -34.963  15.906  -2.305  1.00 20.00     0.005 C 
BRANCH   2   3
HETATM    3  C8  UNL     1     -34.454  17.260  -1.774  1.00 20.00    -0.023 C 
HETATM    4  C2  UNL     1     -32.948  17.382  -2.022  1.00 20.00     0.009 C 
HETATM    5  C3  UNL     1     -34.747  17.453  -0.285  1.00 20.00     0.009 C 
ENDBRANCH   2   3
ENDBRANCH   1   2
BRANCH   1   6
HETATM    6  C9  UNL     1     -35.117  14.857  -4.677  1.00 20.00     0.006 C 
HETATM    7  C4  UNL     1     -33.745  14.327  -4.228  1.00 20.00     0.022 C 
HETATM    8  C5  UNL     1     -35.020  15.334  -6.132  1.00 20.00     0.022 C 
BRANCH   6   9
HETATM    9  C1  UNL     1     -36.098  13.695  -4.553  1.00 20.00     0.239 C 
HETATM   10  O10 UNL     1     -35.774  12.518  -4.438  1.00 20.00    -0.306 OA
ENDBRANCH   6   9
ENDBRANCH   1   6
TORSDOF 4
ENDMDL
MODEL 4
REMARK VINA RESULT:      -3.8     17.354     18.401
REMARK  4 active torsions:
REMARK  status: ('A' for Active; 'I' for Inactive)
REMARK    1  A    between atoms: C1_1  and  C9_9 
REMARK    2  A    between atoms: C6_6  and  C7_7 
REMARK    3  A    between atoms: C6_6  and  C8_8 
REMARK    4  A    between atoms: C7_7  and  C9_9 
ROOT
HETATM    1  C7  UNL     1     -23.291  17.010  10.051  1.00 20.00     0.016 C 
ENDROOT
BRANCH   1   2
HETATM    2  C6  UNL     1     -23.164  17.298  11.555  1.00 20.00     0.005 C 
BRANCH   2   3
HETATM    3  C8  UNL     1     -24.502  17.190  12.312  1.00 20.00    -0.023 C 
HETATM    4  C2  UNL     1     -25.199  15.875  11.951  1.00 20.00     0.009 C 
HETATM    5  C3  UNL     1     -25.437  18.366  12.017  1.00 20.00     0.009 C 
ENDBRANCH   2   3
ENDBRANCH   1   2
BRANCH   1   6
HETATM    6  C9  UNL     1     -22.563  18.023   9.134  1.00 20.00     0.006 C 
HETATM    7  C4  UNL     1     -21.293  18.517   9.844  1.00 20.00     0.022 C 
HETATM    8  C5  UNL     1     -23.447  19.228   8.790  1.00 20.00     0.022 C 
BRANCH   6   9
HETATM    9  C1  UNL     1     -22.107  17.306   7.866  1.00 20.00     0.239 C 
HETATM   10  O10 UNL     1     -22.056  17.821   6.754  1.00 20.00    -0.306 OA
ENDBRANCH   6   9
ENDBRANCH   1   6
TORSDOF 4
ENDMDL
MODEL 5
REMARK VINA RESULT:      -3.7      1.617      2.206
REMARK  4 active torsions:
REMARK  status: ('A' for Active; 'I' for Inactive)
REMARK    1  A    between atoms: C1_1  and  C9_9 
REMARK    2  A    between atoms: C6_6  and  C7_7 
REMARK    3  A    between atoms: C6_6  and  C8_8 
REMARK    4  A    between atoms: C7_7  and  C9_9 
ROOT
HETATM    1  C7  UNL     1     -34.084  15.865  -2.616  1.00 20.00     0.016 C 
ENDROOT
BRANCH   1   2
HETATM    2  C6  UNL     1     -32.962  16.914  -2.660  1.00 20.00     0.005 C 
BRANCH   2   3
HETATM    3  C8  UNL     1     -33.138  18.038  -1.620  1.00 20.00    -0.023 C 
HETATM    4  C2  UNL     1     -31.833  18.236  -0.844  1.00 20.00     0.009 C 
HETATM    5  C3  UNL     1     -34.280  17.756  -0.641  1.00 20.00     0.009 C 
ENDBRANCH   2   3
ENDBRANCH   1   2
BRANCH   1   6
HETATM    6  C9  UNL     1     -34.613  15.423  -4.002  1.00 20.00     0.006 C 
HETATM    7  C4  UNL     1     -34.810  16.668  -4.882  1.00 20.00     0.022 C 
HETATM    8  C5  UNL     1     -35.943  14.666  -3.898  1.00 20.00     0.022 C 
BRANCH   6   9
HETATM    9  C1  UNL     1     -33.553  14.564  -4.687  1.00 20.00     0.239 C 
HETATM   10  O10 UNL     1     -33.250  13.426  -4.345  1.00 20.00    -0.306 OA
ENDBRANCH   6   9
ENDBRANCH   1   6
TORSDOF 4
ENDMDL
MODEL 6
REMARK VINA RESULT:      -3.7      1.533      2.015
REMARK  4 active torsions:
REMARK  status: ('A' for Active; 'I' for Inactive)
REMARK    1  A    between atoms: C1_1  and  C9_9 
REMARK    2  A    between atoms: C6_6  and  C7_7 
REMARK    3  A    between atoms: C6_6  and  C8_8 
REMARK    4  A    between atoms: C7_7  and  C9_9 
ROOT
HETATM    1  C7  UNL     1     -36.042  16.297  -3.666  1.00 20.00     0.016 C 
ENDROOT
BRANCH   1   2
HETATM    2  C6  UNL     1     -35.264  15.757  -2.456  1.00 20.00     0.005 C 
BRANCH   2   3
HETATM    3  C8  UNL     1     -33.845  16.345  -2.331  1.00 20.00    -0.023 C 
HETATM    4  C2  UNL     1     -33.925  17.865  -2.171  1.00 20.00     0.009 C 
HETATM    5  C3  UNL     1     -32.961  16.000  -3.532  1.00 20.00     0.009 C 
ENDBRANCH   2   3
ENDBRANCH   1   2
BRANCH   1   6
HETATM    6  C9  UNL     1     -36.562  15.212  -4.639  1.00 20.00     0.006 C 
HETATM    7  C4  UNL     1     -35.863  13.880  -4.323  1.00 20.00     0.022 C 
HETATM    8  C5  UNL     1     -36.303  15.580  -6.106  1.00 20.00     0.022 C 
BRANCH   6   9
HETATM    9  C1  UNL     1     -38.053  14.995  -4.391  1.00 20.00     0.239 C 
HETATM   10  O10 UNL     1     -38.609  13.902  -4.401  1.00 20.00    -0.306 OA
ENDBRANCH   6   9
ENDBRANCH   1   6
TORSDOF 4
ENDMDL
MODEL 7
REMARK VINA RESULT:      -3.7      2.894      4.922
REMARK  4 active torsions:
REMARK  status: ('A' for Active; 'I' for Inactive)
REMARK    1  A    between atoms: C1_1  and  C9_9 
REMARK    2  A    between atoms: C6_6  and  C7_7 
REMARK    3  A    between atoms: C6_6  and  C8_8 
REMARK    4  A    between atoms: C7_7  and  C9_9 
ROOT
HETATM    1  C7  UNL     1     -33.392  16.476  -2.685  1.00 20.00     0.016 C 
ENDROOT
BRANCH   1   2
HETATM    2  C6  UNL     1     -34.652  15.596  -2.705  1.00 20.00     0.005 C 
BRANCH   2   3
HETATM    3  C8  UNL     1     -34.554  14.414  -3.689  1.00 20.00    -0.023 C 
HETATM    4  C2  UNL     1     -33.272  14.533  -4.518  1.00 20.00     0.009 C 
HETATM    5  C3  UNL     1     -35.764  14.328  -4.622  1.00 20.00     0.009 C 
ENDBRANCH   2   3
ENDBRANCH   1   2
BRANCH   1   6
HETATM    6  C9  UNL     1     -33.531  17.788  -1.874  1.00 20.00     0.006 C 
HETATM    7  C4  UNL     1     -34.493  17.550  -0.699  1.00 20.00     0.022 C 
HETATM    8  C5  UNL     1     -34.062  18.942  -2.733  1.00 20.00     0.022 C 
BRANCH   6   9
HETATM    9  C1  UNL     1     -32.176  18.142  -1.268  1.00 20.00     0.239 C 
HETATM   10  O10 UNL     1     -31.485  19.094  -1.615  1.00 20.00    -0.306 OA
ENDBRANCH   6   9
ENDBRANCH   1   6
TORSDOF 4
ENDMDL
MODEL 8
REMARK VINA RESULT:      -3.6      1.479      2.520
REMARK  4 active torsions:
REMARK  status: ('A' for Active; 'I' for Inactive)
REMARK    1  A    between atoms: C1_1  and  C9_9 
REMARK    2  A    between atoms: C6_6  and  C7_7 
REMARK    3  A    between atoms: C6_6  and  C8_8 
REMARK    4  A    between atoms: C7_7  and  C9_9 
ROOT
HETATM    1  C7  UNL     1     -35.056  16.030  -3.870  1.00 20.00     0.016 C 
ENDROOT
BRANCH   1   2
HETATM    2  C6  UNL     1     -35.167  15.882  -2.345  1.00 20.00     0.005 C 
BRANCH   2   3
HETATM    3  C8  UNL     1     -34.841  17.180  -1.581  1.00 20.00    -0.023 C 
HETATM    4  C2  UNL     1     -33.342  17.477  -1.678  1.00 20.00     0.009 C 
HETATM    5  C3  UNL     1     -35.259  17.115  -0.110  1.00 20.00     0.009 C 
ENDBRANCH   2   3
ENDBRANCH   1   2
BRANCH   1   6
HETATM    6  C9  UNL     1     -34.579  14.757  -4.612  1.00 20.00     0.006 C 
HETATM    7  C4  UNL     1     -35.332  13.540  -4.050  1.00 20.00     0.022 C 
HETATM    8  C5  UNL     1     -33.070  14.531  -4.457  1.00 20.00     0.022 C 
BRANCH   6   9
HETATM    9  C1  UNL     1     -34.962  14.869  -6.085  1.00 20.00     0.239 C 
HETATM   10  O10 UNL     1     -35.944  14.337  -6.592  1.00 20.00    -0.306 OA
ENDBRANCH   6   9
ENDBRANCH   1   6
TORSDOF 4
ENDMDL
MODEL 9
REMARK VINA RESULT:      -3.6      1.510      3.583
REMARK  4 active torsions:
REMARK  status: ('A' for Active; 'I' for Inactive)
REMARK    1  A    between atoms: C1_1  and  C9_9 
REMARK    2  A    between atoms: C6_6  and  C7_7 
REMARK    3  A    between atoms: C6_6  and  C8_8 
REMARK    4  A    between atoms: C7_7  and  C9_9 
ROOT
HETATM    1  C7  UNL     1     -35.345  16.469  -4.648  1.00 20.00     0.016 C 
ENDROOT
BRANCH   1   2
HETATM    2  C6  UNL     1     -34.466  16.964  -5.807  1.00 20.00     0.005 C 
BRANCH   2   3
HETATM    3  C8  UNL     1     -34.780  16.273  -7.149  1.00 20.00    -0.023 C 
HETATM    4  C2  UNL     1     -36.215  15.740  -7.135  1.00 20.00     0.009 C 
HETATM    5  C3  UNL     1     -33.809  15.132  -7.461  1.00 20.00     0.009 C 
ENDBRANCH   2   3
ENDBRANCH   1   2
BRANCH   1   6
HETATM    6  C9  UNL     1     -34.655  15.462  -3.696  1.00 20.00     0.006 C 
HETATM    7  C4  UNL     1     -35.030  15.808  -2.246  1.00 20.00     0.022 C 
HETATM    8  C5  UNL     1     -33.128  15.486  -3.840  1.00 20.00     0.022 C 
BRANCH   6   9
HETATM    9  C1  UNL     1     -35.204  14.064  -3.969  1.00 20.00     0.239 C 
HETATM   10  O10 UNL     1     -34.523  13.044  -4.008  1.00 20.00    -0.306 OA
ENDBRANCH   6   9
ENDBRANCH   1   6
TORSDOF 4
ENDMDL
