MODEL 1
REMARK VINA RESULT:      -4.9      0.000      0.000
REMARK  7 active torsions:
REMARK  status: ('A' for Active; 'I' for Inactive)
REMARK    1  A    between atoms: C1_1  and  C6_6 
REMARK    2  A    between atoms: C2_2  and  C7_7 
REMARK    3  A    between atoms: C3_3  and  C8_8 
REMARK    4  A    between atoms: C6_6  and  C10_10 
REMARK    5  A    between atoms: C7_7  and  C11_11 
REMARK    6  A    between atoms: C8_8  and  C10_10 
REMARK    7  A    between atoms: C9_9  and  C11_11 
ROOT
HETATM    1  C1  UNL     1     -33.263   7.145   5.079  1.00 20.00    -0.107 C 
HETATM    2  C2  UNL     1     -32.560   7.447   4.154  1.00 20.00    -0.107 C 
ENDROOT
BRANCH   1   3
HETATM    3  C6  UNL     1     -34.132   6.754   6.197  1.00 20.00     0.094 C 
BRANCH   3   4
HETATM    4  C10 UNL     1     -34.888   5.456   5.908  1.00 20.00     0.019 C 
BRANCH   4   5
HETATM    5  C8  UNL     1     -35.178   5.255   4.419  1.00 20.00     0.079 C 
BRANCH   5   6
HETATM    6  C3  UNL     1     -34.249   4.238   3.780  1.00 20.00     0.123 C 
HETATM    7  C4  UNL     1     -33.710   4.598   2.418  1.00 20.00     0.091 C 
HETATM    8  O12 UNL     1     -33.941   3.179   4.324  1.00 20.00    -0.298 OA
ENDBRANCH   5   6
ENDBRANCH   4   5
ENDBRANCH   3   4
ENDBRANCH   1   3
BRANCH   2   9
HETATM    9  C7  UNL     1     -31.707   7.794   3.009  1.00 20.00     0.094 C 
BRANCH   9  10
HETATM   10  C11 UNL     1     -32.433   7.608   1.675  1.00 20.00     0.012 C 
BRANCH  10  11
HETATM   11  C9  UNL     1     -32.832   8.937   1.025  1.00 20.00    -0.004 C 
HETATM   12  C5  UNL     1     -33.392   8.725  -0.374  1.00 20.00     0.005 C 
ENDBRANCH  10  11
ENDBRANCH   9  10
ENDBRANCH   2   9
TORSDOF 7
ENDMDL
MODEL 2
REMARK VINA RESULT:      -4.9     11.237     12.103
REMARK  7 active torsions:
REMARK  status: ('A' for Active; 'I' for Inactive)
REMARK    1  A    between atoms: C1_1  and  C6_6 
REMARK    2  A    between atoms: C2_2  and  C7_7 
REMARK    3  A    between atoms: C3_3  and  C8_8 
REMARK    4  A    between atoms: C6_6  and  C10_10 
REMARK    5  A    between atoms: C7_7  and  C11_11 
REMARK    6  A    between atoms: C8_8  and  C10_10 
REMARK    7  A    between atoms: C9_9  and  C11_11 
ROOT
HETATM    1  C1  UNL     1     -33.635  16.767  -2.192  1.00 20.00    -0.107 C 
HETATM    2  C2  UNL     1     -32.919  17.646  -1.796  1.00 20.00    -0.107 C 
ENDROOT
BRANCH   1   3
HETATM    3  C6  UNL     1     -34.497  15.674  -2.662  1.00 20.00     0.094 C 
BRANCH   3   4
HETATM    4  C10 UNL     1     -33.932  14.996  -3.911  1.00 20.00     0.019 C 
BRANCH   4   5
HETATM    5  C8  UNL     1     -34.982  14.793  -5.005  1.00 20.00     0.079 C 
BRANCH   5   6
HETATM    6  C3  UNL     1     -36.066  13.812  -4.593  1.00 20.00     0.123 C 
HETATM    7  C4  UNL     1     -37.440  14.394  -4.378  1.00 20.00     0.091 C 
HETATM    8  O12 UNL     1     -35.856  12.610  -4.439  1.00 20.00    -0.298 OA
ENDBRANCH   5   6
ENDBRANCH   4   5
ENDBRANCH   3   4
ENDBRANCH   1   3
BRANCH   2   9
HETATM    9  C7  UNL     1     -32.029  18.703  -1.298  1.00 20.00     0.094 C 
BRANCH   9  10
HETATM   10  C11 UNL     1     -30.991  18.163  -0.311  1.00 20.00     0.012 C 
BRANCH  10  11
HETATM   11  C9  UNL     1     -31.005  18.902   1.031  1.00 20.00    -0.004 C 
HETATM   12  C5  UNL     1     -31.931  18.223   2.029  1.00 20.00     0.005 C 
ENDBRANCH  10  11
ENDBRANCH   9  10
ENDBRANCH   2   9
TORSDOF 7
ENDMDL
MODEL 3
REMARK VINA RESULT:      -4.8     11.232     11.962
REMARK  7 active torsions:
REMARK  status: ('A' for Active; 'I' for Inactive)
REMARK    1  A    between atoms: C1_1  and  C6_6 
REMARK    2  A    between atoms: C2_2  and  C7_7 
REMARK    3  A    between atoms: C3_3  and  C8_8 
REMARK    4  A    between atoms: C6_6  and  C10_10 
REMARK    5  A    between atoms: C7_7  and  C11_11 
REMARK    6  A    between atoms: C8_8  and  C10_10 
REMARK    7  A    between atoms: C9_9  and  C11_11 
ROOT
HETATM    1  C1  UNL     1     -33.952  16.132  -2.576  1.00 20.00    -0.107 C 
HETATM    2  C2  UNL     1     -34.687  16.538  -1.718  1.00 20.00    -0.107 C 
ENDROOT
BRANCH   1   3
HETATM    3  C6  UNL     1     -33.053  15.660  -3.638  1.00 20.00     0.094 C 
BRANCH   3   4
HETATM    4  C10 UNL     1     -33.633  14.459  -4.387  1.00 20.00     0.019 C 
BRANCH   4   5
HETATM    5  C8  UNL     1     -34.976  14.766  -5.054  1.00 20.00     0.079 C 
BRANCH   5   6
HETATM    6  C3  UNL     1     -36.076  13.820  -4.604  1.00 20.00     0.123 C 
HETATM    7  C4  UNL     1     -37.407  14.454  -4.290  1.00 20.00     0.091 C 
HETATM    8  O12 UNL     1     -35.911  12.606  -4.497  1.00 20.00    -0.298 OA
ENDBRANCH   5   6
ENDBRANCH   4   5
ENDBRANCH   3   4
ENDBRANCH   1   3
BRANCH   2   9
HETATM    9  C7  UNL     1     -35.586  17.059  -0.679  1.00 20.00     0.094 C 
BRANCH   9  10
HETATM   10  C11 UNL     1     -34.816  17.650   0.504  1.00 20.00     0.012 C 
BRANCH  10  11
HETATM   11  C9  UNL     1     -33.749  18.662   0.073  1.00 20.00    -0.004 C 
HETATM   12  C5  UNL     1     -32.499  18.550   0.934  1.00 20.00     0.005 C 
ENDBRANCH  10  11
ENDBRANCH   9  10
ENDBRANCH   2   9
TORSDOF 7
ENDMDL
MODEL 4
REMARK VINA RESULT:      -4.7     10.970     12.132
REMARK  7 active torsions:
REMARK  status: ('A' for Active; 'I' for Inactive)
REMARK    1  A    between atoms: C1_1  and  C6_6 
REMARK    2  A    between atoms: C2_2  and  C7_7 
REMARK    3  A    between atoms: C3_3  and  C8_8 
REMARK    4  A    between atoms: C6_6  and  C10_10 
REMARK    5  A    between atoms: C7_7  and  C11_11 
REMARK    6  A    between atoms: C8_8  and  C10_10 
REMARK    7  A    between atoms: C9_9  and  C11_11 
ROOT
HETATM    1  C1  UNL     1     -33.249  15.851  -3.530  1.00 20.00    -0.107 C 
HETATM    2  C2  UNL     1     -33.025  16.832  -2.875  1.00 20.00    -0.107 C 
ENDROOT
BRANCH   1   3
HETATM    3  C6  UNL     1     -33.527  14.637  -4.310  1.00 20.00     0.094 C 
BRANCH   3   4
HETATM    4  C10 UNL     1     -34.800  13.933  -3.838  1.00 20.00     0.019 C 
BRANCH   4   5
HETATM    5  C8  UNL     1     -35.905  13.928  -4.897  1.00 20.00     0.079 C 
BRANCH   5   6
HETATM    6  C3  UNL     1     -37.199  14.540  -4.387  1.00 20.00     0.123 C 
HETATM    7  C4  UNL     1     -37.116  15.971  -3.922  1.00 20.00     0.091 C 
HETATM    8  O12 UNL     1     -38.261  13.921  -4.348  1.00 20.00    -0.298 OA
ENDBRANCH   5   6
ENDBRANCH   4   5
ENDBRANCH   3   4
ENDBRANCH   1   3
BRANCH   2   9
HETATM    9  C7  UNL     1     -32.755  18.018  -2.050  1.00 20.00     0.094 C 
BRANCH   9  10
HETATM   10  C11 UNL     1     -33.475  17.956  -0.701  1.00 20.00     0.012 C 
BRANCH  10  11
HETATM   11  C9  UNL     1     -34.949  17.558  -0.831  1.00 20.00    -0.004 C 
HETATM   12  C5  UNL     1     -35.545  17.186   0.518  1.00 20.00     0.005 C 
ENDBRANCH  10  11
ENDBRANCH   9  10
ENDBRANCH   2   9
TORSDOF 7
ENDMDL
MODEL 5
REMARK VINA RESULT:      -4.6     11.347     12.325
REMARK  7 active torsions:
REMARK  status: ('A' for Active; 'I' for Inactive)
REMARK    1  A    between atoms: C1_1  and  C6_6 
REMARK    2  A    between atoms: C2_2  and  C7_7 
REMARK    3  A    between atoms: C3_3  and  C8_8 
REMARK    4  A    between atoms: C6_6  and  C10_10 
REMARK    5  A    between atoms: C7_7  and  C11_11 
REMARK    6  A    between atoms: C8_8  and  C10_10 
REMARK    7  A    between atoms: C9_9  and  C11_11 
ROOT
HETATM    1  C1  UNL     1     -34.374  16.662  -1.811  1.00 20.00    -0.107 C 
HETATM    2  C2  UNL     1     -33.854  16.074  -2.719  1.00 20.00    -0.107 C 
ENDROOT
BRANCH   1   3
HETATM    3  C6  UNL     1     -35.024  17.398  -0.718  1.00 20.00     0.094 C 
BRANCH   3   4
HETATM    4  C10 UNL     1     -34.005  18.038   0.226  1.00 20.00     0.019 C 
BRANCH   4   5
HETATM    5  C8  UNL     1     -32.856  18.725  -0.515  1.00 20.00     0.079 C 
BRANCH   5   6
HETATM    6  C3  UNL     1     -31.505  18.440   0.117  1.00 20.00     0.123 C 
HETATM    7  C4  UNL     1     -31.496  18.282   1.617  1.00 20.00     0.091 C 
HETATM    8  O12 UNL     1     -30.468  18.339  -0.537  1.00 20.00    -0.298 OA
ENDBRANCH   5   6
ENDBRANCH   4   5
ENDBRANCH   3   4
ENDBRANCH   1   3
BRANCH   2   9
HETATM    9  C7  UNL     1     -33.230  15.370  -3.848  1.00 20.00     0.094 C 
BRANCH   9  10
HETATM   10  C11 UNL     1     -34.270  14.766  -4.794  1.00 20.00     0.012 C 
BRANCH  10  11
HETATM   11  C9  UNL     1     -35.227  13.801  -4.088  1.00 20.00    -0.004 C 
HETATM   12  C5  UNL     1     -36.679  14.134  -4.396  1.00 20.00     0.005 C 
ENDBRANCH  10  11
ENDBRANCH   9  10
ENDBRANCH   2   9
TORSDOF 7
ENDMDL
MODEL 6
REMARK VINA RESULT:      -4.5      1.223      2.538
REMARK  7 active torsions:
REMARK  status: ('A' for Active; 'I' for Inactive)
REMARK    1  A    between atoms: C1_1  and  C6_6 
REMARK    2  A    between atoms: C2_2  and  C7_7 
REMARK    3  A    between atoms: C3_3  and  C8_8 
REMARK    4  A    between atoms: C6_6  and  C10_10 
REMARK    5  A    between atoms: C7_7  and  C11_11 
REMARK    6  A    between atoms: C8_8  and  C10_10 
REMARK    7  A    between atoms: C9_9  and  C11_11 
ROOT
HETATM    1  C1  UNL     1     -32.945   5.651   2.470  1.00 20.00    -0.107 C 
HETATM    2  C2  UNL     1     -32.508   6.768   2.412  1.00 20.00    -0.107 C 
ENDROOT
BRANCH   1   3
HETATM    3  C6  UNL     1     -33.501   4.292   2.527  1.00 20.00     0.094 C 
BRANCH   3   4
HETATM    4  C10 UNL     1     -34.268   4.042   3.827  1.00 20.00     0.019 C 
BRANCH   4   5
HETATM    5  C8  UNL     1     -35.062   5.264   4.294  1.00 20.00     0.079 C 
BRANCH   5   6
HETATM    6  C3  UNL     1     -34.709   5.676   5.713  1.00 20.00     0.123 C 
HETATM    7  C4  UNL     1     -33.862   6.915   5.851  1.00 20.00     0.091 C 
HETATM    8  O12 UNL     1     -35.083   5.049   6.703  1.00 20.00    -0.298 OA
ENDBRANCH   5   6
ENDBRANCH   4   5
ENDBRANCH   3   4
ENDBRANCH   1   3
BRANCH   2   9
HETATM    9  C7  UNL     1     -31.996   8.143   2.329  1.00 20.00     0.094 C 
BRANCH   9  10
HETATM   10  C11 UNL     1     -33.032   9.107   1.746  1.00 20.00     0.012 C 
BRANCH  10  11
HETATM   11  C9  UNL     1     -32.806   9.395   0.259  1.00 20.00    -0.004 C 
HETATM   12  C5  UNL     1     -33.383   8.291  -0.614  1.00 20.00     0.005 C 
ENDBRANCH  10  11
ENDBRANCH   9  10
ENDBRANCH   2   9
TORSDOF 7
ENDMDL
MODEL 7
REMARK VINA RESULT:      -4.4      2.236      5.183
REMARK  7 active torsions:
REMARK  status: ('A' for Active; 'I' for Inactive)
REMARK    1  A    between atoms: C1_1  and  C6_6 
REMARK    2  A    between atoms: C2_2  and  C7_7 
REMARK    3  A    between atoms: C3_3  and  C8_8 
REMARK    4  A    between atoms: C6_6  and  C10_10 
REMARK    5  A    between atoms: C7_7  and  C11_11 
REMARK    6  A    between atoms: C8_8  and  C10_10 
REMARK    7  A    between atoms: C9_9  and  C11_11 
ROOT
HETATM    1  C1  UNL     1     -32.646   7.304   4.287  1.00 20.00    -0.107 C 
HETATM    2  C2  UNL     1     -33.367   7.003   5.198  1.00 20.00    -0.107 C 
ENDROOT
BRANCH   1   3
HETATM    3  C6  UNL     1     -31.774   7.652   3.157  1.00 20.00     0.094 C 
BRANCH   3   4
HETATM    4  C10 UNL     1     -32.249   7.016   1.849  1.00 20.00     0.019 C 
BRANCH   4   5
HETATM    5  C8  UNL     1     -31.924   7.869   0.621  1.00 20.00     0.079 C 
BRANCH   5   6
HETATM    6  C3  UNL     1     -33.045   8.832   0.270  1.00 20.00     0.123 C 
HETATM    7  C4  UNL     1     -33.193  10.031   1.171  1.00 20.00     0.091 C 
HETATM    8  O12 UNL     1     -33.797   8.662  -0.688  1.00 20.00    -0.298 OA
ENDBRANCH   5   6
ENDBRANCH   4   5
ENDBRANCH   3   4
ENDBRANCH   1   3
BRANCH   2   9
HETATM    9  C7  UNL     1     -34.258   6.614   6.300  1.00 20.00     0.094 C 
BRANCH   9  10
HETATM   10  C11 UNL     1     -34.886   5.237   6.072  1.00 20.00     0.012 C 
BRANCH  10  11
HETATM   11  C9  UNL     1     -35.279   4.996   4.611  1.00 20.00    -0.004 C 
HETATM   12  C5  UNL     1     -34.274   4.097   3.906  1.00 20.00     0.005 C 
ENDBRANCH  10  11
ENDBRANCH   9  10
ENDBRANCH   2   9
TORSDOF 7
ENDMDL
MODEL 8
REMARK VINA RESULT:      -4.4     11.378     12.375
REMARK  7 active torsions:
REMARK  status: ('A' for Active; 'I' for Inactive)
REMARK    1  A    between atoms: C1_1  and  C6_6 
REMARK    2  A    between atoms: C2_2  and  C7_7 
REMARK    3  A    between atoms: C3_3  and  C8_8 
REMARK    4  A    between atoms: C6_6  and  C10_10 
REMARK    5  A    between atoms: C7_7  and  C11_11 
REMARK    6  A    between atoms: C8_8  and  C10_10 
REMARK    7  A    between atoms: C9_9  and  C11_11 
ROOT
HETATM    1  C1  UNL     1     -31.402  18.275  -0.354  1.00 20.00    -0.107 C 
HETATM    2  C2  UNL     1     -32.004  18.202  -1.390  1.00 20.00    -0.107 C 
ENDROOT
BRANCH   1   3
HETATM    3  C6  UNL     1     -30.688  18.361   0.927  1.00 20.00     0.094 C 
BRANCH   3   4
HETATM    4  C10 UNL     1     -31.578  18.910   2.043  1.00 20.00     0.019 C 
BRANCH   4   5
HETATM    5  C8  UNL     1     -32.526  17.857   2.620  1.00 20.00     0.079 C 
BRANCH   5   6
HETATM    6  C3  UNL     1     -33.986  18.258   2.489  1.00 20.00     0.123 C 
HETATM    7  C4  UNL     1     -34.687  17.804   1.234  1.00 20.00     0.091 C 
HETATM    8  O12 UNL     1     -34.579  18.913   3.345  1.00 20.00    -0.298 OA
ENDBRANCH   5   6
ENDBRANCH   4   5
ENDBRANCH   3   4
ENDBRANCH   1   3
BRANCH   2   9
HETATM    9  C7  UNL     1     -32.764  18.110  -2.644  1.00 20.00     0.094 C 
BRANCH   9  10
HETATM   10  C11 UNL     1     -33.066  16.659  -3.028  1.00 20.00     0.012 C 
BRANCH  10  11
HETATM   11  C9  UNL     1     -34.321  16.111  -2.341  1.00 20.00    -0.004 C 
HETATM   12  C5  UNL     1     -35.017  15.070  -3.206  1.00 20.00     0.005 C 
ENDBRANCH  10  11
ENDBRANCH   9  10
ENDBRANCH   2   9
TORSDOF 7
ENDMDL
MODEL 9
REMARK VINA RESULT:      -4.4     11.095     12.184
REMARK  7 active torsions:
REMARK  status: ('A' for Active; 'I' for Inactive)
REMARK    1  A    between atoms: C1_1  and  C6_6 
REMARK    2  A    between atoms: C2_2  and  C7_7 
REMARK    3  A    between atoms: C3_3  and  C8_8 
REMARK    4  A    between atoms: C6_6  and  C10_10 
REMARK    5  A    between atoms: C7_7  and  C11_11 
REMARK    6  A    between atoms: C8_8  and  C10_10 
REMARK    7  A    between atoms: C9_9  and  C11_11 
ROOT
HETATM    1  C1  UNL     1     -32.815  17.241  -2.139  1.00 20.00    -0.107 C 
HETATM    2  C2  UNL     1     -32.266  18.048  -1.440  1.00 20.00    -0.107 C 
ENDROOT
BRANCH   1   3
HETATM    3  C6  UNL     1     -33.492  16.238  -2.972  1.00 20.00     0.094 C 
BRANCH   3   4
HETATM    4  C10 UNL     1     -34.821  15.790  -2.363  1.00 20.00     0.019 C 
BRANCH   4   5
HETATM    5  C8  UNL     1     -35.835  15.335  -3.416  1.00 20.00     0.079 C 
BRANCH   5   6
HETATM    6  C3  UNL     1     -35.243  14.337  -4.396  1.00 20.00     0.123 C 
HETATM    7  C4  UNL     1     -35.133  14.800  -5.826  1.00 20.00     0.091 C 
HETATM    8  O12 UNL     1     -34.869  13.214  -4.063  1.00 20.00    -0.298 OA
ENDBRANCH   5   6
ENDBRANCH   4   5
ENDBRANCH   3   4
ENDBRANCH   1   3
BRANCH   2   9
HETATM    9  C7  UNL     1     -31.599  19.021  -0.563  1.00 20.00     0.094 C 
BRANCH   9  10
HETATM   10  C11 UNL     1     -32.301  19.150   0.791  1.00 20.00     0.012 C 
BRANCH  10  11
HETATM   11  C9  UNL     1     -31.722  18.209   1.853  1.00 20.00    -0.004 C 
HETATM   12  C5  UNL     1     -32.771  17.825   2.885  1.00 20.00     0.005 C 
ENDBRANCH  10  11
ENDBRANCH   9  10
ENDBRANCH   2   9
TORSDOF 7
ENDMDL
