MODEL 1
REMARK VINA RESULT:      -4.2      0.000      0.000
REMARK  0 active torsions:
REMARK  status: ('A' for Active; 'I' for Inactive)
ROOT
HETATM    1  C1  UNL     1     -21.751  17.385   8.268  1.00 20.00     0.088 C 
HETATM    2  C2  UNL     1     -22.583  17.392  10.530  1.00 20.00    -0.060 C 
HETATM    3  C3  UNL     1     -21.699  17.817   9.618  1.00 20.00     0.097 C 
HETATM    4  C4  UNL     1     -22.573  17.817  11.968  1.00 20.00     0.046 C 
HETATM    5  C5  UNL     1     -23.750  16.511  10.202  1.00 20.00     0.108 C 
HETATM    6  C6  UNL     1     -24.017  18.120  12.332  1.00 20.00     0.078 C 
HETATM    7  N7  UNL     1     -21.790  17.034   7.163  1.00 20.00    -0.192 NA
HETATM    8  S8  UNL     1     -24.999  16.853  11.482  1.00 20.00    -0.165 SA
ENDROOT
TORSDOF 0
ENDMDL
MODEL 2
REMARK VINA RESULT:      -4.2     17.597     18.402
REMARK  0 active torsions:
REMARK  status: ('A' for Active; 'I' for Inactive)
ROOT
HETATM    1  C1  UNL     1     -36.256  14.044  -4.389  1.00 20.00     0.088 C 
HETATM    2  C2  UNL     1     -34.399  15.254  -3.443  1.00 20.00    -0.060 C 
HETATM    3  C3  UNL     1     -34.909  14.486  -4.416  1.00 20.00     0.097 C 
HETATM    4  C4  UNL     1     -32.983  15.749  -3.422  1.00 20.00     0.046 C 
HETATM    5  C5  UNL     1     -35.209  15.791  -2.303  1.00 20.00     0.108 C 
HETATM    6  C6  UNL     1     -33.051  17.213  -3.021  1.00 20.00     0.078 C 
HETATM    7  N7  UNL     1     -37.357  13.680  -4.372  1.00 20.00    -0.192 NA
HETATM    8  S8  UNL     1     -34.351  17.301  -1.759  1.00 20.00    -0.165 SA
ENDROOT
TORSDOF 0
ENDMDL
MODEL 3
REMARK VINA RESULT:      -4.1      2.017      2.305
REMARK  0 active torsions:
REMARK  status: ('A' for Active; 'I' for Inactive)
ROOT
HETATM    1  C1  UNL     1     -24.091  18.748   8.123  1.00 20.00     0.088 C 
HETATM    2  C2  UNL     1     -24.640  18.218  10.409  1.00 20.00    -0.060 C 
HETATM    3  C3  UNL     1     -24.772  19.012   9.339  1.00 20.00     0.097 C 
HETATM    4  C4  UNL     1     -25.337  18.450  11.717  1.00 20.00     0.046 C 
HETATM    5  C5  UNL     1     -23.853  16.943  10.400  1.00 20.00     0.108 C 
HETATM    6  C6  UNL     1     -25.870  17.099  12.161  1.00 20.00     0.078 C 
HETATM    7  N7  UNL     1     -23.536  18.537   7.127  1.00 20.00    -0.192 NA
HETATM    8  S8  UNL     1     -24.582  15.905  11.705  1.00 20.00    -0.165 SA
ENDROOT
TORSDOF 0
ENDMDL
MODEL 4
REMARK VINA RESULT:      -4.0     17.393     18.155
REMARK  0 active torsions:
REMARK  status: ('A' for Active; 'I' for Inactive)
ROOT
HETATM    1  C1  UNL     1     -35.186  13.655  -4.221  1.00 20.00     0.088 C 
HETATM    2  C2  UNL     1     -34.216  15.593  -3.166  1.00 20.00    -0.060 C 
HETATM    3  C3  UNL     1     -34.101  14.537  -3.982  1.00 20.00     0.097 C 
HETATM    4  C4  UNL     1     -33.102  16.556  -2.880  1.00 20.00     0.046 C 
HETATM    5  C5  UNL     1     -35.502  15.996  -2.512  1.00 20.00     0.108 C 
HETATM    6  C6  UNL     1     -33.713  17.945  -2.951  1.00 20.00     0.078 C 
HETATM    7  N7  UNL     1     -36.070  12.931  -4.419  1.00 20.00    -0.192 NA
HETATM    8  S8  UNL     1     -35.356  17.784  -2.199  1.00 20.00    -0.165 SA
ENDROOT
TORSDOF 0
ENDMDL
MODEL 5
REMARK VINA RESULT:      -3.7     16.205     17.006
REMARK  0 active torsions:
REMARK  status: ('A' for Active; 'I' for Inactive)
ROOT
HETATM    1  C1  UNL     1     -32.437  18.270  -1.414  1.00 20.00     0.088 C 
HETATM    2  C2  UNL     1     -33.932  16.575  -2.250  1.00 20.00    -0.060 C 
HETATM    3  C3  UNL     1     -33.675  17.580  -1.401  1.00 20.00     0.097 C 
HETATM    4  C4  UNL     1     -35.223  15.813  -2.279  1.00 20.00     0.046 C 
HETATM    5  C5  UNL     1     -32.994  16.152  -3.339  1.00 20.00     0.108 C 
HETATM    6  C6  UNL     1     -35.601  15.674  -3.745  1.00 20.00     0.078 C 
HETATM    7  N7  UNL     1     -31.425  18.838  -1.420  1.00 20.00    -0.192 NA
HETATM    8  S8  UNL     1     -34.037  15.381  -4.615  1.00 20.00    -0.165 SA
ENDROOT
TORSDOF 0
ENDMDL
MODEL 6
REMARK VINA RESULT:      -3.6     16.187     16.916
REMARK  0 active torsions:
REMARK  status: ('A' for Active; 'I' for Inactive)
ROOT
HETATM    1  C1  UNL     1     -34.116  14.691  -3.788  1.00 20.00     0.088 C 
HETATM    2  C2  UNL     1     -34.260  16.624  -2.356  1.00 20.00    -0.060 C 
HETATM    3  C3  UNL     1     -34.757  15.454  -2.779  1.00 20.00     0.097 C 
HETATM    4  C4  UNL     1     -34.897  17.470  -1.293  1.00 20.00     0.046 C 
HETATM    5  C5  UNL     1     -32.954  17.186  -2.826  1.00 20.00     0.108 C 
HETATM    6  C6  UNL     1     -33.771  17.926  -0.381  1.00 20.00     0.078 C 
HETATM    7  N7  UNL     1     -33.595  14.064  -4.612  1.00 20.00    -0.192 NA
HETATM    8  S8  UNL     1     -32.374  18.272  -1.485  1.00 20.00    -0.165 SA
ENDROOT
TORSDOF 0
ENDMDL
MODEL 7
REMARK VINA RESULT:      -3.5     16.188     16.968
REMARK  0 active torsions:
REMARK  status: ('A' for Active; 'I' for Inactive)
ROOT
HETATM    1  C1  UNL     1     -32.646   6.783   2.009  1.00 20.00     0.088 C 
HETATM    2  C2  UNL     1     -34.023   5.783   3.715  1.00 20.00    -0.060 C 
HETATM    3  C3  UNL     1     -33.364   5.688   2.552  1.00 20.00     0.097 C 
HETATM    4  C4  UNL     1     -34.797   4.657   4.333  1.00 20.00     0.046 C 
HETATM    5  C5  UNL     1     -33.991   7.000   4.587  1.00 20.00     0.108 C 
HETATM    6  C6  UNL     1     -34.438   4.656   5.810  1.00 20.00     0.078 C 
HETATM    7  N7  UNL     1     -32.058   7.677   1.561  1.00 20.00    -0.192 NA
HETATM    8  S8  UNL     1     -34.326   6.406   6.274  1.00 20.00    -0.165 SA
ENDROOT
TORSDOF 0
ENDMDL
MODEL 8
REMARK VINA RESULT:      -3.5     18.117     18.888
REMARK  0 active torsions:
REMARK  status: ('A' for Active; 'I' for Inactive)
ROOT
HETATM    1  C1  UNL     1     -35.289  14.756  -6.409  1.00 20.00     0.088 C 
HETATM    2  C2  UNL     1     -34.154  15.289  -4.351  1.00 20.00    -0.060 C 
HETATM    3  C3  UNL     1     -34.128  15.119  -5.680  1.00 20.00     0.097 C 
HETATM    4  C4  UNL     1     -32.957  15.672  -3.532  1.00 20.00     0.046 C 
HETATM    5  C5  UNL     1     -35.406  15.209  -3.531  1.00 20.00     0.108 C 
HETATM    6  C6  UNL     1     -33.430  16.744  -2.565  1.00 20.00     0.078 C 
HETATM    7  N7  UNL     1     -36.235  14.460  -7.010  1.00 20.00    -0.192 NA
HETATM    8  S8  UNL     1     -35.093  16.228  -2.056  1.00 20.00    -0.165 SA
ENDROOT
TORSDOF 0
ENDMDL
MODEL 9
REMARK VINA RESULT:      -3.5     17.928     18.766
REMARK  0 active torsions:
REMARK  status: ('A' for Active; 'I' for Inactive)
ROOT
HETATM    1  C1  UNL     1     -33.348  16.976  -2.848  1.00 20.00     0.088 C 
HETATM    2  C2  UNL     1     -34.413  15.088  -3.900  1.00 20.00    -0.060 C 
HETATM    3  C3  UNL     1     -34.011  15.724  -2.792  1.00 20.00     0.097 C 
HETATM    4  C4  UNL     1     -35.118  13.764  -3.898  1.00 20.00     0.046 C 
HETATM    5  C5  UNL     1     -34.290  15.667  -5.276  1.00 20.00     0.108 C 
HETATM    6  C6  UNL     1     -36.261  13.890  -4.891  1.00 20.00     0.078 C 
HETATM    7  N7  UNL     1     -32.805  18.000  -2.888  1.00 20.00    -0.192 NA
HETATM    8  S8  UNL     1     -35.594  14.870  -6.264  1.00 20.00    -0.165 SA
ENDROOT
TORSDOF 0
ENDMDL
