MODEL 1
REMARK VINA RESULT:      -6.0      0.000      0.000
REMARK  2 active torsions:
REMARK  status: ('A' for Active; 'I' for Inactive)
REMARK    1  A    between atoms: C3_3  and  C8_8 
REMARK    2  A    between atoms: C7_7  and  C8_8 
ROOT
HETATM    1  C1  UNL     1     -33.384   7.217   4.505  1.00 20.00     0.053 A 
HETATM    2  C2  UNL     1     -34.549   5.194   5.123  1.00 20.00     0.087 A 
HETATM    3  C3  UNL     1     -32.997   6.628   3.303  1.00 20.00    -0.007 A 
HETATM    4  C4  UNL     1     -34.160   6.500   5.416  1.00 20.00     0.120 A 
HETATM    5  C5  UNL     1     -34.162   4.603   3.921  1.00 20.00     0.158 A 
HETATM    6  C6  UNL     1     -33.386   5.321   3.010  1.00 20.00     0.161 A 
HETATM    7  F10 UNL     1     -34.531   7.067   6.571  1.00 20.00    -0.206 F 
HETATM    8  F11 UNL     1     -34.535   3.348   3.639  1.00 20.00    -0.203 F 
HETATM    9  F12 UNL     1     -33.018   4.746   1.857  1.00 20.00    -0.202 F 
ENDROOT
BRANCH   3  10
HETATM   10  C8  UNL     1     -32.166   7.396   2.331  1.00 20.00     0.111 C 
BRANCH  10  11
HETATM   11  C7  UNL     1     -32.962   8.051   1.224  1.00 20.00     0.235 C 
HETATM   12  O9  UNL     1     -32.878   9.233   0.912  1.00 20.00    -0.307 OA
ENDBRANCH  10  11
ENDBRANCH   3  10
TORSDOF 2
ENDMDL
MODEL 2
REMARK VINA RESULT:      -5.3      0.903      2.786
REMARK  2 active torsions:
REMARK  status: ('A' for Active; 'I' for Inactive)
REMARK    1  A    between atoms: C3_3  and  C8_8 
REMARK    2  A    between atoms: C7_7  and  C8_8 
ROOT
HETATM    1  C1  UNL     1     -33.298   5.328   2.882  1.00 20.00     0.053 A 
HETATM    2  C2  UNL     1     -34.686   4.566   4.706  1.00 20.00     0.087 A 
HETATM    3  C3  UNL     1     -33.099   6.541   3.539  1.00 20.00    -0.007 A 
HETATM    4  C4  UNL     1     -34.092   4.339   3.465  1.00 20.00     0.120 A 
HETATM    5  C5  UNL     1     -34.487   5.779   5.365  1.00 20.00     0.158 A 
HETATM    6  C6  UNL     1     -33.693   6.766   4.781  1.00 20.00     0.161 A 
HETATM    7  F10 UNL     1     -34.283   3.174   2.832  1.00 20.00    -0.206 F 
HETATM    8  F11 UNL     1     -35.057   5.996   6.557  1.00 20.00    -0.203 F 
HETATM    9  F12 UNL     1     -33.507   7.930   5.420  1.00 20.00    -0.202 F 
ENDROOT
BRANCH   3  10
HETATM   10  C8  UNL     1     -32.251   7.596   2.913  1.00 20.00     0.111 C 
BRANCH  10  11
HETATM   11  C7  UNL     1     -32.531   7.817   1.442  1.00 20.00     0.235 C 
HETATM   12  O9  UNL     1     -32.901   8.879   0.956  1.00 20.00    -0.307 OA
ENDBRANCH  10  11
ENDBRANCH   3  10
TORSDOF 2
ENDMDL
MODEL 3
REMARK VINA RESULT:      -4.9     11.506     12.051
REMARK  2 active torsions:
REMARK  status: ('A' for Active; 'I' for Inactive)
REMARK    1  A    between atoms: C3_3  and  C8_8 
REMARK    2  A    between atoms: C7_7  and  C8_8 
ROOT
HETATM    1  C1  UNL     1     -35.478  15.887  -2.239  1.00 20.00     0.053 A 
HETATM    2  C2  UNL     1     -34.195  17.692  -1.274  1.00 20.00     0.087 A 
HETATM    3  C3  UNL     1     -34.382  15.526  -3.021  1.00 20.00    -0.007 A 
HETATM    4  C4  UNL     1     -35.385  16.970  -1.364  1.00 20.00     0.120 A 
HETATM    5  C5  UNL     1     -33.098  17.331  -2.056  1.00 20.00     0.158 A 
HETATM    6  C6  UNL     1     -33.192  16.247  -2.930  1.00 20.00     0.161 A 
HETATM    7  F10 UNL     1     -36.438  17.318  -0.614  1.00 20.00    -0.206 F 
HETATM    8  F11 UNL     1     -31.955  18.023  -1.968  1.00 20.00    -0.203 F 
HETATM    9  F12 UNL     1     -32.134  15.907  -3.678  1.00 20.00    -0.202 F 
ENDROOT
BRANCH   3  10
HETATM   10  C8  UNL     1     -34.485  14.368  -3.956  1.00 20.00     0.111 C 
BRANCH  10  11
HETATM   11  C7  UNL     1     -35.905  13.919  -4.225  1.00 20.00     0.235 C 
HETATM   12  O9  UNL     1     -36.236  12.764  -4.465  1.00 20.00    -0.307 OA
ENDBRANCH  10  11
ENDBRANCH   3  10
TORSDOF 2
ENDMDL
MODEL 4
REMARK VINA RESULT:      -4.7     16.023     17.128
REMARK  2 active torsions:
REMARK  status: ('A' for Active; 'I' for Inactive)
REMARK    1  A    between atoms: C3_3  and  C8_8 
REMARK    2  A    between atoms: C7_7  and  C8_8 
ROOT
HETATM    1  C1  UNL     1     -23.809  18.155  12.192  1.00 20.00     0.053 A 
HETATM    2  C2  UNL     1     -22.476  17.900  10.194  1.00 20.00     0.087 A 
HETATM    3  C3  UNL     1     -24.906  18.520  11.414  1.00 20.00    -0.007 A 
HETATM    4  C4  UNL     1     -22.593  17.844  11.582  1.00 20.00     0.120 A 
HETATM    5  C5  UNL     1     -23.573  18.265   9.414  1.00 20.00     0.158 A 
HETATM    6  C6  UNL     1     -24.789  18.575  10.025  1.00 20.00     0.161 A 
HETATM    7  F10 UNL     1     -21.539  17.494  12.331  1.00 20.00    -0.206 F 
HETATM    8  F11 UNL     1     -23.460  18.318   8.082  1.00 20.00    -0.203 F 
HETATM    9  F12 UNL     1     -25.838  18.926   9.269  1.00 20.00    -0.202 F 
ENDROOT
BRANCH   3  10
HETATM   10  C8  UNL     1     -26.205  18.853  12.068  1.00 20.00     0.111 C 
BRANCH  10  11
HETATM   11  C7  UNL     1     -27.099  17.655  12.305  1.00 20.00     0.235 C 
HETATM   12  O9  UNL     1     -28.323  17.677  12.244  1.00 20.00    -0.307 OA
ENDBRANCH  10  11
ENDBRANCH   3  10
TORSDOF 2
ENDMDL
MODEL 5
REMARK VINA RESULT:      -4.6     16.085     16.830
REMARK  2 active torsions:
REMARK  status: ('A' for Active; 'I' for Inactive)
REMARK    1  A    between atoms: C3_3  and  C8_8 
REMARK    2  A    between atoms: C7_7  and  C8_8 
ROOT
HETATM    1  C1  UNL     1     -23.870  18.378   8.240  1.00 20.00     0.053 A 
HETATM    2  C2  UNL     1     -25.623  18.964   9.794  1.00 20.00     0.087 A 
HETATM    3  C3  UNL     1     -23.063  17.973   9.302  1.00 20.00    -0.007 A 
HETATM    4  C4  UNL     1     -25.151  18.873   8.485  1.00 20.00     0.120 A 
HETATM    5  C5  UNL     1     -24.817  18.559  10.857  1.00 20.00     0.158 A 
HETATM    6  C6  UNL     1     -23.536  18.063  10.611  1.00 20.00     0.161 A 
HETATM    7  F10 UNL     1     -25.925  19.263   7.464  1.00 20.00    -0.206 F 
HETATM    8  F11 UNL     1     -25.271  18.646  12.114  1.00 20.00    -0.203 F 
HETATM    9  F12 UNL     1     -22.767  17.677  11.638  1.00 20.00    -0.202 F 
ENDROOT
BRANCH   3  10
HETATM   10  C8  UNL     1     -21.693  17.444   9.036  1.00 20.00     0.111 C 
BRANCH  10  11
HETATM   11  C7  UNL     1     -21.311  17.434   7.573  1.00 20.00     0.235 C 
HETATM   12  O9  UNL     1     -21.300  16.434   6.864  1.00 20.00    -0.307 OA
ENDBRANCH  10  11
ENDBRANCH   3  10
TORSDOF 2
ENDMDL
MODEL 6
REMARK VINA RESULT:      -4.6     11.604     12.612
REMARK  2 active torsions:
REMARK  status: ('A' for Active; 'I' for Inactive)
REMARK    1  A    between atoms: C3_3  and  C8_8 
REMARK    2  A    between atoms: C7_7  and  C8_8 
ROOT
HETATM    1  C1  UNL     1     -35.044  15.957  -1.925  1.00 20.00     0.053 A 
HETATM    2  C2  UNL     1     -33.621  17.897  -2.144  1.00 20.00     0.087 A 
HETATM    3  C3  UNL     1     -34.854  15.665  -3.275  1.00 20.00    -0.007 A 
HETATM    4  C4  UNL     1     -34.427  17.073  -1.359  1.00 20.00     0.120 A 
HETATM    5  C5  UNL     1     -33.430  17.605  -3.494  1.00 20.00     0.158 A 
HETATM    6  C6  UNL     1     -34.047  16.489  -4.060  1.00 20.00     0.161 A 
HETATM    7  F10 UNL     1     -34.611  17.353  -0.062  1.00 20.00    -0.206 F 
HETATM    8  F11 UNL     1     -32.657  18.396  -4.248  1.00 20.00    -0.203 F 
HETATM    9  F12 UNL     1     -33.859  16.216  -5.359  1.00 20.00    -0.202 F 
ENDROOT
BRANCH   3  10
HETATM   10  C8  UNL     1     -35.515  14.471  -3.878  1.00 20.00     0.111 C 
BRANCH  10  11
HETATM   11  C7  UNL     1     -36.997  14.649  -4.127  1.00 20.00     0.235 C 
HETATM   12  O9  UNL     1     -37.762  13.746  -4.443  1.00 20.00    -0.307 OA
ENDBRANCH  10  11
ENDBRANCH   3  10
TORSDOF 2
ENDMDL
MODEL 7
REMARK VINA RESULT:      -4.5     11.717     12.585
REMARK  2 active torsions:
REMARK  status: ('A' for Active; 'I' for Inactive)
REMARK    1  A    between atoms: C3_3  and  C8_8 
REMARK    2  A    between atoms: C7_7  and  C8_8 
ROOT
HETATM    1  C1  UNL     1     -32.911  16.915  -2.354  1.00 20.00     0.053 A 
HETATM    2  C2  UNL     1     -35.159  16.192  -1.848  1.00 20.00     0.087 A 
HETATM    3  C3  UNL     1     -32.976  17.845  -1.317  1.00 20.00    -0.007 A 
HETATM    4  C4  UNL     1     -34.002  16.088  -2.620  1.00 20.00     0.120 A 
HETATM    5  C5  UNL     1     -35.226  17.121  -0.811  1.00 20.00     0.158 A 
HETATM    6  C6  UNL     1     -34.134  17.948  -0.545  1.00 20.00     0.161 A 
HETATM    7  F10 UNL     1     -33.938  15.195  -3.616  1.00 20.00    -0.206 F 
HETATM    8  F11 UNL     1     -36.337  17.220  -0.070  1.00 20.00    -0.203 F 
HETATM    9  F12 UNL     1     -34.206  18.839   0.453  1.00 20.00    -0.202 F 
ENDROOT
BRANCH   3  10
HETATM   10  C8  UNL     1     -31.808  18.729  -1.035  1.00 20.00     0.111 C 
BRANCH  10  11
HETATM   11  C7  UNL     1     -30.925  18.241   0.092  1.00 20.00     0.235 C 
HETATM   12  O9  UNL     1     -30.120  18.939   0.698  1.00 20.00    -0.307 OA
ENDBRANCH  10  11
ENDBRANCH   3  10
TORSDOF 2
ENDMDL
MODEL 8
REMARK VINA RESULT:      -4.5     11.527     12.247
REMARK  2 active torsions:
REMARK  status: ('A' for Active; 'I' for Inactive)
REMARK    1  A    between atoms: C3_3  and  C8_8 
REMARK    2  A    between atoms: C7_7  and  C8_8 
ROOT
HETATM    1  C1  UNL     1     -32.615  16.707  -2.993  1.00 20.00     0.053 A 
HETATM    2  C2  UNL     1     -33.912  17.733  -1.232  1.00 20.00     0.087 A 
HETATM    3  C3  UNL     1     -33.648  15.800  -3.225  1.00 20.00    -0.007 A 
HETATM    4  C4  UNL     1     -32.747  17.675  -1.997  1.00 20.00     0.120 A 
HETATM    5  C5  UNL     1     -34.945  16.826  -1.464  1.00 20.00     0.158 A 
HETATM    6  C6  UNL     1     -34.813  15.859  -2.461  1.00 20.00     0.161 A 
HETATM    7  F10 UNL     1     -31.754  18.546  -1.774  1.00 20.00    -0.206 F 
HETATM    8  F11 UNL     1     -36.064  16.883  -0.730  1.00 20.00    -0.203 F 
HETATM    9  F12 UNL     1     -35.810  14.990  -2.677  1.00 20.00    -0.202 F 
ENDROOT
BRANCH   3  10
HETATM   10  C8  UNL     1     -33.504  14.766  -4.291  1.00 20.00     0.111 C 
BRANCH  10  11
HETATM   11  C7  UNL     1     -34.267  15.079  -5.559  1.00 20.00     0.235 C 
HETATM   12  O9  UNL     1     -35.070  14.322  -6.092  1.00 20.00    -0.307 OA
ENDBRANCH  10  11
ENDBRANCH   3  10
TORSDOF 2
ENDMDL
MODEL 9
REMARK VINA RESULT:      -4.5     11.203     12.199
REMARK  2 active torsions:
REMARK  status: ('A' for Active; 'I' for Inactive)
REMARK    1  A    between atoms: C3_3  and  C8_8 
REMARK    2  A    between atoms: C7_7  and  C8_8 
ROOT
HETATM    1  C1  UNL     1     -33.277  16.207  -2.997  1.00 20.00     0.053 A 
HETATM    2  C2  UNL     1     -34.425  17.647  -1.433  1.00 20.00     0.087 A 
HETATM    3  C3  UNL     1     -34.503  15.734  -3.461  1.00 20.00    -0.007 A 
HETATM    4  C4  UNL     1     -33.237  17.165  -1.982  1.00 20.00     0.120 A 
HETATM    5  C5  UNL     1     -35.652  17.174  -1.897  1.00 20.00     0.158 A 
HETATM    6  C6  UNL     1     -35.690  16.217  -2.912  1.00 20.00     0.161 A 
HETATM    7  F10 UNL     1     -32.059  17.619  -1.536  1.00 20.00    -0.206 F 
HETATM    8  F11 UNL     1     -36.792  17.637  -1.370  1.00 20.00    -0.203 F 
HETATM    9  F12 UNL     1     -36.873  15.767  -3.352  1.00 20.00    -0.202 F 
ENDROOT
BRANCH   3  10
HETATM   10  C8  UNL     1     -34.542  14.710  -4.545  1.00 20.00     0.111 C 
BRANCH  10  11
HETATM   11  C7  UNL     1     -34.922  13.325  -4.069  1.00 20.00     0.235 C 
HETATM   12  O9  UNL     1     -35.879  12.684  -4.488  1.00 20.00    -0.307 OA
ENDBRANCH  10  11
ENDBRANCH   3  10
TORSDOF 2
ENDMDL
