MODEL 1
REMARK VINA RESULT:      -3.9      0.000      0.000
REMARK  4 active torsions:
REMARK  status: ('A' for Active; 'I' for Inactive)
REMARK    1  A    between atoms: C4_4  and  N11_11 
REMARK    2  A    between atoms: C7_7  and  C9_9 
REMARK    3  A    between atoms: C8_8  and  N11_11 
REMARK    4  A    between atoms: C9_9  and  N11_11 
ROOT
HETATM    1  C1  UNL     1     -35.654  13.956  -4.332  1.00 20.00     0.095 C 
HETATM    2  C9  UNL     1     -35.317  15.359  -4.051  1.00 20.00     0.328 C 
HETATM    3  N10 UNL     1     -35.923  12.849  -4.555  1.00 20.00    -0.195 NA
ENDROOT
BRANCH   2   4
HETATM    4  C7  UNL     1     -34.539  15.522  -2.740  1.00 20.00     0.046 C 
HETATM    5  C5  UNL     1     -33.459  16.600  -2.771  1.00 20.00     0.008 C 
ENDBRANCH   2   4
BRANCH   2   6
HETATM    6  N11 UNL     1     -34.605  15.940  -5.161  1.00 20.00     0.110 N 
BRANCH   6   7
HETATM    7  C4  UNL     1     -35.493  16.773  -5.985  1.00 20.00     0.224 A 
HETATM    8  C2  UNL     1     -36.644  17.509  -5.359  1.00 20.00     0.038 A 
HETATM    9  C3  UNL     1     -35.458  18.272  -5.870  1.00 20.00     0.038 A 
ENDBRANCH   6   7
BRANCH   6  10
HETATM   10  C8  UNL     1     -33.984  14.903  -5.997  1.00 20.00     0.270 C 
HETATM   11  C6  UNL     1     -33.953  15.313  -7.429  1.00 20.00     0.037 C 
ENDBRANCH   6  10
ENDBRANCH   2   6
TORSDOF 4
ENDMDL
MODEL 2
REMARK VINA RESULT:      -3.7      1.165      2.524
REMARK  4 active torsions:
REMARK  status: ('A' for Active; 'I' for Inactive)
REMARK    1  A    between atoms: C4_4  and  N11_11 
REMARK    2  A    between atoms: C7_7  and  C9_9 
REMARK    3  A    between atoms: C8_8  and  N11_11 
REMARK    4  A    between atoms: C9_9  and  N11_11 
ROOT
HETATM    1  C1  UNL     1     -35.981  13.752  -4.721  1.00 20.00     0.095 C 
HETATM    2  C9  UNL     1     -35.957  15.152  -5.166  1.00 20.00     0.328 C 
HETATM    3  N10 UNL     1     -36.000  12.644  -4.373  1.00 20.00    -0.195 NA
ENDROOT
BRANCH   2   4
HETATM    4  C7  UNL     1     -36.681  16.088  -4.190  1.00 20.00     0.046 C 
HETATM    5  C5  UNL     1     -36.576  17.570  -4.534  1.00 20.00     0.008 C 
ENDBRANCH   2   4
BRANCH   2   6
HETATM    6  N11 UNL     1     -34.603  15.585  -5.402  1.00 20.00     0.110 N 
BRANCH   6   7
HETATM    7  C4  UNL     1     -34.167  15.251  -6.765  1.00 20.00     0.224 A 
HETATM    8  C2  UNL     1     -35.127  15.355  -7.918  1.00 20.00     0.038 A 
HETATM    9  C3  UNL     1     -33.993  16.330  -7.798  1.00 20.00     0.038 A 
ENDBRANCH   6   7
BRANCH   6  10
HETATM   10  C8  UNL     1     -33.677  14.990  -4.428  1.00 20.00     0.270 C 
HETATM   11  C6  UNL     1     -33.147  16.020  -3.489  1.00 20.00     0.037 C 
ENDBRANCH   6  10
ENDBRANCH   2   6
TORSDOF 4
ENDMDL
MODEL 3
REMARK VINA RESULT:      -3.7      0.911      2.446
REMARK  4 active torsions:
REMARK  status: ('A' for Active; 'I' for Inactive)
REMARK    1  A    between atoms: C4_4  and  N11_11 
REMARK    2  A    between atoms: C7_7  and  C9_9 
REMARK    3  A    between atoms: C8_8  and  N11_11 
REMARK    4  A    between atoms: C9_9  and  N11_11 
ROOT
HETATM    1  C1  UNL     1     -35.709  13.815  -4.292  1.00 20.00     0.095 C 
HETATM    2  C9  UNL     1     -35.533  15.256  -4.059  1.00 20.00     0.328 C 
HETATM    3  N10 UNL     1     -35.852  12.678  -4.475  1.00 20.00    -0.195 NA
ENDROOT
BRANCH   2   4
HETATM    4  C7  UNL     1     -34.185  15.582  -3.404  1.00 20.00     0.046 C 
HETATM    5  C5  UNL     1     -34.285  16.373  -2.104  1.00 20.00     0.008 C 
ENDBRANCH   2   4
BRANCH   2   6
HETATM    6  N11 UNL     1     -35.713  15.992  -5.285  1.00 20.00     0.110 N 
BRANCH   6   7
HETATM    7  C4  UNL     1     -34.435  16.176  -5.988  1.00 20.00     0.224 A 
HETATM    8  C2  UNL     1     -33.970  15.164  -6.998  1.00 20.00     0.038 A 
HETATM    9  C3  UNL     1     -34.411  16.525  -7.450  1.00 20.00     0.038 A 
ENDBRANCH   6   7
BRANCH   6  10
HETATM   10  C8  UNL     1     -36.330  17.302  -5.033  1.00 20.00     0.270 C 
HETATM   11  C6  UNL     1     -37.486  17.182  -4.099  1.00 20.00     0.037 C 
ENDBRANCH   6  10
ENDBRANCH   2   6
TORSDOF 4
ENDMDL
MODEL 4
REMARK VINA RESULT:      -3.6      1.161      3.275
REMARK  4 active torsions:
REMARK  status: ('A' for Active; 'I' for Inactive)
REMARK    1  A    between atoms: C4_4  and  N11_11 
REMARK    2  A    between atoms: C7_7  and  C9_9 
REMARK    3  A    between atoms: C8_8  and  N11_11 
REMARK    4  A    between atoms: C9_9  and  N11_11 
ROOT
HETATM    1  C1  UNL     1     -36.554  14.314  -4.907  1.00 20.00     0.095 C 
HETATM    2  C9  UNL     1     -35.360  14.950  -5.482  1.00 20.00     0.328 C 
HETATM    3  N10 UNL     1     -37.495  13.811  -4.450  1.00 20.00    -0.195 NA
ENDROOT
BRANCH   2   4
HETATM    4  C7  UNL     1     -35.339  14.877  -7.014  1.00 20.00     0.046 C 
HETATM    5  C5  UNL     1     -34.067  15.417  -7.659  1.00 20.00     0.008 C 
ENDBRANCH   2   4
BRANCH   2   6
HETATM    6  N11 UNL     1     -35.238  16.309  -5.020  1.00 20.00     0.110 N 
BRANCH   6   7
HETATM    7  C4  UNL     1     -34.661  16.362  -3.669  1.00 20.00     0.224 A 
HETATM    8  C2  UNL     1     -33.361  15.669  -3.369  1.00 20.00     0.038 A 
HETATM    9  C3  UNL     1     -33.421  17.168  -3.399  1.00 20.00     0.038 A 
ENDBRANCH   6   7
BRANCH   6  10
HETATM   10  C8  UNL     1     -36.539  16.993  -5.028  1.00 20.00     0.270 C 
HETATM   11  C6  UNL     1     -36.466  18.283  -5.771  1.00 20.00     0.037 C 
ENDBRANCH   6  10
ENDBRANCH   2   6
TORSDOF 4
ENDMDL
MODEL 5
REMARK VINA RESULT:      -3.6      1.668      3.568
REMARK  4 active torsions:
REMARK  status: ('A' for Active; 'I' for Inactive)
REMARK    1  A    between atoms: C4_4  and  N11_11 
REMARK    2  A    between atoms: C7_7  and  C9_9 
REMARK    3  A    between atoms: C8_8  and  N11_11 
REMARK    4  A    between atoms: C9_9  and  N11_11 
ROOT
HETATM    1  C1  UNL     1     -33.461  14.506  -4.561  1.00 20.00     0.095 C 
HETATM    2  C9  UNL     1     -34.214  15.764  -4.678  1.00 20.00     0.328 C 
HETATM    3  N10 UNL     1     -32.864  13.515  -4.467  1.00 20.00    -0.195 NA
ENDROOT
BRANCH   2   4
HETATM    4  C7  UNL     1     -34.631  16.064  -6.123  1.00 20.00     0.046 C 
HETATM    5  C5  UNL     1     -33.966  15.181  -7.173  1.00 20.00     0.008 C 
ENDBRANCH   2   4
BRANCH   2   6
HETATM    6  N11 UNL     1     -35.352  15.756  -3.793  1.00 20.00     0.110 N 
BRANCH   6   7
HETATM    7  C4  UNL     1     -34.932  15.797  -2.386  1.00 20.00     0.224 A 
HETATM    8  C2  UNL     1     -33.993  16.866  -1.902  1.00 20.00     0.038 A 
HETATM    9  C3  UNL     1     -35.430  16.881  -1.471  1.00 20.00     0.038 A 
ENDBRANCH   6   7
BRANCH   6  10
HETATM   10  C8  UNL     1     -36.196  14.574  -4.023  1.00 20.00     0.270 C 
HETATM   11  C6  UNL     1     -37.616  14.963  -4.251  1.00 20.00     0.037 C 
ENDBRANCH   6  10
ENDBRANCH   2   6
TORSDOF 4
ENDMDL
MODEL 6
REMARK VINA RESULT:      -3.6      1.316      2.707
REMARK  4 active torsions:
REMARK  status: ('A' for Active; 'I' for Inactive)
REMARK    1  A    between atoms: C4_4  and  N11_11 
REMARK    2  A    between atoms: C7_7  and  C9_9 
REMARK    3  A    between atoms: C8_8  and  N11_11 
REMARK    4  A    between atoms: C9_9  and  N11_11 
ROOT
HETATM    1  C1  UNL     1     -36.001  13.712  -4.696  1.00 20.00     0.095 C 
HETATM    2  C9  UNL     1     -36.100  15.113  -5.130  1.00 20.00     0.328 C 
HETATM    3  N10 UNL     1     -35.922  12.604  -4.356  1.00 20.00    -0.195 NA
ENDROOT
BRANCH   2   4
HETATM    4  C7  UNL     1     -37.134  15.905  -4.321  1.00 20.00     0.046 C 
HETATM    5  C5  UNL     1     -38.544  15.325  -4.350  1.00 20.00     0.008 C 
ENDBRANCH   2   4
BRANCH   2   6
HETATM    6  N11 UNL     1     -34.806  15.747  -5.094  1.00 20.00     0.110 N 
BRANCH   6   7
HETATM    7  C4  UNL     1     -34.636  16.537  -3.866  1.00 20.00     0.224 A 
HETATM    8  C2  UNL     1     -34.247  15.868  -2.577  1.00 20.00     0.038 A 
HETATM    9  C3  UNL     1     -33.268  16.759  -3.284  1.00 20.00     0.038 A 
ENDBRANCH   6   7
BRANCH   6  10
HETATM   10  C8  UNL     1     -34.602  16.607  -6.268  1.00 20.00     0.270 C 
HETATM   11  C6  UNL     1     -34.214  15.804  -7.462  1.00 20.00     0.037 C 
ENDBRANCH   6  10
ENDBRANCH   2   6
TORSDOF 4
ENDMDL
MODEL 7
REMARK VINA RESULT:      -3.6      1.703      2.926
REMARK  4 active torsions:
REMARK  status: ('A' for Active; 'I' for Inactive)
REMARK    1  A    between atoms: C4_4  and  N11_11 
REMARK    2  A    between atoms: C7_7  and  C9_9 
REMARK    3  A    between atoms: C8_8  and  N11_11 
REMARK    4  A    between atoms: C9_9  and  N11_11 
ROOT
HETATM    1  C1  UNL     1     -36.949  14.408  -4.134  1.00 20.00     0.095 C 
HETATM    2  C9  UNL     1     -35.664  15.010  -3.749  1.00 20.00     0.328 C 
HETATM    3  N10 UNL     1     -37.964  13.933  -4.435  1.00 20.00    -0.195 NA
ENDROOT
BRANCH   2   4
HETATM    4  C7  UNL     1     -34.486  14.435  -4.546  1.00 20.00     0.046 C 
HETATM    5  C5  UNL     1     -33.118  14.963  -4.128  1.00 20.00     0.008 C 
ENDBRANCH   2   4
BRANCH   2   6
HETATM    6  N11 UNL     1     -35.724  16.445  -3.861  1.00 20.00     0.110 N 
BRANCH   6   7
HETATM    7  C4  UNL     1     -35.877  17.076  -2.542  1.00 20.00     0.224 A 
HETATM    8  C2  UNL     1     -35.105  16.563  -1.358  1.00 20.00     0.038 A 
HETATM    9  C3  UNL     1     -34.763  17.897  -1.953  1.00 20.00     0.038 A 
ENDBRANCH   6   7
BRANCH   6  10
HETATM   10  C8  UNL     1     -36.825  16.865  -4.740  1.00 20.00     0.270 C 
HETATM   11  C6  UNL     1     -36.319  17.658  -5.895  1.00 20.00     0.037 C 
ENDBRANCH   6  10
ENDBRANCH   2   6
TORSDOF 4
ENDMDL
MODEL 8
REMARK VINA RESULT:      -3.4      1.755      3.843
REMARK  4 active torsions:
REMARK  status: ('A' for Active; 'I' for Inactive)
REMARK    1  A    between atoms: C4_4  and  N11_11 
REMARK    2  A    between atoms: C7_7  and  C9_9 
REMARK    3  A    between atoms: C8_8  and  N11_11 
REMARK    4  A    between atoms: C9_9  and  N11_11 
ROOT
HETATM    1  C1  UNL     1     -37.331  14.794  -4.652  1.00 20.00     0.095 C 
HETATM    2  C9  UNL     1     -36.347  15.796  -5.086  1.00 20.00     0.328 C 
HETATM    3  N10 UNL     1     -38.106  14.000  -4.310  1.00 20.00    -0.195 NA
ENDROOT
BRANCH   2   4
HETATM    4  C7  UNL     1     -36.901  16.731  -6.168  1.00 20.00     0.046 C 
HETATM    5  C5  UNL     1     -35.875  17.685  -6.770  1.00 20.00     0.008 C 
ENDBRANCH   2   4
BRANCH   2   6
HETATM    6  N11 UNL     1     -35.849  16.538  -3.955  1.00 20.00     0.110 N 
BRANCH   6   7
HETATM    7  C4  UNL     1     -34.953  15.715  -3.130  1.00 20.00     0.224 A 
HETATM    8  C2  UNL     1     -33.790  14.995  -3.755  1.00 20.00     0.038 A 
HETATM    9  C3  UNL     1     -33.546  16.164  -2.848  1.00 20.00     0.038 A 
ENDBRANCH   6   7
BRANCH   6  10
HETATM   10  C8  UNL     1     -36.951  17.049  -3.127  1.00 20.00     0.270 C 
HETATM   11  C6  UNL     1     -36.698  18.455  -2.702  1.00 20.00     0.037 C 
ENDBRANCH   6  10
ENDBRANCH   2   6
TORSDOF 4
ENDMDL
MODEL 9
REMARK VINA RESULT:      -3.4      1.696      2.287
REMARK  4 active torsions:
REMARK  status: ('A' for Active; 'I' for Inactive)
REMARK    1  A    between atoms: C4_4  and  N11_11 
REMARK    2  A    between atoms: C7_7  and  C9_9 
REMARK    3  A    between atoms: C8_8  and  N11_11 
REMARK    4  A    between atoms: C9_9  and  N11_11 
ROOT
HETATM    1  C1  UNL     1     -33.809  14.580  -4.072  1.00 20.00     0.095 C 
HETATM    2  C9  UNL     1     -34.797  15.433  -3.395  1.00 20.00     0.328 C 
HETATM    3  N10 UNL     1     -33.032  13.904  -4.607  1.00 20.00    -0.195 NA
ENDROOT
BRANCH   2   4
HETATM    4  C7  UNL     1     -34.174  16.270  -2.271  1.00 20.00     0.046 C 
HETATM    5  C5  UNL     1     -35.159  16.729  -1.200  1.00 20.00     0.008 C 
ENDBRANCH   2   4
BRANCH   2   6
HETATM    6  N11 UNL     1     -35.485  16.265  -4.349  1.00 20.00     0.110 N 
BRANCH   6   7
HETATM    7  C4  UNL     1     -36.504  15.502  -5.084  1.00 20.00     0.224 A 
HETATM    8  C2  UNL     1     -37.367  14.499  -4.369  1.00 20.00     0.038 A 
HETATM    9  C3  UNL     1     -37.967  15.779  -4.873  1.00 20.00     0.038 A 
ENDBRANCH   6   7
BRANCH   6  10
HETATM   10  C8  UNL     1     -34.544  16.876  -5.299  1.00 20.00     0.270 C 
HETATM   11  C6  UNL     1     -34.991  16.672  -6.706  1.00 20.00     0.037 C 
ENDBRANCH   6  10
ENDBRANCH   2   6
TORSDOF 4
ENDMDL
