MODEL 1
REMARK VINA RESULT:      -4.9      0.000      0.000
REMARK  1 active torsions:
REMARK  status: ('A' for Active; 'I' for Inactive)
REMARK    1  A    between atoms: C3_3  and  C6_6 
ROOT
HETATM    1  C1  UNL     1     -32.775   6.935   2.174  1.00 20.00     0.088 C 
HETATM    2  C2  UNL     1     -33.122   5.606   2.542  1.00 20.00     0.096 C 
HETATM    3  C3  UNL     1     -33.854   5.312   3.634  1.00 20.00    -0.070 C 
HETATM    4  C7  UNL     1     -34.240   3.941   4.058  1.00 20.00     0.044 C 
HETATM    5  N8  UNL     1     -32.490   8.018   1.870  1.00 20.00    -0.192 NA
ENDROOT
BRANCH   3   6
HETATM    6  C6  UNL     1     -34.341   6.426   4.525  1.00 20.00     0.015 A 
HETATM    7  C4  UNL     1     -34.657   6.080   5.929  1.00 20.00     0.010 A 
HETATM    8  C5  UNL     1     -33.431   6.879   5.599  1.00 20.00     0.010 A 
ENDBRANCH   3   6
TORSDOF 1
ENDMDL
MODEL 2
REMARK VINA RESULT:      -4.5      1.074      2.197
REMARK  1 active torsions:
REMARK  status: ('A' for Active; 'I' for Inactive)
REMARK    1  A    between atoms: C3_3  and  C6_6 
ROOT
HETATM    1  C1  UNL     1     -32.476   7.343   2.517  1.00 20.00     0.088 C 
HETATM    2  C2  UNL     1     -32.639   7.425   3.928  1.00 20.00     0.096 C 
HETATM    3  C3  UNL     1     -33.578   6.733   4.601  1.00 20.00    -0.070 C 
HETATM    4  C7  UNL     1     -33.787   6.787   6.072  1.00 20.00     0.044 C 
HETATM    5  N8  UNL     1     -32.339   7.279   1.367  1.00 20.00    -0.192 NA
ENDROOT
BRANCH   3   6
HETATM    6  C6  UNL     1     -34.514   5.821   3.848  1.00 20.00     0.015 A 
HETATM    7  C4  UNL     1     -34.233   4.369   3.903  1.00 20.00     0.010 A 
HETATM    8  C5  UNL     1     -35.397   4.947   4.651  1.00 20.00     0.010 A 
ENDBRANCH   3   6
TORSDOF 1
ENDMDL
MODEL 3
REMARK VINA RESULT:      -4.5     11.276     11.892
REMARK  1 active torsions:
REMARK  status: ('A' for Active; 'I' for Inactive)
REMARK    1  A    between atoms: C3_3  and  C6_6 
ROOT
HETATM    1  C1  UNL     1     -35.160  13.647  -4.254  1.00 20.00     0.088 C 
HETATM    2  C2  UNL     1     -34.072  14.551  -4.107  1.00 20.00     0.096 C 
HETATM    3  C3  UNL     1     -34.077  15.571  -3.227  1.00 20.00    -0.070 C 
HETATM    4  C7  UNL     1     -32.965  16.539  -3.038  1.00 20.00     0.044 C 
HETATM    5  N8  UNL     1     -36.046  12.908  -4.378  1.00 20.00    -0.192 NA
ENDROOT
BRANCH   3   6
HETATM    6  C6  UNL     1     -35.280  15.788  -2.345  1.00 20.00     0.015 A 
HETATM    7  C4  UNL     1     -35.128  16.729  -1.213  1.00 20.00     0.010 A 
HETATM    8  C5  UNL     1     -35.940  17.109  -2.415  1.00 20.00     0.010 A 
ENDBRANCH   3   6
TORSDOF 1
ENDMDL
MODEL 4
REMARK VINA RESULT:      -4.4     11.790     12.095
REMARK  1 active torsions:
REMARK  status: ('A' for Active; 'I' for Inactive)
REMARK    1  A    between atoms: C3_3  and  C6_6 
ROOT
HETATM    1  C1  UNL     1     -36.779  14.038  -4.481  1.00 20.00     0.088 C 
HETATM    2  C2  UNL     1     -35.378  14.182  -4.677  1.00 20.00     0.096 C 
HETATM    3  C3  UNL     1     -34.591  14.901  -3.853  1.00 20.00    -0.070 C 
HETATM    4  C7  UNL     1     -33.124  15.080  -4.016  1.00 20.00     0.044 C 
HETATM    5  N8  UNL     1     -37.923  13.918  -4.325  1.00 20.00    -0.192 NA
ENDROOT
BRANCH   3   6
HETATM    6  C6  UNL     1     -35.198  15.594  -2.660  1.00 20.00     0.015 A 
HETATM    7  C4  UNL     1     -34.356  16.585  -1.953  1.00 20.00     0.010 A 
HETATM    8  C5  UNL     1     -35.508  17.034  -2.801  1.00 20.00     0.010 A 
ENDBRANCH   3   6
TORSDOF 1
ENDMDL
MODEL 5
REMARK VINA RESULT:      -4.4      2.238      3.337
REMARK  1 active torsions:
REMARK  status: ('A' for Active; 'I' for Inactive)
REMARK    1  A    between atoms: C3_3  and  C6_6 
ROOT
HETATM    1  C1  UNL     1     -34.712   5.292   5.345  1.00 20.00     0.088 C 
HETATM    2  C2  UNL     1     -34.308   4.620   4.158  1.00 20.00     0.096 C 
HETATM    3  C3  UNL     1     -33.690   5.241   3.136  1.00 20.00    -0.070 C 
HETATM    4  C7  UNL     1     -33.250   4.582   1.878  1.00 20.00     0.044 C 
HETATM    5  N8  UNL     1     -35.043   5.836   6.315  1.00 20.00    -0.192 NA
ENDROOT
BRANCH   3   6
HETATM    6  C6  UNL     1     -33.399   6.717   3.227  1.00 20.00     0.015 A 
HETATM    7  C4  UNL     1     -31.989   7.119   3.426  1.00 20.00     0.010 A 
HETATM    8  C5  UNL     1     -32.661   7.332   2.103  1.00 20.00     0.010 A 
ENDBRANCH   3   6
TORSDOF 1
ENDMDL
MODEL 6
REMARK VINA RESULT:      -4.3     15.550     16.835
REMARK  1 active torsions:
REMARK  status: ('A' for Active; 'I' for Inactive)
REMARK    1  A    between atoms: C3_3  and  C6_6 
ROOT
HETATM    1  C1  UNL     1     -22.118  17.858   8.512  1.00 20.00     0.088 C 
HETATM    2  C2  UNL     1     -21.803  17.983   9.894  1.00 20.00     0.096 C 
HETATM    3  C3  UNL     1     -22.669  17.669  10.877  1.00 20.00    -0.070 C 
HETATM    4  C7  UNL     1     -22.385  17.783  12.332  1.00 20.00     0.044 C 
HETATM    5  N8  UNL     1     -22.371  17.758   7.385  1.00 20.00    -0.192 NA
ENDROOT
BRANCH   3   6
HETATM    6  C6  UNL     1     -24.043  17.159  10.525  1.00 20.00     0.015 A 
HETATM    7  C4  UNL     1     -24.543  15.988  11.277  1.00 20.00     0.010 A 
HETATM    8  C5  UNL     1     -25.113  17.352  11.527  1.00 20.00     0.010 A 
ENDBRANCH   3   6
TORSDOF 1
ENDMDL
MODEL 7
REMARK VINA RESULT:      -4.2     11.545     12.297
REMARK  1 active torsions:
REMARK  status: ('A' for Active; 'I' for Inactive)
REMARK    1  A    between atoms: C3_3  and  C6_6 
ROOT
HETATM    1  C1  UNL     1     -36.226  13.837  -4.381  1.00 20.00     0.088 C 
HETATM    2  C2  UNL     1     -36.673  15.167  -4.147  1.00 20.00     0.096 C 
HETATM    3  C3  UNL     1     -36.014  16.037  -3.358  1.00 20.00    -0.070 C 
HETATM    4  C7  UNL     1     -36.442  17.434  -3.085  1.00 20.00     0.044 C 
HETATM    5  N8  UNL     1     -35.865  12.752  -4.574  1.00 20.00    -0.192 NA
ENDROOT
BRANCH   3   6
HETATM    6  C6  UNL     1     -34.739  15.606  -2.678  1.00 20.00     0.015 A 
HETATM    7  C4  UNL     1     -33.466  15.944  -3.351  1.00 20.00     0.010 A 
HETATM    8  C5  UNL     1     -33.884  16.671  -2.109  1.00 20.00     0.010 A 
ENDBRANCH   3   6
TORSDOF 1
ENDMDL
MODEL 8
REMARK VINA RESULT:      -4.2      8.956      9.246
REMARK  1 active torsions:
REMARK  status: ('A' for Active; 'I' for Inactive)
REMARK    1  A    between atoms: C3_3  and  C6_6 
ROOT
HETATM    1  C1  UNL     1     -41.360   8.963  -0.240  1.00 20.00     0.088 C 
HETATM    2  C2  UNL     1     -41.129   7.758  -0.960  1.00 20.00     0.096 C 
HETATM    3  C3  UNL     1     -41.388   6.537  -0.452  1.00 20.00    -0.070 C 
HETATM    4  C7  UNL     1     -41.163   5.252  -1.165  1.00 20.00     0.044 C 
HETATM    5  N8  UNL     1     -41.547   9.948   0.343  1.00 20.00    -0.192 NA
ENDROOT
BRANCH   3   6
HETATM    6  C6  UNL     1     -41.949   6.414   0.941  1.00 20.00     0.015 A 
HETATM    7  C4  UNL     1     -43.417   6.516   1.091  1.00 20.00     0.010 A 
HETATM    8  C5  UNL     1     -42.728   5.195   1.251  1.00 20.00     0.010 A 
ENDBRANCH   3   6
TORSDOF 1
ENDMDL
MODEL 9
REMARK VINA RESULT:      -4.2     15.503     16.325
REMARK  1 active torsions:
REMARK  status: ('A' for Active; 'I' for Inactive)
REMARK    1  A    between atoms: C3_3  and  C6_6 
ROOT
HETATM    1  C1  UNL     1     -23.575  18.443   8.244  1.00 20.00     0.088 C 
HETATM    2  C2  UNL     1     -24.464  18.898   9.256  1.00 20.00     0.096 C 
HETATM    3  C3  UNL     1     -24.731  18.192  10.372  1.00 20.00    -0.070 C 
HETATM    4  C7  UNL     1     -25.651  18.626  11.456  1.00 20.00     0.044 C 
HETATM    5  N8  UNL     1     -22.850  18.076   7.416  1.00 20.00    -0.192 NA
ENDROOT
BRANCH   3   6
HETATM    6  C6  UNL     1     -24.068  16.855  10.583  1.00 20.00     0.015 A 
HETATM    7  C4  UNL     1     -23.410  16.624  11.889  1.00 20.00     0.010 A 
HETATM    8  C5  UNL     1     -24.699  15.934  11.554  1.00 20.00     0.010 A 
ENDBRANCH   3   6
TORSDOF 1
ENDMDL
