MODEL 1
REMARK VINA RESULT:      -4.4      0.000      0.000
REMARK  2 active torsions:
REMARK  status: ('A' for Active; 'I' for Inactive)
REMARK    1  A    between atoms: C6_6  and  C9_9 
REMARK    2  A    between atoms: C10_10  and  N12_12 
ROOT
HETATM    1  C1  UNL     1     -35.919  13.929  -4.637  1.00 20.00     0.092 C 
HETATM    2  C8  UNL     1     -36.639  15.848  -6.021  1.00 20.00     0.056 C 
HETATM    3  C10 UNL     1     -35.955  15.390  -4.743  1.00 20.00     0.289 C 
HETATM    4  N11 UNL     1     -35.892  12.772  -4.552  1.00 20.00    -0.195 NA
ENDROOT
BRANCH   3   5
HETATM    5  N12 UNL     1     -34.545  15.918  -4.746  1.00 20.00    -0.055 N 
HETATM    6  C4  UNL     1     -33.727  15.469  -3.561  1.00 20.00     0.237 C 
HETATM    7  C2  UNL     1     -34.119  16.237  -2.305  1.00 20.00     0.032 C 
HETATM    8  C6  UNL     1     -34.068  17.760  -2.487  1.00 20.00    -0.012 C 
HETATM    9  C3  UNL     1     -34.851  18.183  -3.737  1.00 20.00     0.032 C 
HETATM   10  C5  UNL     1     -34.455  17.404  -4.986  1.00 20.00     0.237 C 
HETATM   11  H31 UNL     1     -34.087  15.467  -5.593  1.00 20.00     0.281 HD
BRANCH   8  12
HETATM   12  C9  UNL     1     -32.627  18.276  -2.523  1.00 20.00     0.000 C 
HETATM   13  C7  UNL     1     -31.986  18.215  -1.175  1.00 20.00     0.005 C 
ENDBRANCH   8  12
ENDBRANCH   3   5
TORSDOF 2
ENDMDL
MODEL 2
REMARK VINA RESULT:      -4.3      1.402      1.850
REMARK  2 active torsions:
REMARK  status: ('A' for Active; 'I' for Inactive)
REMARK    1  A    between atoms: C6_6  and  C9_9 
REMARK    2  A    between atoms: C10_10  and  N12_12 
ROOT
HETATM    1  C1  UNL     1     -36.118  14.437  -5.781  1.00 20.00     0.092 C 
HETATM    2  C8  UNL     1     -37.877  14.921  -4.112  1.00 20.00     0.056 C 
HETATM    3  C10 UNL     1     -36.388  14.898  -4.416  1.00 20.00     0.289 C 
HETATM    4  N11 UNL     1     -35.902  14.071  -6.861  1.00 20.00    -0.195 NA
ENDROOT
BRANCH   3   5
HETATM    5  N12 UNL     1     -35.851  16.295  -4.253  1.00 20.00    -0.055 N 
HETATM    6  C4  UNL     1     -34.436  16.461  -4.746  1.00 20.00     0.237 C 
HETATM    7  C2  UNL     1     -33.440  15.857  -3.765  1.00 20.00     0.032 C 
HETATM    8  C6  UNL     1     -33.608  16.380  -2.332  1.00 20.00    -0.012 C 
HETATM    9  C3  UNL     1     -35.070  16.262  -1.880  1.00 20.00     0.032 C 
HETATM   10  C5  UNL     1     -36.056  16.866  -2.872  1.00 20.00     0.237 C 
HETATM   11  H31 UNL     1     -36.448  16.894  -4.897  1.00 20.00     0.281 HD
BRANCH   8  12
HETATM   12  C9  UNL     1     -33.089  17.813  -2.192  1.00 20.00     0.000 C 
HETATM   13  C7  UNL     1     -32.879  18.187  -0.761  1.00 20.00     0.005 C 
ENDBRANCH   8  12
ENDBRANCH   3   5
TORSDOF 2
ENDMDL
MODEL 3
REMARK VINA RESULT:      -4.3      1.223      1.223
REMARK  2 active torsions:
REMARK  status: ('A' for Active; 'I' for Inactive)
REMARK    1  A    between atoms: C6_6  and  C9_9 
REMARK    2  A    between atoms: C10_10  and  N12_12 
ROOT
HETATM    1  C1  UNL     1     -37.494  14.914  -4.368  1.00 20.00     0.092 C 
HETATM    2  C8  UNL     1     -37.302  17.049  -5.600  1.00 20.00     0.056 C 
HETATM    3  C10 UNL     1     -36.903  16.255  -4.367  1.00 20.00     0.289 C 
HETATM    4  N11 UNL     1     -37.963  13.853  -4.366  1.00 20.00    -0.195 NA
ENDROOT
BRANCH   3   5
HETATM    5  N12 UNL     1     -35.402  16.131  -4.351  1.00 20.00    -0.055 N 
HETATM    6  C4  UNL     1     -34.872  15.339  -3.181  1.00 20.00     0.237 C 
HETATM    7  C2  UNL     1     -34.918  16.162  -1.900  1.00 20.00     0.032 C 
HETATM    8  C6  UNL     1     -34.221  17.523  -2.029  1.00 20.00    -0.012 C 
HETATM    9  C3  UNL     1     -34.729  18.278  -3.265  1.00 20.00     0.032 C 
HETATM   10  C5  UNL     1     -34.683  17.443  -4.539  1.00 20.00     0.237 C 
HETATM   11  H31 UNL     1     -35.167  15.554  -5.212  1.00 20.00     0.281 HD
BRANCH   8  12
HETATM   12  C9  UNL     1     -32.697  17.375  -2.045  1.00 20.00     0.000 C 
HETATM   13  C7  UNL     1     -32.036  18.377  -1.156  1.00 20.00     0.005 C 
ENDBRANCH   8  12
ENDBRANCH   3   5
TORSDOF 2
ENDMDL
MODEL 4
REMARK VINA RESULT:      -4.1      1.684      2.356
REMARK  2 active torsions:
REMARK  status: ('A' for Active; 'I' for Inactive)
REMARK    1  A    between atoms: C6_6  and  C9_9 
REMARK    2  A    between atoms: C10_10  and  N12_12 
ROOT
HETATM    1  C1  UNL     1     -34.300  15.079  -6.534  1.00 20.00     0.092 C 
HETATM    2  C8  UNL     1     -36.122  14.066  -5.204  1.00 20.00     0.056 C 
HETATM    3  C10 UNL     1     -34.859  14.911  -5.189  1.00 20.00     0.289 C 
HETATM    4  N11 UNL     1     -33.855  15.211  -7.597  1.00 20.00    -0.195 NA
ENDROOT
BRANCH   3   5
HETATM    5  N12 UNL     1     -35.202  16.264  -4.627  1.00 20.00    -0.055 N 
HETATM    6  C4  UNL     1     -34.026  17.207  -4.554  1.00 20.00     0.237 C 
HETATM    7  C2  UNL     1     -33.109  16.846  -3.394  1.00 20.00     0.032 C 
HETATM    8  C6  UNL     1     -33.842  16.748  -2.050  1.00 20.00    -0.012 C 
HETATM    9  C3  UNL     1     -35.072  15.838  -2.168  1.00 20.00     0.032 C 
HETATM   10  C5  UNL     1     -35.980  16.205  -3.336  1.00 20.00     0.237 C 
HETATM   11  H31 UNL     1     -35.866  16.694  -5.337  1.00 20.00     0.281 HD
BRANCH   8  12
HETATM   12  C9  UNL     1     -34.214  18.131  -1.508  1.00 20.00     0.000 C 
HETATM   13  C7  UNL     1     -34.449  18.102  -0.033  1.00 20.00     0.005 C 
ENDBRANCH   8  12
ENDBRANCH   3   5
TORSDOF 2
ENDMDL
MODEL 5
REMARK VINA RESULT:      -4.1      1.373      2.235
REMARK  2 active torsions:
REMARK  status: ('A' for Active; 'I' for Inactive)
REMARK    1  A    between atoms: C6_6  and  C9_9 
REMARK    2  A    between atoms: C10_10  and  N12_12 
ROOT
HETATM    1  C1  UNL     1     -37.157  14.451  -4.342  1.00 20.00     0.092 C 
HETATM    2  C8  UNL     1     -34.799  13.842  -3.914  1.00 20.00     0.056 C 
HETATM    3  C10 UNL     1     -35.778  14.945  -4.279  1.00 20.00     0.289 C 
HETATM    4  N11 UNL     1     -38.249  14.061  -4.394  1.00 20.00    -0.195 NA
ENDROOT
BRANCH   3   5
HETATM    5  N12 UNL     1     -35.689  16.022  -3.231  1.00 20.00    -0.055 N 
HETATM    6  C4  UNL     1     -35.842  17.418  -3.782  1.00 20.00     0.237 C 
HETATM    7  C2  UNL     1     -34.573  17.866  -4.493  1.00 20.00     0.032 C 
HETATM    8  C6  UNL     1     -33.313  17.731  -3.627  1.00 20.00    -0.012 C 
HETATM    9  C3  UNL     1     -33.218  16.323  -3.025  1.00 20.00     0.032 C 
HETATM   10  C5  UNL     1     -34.495  15.884  -2.320  1.00 20.00     0.237 C 
HETATM   11  H31 UNL     1     -36.538  15.868  -2.610  1.00 20.00     0.281 HD
BRANCH   8  12
HETATM   12  C9  UNL     1     -33.255  18.813  -2.545  1.00 20.00     0.000 C 
HETATM   13  C7  UNL     1     -32.112  18.596  -1.608  1.00 20.00     0.005 C 
ENDBRANCH   8  12
ENDBRANCH   3   5
TORSDOF 2
ENDMDL
MODEL 6
REMARK VINA RESULT:      -4.0      2.374      5.103
REMARK  2 active torsions:
REMARK  status: ('A' for Active; 'I' for Inactive)
REMARK    1  A    between atoms: C6_6  and  C9_9 
REMARK    2  A    between atoms: C10_10  and  N12_12 
ROOT
HETATM    1  C1  UNL     1     -33.836  18.705   0.066  1.00 20.00     0.092 C 
HETATM    2  C8  UNL     1     -31.755  18.778  -1.269  1.00 20.00     0.056 C 
HETATM    3  C10 UNL     1     -33.063  18.053  -0.995  1.00 20.00     0.289 C 
HETATM    4  N11 UNL     1     -34.448  19.219   0.907  1.00 20.00    -0.195 NA
ENDROOT
BRANCH   3   5
HETATM    5  N12 UNL     1     -33.874  18.048  -2.263  1.00 20.00    -0.055 N 
HETATM    6  C4  UNL     1     -35.258  17.470  -2.095  1.00 20.00     0.237 C 
HETATM    7  C2  UNL     1     -35.207  15.950  -2.003  1.00 20.00     0.032 C 
HETATM    8  C6  UNL     1     -34.456  15.298  -3.172  1.00 20.00    -0.012 C 
HETATM    9  C3  UNL     1     -33.080  15.950  -3.363  1.00 20.00     0.032 C 
HETATM   10  C5  UNL     1     -33.143  17.470  -3.449  1.00 20.00     0.237 C 
HETATM   11  H31 UNL     1     -34.023  19.074  -2.496  1.00 20.00     0.281 HD
BRANCH   8  12
HETATM   12  C9  UNL     1     -35.281  15.332  -4.461  1.00 20.00     0.000 C 
HETATM   13  C7  UNL     1     -36.147  14.122  -4.594  1.00 20.00     0.005 C 
ENDBRANCH   8  12
ENDBRANCH   3   5
TORSDOF 2
ENDMDL
MODEL 7
REMARK VINA RESULT:      -3.8      2.401      4.614
REMARK  2 active torsions:
REMARK  status: ('A' for Active; 'I' for Inactive)
REMARK    1  A    between atoms: C6_6  and  C9_9 
REMARK    2  A    between atoms: C10_10  and  N12_12 
ROOT
HETATM    1  C1  UNL     1     -36.020  17.595  -0.406  1.00 20.00     0.092 C 
HETATM    2  C8  UNL     1     -33.607  18.129  -0.488  1.00 20.00     0.056 C 
HETATM    3  C10 UNL     1     -34.733  17.258  -1.021  1.00 20.00     0.289 C 
HETATM    4  N11 UNL     1     -37.040  17.860   0.080  1.00 20.00    -0.195 NA
ENDROOT
BRANCH   3   5
HETATM    5  N12 UNL     1     -34.828  17.467  -2.508  1.00 20.00    -0.055 N 
HETATM    6  C4  UNL     1     -35.938  16.681  -3.161  1.00 20.00     0.237 C 
HETATM    7  C2  UNL     1     -35.562  15.211  -3.291  1.00 20.00     0.032 C 
HETATM    8  C6  UNL     1     -34.217  14.990  -3.996  1.00 20.00    -0.012 C 
HETATM    9  C3  UNL     1     -33.121  15.852  -3.356  1.00 20.00     0.032 C 
HETATM   10  C5  UNL     1     -33.510  17.319  -3.227  1.00 20.00     0.237 C 
HETATM   11  H31 UNL     1     -35.099  18.488  -2.623  1.00 20.00     0.281 HD
BRANCH   8  12
HETATM   12  C9  UNL     1     -34.323  15.240  -5.503  1.00 20.00     0.000 C 
HETATM   13  C7  UNL     1     -35.522  14.570  -6.091  1.00 20.00     0.005 C 
ENDBRANCH   8  12
ENDBRANCH   3   5
TORSDOF 2
ENDMDL
MODEL 8
REMARK VINA RESULT:      -3.7      2.400      3.312
REMARK  2 active torsions:
REMARK  status: ('A' for Active; 'I' for Inactive)
REMARK    1  A    between atoms: C6_6  and  C9_9 
REMARK    2  A    between atoms: C10_10  and  N12_12 
ROOT
HETATM    1  C1  UNL     1     -39.011  16.099  -4.822  1.00 20.00     0.092 C 
HETATM    2  C8  UNL     1     -38.733  17.852  -3.100  1.00 20.00     0.056 C 
HETATM    3  C10 UNL     1     -38.165  16.591  -3.730  1.00 20.00     0.289 C 
HETATM    4  N11 UNL     1     -39.679  15.707  -5.685  1.00 20.00    -0.195 NA
ENDROOT
BRANCH   3   5
HETATM    5  N12 UNL     1     -36.797  16.907  -4.271  1.00 20.00    -0.055 N 
HETATM    6  C4  UNL     1     -36.130  15.739  -4.954  1.00 20.00     0.237 C 
HETATM    7  C2  UNL     1     -35.604  14.738  -3.933  1.00 20.00     0.032 C 
HETATM    8  C6  UNL     1     -34.693  15.375  -2.875  1.00 20.00    -0.012 C 
HETATM    9  C3  UNL     1     -35.368  16.600  -2.245  1.00 20.00     0.032 C 
HETATM   10  C5  UNL     1     -35.894  17.591  -3.275  1.00 20.00     0.237 C 
HETATM   11  H31 UNL     1     -36.966  17.624  -5.038  1.00 20.00     0.281 HD
BRANCH   8  12
HETATM   12  C9  UNL     1     -33.317  15.721  -3.451  1.00 20.00     0.000 C 
HETATM   13  C7  UNL     1     -32.801  14.637  -4.339  1.00 20.00     0.005 C 
ENDBRANCH   8  12
ENDBRANCH   3   5
TORSDOF 2
ENDMDL
MODEL 9
REMARK VINA RESULT:      -3.7      1.870      2.774
REMARK  2 active torsions:
REMARK  status: ('A' for Active; 'I' for Inactive)
REMARK    1  A    between atoms: C6_6  and  C9_9 
REMARK    2  A    between atoms: C10_10  and  N12_12 
ROOT
HETATM    1  C1  UNL     1     -36.158  15.773  -6.761  1.00 20.00     0.092 C 
HETATM    2  C8  UNL     1     -33.869  14.909  -6.400  1.00 20.00     0.056 C 
HETATM    3  C10 UNL     1     -34.993  15.787  -5.872  1.00 20.00     0.289 C 
HETATM    4  N11 UNL     1     -37.081  15.765  -7.465  1.00 20.00    -0.195 NA
ENDROOT
BRANCH   3   5
HETATM    5  N12 UNL     1     -35.400  15.269  -4.519  1.00 20.00    -0.055 N 
HETATM    6  C4  UNL     1     -36.483  16.086  -3.859  1.00 20.00     0.237 C 
HETATM    7  C2  UNL     1     -35.922  17.388  -3.303  1.00 20.00     0.032 C 
HETATM    8  C6  UNL     1     -34.719  17.181  -2.373  1.00 20.00    -0.012 C 
HETATM    9  C3  UNL     1     -33.663  16.292  -3.042  1.00 20.00     0.032 C 
HETATM   10  C5  UNL     1     -34.237  14.995  -3.599  1.00 20.00     0.237 C 
HETATM   11  H31 UNL     1     -35.839  14.320  -4.710  1.00 20.00     0.281 HD
BRANCH   8  12
HETATM   12  C9  UNL     1     -35.147  16.623  -1.013  1.00 20.00     0.000 C 
HETATM   13  C7  UNL     1     -35.560  17.710  -0.075  1.00 20.00     0.005 C 
ENDBRANCH   8  12
ENDBRANCH   3   5
TORSDOF 2
ENDMDL
