MODEL 1
REMARK VINA RESULT:      -4.4      0.000      0.000
REMARK  2 active torsions:
REMARK  status: ('A' for Active; 'I' for Inactive)
REMARK    1  A    between atoms: C4_4  and  C10_10 
REMARK    2  A    between atoms: C8_8  and  C10_10 
ROOT
HETATM    1  C5  UNL     1     -31.942  18.456  -1.338  1.00 20.00     0.002 C 
HETATM    2  C6  UNL     1     -32.749  18.414  -2.638  1.00 20.00     0.006 C 
HETATM    3  C7  UNL     1     -32.947  18.242  -0.204  1.00 20.00     0.016 C 
HETATM    4  C8  UNL     1     -34.046  17.676  -2.282  1.00 20.00     0.004 C 
HETATM    5  C9  UNL     1     -34.307  18.228  -0.882  1.00 20.00     0.062 C 
HETATM    6 BR12 UNL     1     -35.625  17.258   0.140  1.00 20.00    -0.091 Br
ENDROOT
BRANCH   4   7
HETATM    7  C10 UNL     1     -33.844  16.161  -2.382  1.00 20.00     0.045 C 
BRANCH   7   8
HETATM    8  C4  UNL     1     -34.940  15.501  -3.175  1.00 20.00    -0.051 A 
HETATM    9  C1  UNL     1     -34.827  14.210  -3.767  1.00 20.00     0.014 A 
HETATM   10  C2  UNL     1     -35.973  13.843  -4.436  1.00 20.00     0.050 A 
HETATM   11  S11 UNL     1     -37.181  15.054  -4.349  1.00 20.00    -0.113 SA
HETATM   12  C3  UNL     1     -36.171  16.072  -3.414  1.00 20.00     0.056 A 
ENDBRANCH   7   8
ENDBRANCH   4   7
TORSDOF 2
ENDMDL
MODEL 2
REMARK VINA RESULT:      -4.3      2.764      5.113
REMARK  2 active torsions:
REMARK  status: ('A' for Active; 'I' for Inactive)
REMARK    1  A    between atoms: C4_4  and  C10_10 
REMARK    2  A    between atoms: C8_8  and  C10_10 
ROOT
HETATM    1  C5  UNL     1     -37.277  14.640  -4.178  1.00 20.00     0.002 C 
HETATM    2  C6  UNL     1     -36.917  16.113  -3.975  1.00 20.00     0.006 C 
HETATM    3  C7  UNL     1     -35.980  13.933  -4.578  1.00 20.00     0.016 C 
HETATM    4  C8  UNL     1     -35.400  16.128  -3.744  1.00 20.00     0.004 C 
HETATM    5  C9  UNL     1     -34.957  15.047  -4.729  1.00 20.00     0.062 C 
HETATM    6 BR12 UNL     1     -33.149  14.419  -4.484  1.00 20.00    -0.091 Br
ENDROOT
BRANCH   4   7
HETATM    7  C10 UNL     1     -35.081  15.867  -2.270  1.00 20.00     0.045 C 
BRANCH   7   8
HETATM    8  C4  UNL     1     -34.206  16.945  -1.687  1.00 20.00    -0.051 A 
HETATM    9  C1  UNL     1     -32.945  17.328  -2.230  1.00 20.00     0.014 A 
HETATM   10  C2  UNL     1     -32.352  18.337  -1.505  1.00 20.00     0.050 A 
HETATM   11  S11 UNL     1     -33.314  18.820  -0.173  1.00 20.00    -0.113 SA
HETATM   12  C3  UNL     1     -34.528  17.677  -0.565  1.00 20.00     0.056 A 
ENDBRANCH   7   8
ENDBRANCH   4   7
TORSDOF 2
ENDMDL
MODEL 3
REMARK VINA RESULT:      -4.1     14.850     16.422
REMARK  2 active torsions:
REMARK  status: ('A' for Active; 'I' for Inactive)
REMARK    1  A    between atoms: C4_4  and  C10_10 
REMARK    2  A    between atoms: C8_8  and  C10_10 
ROOT
HETATM    1  C5  UNL     1     -22.601  17.219  11.644  1.00 20.00     0.002 C 
HETATM    2  C6  UNL     1     -23.959  16.514  11.630  1.00 20.00     0.006 C 
HETATM    3  C7  UNL     1     -22.576  18.126  10.412  1.00 20.00     0.016 C 
HETATM    4  C8  UNL     1     -24.856  17.387  10.743  1.00 20.00     0.004 C 
HETATM    5  C9  UNL     1     -23.859  17.803   9.662  1.00 20.00     0.062 C 
HETATM    6 BR12 UNL     1     -24.439  19.263   8.542  1.00 20.00    -0.091 Br
ENDROOT
BRANCH   4   7
HETATM    7  C10 UNL     1     -25.475  18.523  11.560  1.00 20.00     0.045 C 
BRANCH   7   8
HETATM    8  C4  UNL     1     -26.979  18.504  11.497  1.00 20.00    -0.051 A 
HETATM    9  C1  UNL     1     -27.746  19.263  10.566  1.00 20.00     0.014 A 
HETATM   10  C2  UNL     1     -29.100  19.063  10.724  1.00 20.00     0.050 A 
HETATM   11  S11 UNL     1     -29.442  17.963  11.991  1.00 20.00    -0.113 SA
HETATM   12  C3  UNL     1     -27.777  17.753  12.332  1.00 20.00     0.056 A 
ENDBRANCH   7   8
ENDBRANCH   4   7
TORSDOF 2
ENDMDL
MODEL 4
REMARK VINA RESULT:      -4.1      1.150      1.241
REMARK  2 active torsions:
REMARK  status: ('A' for Active; 'I' for Inactive)
REMARK    1  A    between atoms: C4_4  and  C10_10 
REMARK    2  A    between atoms: C8_8  and  C10_10 
ROOT
HETATM    1  C5  UNL     1     -32.049  18.239  -1.261  1.00 20.00     0.002 C 
HETATM    2  C6  UNL     1     -32.985  18.292  -2.471  1.00 20.00     0.006 C 
HETATM    3  C7  UNL     1     -32.951  18.179  -0.026  1.00 20.00     0.016 C 
HETATM    4  C8  UNL     1     -34.326  17.743  -1.967  1.00 20.00     0.004 C 
HETATM    5  C9  UNL     1     -34.364  18.343  -0.563  1.00 20.00     0.062 C 
HETATM    6 BR12 UNL     1     -35.687  17.575   0.612  1.00 20.00    -0.091 Br
ENDROOT
BRANCH   4   7
HETATM    7  C10 UNL     1     -34.342  16.214  -2.046  1.00 20.00     0.045 C 
BRANCH   7   8
HETATM    8  C4  UNL     1     -34.423  15.727  -3.469  1.00 20.00    -0.051 A 
HETATM    9  C1  UNL     1     -33.367  15.041  -4.137  1.00 20.00     0.014 A 
HETATM   10  C2  UNL     1     -33.702  14.708  -5.430  1.00 20.00     0.050 A 
HETATM   11  S11 UNL     1     -35.285  15.221  -5.836  1.00 20.00    -0.113 SA
HETATM   12  C3  UNL     1     -35.525  15.892  -4.278  1.00 20.00     0.056 A 
ENDBRANCH   7   8
ENDBRANCH   4   7
TORSDOF 2
ENDMDL
MODEL 5
REMARK VINA RESULT:      -4.1      2.755      4.700
REMARK  2 active torsions:
REMARK  status: ('A' for Active; 'I' for Inactive)
REMARK    1  A    between atoms: C4_4  and  C10_10 
REMARK    2  A    between atoms: C8_8  and  C10_10 
ROOT
HETATM    1  C5  UNL     1     -33.717  14.778  -5.456  1.00 20.00     0.002 C 
HETATM    2  C6  UNL     1     -34.116  14.383  -4.032  1.00 20.00     0.006 C 
HETATM    3  C7  UNL     1     -34.536  16.023  -5.800  1.00 20.00     0.016 C 
HETATM    4  C8  UNL     1     -34.720  15.652  -3.417  1.00 20.00     0.004 C 
HETATM    5  C9  UNL     1     -35.476  16.214  -4.620  1.00 20.00     0.062 C 
HETATM    6 BR12 UNL     1     -36.054  18.045  -4.433  1.00 20.00    -0.091 Br
ENDROOT
BRANCH   4   7
HETATM    7  C10 UNL     1     -33.617  16.544  -2.840  1.00 20.00     0.045 C 
BRANCH   7   8
HETATM    8  C4  UNL     1     -34.012  17.136  -1.513  1.00 20.00    -0.051 A 
HETATM    9  C1  UNL     1     -35.231  16.837  -0.840  1.00 20.00     0.014 A 
HETATM   10  C2  UNL     1     -35.344  17.514   0.354  1.00 20.00     0.050 A 
HETATM   11  S11 UNL     1     -33.983  18.507   0.660  1.00 20.00    -0.113 SA
HETATM   12  C3  UNL     1     -33.239  18.032  -0.808  1.00 20.00     0.056 A 
ENDBRANCH   7   8
ENDBRANCH   4   7
TORSDOF 2
ENDMDL
MODEL 6
REMARK VINA RESULT:      -4.1      3.025      5.178
REMARK  2 active torsions:
REMARK  status: ('A' for Active; 'I' for Inactive)
REMARK    1  A    between atoms: C4_4  and  C10_10 
REMARK    2  A    between atoms: C8_8  and  C10_10 
ROOT
HETATM    1  C5  UNL     1     -34.419  14.724  -3.851  1.00 20.00     0.002 C 
HETATM    2  C6  UNL     1     -34.805  15.496  -2.587  1.00 20.00     0.006 C 
HETATM    3  C7  UNL     1     -34.298  15.764  -4.968  1.00 20.00     0.016 C 
HETATM    4  C8  UNL     1     -34.391  16.948  -2.861  1.00 20.00     0.004 C 
HETATM    5  C9  UNL     1     -34.757  17.070  -4.339  1.00 20.00     0.062 C 
HETATM    6 BR12 UNL     1     -34.019  18.612  -5.233  1.00 20.00    -0.091 Br
ENDROOT
BRANCH   4   7
HETATM    7  C10 UNL     1     -32.914  17.157  -2.514  1.00 20.00     0.045 C 
BRANCH   7   8
HETATM    8  C4  UNL     1     -32.743  17.925  -1.230  1.00 20.00    -0.051 A 
HETATM    9  C1  UNL     1     -31.481  18.322  -0.702  1.00 20.00     0.014 A 
HETATM   10  C2  UNL     1     -31.608  19.011   0.484  1.00 20.00     0.050 A 
HETATM   11  S11 UNL     1     -33.245  19.177   0.957  1.00 20.00    -0.113 SA
HETATM   12  C3  UNL     1     -33.788  18.326  -0.427  1.00 20.00     0.056 A 
ENDBRANCH   7   8
ENDBRANCH   4   7
TORSDOF 2
ENDMDL
MODEL 7
REMARK VINA RESULT:      -4.1      2.640      5.057
REMARK  2 active torsions:
REMARK  status: ('A' for Active; 'I' for Inactive)
REMARK    1  A    between atoms: C4_4  and  C10_10 
REMARK    2  A    between atoms: C8_8  and  C10_10 
ROOT
HETATM    1  C5  UNL     1     -35.953  13.859  -5.324  1.00 20.00     0.002 C 
HETATM    2  C6  UNL     1     -36.546  14.428  -4.033  1.00 20.00     0.006 C 
HETATM    3  C7  UNL     1     -35.345  15.046  -6.075  1.00 20.00     0.016 C 
HETATM    4  C8  UNL     1     -35.830  15.767  -3.818  1.00 20.00     0.004 C 
HETATM    5  C9  UNL     1     -35.734  16.268  -5.258  1.00 20.00     0.062 C 
HETATM    6 BR12 UNL     1     -34.521  17.744  -5.525  1.00 20.00    -0.091 Br
ENDROOT
BRANCH   4   7
HETATM    7  C10 UNL     1     -34.500  15.552  -3.090  1.00 20.00     0.045 C 
BRANCH   7   8
HETATM    8  C4  UNL     1     -34.284  16.573  -2.004  1.00 20.00    -0.051 A 
HETATM    9  C1  UNL     1     -33.118  17.385  -1.896  1.00 20.00     0.014 A 
HETATM   10  C2  UNL     1     -33.176  18.233  -0.812  1.00 20.00     0.050 A 
HETATM   11  S11 UNL     1     -34.632  18.049   0.070  1.00 20.00    -0.113 SA
HETATM   12  C3  UNL     1     -35.189  16.832  -0.998  1.00 20.00     0.056 A 
ENDBRANCH   7   8
ENDBRANCH   4   7
TORSDOF 2
ENDMDL
MODEL 8
REMARK VINA RESULT:      -4.0     12.881     15.006
REMARK  2 active torsions:
REMARK  status: ('A' for Active; 'I' for Inactive)
REMARK    1  A    between atoms: C4_4  and  C10_10 
REMARK    2  A    between atoms: C8_8  and  C10_10 
ROOT
HETATM    1  C5  UNL     1     -23.177  18.001  11.062  1.00 20.00     0.002 C 
HETATM    2  C6  UNL     1     -24.448  17.592  10.314  1.00 20.00     0.006 C 
HETATM    3  C7  UNL     1     -22.017  17.783  10.088  1.00 20.00     0.016 C 
HETATM    4  C8  UNL     1     -24.077  17.658   8.827  1.00 20.00     0.004 C 
HETATM    5  C9  UNL     1     -22.646  17.124   8.870  1.00 20.00     0.062 C 
HETATM    6 BR12 UNL     1     -21.620  17.422   7.265  1.00 20.00    -0.091 Br
ENDROOT
BRANCH   4   7
HETATM    7  C10 UNL     1     -24.247  19.084   8.296  1.00 20.00     0.045 C 
BRANCH   7   8
HETATM    8  C4  UNL     1     -25.078  19.119   7.040  1.00 20.00    -0.051 A 
HETATM    9  C1  UNL     1     -26.498  19.007   7.022  1.00 20.00     0.014 A 
HETATM   10  C2  UNL     1     -27.007  19.069   5.744  1.00 20.00     0.050 A 
HETATM   11  S11 UNL     1     -25.775  19.263   4.571  1.00 20.00    -0.113 SA
HETATM   12  C3  UNL     1     -24.555  19.263   5.774  1.00 20.00     0.056 A 
ENDBRANCH   7   8
ENDBRANCH   4   7
TORSDOF 2
ENDMDL
MODEL 9
REMARK VINA RESULT:      -4.0      2.547      3.313
REMARK  2 active torsions:
REMARK  status: ('A' for Active; 'I' for Inactive)
REMARK    1  A    between atoms: C4_4  and  C10_10 
REMARK    2  A    between atoms: C8_8  and  C10_10 
ROOT
HETATM    1  C5  UNL     1     -33.552  17.427  -1.844  1.00 20.00     0.002 C 
HETATM    2  C6  UNL     1     -34.847  16.703  -1.467  1.00 20.00     0.006 C 
HETATM    3  C7  UNL     1     -32.987  16.688  -3.059  1.00 20.00     0.016 C 
HETATM    4  C8  UNL     1     -35.263  15.940  -2.731  1.00 20.00     0.004 C 
HETATM    5  C9  UNL     1     -33.899  15.486  -3.247  1.00 20.00     0.062 C 
HETATM    6 BR12 UNL     1     -33.892  14.838  -5.064  1.00 20.00    -0.091 Br
ENDROOT
BRANCH   4   7
HETATM    7  C10 UNL     1     -36.067  16.849  -3.665  1.00 20.00     0.045 C 
BRANCH   7   8
HETATM    8  C4  UNL     1     -37.497  16.396  -3.795  1.00 20.00    -0.051 A 
HETATM    9  C1  UNL     1     -37.883  15.097  -4.234  1.00 20.00     0.014 A 
HETATM   10  C2  UNL     1     -39.251  14.944  -4.263  1.00 20.00     0.050 A 
HETATM   11  S11 UNL     1     -40.066  16.365  -3.761  1.00 20.00    -0.113 SA
HETATM   12  C3  UNL     1     -38.586  17.188  -3.505  1.00 20.00     0.056 A 
ENDBRANCH   7   8
ENDBRANCH   4   7
TORSDOF 2
ENDMDL
