MODEL 1
REMARK VINA RESULT:      -5.0      0.000      0.000
REMARK  3 active torsions:
REMARK  status: ('A' for Active; 'I' for Inactive)
REMARK    1  A    between atoms: C5_5  and  C9_9 
REMARK    2  A    between atoms: C6_6  and  C10_10 
REMARK    3  A    between atoms: C9_9  and  C11_11 
ROOT
HETATM    1  C1  UNL     1     -22.728  18.131   8.425  1.00 20.00     0.131 C 
HETATM    2  C2  UNL     1     -22.096  17.763   9.750  1.00 20.00     0.079 C 
HETATM    3  C3  UNL     1     -23.149  17.240  10.717  1.00 20.00     0.012 C 
HETATM    4  C4  UNL     1     -24.956  18.499   9.492  1.00 20.00     0.016 C 
HETATM    5  C5  UNL     1     -23.935  19.061   8.496  1.00 20.00     0.055 C 
HETATM    6  C6  UNL     1     -24.323  18.219  10.864  1.00 20.00    -0.014 C 
HETATM    7  O12 UNL     1     -22.229  17.766   7.362  1.00 20.00    -0.298 OA
ENDROOT
BRANCH   5   8
HETATM    8  C9  UNL     1     -24.573  19.262   7.125  1.00 20.00     0.012 C 
BRANCH   8   9
HETATM    9  C11 UNL     1     -26.056  18.903   7.147  1.00 20.00    -0.004 C 
HETATM   10  C8  UNL     1     -26.638  18.872   5.743  1.00 20.00     0.005 C 
ENDBRANCH   8   9
ENDBRANCH   5   8
BRANCH   6  11
HETATM   11  C10 UNL     1     -25.365  17.665  11.833  1.00 20.00     0.000 C 
HETATM   12  C7  UNL     1     -26.546  18.571  11.951  1.00 20.00     0.005 C 
ENDBRANCH   6  11
TORSDOF 3
ENDMDL
MODEL 2
REMARK VINA RESULT:      -4.8     10.816     14.611
REMARK  3 active torsions:
REMARK  status: ('A' for Active; 'I' for Inactive)
REMARK    1  A    between atoms: C5_5  and  C9_9 
REMARK    2  A    between atoms: C6_6  and  C10_10 
REMARK    3  A    between atoms: C9_9  and  C11_11 
ROOT
HETATM    1  C1  UNL     1     -34.433  17.895  -0.375  1.00 20.00     0.131 C 
HETATM    2  C2  UNL     1     -35.520  17.050  -1.003  1.00 20.00     0.079 C 
HETATM    3  C3  UNL     1     -34.913  15.981  -1.902  1.00 20.00     0.012 C 
HETATM    4  C4  UNL     1     -32.840  17.377  -2.226  1.00 20.00     0.016 C 
HETATM    5  C5  UNL     1     -33.408  18.487  -1.336  1.00 20.00     0.055 C 
HETATM    6  C6  UNL     1     -33.950  16.585  -2.934  1.00 20.00    -0.014 C 
HETATM    7  O12 UNL     1     -34.447  18.152   0.828  1.00 20.00    -0.298 OA
ENDROOT
BRANCH   5   8
HETATM    8  C9  UNL     1     -32.288  19.209  -0.592  1.00 20.00     0.012 C 
BRANCH   8   9
HETATM    9  C11 UNL     1     -31.089  18.292  -0.375  1.00 20.00    -0.004 C 
HETATM   10  C8  UNL     1     -30.720  18.203   1.097  1.00 20.00     0.005 C 
ENDBRANCH   8   9
ENDBRANCH   5   8
BRANCH   6  11
HETATM   11  C10 UNL     1     -33.352  15.490  -3.815  1.00 20.00     0.000 C 
HETATM   12  C7  UNL     1     -34.306  14.358  -4.012  1.00 20.00     0.005 C 
ENDBRANCH   6  11
TORSDOF 3
ENDMDL
MODEL 3
REMARK VINA RESULT:      -4.6     13.089     16.264
REMARK  3 active torsions:
REMARK  status: ('A' for Active; 'I' for Inactive)
REMARK    1  A    between atoms: C5_5  and  C9_9 
REMARK    2  A    between atoms: C6_6  and  C10_10 
REMARK    3  A    between atoms: C9_9  and  C11_11 
ROOT
HETATM    1  C1  UNL     1     -33.323  16.574  -2.942  1.00 20.00     0.131 C 
HETATM    2  C2  UNL     1     -32.759  15.430  -3.756  1.00 20.00     0.079 C 
HETATM    3  C3  UNL     1     -33.854  14.769  -4.580  1.00 20.00     0.012 C 
HETATM    4  C4  UNL     1     -35.610  15.571  -2.959  1.00 20.00     0.016 C 
HETATM    5  C5  UNL     1     -34.544  16.248  -2.089  1.00 20.00     0.055 C 
HETATM    6  C6  UNL     1     -35.048  14.353  -3.708  1.00 20.00    -0.014 C 
HETATM    7  O12 UNL     1     -32.761  17.667  -2.912  1.00 20.00    -0.298 OA
ENDROOT
BRANCH   5   8
HETATM    8  C9  UNL     1     -35.110  17.493  -1.414  1.00 20.00     0.012 C 
BRANCH   8   9
HETATM    9  C11 UNL     1     -35.116  17.345   0.104  1.00 20.00    -0.004 C 
HETATM   10  C8  UNL     1     -34.008  18.165   0.744  1.00 20.00     0.005 C 
ENDBRANCH   8   9
ENDBRANCH   5   8
BRANCH   6  11
HETATM   11  C10 UNL     1     -36.134  13.700  -4.562  1.00 20.00     0.000 C 
HETATM   12  C7  UNL     1     -37.441  14.410  -4.430  1.00 20.00     0.005 C 
ENDBRANCH   6  11
TORSDOF 3
ENDMDL
MODEL 4
REMARK VINA RESULT:      -4.6     13.487     15.981
REMARK  3 active torsions:
REMARK  status: ('A' for Active; 'I' for Inactive)
REMARK    1  A    between atoms: C5_5  and  C9_9 
REMARK    2  A    between atoms: C6_6  and  C10_10 
REMARK    3  A    between atoms: C9_9  and  C11_11 
ROOT
HETATM    1  C1  UNL     1     -33.284  15.725  -3.633  1.00 20.00     0.131 C 
HETATM    2  C2  UNL     1     -32.847  17.092  -3.153  1.00 20.00     0.079 C 
HETATM    3  C3  UNL     1     -33.384  17.364  -1.755  1.00 20.00     0.012 C 
HETATM    4  C4  UNL     1     -35.272  15.735  -2.121  1.00 20.00     0.016 C 
HETATM    5  C5  UNL     1     -34.778  15.431  -3.540  1.00 20.00     0.055 C 
HETATM    6  C6  UNL     1     -34.904  17.160  -1.680  1.00 20.00    -0.014 C 
HETATM    7  O12 UNL     1     -32.482  14.949  -4.149  1.00 20.00    -0.298 OA
ENDROOT
BRANCH   5   8
HETATM    8  C9  UNL     1     -35.094  13.988  -3.924  1.00 20.00     0.012 C 
BRANCH   8   9
HETATM    9  C11 UNL     1     -36.193  13.925  -4.980  1.00 20.00    -0.004 C 
HETATM   10  C8  UNL     1     -35.739  14.555  -6.287  1.00 20.00     0.005 C 
ENDBRANCH   8   9
ENDBRANCH   5   8
BRANCH   6  11
HETATM   11  C10 UNL     1     -35.413  17.433  -0.266  1.00 20.00     0.000 C 
HETATM   12  C7  UNL     1     -34.342  18.003   0.605  1.00 20.00     0.005 C 
ENDBRANCH   6  11
TORSDOF 3
ENDMDL
MODEL 5
REMARK VINA RESULT:      -4.5     12.776     15.987
REMARK  3 active torsions:
REMARK  status: ('A' for Active; 'I' for Inactive)
REMARK    1  A    between atoms: C5_5  and  C9_9 
REMARK    2  A    between atoms: C6_6  and  C10_10 
REMARK    3  A    between atoms: C9_9  and  C11_11 
ROOT
HETATM    1  C1  UNL     1     -35.867  16.446  -2.910  1.00 20.00     0.131 C 
HETATM    2  C2  UNL     1     -35.961  17.641  -1.986  1.00 20.00     0.079 C 
HETATM    3  C3  UNL     1     -34.668  18.444  -2.017  1.00 20.00     0.012 C 
HETATM    4  C4  UNL     1     -33.375  16.408  -2.745  1.00 20.00     0.016 C 
HETATM    5  C5  UNL     1     -34.646  15.551  -2.721  1.00 20.00     0.055 C 
HETATM    6  C6  UNL     1     -33.444  17.563  -1.734  1.00 20.00    -0.014 C 
HETATM    7  O12 UNL     1     -36.775  16.180  -3.694  1.00 20.00    -0.298 OA
ENDROOT
BRANCH   5   8
HETATM    8  C9  UNL     1     -34.580  14.457  -3.783  1.00 20.00     0.012 C 
BRANCH   8   9
HETATM    9  C11 UNL     1     -33.484  14.744  -4.804  1.00 20.00    -0.004 C 
HETATM   10  C8  UNL     1     -34.071  15.049  -6.173  1.00 20.00     0.005 C 
ENDBRANCH   8   9
ENDBRANCH   5   8
BRANCH   6  11
HETATM   11  C10 UNL     1     -32.163  18.393  -1.780  1.00 20.00     0.000 C 
HETATM   12  C7  UNL     1     -31.379  18.270  -0.514  1.00 20.00     0.005 C 
ENDBRANCH   6  11
TORSDOF 3
ENDMDL
MODEL 6
REMARK VINA RESULT:      -4.5     12.054     15.454
REMARK  3 active torsions:
REMARK  status: ('A' for Active; 'I' for Inactive)
REMARK    1  A    between atoms: C5_5  and  C9_9 
REMARK    2  A    between atoms: C6_6  and  C10_10 
REMARK    3  A    between atoms: C9_9  and  C11_11 
ROOT
HETATM    1  C1  UNL     1     -35.560  16.796  -2.225  1.00 20.00     0.131 C 
HETATM    2  C2  UNL     1     -35.520  17.553  -0.915  1.00 20.00     0.079 C 
HETATM    3  C3  UNL     1     -34.301  18.462  -0.859  1.00 20.00     0.012 C 
HETATM    4  C4  UNL     1     -33.088  17.002  -2.517  1.00 20.00     0.016 C 
HETATM    5  C5  UNL     1     -34.286  16.049  -2.603  1.00 20.00     0.055 C 
HETATM    6  C6  UNL     1     -33.004  17.693  -1.147  1.00 20.00    -0.014 C 
HETATM    7  O12 UNL     1     -36.595  16.726  -2.884  1.00 20.00    -0.298 OA
ENDROOT
BRANCH   5   8
HETATM    8  C9  UNL     1     -34.385  15.432  -3.994  1.00 20.00     0.012 C 
BRANCH   8   9
HETATM    9  C11 UNL     1     -34.727  13.947  -3.918  1.00 20.00    -0.004 C 
HETATM   10  C8  UNL     1     -36.096  13.663  -4.515  1.00 20.00     0.005 C 
ENDBRANCH   8   9
ENDBRANCH   5   8
BRANCH   6  11
HETATM   11  C10 UNL     1     -31.800  18.632  -1.092  1.00 20.00     0.000 C 
HETATM   12  C7  UNL     1     -30.945  18.364   0.103  1.00 20.00     0.005 C 
ENDBRANCH   6  11
TORSDOF 3
ENDMDL
MODEL 7
REMARK VINA RESULT:      -4.4     10.728     12.689
REMARK  3 active torsions:
REMARK  status: ('A' for Active; 'I' for Inactive)
REMARK    1  A    between atoms: C5_5  and  C9_9 
REMARK    2  A    between atoms: C6_6  and  C10_10 
REMARK    3  A    between atoms: C9_9  and  C11_11 
ROOT
HETATM    1  C1  UNL     1     -31.363  18.553  -0.016  1.00 20.00     0.131 C 
HETATM    2  C2  UNL     1     -31.360  19.139   1.380  1.00 20.00     0.079 C 
HETATM    3  C3  UNL     1     -32.540  18.613   2.184  1.00 20.00     0.012 C 
HETATM    4  C4  UNL     1     -33.827  18.154   0.066  1.00 20.00     0.016 C 
HETATM    5  C5  UNL     1     -32.670  18.682  -0.790  1.00 20.00     0.055 C 
HETATM    6  C6  UNL     1     -33.870  18.826   1.447  1.00 20.00    -0.014 C 
HETATM    7  O12 UNL     1     -30.338  18.088  -0.510  1.00 20.00    -0.298 OA
ENDROOT
BRANCH   5   8
HETATM    8  C9  UNL     1     -32.609  17.948  -2.126  1.00 20.00     0.012 C 
BRANCH   8   9
HETATM    9  C11 UNL     1     -33.657  16.841  -2.197  1.00 20.00    -0.004 C 
HETATM   10  C8  UNL     1     -33.370  15.881  -3.340  1.00 20.00     0.005 C 
ENDBRANCH   8   9
ENDBRANCH   5   8
BRANCH   6  11
HETATM   11  C10 UNL     1     -35.034  18.282   2.273  1.00 20.00     0.000 C 
HETATM   12  C7  UNL     1     -36.141  17.783   1.404  1.00 20.00     0.005 C 
ENDBRANCH   6  11
TORSDOF 3
ENDMDL
MODEL 8
REMARK VINA RESULT:      -4.4     15.472     18.144
REMARK  3 active torsions:
REMARK  status: ('A' for Active; 'I' for Inactive)
REMARK    1  A    between atoms: C5_5  and  C9_9 
REMARK    2  A    between atoms: C6_6  and  C10_10 
REMARK    3  A    between atoms: C9_9  and  C11_11 
ROOT
HETATM    1  C1  UNL     1     -37.159  14.387  -4.558  1.00 20.00     0.131 C 
HETATM    2  C2  UNL     1     -35.962  13.463  -4.614  1.00 20.00     0.079 C 
HETATM    3  C3  UNL     1     -34.810  14.030  -3.797  1.00 20.00     0.012 C 
HETATM    4  C4  UNL     1     -35.716  16.366  -4.068  1.00 20.00     0.016 C 
HETATM    5  C5  UNL     1     -36.891  15.848  -4.905  1.00 20.00     0.055 C 
HETATM    6  C6  UNL     1     -34.475  15.471  -4.208  1.00 20.00    -0.014 C 
HETATM    7  O12 UNL     1     -38.286  13.950  -4.334  1.00 20.00    -0.298 OA
ENDROOT
BRANCH   5   8
HETATM    8  C9  UNL     1     -38.129  16.714  -4.692  1.00 20.00     0.012 C 
BRANCH   8   9
HETATM    9  C11 UNL     1     -38.099  17.393  -3.326  1.00 20.00    -0.004 C 
HETATM   10  C8  UNL     1     -39.470  17.372  -2.669  1.00 20.00     0.005 C 
ENDBRANCH   8   9
ENDBRANCH   5   8
BRANCH   6  11
HETATM   11  C10 UNL     1     -33.322  16.015  -3.367  1.00 20.00     0.000 C 
HETATM   12  C7  UNL     1     -33.816  16.737  -2.156  1.00 20.00     0.005 C 
ENDBRANCH   6  11
TORSDOF 3
ENDMDL
MODEL 9
REMARK VINA RESULT:      -4.2     12.337     16.122
REMARK  3 active torsions:
REMARK  status: ('A' for Active; 'I' for Inactive)
REMARK    1  A    between atoms: C5_5  and  C9_9 
REMARK    2  A    between atoms: C6_6  and  C10_10 
REMARK    3  A    between atoms: C9_9  and  C11_11 
ROOT
HETATM    1  C1  UNL     1     -34.032  18.090  -3.686  1.00 20.00     0.131 C 
HETATM    2  C2  UNL     1     -34.330  17.508  -5.051  1.00 20.00     0.079 C 
HETATM    3  C3  UNL     1     -35.025  16.161  -4.917  1.00 20.00     0.012 C 
HETATM    4  C4  UNL     1     -34.025  15.828  -2.628  1.00 20.00     0.016 C 
HETATM    5  C5  UNL     1     -33.295  17.173  -2.716  1.00 20.00     0.055 C 
HETATM    6  C6  UNL     1     -34.237  15.201  -4.014  1.00 20.00    -0.014 C 
HETATM    7  O12 UNL     1     -34.294  19.263  -3.428  1.00 20.00    -0.298 OA
ENDROOT
BRANCH   5   8
HETATM    8  C9  UNL     1     -33.160  17.806  -1.334  1.00 20.00     0.012 C 
BRANCH   8   9
HETATM    9  C11 UNL     1     -31.741  18.310  -1.092  1.00 20.00    -0.004 C 
HETATM   10  C8  UNL     1     -31.427  18.385   0.394  1.00 20.00     0.005 C 
ENDBRANCH   8   9
ENDBRANCH   5   8
BRANCH   6  11
HETATM   11  C10 UNL     1     -34.962  13.862  -3.892  1.00 20.00     0.000 C 
HETATM   12  C7  UNL     1     -36.304  13.900  -4.547  1.00 20.00     0.005 C 
ENDBRANCH   6  11
TORSDOF 3
ENDMDL
