MODEL 1
REMARK VINA RESULT:      -5.2      0.000      0.000
REMARK  3 active torsions:
REMARK  status: ('A' for Active; 'I' for Inactive)
REMARK    1  A    between atoms: C2_2  and  C9_9 
REMARK    2  A    between atoms: C6_6  and  C9_9 
REMARK    3  A    between atoms: C7_7  and  O10_10 
ROOT
HETATM    1  C3  UNL     1     -34.088   6.771   6.390  1.00 20.00     0.003 C 
HETATM    2  C4  UNL     1     -33.378   7.090   5.074  1.00 20.00     0.007 C 
HETATM    3  C5  UNL     1     -34.905   5.504   6.143  1.00 20.00     0.032 C 
HETATM    4  C6  UNL     1     -34.141   6.294   4.020  1.00 20.00     0.018 C 
HETATM    5  C7  UNL     1     -34.478   5.005   4.767  1.00 20.00     0.122 C 
ENDROOT
BRANCH   4   6
HETATM    6  C9  UNL     1     -33.339   6.060   2.749  1.00 20.00     0.040 C 
BRANCH   6   7
HETATM    7  C2  UNL     1     -32.452   7.229   2.394  1.00 20.00    -0.093 C 
HETATM    8  C1  UNL     1     -31.387   7.554   3.143  1.00 20.00     0.014 C 
HETATM    9  C8  UNL     1     -32.833   8.033   1.185  1.00 20.00     0.042 C 
ENDBRANCH   6   7
ENDBRANCH   4   6
BRANCH   5  10
HETATM   10  O10 UNL     1     -35.521   4.299   4.123  1.00 20.00    -0.395 OA
HETATM   11  H26 UNL     1     -35.902   3.689   4.779  1.00 20.00     0.210 HD
ENDBRANCH   5  10
TORSDOF 3
ENDMDL
MODEL 2
REMARK VINA RESULT:      -5.1      1.282      1.899
REMARK  3 active torsions:
REMARK  status: ('A' for Active; 'I' for Inactive)
REMARK    1  A    between atoms: C2_2  and  C9_9 
REMARK    2  A    between atoms: C6_6  and  C9_9 
REMARK    3  A    between atoms: C7_7  and  O10_10 
ROOT
HETATM    1  C3  UNL     1     -34.704   5.701   5.195  1.00 20.00     0.003 C 
HETATM    2  C4  UNL     1     -33.800   6.858   4.767  1.00 20.00     0.007 C 
HETATM    3  C5  UNL     1     -34.548   4.616   4.129  1.00 20.00     0.032 C 
HETATM    4  C6  UNL     1     -33.520   6.604   3.289  1.00 20.00     0.018 C 
HETATM    5  C7  UNL     1     -33.403   5.083   3.237  1.00 20.00     0.122 C 
ENDROOT
BRANCH   4   6
HETATM    6  C9  UNL     1     -32.276   7.321   2.784  1.00 20.00     0.040 C 
BRANCH   6   7
HETATM    7  C2  UNL     1     -32.495   8.006   1.457  1.00 20.00    -0.093 C 
HETATM    8  C1  UNL     1     -31.999   7.502   0.316  1.00 20.00     0.014 C 
HETATM    9  C8  UNL     1     -33.262   9.296   1.473  1.00 20.00     0.042 C 
ENDBRANCH   6   7
ENDBRANCH   4   6
BRANCH   5  10
HETATM   10  O10 UNL     1     -33.548   4.604   1.913  1.00 20.00    -0.395 OA
HETATM   11  H26 UNL     1     -33.423   3.639   1.942  1.00 20.00     0.210 HD
ENDBRANCH   5  10
TORSDOF 3
ENDMDL
MODEL 3
REMARK VINA RESULT:      -5.0     11.548     12.453
REMARK  3 active torsions:
REMARK  status: ('A' for Active; 'I' for Inactive)
REMARK    1  A    between atoms: C2_2  and  C9_9 
REMARK    2  A    between atoms: C6_6  and  C9_9 
REMARK    3  A    between atoms: C7_7  and  O10_10 
ROOT
HETATM    1  C3  UNL     1     -34.034  16.301  -2.390  1.00 20.00     0.003 C 
HETATM    2  C4  UNL     1     -35.275  15.473  -2.725  1.00 20.00     0.007 C 
HETATM    3  C5  UNL     1     -33.013  16.010  -3.489  1.00 20.00     0.032 C 
HETATM    4  C6  UNL     1     -34.782  14.418  -3.711  1.00 20.00     0.018 C 
HETATM    5  C7  UNL     1     -33.763  15.198  -4.539  1.00 20.00     0.122 C 
ENDROOT
BRANCH   4   6
HETATM    6  C9  UNL     1     -35.899  13.811  -4.548  1.00 20.00     0.040 C 
BRANCH   6   7
HETATM    7  C2  UNL     1     -36.996  14.798  -4.862  1.00 20.00    -0.093 C 
HETATM    8  C1  UNL     1     -38.177  14.760  -4.226  1.00 20.00     0.014 C 
HETATM    9  C8  UNL     1     -36.721  15.804  -5.941  1.00 20.00     0.042 C 
ENDBRANCH   6   7
ENDBRANCH   4   6
BRANCH   5  10
HETATM   10  O10 UNL     1     -32.896  14.324  -5.237  1.00 20.00    -0.395 OA
HETATM   11  H26 UNL     1     -32.849  14.642  -6.156  1.00 20.00     0.210 HD
ENDBRANCH   5  10
TORSDOF 3
ENDMDL
MODEL 4
REMARK VINA RESULT:      -4.9     11.726     13.049
REMARK  3 active torsions:
REMARK  status: ('A' for Active; 'I' for Inactive)
REMARK    1  A    between atoms: C2_2  and  C9_9 
REMARK    2  A    between atoms: C6_6  and  C9_9 
REMARK    3  A    between atoms: C7_7  and  O10_10 
ROOT
HETATM    1  C3  UNL     1     -35.271  16.081  -6.565  1.00 20.00     0.003 C 
HETATM    2  C4  UNL     1     -35.641  16.240  -5.090  1.00 20.00     0.007 C 
HETATM    3  C5  UNL     1     -34.016  15.211  -6.604  1.00 20.00     0.032 C 
HETATM    4  C6  UNL     1     -34.373  15.859  -4.331  1.00 20.00     0.018 C 
HETATM    5  C7  UNL     1     -33.820  14.714  -5.176  1.00 20.00     0.122 C 
ENDROOT
BRANCH   4   6
HETATM    6  C9  UNL     1     -34.637  15.466  -2.885  1.00 20.00     0.040 C 
BRANCH   6   7
HETATM    7  C2  UNL     1     -34.348  16.584  -1.913  1.00 20.00    -0.093 C 
HETATM    8  C1  UNL     1     -35.218  16.917  -0.947  1.00 20.00     0.014 C 
HETATM    9  C8  UNL     1     -33.060  17.332  -2.096  1.00 20.00     0.042 C 
ENDBRANCH   6   7
ENDBRANCH   4   6
BRANCH   5  10
HETATM   10  O10 UNL     1     -32.454  14.480  -4.890  1.00 20.00    -0.395 OA
HETATM   11  H26 UNL     1     -32.158  13.760  -5.474  1.00 20.00     0.210 HD
ENDBRANCH   5  10
TORSDOF 3
ENDMDL
MODEL 5
REMARK VINA RESULT:      -4.9     11.653     12.438
REMARK  3 active torsions:
REMARK  status: ('A' for Active; 'I' for Inactive)
REMARK    1  A    between atoms: C2_2  and  C9_9 
REMARK    2  A    between atoms: C6_6  and  C9_9 
REMARK    3  A    between atoms: C7_7  and  O10_10 
ROOT
HETATM    1  C3  UNL     1     -33.866  14.464  -4.086  1.00 20.00     0.003 C 
HETATM    2  C4  UNL     1     -32.969  15.627  -3.662  1.00 20.00     0.007 C 
HETATM    3  C5  UNL     1     -35.269  14.795  -3.580  1.00 20.00     0.032 C 
HETATM    4  C6  UNL     1     -33.754  16.342  -2.566  1.00 20.00     0.018 C 
HETATM    5  C7  UNL     1     -35.191  16.230  -3.071  1.00 20.00     0.122 C 
ENDROOT
BRANCH   4   6
HETATM    6  C9  UNL     1     -33.304  17.778  -2.346  1.00 20.00     0.040 C 
BRANCH   6   7
HETATM    7  C2  UNL     1     -32.908  18.054  -0.916  1.00 20.00    -0.093 C 
HETATM    8  C1  UNL     1     -33.821  18.114   0.066  1.00 20.00     0.014 C 
HETATM    9  C8  UNL     1     -31.451  18.293  -0.645  1.00 20.00     0.042 C 
ENDBRANCH   6   7
ENDBRANCH   4   6
BRANCH   5  10
HETATM   10  O10 UNL     1     -36.119  16.463  -2.029  1.00 20.00    -0.395 OA
HETATM   11  H26 UNL     1     -36.390  15.593  -1.686  1.00 20.00     0.210 HD
ENDBRANCH   5  10
TORSDOF 3
ENDMDL
MODEL 6
REMARK VINA RESULT:      -4.8     11.481     12.246
REMARK  3 active torsions:
REMARK  status: ('A' for Active; 'I' for Inactive)
REMARK    1  A    between atoms: C2_2  and  C9_9 
REMARK    2  A    between atoms: C6_6  and  C9_9 
REMARK    3  A    between atoms: C7_7  and  O10_10 
ROOT
HETATM    1  C3  UNL     1     -33.332  14.700  -4.163  1.00 20.00     0.003 C 
HETATM    2  C4  UNL     1     -33.284  15.937  -3.265  1.00 20.00     0.007 C 
HETATM    3  C5  UNL     1     -34.809  14.347  -4.333  1.00 20.00     0.032 C 
HETATM    4  C6  UNL     1     -34.654  15.981  -2.594  1.00 20.00     0.018 C 
HETATM    5  C7  UNL     1     -35.579  15.508  -3.714  1.00 20.00     0.122 C 
ENDROOT
BRANCH   4   6
HETATM    6  C9  UNL     1     -35.014  17.358  -2.058  1.00 20.00     0.040 C 
BRANCH   6   7
HETATM    7  C2  UNL     1     -34.624  17.543  -0.612  1.00 20.00    -0.093 C 
HETATM    8  C1  UNL     1     -35.437  17.168   0.388  1.00 20.00     0.014 C 
HETATM    9  C8  UNL     1     -33.300  18.195  -0.340  1.00 20.00     0.042 C 
ENDBRANCH   6   7
ENDBRANCH   4   6
BRANCH   5  10
HETATM   10  O10 UNL     1     -36.829  15.087  -3.201  1.00 20.00    -0.395 OA
HETATM   11  H26 UNL     1     -37.257  15.870  -2.812  1.00 20.00     0.210 HD
ENDBRANCH   5  10
TORSDOF 3
ENDMDL
MODEL 7
REMARK VINA RESULT:      -4.8     11.468     12.632
REMARK  3 active torsions:
REMARK  status: ('A' for Active; 'I' for Inactive)
REMARK    1  A    between atoms: C2_2  and  C9_9 
REMARK    2  A    between atoms: C6_6  and  C9_9 
REMARK    3  A    between atoms: C7_7  and  O10_10 
ROOT
HETATM    1  C3  UNL     1     -35.375  15.801  -6.595  1.00 20.00     0.003 C 
HETATM    2  C4  UNL     1     -35.114  16.302  -5.174  1.00 20.00     0.007 C 
HETATM    3  C5  UNL     1     -35.844  14.353  -6.462  1.00 20.00     0.032 C 
HETATM    4  C6  UNL     1     -34.999  15.035  -4.332  1.00 20.00     0.018 C 
HETATM    5  C7  UNL     1     -36.048  14.126  -4.968  1.00 20.00     0.122 C 
ENDROOT
BRANCH   4   6
HETATM    6  C9  UNL     1     -35.234  15.278  -2.849  1.00 20.00     0.040 C 
BRANCH   6   7
HETATM    7  C2  UNL     1     -34.306  16.320  -2.273  1.00 20.00    -0.093 C 
HETATM    8  C1  UNL     1     -33.066  16.499  -2.755  1.00 20.00     0.014 C 
HETATM    9  C8  UNL     1     -34.818  17.126  -1.115  1.00 20.00     0.042 C 
ENDBRANCH   6   7
ENDBRANCH   4   6
BRANCH   5  10
HETATM   10  O10 UNL     1     -35.834  12.773  -4.614  1.00 20.00    -0.395 OA
HETATM   11  H26 UNL     1     -36.512  12.246  -5.072  1.00 20.00     0.210 HD
ENDBRANCH   5  10
TORSDOF 3
ENDMDL
MODEL 8
REMARK VINA RESULT:      -4.8     11.558     12.351
REMARK  3 active torsions:
REMARK  status: ('A' for Active; 'I' for Inactive)
REMARK    1  A    between atoms: C2_2  and  C9_9 
REMARK    2  A    between atoms: C6_6  and  C9_9 
REMARK    3  A    between atoms: C7_7  and  O10_10 
ROOT
HETATM    1  C3  UNL     1     -32.781  17.472  -2.275  1.00 20.00     0.003 C 
HETATM    2  C4  UNL     1     -32.935  16.234  -3.160  1.00 20.00     0.007 C 
HETATM    3  C5  UNL     1     -34.101  17.629  -1.521  1.00 20.00     0.032 C 
HETATM    4  C6  UNL     1     -34.441  15.995  -3.233  1.00 20.00     0.018 C 
HETATM    5  C7  UNL     1     -34.897  16.364  -1.823  1.00 20.00     0.122 C 
ENDROOT
BRANCH   4   6
HETATM    6  C9  UNL     1     -34.803  14.572  -3.630  1.00 20.00     0.040 C 
BRANCH   6   7
HETATM    7  C2  UNL     1     -35.879  14.515  -4.687  1.00 20.00    -0.093 C 
HETATM    8  C1  UNL     1     -37.165  14.302  -4.368  1.00 20.00     0.014 C 
HETATM    9  C8  UNL     1     -35.444  14.674  -6.114  1.00 20.00     0.042 C 
ENDBRANCH   6   7
ENDBRANCH   4   6
BRANCH   5  10
HETATM   10  O10 UNL     1     -36.291  16.605  -1.784  1.00 20.00    -0.395 OA
HETATM   11  H26 UNL     1     -36.413  17.548  -1.579  1.00 20.00     0.210 HD
ENDBRANCH   5  10
TORSDOF 3
ENDMDL
MODEL 9
REMARK VINA RESULT:      -4.8     11.959     13.155
REMARK  3 active torsions:
REMARK  status: ('A' for Active; 'I' for Inactive)
REMARK    1  A    between atoms: C2_2  and  C9_9 
REMARK    2  A    between atoms: C6_6  and  C9_9 
REMARK    3  A    between atoms: C7_7  and  O10_10 
ROOT
HETATM    1  C3  UNL     1     -32.239  18.771  -1.952  1.00 20.00     0.003 C 
HETATM    2  C4  UNL     1     -32.970  17.476  -1.597  1.00 20.00     0.007 C 
HETATM    3  C5  UNL     1     -32.581  19.072  -3.411  1.00 20.00     0.032 C 
HETATM    4  C6  UNL     1     -33.321  16.847  -2.943  1.00 20.00     0.018 C 
HETATM    5  C7  UNL     1     -33.664  18.069  -3.792  1.00 20.00     0.122 C 
ENDROOT
BRANCH   4   6
HETATM    6  C9  UNL     1     -34.455  15.837  -2.855  1.00 20.00     0.040 C 
BRANCH   6   7
HETATM    7  C2  UNL     1     -34.301  14.698  -3.833  1.00 20.00    -0.093 C 
HETATM    8  C1  UNL     1     -33.114  14.404  -4.386  1.00 20.00     0.014 C 
HETATM    9  C8  UNL     1     -35.539  13.928  -4.186  1.00 20.00     0.042 C 
ENDBRANCH   6   7
ENDBRANCH   4   6
BRANCH   5  10
HETATM   10  O10 UNL     1     -33.625  17.760  -5.172  1.00 20.00    -0.395 OA
HETATM   11  H26 UNL     1     -32.711  17.908  -5.473  1.00 20.00     0.210 HD
ENDBRANCH   5  10
TORSDOF 3
ENDMDL
