MODEL 1
REMARK VINA RESULT:      -4.4      0.000      0.000
REMARK  5 active torsions:
REMARK  status: ('A' for Active; 'I' for Inactive)
REMARK    1  A    between atoms: C3_3  and  C7_7 
REMARK    2  A    between atoms: C4_4  and  C5_5 
REMARK    3  A    between atoms: C4_4  and  C6_6 
REMARK    4  A    between atoms: C5_5  and  C7_7 
REMARK    5  A    between atoms: C6_6  and  O8_8 
ROOT
HETATM    1  C5  UNL     1     -33.190   6.077   3.029  1.00 20.00     0.022 C 
ENDROOT
BRANCH   1   2
HETATM    2  C4  UNL     1     -32.239   7.257   2.786  1.00 20.00     0.028 C 
BRANCH   2   3
HETATM    3  C6  UNL     1     -32.162   7.637   1.311  1.00 20.00     0.167 C 
BRANCH   3   4
HETATM    4  O8  UNL     1     -32.913   8.819   1.074  1.00 20.00    -0.396 OA
HETATM    5  C2  UNL     1     -33.424   8.857  -0.252  1.00 20.00     0.201 C 
ENDBRANCH   3   4
ENDBRANCH   2   3
ENDBRANCH   1   2
BRANCH   1   6
HETATM    6  C7  UNL     1     -34.223   6.344   4.138  1.00 20.00     0.082 C 
HETATM    7 CL9  UNL     1     -33.454   7.186   5.520  1.00 20.00    -0.125 Cl
BRANCH   6   8
HETATM    8  C3  UNL     1     -34.866   5.029   4.607  1.00 20.00     0.016 C 
HETATM    9  C1  UNL     1     -34.832   4.839   6.118  1.00 20.00     0.006 C 
ENDBRANCH   6   8
ENDBRANCH   1   6
TORSDOF 5
ENDMDL
MODEL 2
REMARK VINA RESULT:      -4.0      2.449      4.799
REMARK  5 active torsions:
REMARK  status: ('A' for Active; 'I' for Inactive)
REMARK    1  A    between atoms: C3_3  and  C7_7 
REMARK    2  A    between atoms: C4_4  and  C5_5 
REMARK    3  A    between atoms: C4_4  and  C6_6 
REMARK    4  A    between atoms: C5_5  and  C7_7 
REMARK    5  A    between atoms: C6_6  and  O8_8 
ROOT
HETATM    1  C5  UNL     1     -33.251   5.636   2.664  1.00 20.00     0.022 C 
ENDROOT
BRANCH   1   2
HETATM    2  C4  UNL     1     -34.330   5.942   3.712  1.00 20.00     0.028 C 
BRANCH   2   3
HETATM    3  C6  UNL     1     -34.691   4.713   4.540  1.00 20.00     0.167 C 
BRANCH   3   4
HETATM    4  O8  UNL     1     -34.686   5.040   5.922  1.00 20.00    -0.396 OA
HETATM    5  C2  UNL     1     -34.278   6.384   6.139  1.00 20.00     0.201 C 
ENDBRANCH   3   4
ENDBRANCH   2   3
ENDBRANCH   1   2
BRANCH   1   6
HETATM    6  C7  UNL     1     -32.407   6.863   2.279  1.00 20.00     0.082 C 
HETATM    7 CL9  UNL     1     -31.689   7.612   3.741  1.00 20.00    -0.125 Cl
BRANCH   6   8
HETATM    8  C3  UNL     1     -33.260   7.890   1.519  1.00 20.00     0.016 C 
HETATM    9  C1  UNL     1     -32.513   8.585   0.387  1.00 20.00     0.006 C 
ENDBRANCH   6   8
ENDBRANCH   1   6
TORSDOF 5
ENDMDL
MODEL 3
REMARK VINA RESULT:      -4.0      1.623      2.006
REMARK  5 active torsions:
REMARK  status: ('A' for Active; 'I' for Inactive)
REMARK    1  A    between atoms: C3_3  and  C7_7 
REMARK    2  A    between atoms: C4_4  and  C5_5 
REMARK    3  A    between atoms: C4_4  and  C6_6 
REMARK    4  A    between atoms: C5_5  and  C7_7 
REMARK    5  A    between atoms: C6_6  and  O8_8 
ROOT
HETATM    1  C5  UNL     1     -33.550   4.642   3.691  1.00 20.00     0.022 C 
ENDROOT
BRANCH   1   2
HETATM    2  C4  UNL     1     -33.552   5.619   2.507  1.00 20.00     0.028 C 
BRANCH   2   3
HETATM    3  C6  UNL     1     -32.699   6.854   2.781  1.00 20.00     0.167 C 
BRANCH   3   4
HETATM    4  O8  UNL     1     -32.120   7.322   1.572  1.00 20.00    -0.396 OA
HETATM    5  C2  UNL     1     -32.835   8.433   1.047  1.00 20.00     0.201 C 
ENDBRANCH   3   4
ENDBRANCH   2   3
ENDBRANCH   1   2
BRANCH   1   6
HETATM    6  C7  UNL     1     -34.839   4.696   4.529  1.00 20.00     0.082 C 
HETATM    7 CL9  UNL     1     -36.041   5.781   3.759  1.00 20.00    -0.125 Cl
BRANCH   6   8
HETATM    8  C3  UNL     1     -34.536   5.167   5.959  1.00 20.00     0.016 C 
HETATM    9  C1  UNL     1     -34.123   6.632   6.044  1.00 20.00     0.006 C 
ENDBRANCH   6   8
ENDBRANCH   1   6
TORSDOF 5
ENDMDL
MODEL 4
REMARK VINA RESULT:      -3.8     11.027     11.675
REMARK  5 active torsions:
REMARK  status: ('A' for Active; 'I' for Inactive)
REMARK    1  A    between atoms: C3_3  and  C7_7 
REMARK    2  A    between atoms: C4_4  and  C5_5 
REMARK    3  A    between atoms: C4_4  and  C6_6 
REMARK    4  A    between atoms: C5_5  and  C7_7 
REMARK    5  A    between atoms: C6_6  and  O8_8 
ROOT
HETATM    1  C5  UNL     1     -35.049  15.416  -2.907  1.00 20.00     0.022 C 
ENDROOT
BRANCH   1   2
HETATM    2  C4  UNL     1     -36.333  15.367  -3.746  1.00 20.00     0.028 C 
BRANCH   2   3
HETATM    3  C6  UNL     1     -36.560  13.993  -4.368  1.00 20.00     0.167 C 
BRANCH   3   4
HETATM    4  O8  UNL     1     -37.952  13.720  -4.446  1.00 20.00    -0.396 OA
HETATM    5  C2  UNL     1     -38.727  14.891  -4.224  1.00 20.00     0.201 C 
ENDBRANCH   3   4
ENDBRANCH   2   3
ENDBRANCH   1   2
BRANCH   1   6
HETATM    6  C7  UNL     1     -33.833  15.955  -3.681  1.00 20.00     0.082 C 
HETATM    7 CL9  UNL     1     -32.865  14.601  -4.346  1.00 20.00    -0.125 Cl
BRANCH   6   8
HETATM    8  C3  UNL     1     -32.962  16.838  -2.774  1.00 20.00     0.016 C 
HETATM    9  C1  UNL     1     -33.722  17.444  -1.601  1.00 20.00     0.006 C 
ENDBRANCH   6   8
ENDBRANCH   1   6
TORSDOF 5
ENDMDL
MODEL 5
REMARK VINA RESULT:      -3.8     10.529     11.597
REMARK  5 active torsions:
REMARK  status: ('A' for Active; 'I' for Inactive)
REMARK    1  A    between atoms: C3_3  and  C7_7 
REMARK    2  A    between atoms: C4_4  and  C5_5 
REMARK    3  A    between atoms: C4_4  and  C6_6 
REMARK    4  A    between atoms: C5_5  and  C7_7 
REMARK    5  A    between atoms: C6_6  and  O8_8 
ROOT
HETATM    1  C5  UNL     1     -33.951  14.945  -4.133  1.00 20.00     0.022 C 
ENDROOT
BRANCH   1   2
HETATM    2  C4  UNL     1     -35.075  13.920  -3.923  1.00 20.00     0.028 C 
BRANCH   2   3
HETATM    3  C6  UNL     1     -36.151  14.021  -5.000  1.00 20.00     0.167 C 
BRANCH   3   4
HETATM    4  O8  UNL     1     -37.414  13.662  -4.459  1.00 20.00    -0.396 OA
HETATM    5  C2  UNL     1     -38.247  14.800  -4.280  1.00 20.00     0.201 C 
ENDBRANCH   3   4
ENDBRANCH   2   3
ENDBRANCH   1   2
BRANCH   1   6
HETATM    6  C7  UNL     1     -33.682  15.817  -2.895  1.00 20.00     0.082 C 
HETATM    7 CL9  UNL     1     -35.187  16.040  -1.947  1.00 20.00    -0.125 Cl
BRANCH   6   8
HETATM    8  C3  UNL     1     -33.106  17.181  -3.308  1.00 20.00     0.016 C 
HETATM    9  C1  UNL     1     -32.632  18.024  -2.131  1.00 20.00     0.006 C 
ENDBRANCH   6   8
ENDBRANCH   1   6
TORSDOF 5
ENDMDL
MODEL 6
REMARK VINA RESULT:      -3.7     15.687     16.070
REMARK  5 active torsions:
REMARK  status: ('A' for Active; 'I' for Inactive)
REMARK    1  A    between atoms: C3_3  and  C7_7 
REMARK    2  A    between atoms: C4_4  and  C5_5 
REMARK    3  A    between atoms: C4_4  and  C6_6 
REMARK    4  A    between atoms: C5_5  and  C7_7 
REMARK    5  A    between atoms: C6_6  and  O8_8 
ROOT
HETATM    1  C5  UNL     1     -22.829  17.475  10.818  1.00 20.00     0.022 C 
ENDROOT
BRANCH   1   2
HETATM    2  C4  UNL     1     -23.538  17.458   9.457  1.00 20.00     0.028 C 
BRANCH   2   3
HETATM    3  C6  UNL     1     -22.562  17.644   8.299  1.00 20.00     0.167 C 
BRANCH   3   4
HETATM    4  O8  UNL     1     -23.207  18.310   7.223  1.00 20.00    -0.396 OA
HETATM    5  C2  UNL     1     -24.386  18.978   7.654  1.00 20.00     0.201 C 
ENDBRANCH   3   4
ENDBRANCH   2   3
ENDBRANCH   1   2
BRANCH   1   6
HETATM    6  C7  UNL     1     -23.758  17.133  11.996  1.00 20.00     0.082 C 
HETATM    7 CL9  UNL     1     -24.644  15.609  11.671  1.00 20.00    -0.125 Cl
BRANCH   6   8
HETATM    8  C3  UNL     1     -24.747  18.280  12.255  1.00 20.00     0.016 C 
HETATM    9  C1  UNL     1     -26.200  17.826  12.327  1.00 20.00     0.006 C 
ENDBRANCH   6   8
ENDBRANCH   1   6
TORSDOF 5
ENDMDL
MODEL 7
REMARK VINA RESULT:      -3.7     11.031     11.347
REMARK  5 active torsions:
REMARK  status: ('A' for Active; 'I' for Inactive)
REMARK    1  A    between atoms: C3_3  and  C7_7 
REMARK    2  A    between atoms: C4_4  and  C5_5 
REMARK    3  A    between atoms: C4_4  and  C6_6 
REMARK    4  A    between atoms: C5_5  and  C7_7 
REMARK    5  A    between atoms: C6_6  and  O8_8 
ROOT
HETATM    1  C5  UNL     1     -33.129  15.802  -3.520  1.00 20.00     0.022 C 
ENDROOT
BRANCH   1   2
HETATM    2  C4  UNL     1     -34.062  14.686  -4.010  1.00 20.00     0.028 C 
BRANCH   2   3
HETATM    3  C6  UNL     1     -34.447  14.864  -5.475  1.00 20.00     0.167 C 
BRANCH   3   4
HETATM    4  O8  UNL     1     -35.506  13.978  -5.810  1.00 20.00    -0.396 OA
HETATM    5  C2  UNL     1     -36.407  13.809  -4.723  1.00 20.00     0.201 C 
ENDBRANCH   3   4
ENDBRANCH   2   3
ENDBRANCH   1   2
BRANCH   1   6
HETATM    6  C7  UNL     1     -33.846  16.871  -2.676  1.00 20.00     0.082 C 
HETATM    7 CL9  UNL     1     -32.684  17.685  -1.580  1.00 20.00    -0.125 Cl
BRANCH   6   8
HETATM    8  C3  UNL     1     -34.991  16.243  -1.867  1.00 20.00     0.016 C 
HETATM    9  C1  UNL     1     -35.307  16.990  -0.577  1.00 20.00     0.006 C 
ENDBRANCH   6   8
ENDBRANCH   1   6
TORSDOF 5
ENDMDL
MODEL 8
REMARK VINA RESULT:      -3.6      2.701      4.868
REMARK  5 active torsions:
REMARK  status: ('A' for Active; 'I' for Inactive)
REMARK    1  A    between atoms: C3_3  and  C7_7 
REMARK    2  A    between atoms: C4_4  and  C5_5 
REMARK    3  A    between atoms: C4_4  and  C6_6 
REMARK    4  A    between atoms: C5_5  and  C7_7 
REMARK    5  A    between atoms: C6_6  and  O8_8 
ROOT
HETATM    1  C5  UNL     1     -32.746   7.157   3.925  1.00 20.00     0.022 C 
ENDROOT
BRANCH   1   2
HETATM    2  C4  UNL     1     -33.973   7.180   4.847  1.00 20.00     0.028 C 
BRANCH   2   3
HETATM    3  C6  UNL     1     -33.792   6.281   6.065  1.00 20.00     0.167 C 
BRANCH   3   4
HETATM    4  O8  UNL     1     -34.843   5.328   6.126  1.00 20.00    -0.396 OA
HETATM    5  C2  UNL     1     -35.293   4.964   4.827  1.00 20.00     0.201 C 
ENDBRANCH   3   4
ENDBRANCH   2   3
ENDBRANCH   1   2
BRANCH   1   6
HETATM    6  C7  UNL     1     -33.081   6.788   2.470  1.00 20.00     0.082 C 
HETATM    7 CL9  UNL     1     -32.932   5.019   2.223  1.00 20.00    -0.125 Cl
BRANCH   6   8
HETATM    8  C3  UNL     1     -32.163   7.541   1.495  1.00 20.00     0.016 C 
HETATM    9  C1  UNL     1     -32.874   8.642   0.716  1.00 20.00     0.006 C 
ENDBRANCH   6   8
ENDBRANCH   1   6
TORSDOF 5
ENDMDL
MODEL 9
REMARK VINA RESULT:      -3.5     10.938     11.630
REMARK  5 active torsions:
REMARK  status: ('A' for Active; 'I' for Inactive)
REMARK    1  A    between atoms: C3_3  and  C7_7 
REMARK    2  A    between atoms: C4_4  and  C5_5 
REMARK    3  A    between atoms: C4_4  and  C6_6 
REMARK    4  A    between atoms: C5_5  and  C7_7 
REMARK    5  A    between atoms: C6_6  and  O8_8 
ROOT
HETATM    1  C5  UNL     1     -35.843  15.796  -3.573  1.00 20.00     0.022 C 
ENDROOT
BRANCH   1   2
HETATM    2  C4  UNL     1     -36.228  14.428  -4.153  1.00 20.00     0.028 C 
BRANCH   2   3
HETATM    3  C6  UNL     1     -35.887  14.317  -5.636  1.00 20.00     0.167 C 
BRANCH   3   4
HETATM    4  O8  UNL     1     -34.477  14.324  -5.812  1.00 20.00    -0.396 OA
HETATM    5  C2  UNL     1     -34.089  15.177  -6.880  1.00 20.00     0.201 C 
ENDBRANCH   3   4
ENDBRANCH   2   3
ENDBRANCH   1   2
BRANCH   1   6
HETATM    6  C7  UNL     1     -34.765  15.715  -2.479  1.00 20.00     0.082 C 
HETATM    7 CL9  UNL     1     -35.247  16.685  -1.052  1.00 20.00    -0.125 Cl
BRANCH   6   8
HETATM    8  C3  UNL     1     -33.410  16.198  -3.019  1.00 20.00     0.016 C 
HETATM    9  C1  UNL     1     -32.847  17.398  -2.266  1.00 20.00     0.006 C 
ENDBRANCH   6   8
ENDBRANCH   1   6
TORSDOF 5
ENDMDL
