MODEL 1
REMARK VINA RESULT:      -5.0      0.000      0.000
REMARK  3 active torsions:
REMARK  status: ('A' for Active; 'I' for Inactive)
REMARK    1  A    between atoms: C5_5  and  C9_9 
REMARK    2  A    between atoms: C6_6  and  C10_10 
REMARK    3  A    between atoms: C10_10  and  C11_11 
ROOT
HETATM    1  C1  UNL     1     -34.008  14.687  -4.820  1.00 20.00     0.131 C 
HETATM    2  C2  UNL     1     -32.804  15.207  -4.067  1.00 20.00     0.079 C 
HETATM    3  C3  UNL     1     -33.202  16.351  -3.144  1.00 20.00     0.012 C 
HETATM    4  C4  UNL     1     -35.571  15.497  -3.048  1.00 20.00     0.016 C 
HETATM    5  C5  UNL     1     -35.221  14.324  -3.969  1.00 20.00     0.055 C 
HETATM    6  C6  UNL     1     -34.362  15.956  -2.219  1.00 20.00    -0.013 C 
HETATM    7  O12 UNL     1     -33.961  14.489  -6.033  1.00 20.00    -0.298 OA
ENDROOT
BRANCH   6   8
HETATM    8  C10 UNL     1     -34.744  17.122  -1.311  1.00 20.00     0.004 C 
BRANCH   8   9
HETATM    9  C11 UNL     1     -33.550  18.034  -1.051  1.00 20.00    -0.004 C 
HETATM   10  C8  UNL     1     -33.447  18.400   0.422  1.00 20.00     0.005 C 
ENDBRANCH   8   9
ENDBRANCH   6   8
BRANCH   5  11
HETATM   11  C9  UNL     1     -36.419  13.936  -4.829  1.00 20.00     0.007 C 
HETATM   12  C7  UNL     1     -37.675  14.597  -4.361  1.00 20.00     0.006 C 
ENDBRANCH   5  11
TORSDOF 3
ENDMDL
MODEL 2
REMARK VINA RESULT:      -4.9      0.982      1.064
REMARK  3 active torsions:
REMARK  status: ('A' for Active; 'I' for Inactive)
REMARK    1  A    between atoms: C5_5  and  C9_9 
REMARK    2  A    between atoms: C6_6  and  C10_10 
REMARK    3  A    between atoms: C10_10  and  C11_11 
ROOT
HETATM    1  C1  UNL     1     -34.702  14.531  -4.793  1.00 20.00     0.131 C 
HETATM    2  C2  UNL     1     -33.261  14.707  -4.371  1.00 20.00     0.079 C 
HETATM    3  C3  UNL     1     -33.093  15.986  -3.561  1.00 20.00     0.012 C 
HETATM    4  C4  UNL     1     -35.519  15.920  -2.885  1.00 20.00     0.016 C 
HETATM    5  C5  UNL     1     -35.740  14.629  -3.679  1.00 20.00     0.055 C 
HETATM    6  C6  UNL     1     -34.073  16.043  -2.381  1.00 20.00    -0.013 C 
HETATM    7  O12 UNL     1     -34.993  14.236  -5.951  1.00 20.00    -0.298 OA
ENDROOT
BRANCH   6   8
HETATM    8  C10 UNL     1     -33.886  17.337  -1.592  1.00 20.00     0.004 C 
BRANCH   8   9
HETATM    9  C11 UNL     1     -32.599  18.048  -1.994  1.00 20.00    -0.004 C 
HETATM   10  C8  UNL     1     -31.697  18.275  -0.790  1.00 20.00     0.005 C 
ENDBRANCH   8   9
ENDBRANCH   6   8
BRANCH   5  11
HETATM   11  C9  UNL     1     -37.163  14.568  -4.226  1.00 20.00     0.007 C 
HETATM   12  C7  UNL     1     -37.739  15.933  -4.424  1.00 20.00     0.006 C 
ENDBRANCH   5  11
TORSDOF 3
ENDMDL
MODEL 3
REMARK VINA RESULT:      -4.6      1.312      1.740
REMARK  3 active torsions:
REMARK  status: ('A' for Active; 'I' for Inactive)
REMARK    1  A    between atoms: C5_5  and  C9_9 
REMARK    2  A    between atoms: C6_6  and  C10_10 
REMARK    3  A    between atoms: C10_10  and  C11_11 
ROOT
HETATM    1  C1  UNL     1     -35.856  14.266  -4.769  1.00 20.00     0.131 C 
HETATM    2  C2  UNL     1     -34.580  13.887  -4.051  1.00 20.00     0.079 C 
HETATM    3  C3  UNL     1     -33.967  15.104  -3.370  1.00 20.00     0.012 C 
HETATM    4  C4  UNL     1     -36.221  16.226  -3.264  1.00 20.00     0.016 C 
HETATM    5  C5  UNL     1     -36.888  15.024  -3.940  1.00 20.00     0.055 C 
HETATM    6  C6  UNL     1     -34.978  15.814  -2.460  1.00 20.00    -0.013 C 
HETATM    7  O12 UNL     1     -36.068  13.897  -5.923  1.00 20.00    -0.298 OA
ENDROOT
BRANCH   6   8
HETATM    8  C10 UNL     1     -34.339  17.032  -1.796  1.00 20.00     0.004 C 
BRANCH   8   9
HETATM    9  C11 UNL     1     -32.929  17.272  -2.324  1.00 20.00    -0.004 C 
HETATM   10  C8  UNL     1     -32.130  18.154  -1.377  1.00 20.00     0.005 C 
ENDBRANCH   8   9
ENDBRANCH   6   8
BRANCH   5  11
HETATM   11  C9  UNL     1     -38.075  15.471  -4.788  1.00 20.00     0.007 C 
HETATM   12  C7  UNL     1     -39.366  14.930  -4.263  1.00 20.00     0.006 C 
ENDBRANCH   5  11
TORSDOF 3
ENDMDL
MODEL 4
REMARK VINA RESULT:      -4.6      2.426      5.574
REMARK  3 active torsions:
REMARK  status: ('A' for Active; 'I' for Inactive)
REMARK    1  A    between atoms: C5_5  and  C9_9 
REMARK    2  A    between atoms: C6_6  and  C10_10 
REMARK    3  A    between atoms: C10_10  and  C11_11 
ROOT
HETATM    1  C1  UNL     1     -34.356  18.079  -0.754  1.00 20.00     0.131 C 
HETATM    2  C2  UNL     1     -35.442  17.028  -0.804  1.00 20.00     0.079 C 
HETATM    3  C3  UNL     1     -35.500  16.382  -2.182  1.00 20.00     0.012 C 
HETATM    4  C4  UNL     1     -33.088  16.977  -2.602  1.00 20.00     0.016 C 
HETATM    5  C5  UNL     1     -32.975  17.633  -1.222  1.00 20.00     0.055 C 
HETATM    6  C6  UNL     1     -34.128  15.847  -2.616  1.00 20.00    -0.013 C 
HETATM    7  O12 UNL     1     -34.572  19.191  -0.276  1.00 20.00    -0.298 OA
ENDROOT
BRANCH   6   8
HETATM    8  C10 UNL     1     -34.214  15.212  -4.002  1.00 20.00     0.004 C 
BRANCH   8   9
HETATM    9  C11 UNL     1     -34.941  13.872  -3.952  1.00 20.00    -0.004 C 
HETATM   10  C8  UNL     1     -36.186  13.889  -4.825  1.00 20.00     0.005 C 
ENDBRANCH   8   9
ENDBRANCH   6   8
BRANCH   5  11
HETATM   11  C9  UNL     1     -31.987  18.796  -1.256  1.00 20.00     0.007 C 
HETATM   12  C7  UNL     1     -31.036  18.749  -0.105  1.00 20.00     0.006 C 
ENDBRANCH   5  11
TORSDOF 3
ENDMDL
MODEL 5
REMARK VINA RESULT:      -4.5      2.948      5.958
REMARK  3 active torsions:
REMARK  status: ('A' for Active; 'I' for Inactive)
REMARK    1  A    between atoms: C5_5  and  C9_9 
REMARK    2  A    between atoms: C6_6  and  C10_10 
REMARK    3  A    between atoms: C10_10  and  C11_11 
ROOT
HETATM    1  C1  UNL     1     -31.481  18.677  -0.223  1.00 20.00     0.131 C 
HETATM    2  C2  UNL     1     -31.883  18.593  -1.678  1.00 20.00     0.079 C 
HETATM    3  C3  UNL     1     -33.001  17.575  -1.866  1.00 20.00     0.012 C 
HETATM    4  C4  UNL     1     -33.720  17.867   0.531  1.00 20.00     0.016 C 
HETATM    5  C5  UNL     1     -32.616  18.902   0.771  1.00 20.00     0.055 C 
HETATM    6  C6  UNL     1     -34.187  17.856  -0.933  1.00 20.00    -0.013 C 
HETATM    7  O12 UNL     1     -30.297  18.656   0.110  1.00 20.00    -0.298 OA
ENDROOT
BRANCH   6   8
HETATM    8  C10 UNL     1     -35.288  16.819  -1.138  1.00 20.00     0.004 C 
BRANCH   8   9
HETATM    9  C11 UNL     1     -34.937  15.855  -2.267  1.00 20.00    -0.004 C 
HETATM   10  C8  UNL     1     -36.001  15.868  -3.352  1.00 20.00     0.005 C 
ENDBRANCH   8   9
ENDBRANCH   6   8
BRANCH   5  11
HETATM   11  C9  UNL     1     -32.124  18.842   2.214  1.00 20.00     0.007 C 
HETATM   12  C7  UNL     1     -32.639  17.633   2.925  1.00 20.00     0.006 C 
ENDBRANCH   5  11
TORSDOF 3
ENDMDL
MODEL 6
REMARK VINA RESULT:      -4.4      2.245      4.658
REMARK  3 active torsions:
REMARK  status: ('A' for Active; 'I' for Inactive)
REMARK    1  A    between atoms: C5_5  and  C9_9 
REMARK    2  A    between atoms: C6_6  and  C10_10 
REMARK    3  A    between atoms: C10_10  and  C11_11 
ROOT
HETATM    1  C1  UNL     1     -33.513  17.641  -1.477  1.00 20.00     0.131 C 
HETATM    2  C2  UNL     1     -32.851  17.502  -2.830  1.00 20.00     0.079 C 
HETATM    3  C3  UNL     1     -33.032  16.091  -3.373  1.00 20.00     0.012 C 
HETATM    4  C4  UNL     1     -35.101  15.778  -1.970  1.00 20.00     0.016 C 
HETATM    5  C5  UNL     1     -34.969  17.193  -1.398  1.00 20.00     0.055 C 
HETATM    6  C6  UNL     1     -34.509  15.672  -3.383  1.00 20.00    -0.013 C 
HETATM    7  O12 UNL     1     -32.926  18.170  -0.535  1.00 20.00    -0.298 OA
ENDROOT
BRANCH   6   8
HETATM    8  C10 UNL     1     -34.660  14.253  -3.925  1.00 20.00     0.004 C 
BRANCH   8   9
HETATM    9  C11 UNL     1     -36.084  13.993  -4.405  1.00 20.00    -0.004 C 
HETATM   10  C8  UNL     1     -36.561  15.098  -5.335  1.00 20.00     0.005 C 
ENDBRANCH   8   9
ENDBRANCH   6   8
BRANCH   5  11
HETATM   11  C9  UNL     1     -35.501  17.251   0.030  1.00 20.00     0.007 C 
HETATM   12  C7  UNL     1     -36.794  17.997   0.110  1.00 20.00     0.006 C 
ENDBRANCH   5  11
TORSDOF 3
ENDMDL
MODEL 7
REMARK VINA RESULT:      -4.4      1.334      1.714
REMARK  3 active torsions:
REMARK  status: ('A' for Active; 'I' for Inactive)
REMARK    1  A    between atoms: C5_5  and  C9_9 
REMARK    2  A    between atoms: C6_6  and  C10_10 
REMARK    3  A    between atoms: C10_10  and  C11_11 
ROOT
HETATM    1  C1  UNL     1     -35.793  14.250  -4.810  1.00 20.00     0.131 C 
HETATM    2  C2  UNL     1     -34.501  13.849  -4.133  1.00 20.00     0.079 C 
HETATM    3  C3  UNL     1     -33.853  15.053  -3.462  1.00 20.00     0.012 C 
HETATM    4  C4  UNL     1     -36.087  16.202  -3.280  1.00 20.00     0.016 C 
HETATM    5  C5  UNL     1     -36.790  15.014  -3.945  1.00 20.00     0.055 C 
HETATM    6  C6  UNL     1     -34.827  15.769  -2.516  1.00 20.00    -0.013 C 
HETATM    7  O12 UNL     1     -36.044  13.893  -5.959  1.00 20.00    -0.298 OA
ENDROOT
BRANCH   6   8
HETATM    8  C10 UNL     1     -34.153  16.973  -1.863  1.00 20.00     0.004 C 
BRANCH   8   9
HETATM    9  C11 UNL     1     -35.155  17.803  -1.067  1.00 20.00    -0.004 C 
HETATM   10  C8  UNL     1     -35.399  17.199   0.307  1.00 20.00     0.005 C 
ENDBRANCH   8   9
ENDBRANCH   6   8
BRANCH   5  11
HETATM   11  C9  UNL     1     -37.996  15.483  -4.753  1.00 20.00     0.007 C 
HETATM   12  C7  UNL     1     -39.272  14.908  -4.229  1.00 20.00     0.006 C 
ENDBRANCH   5  11
TORSDOF 3
ENDMDL
MODEL 8
REMARK VINA RESULT:      -4.3      1.754      2.824
REMARK  3 active torsions:
REMARK  status: ('A' for Active; 'I' for Inactive)
REMARK    1  A    between atoms: C5_5  and  C9_9 
REMARK    2  A    between atoms: C6_6  and  C10_10 
REMARK    3  A    between atoms: C10_10  and  C11_11 
ROOT
HETATM    1  C1  UNL     1     -35.160  15.645  -3.055  1.00 20.00     0.131 C 
HETATM    2  C2  UNL     1     -35.578  16.705  -2.060  1.00 20.00     0.079 C 
HETATM    3  C3  UNL     1     -34.379  17.183  -1.252  1.00 20.00     0.012 C 
HETATM    4  C4  UNL     1     -32.811  16.494  -3.100  1.00 20.00     0.016 C 
HETATM    5  C5  UNL     1     -33.983  16.005  -3.957  1.00 20.00     0.055 C 
HETATM    6  C6  UNL     1     -33.227  17.636  -2.159  1.00 20.00    -0.013 C 
HETATM    7  O12 UNL     1     -35.799  14.602  -3.177  1.00 20.00    -0.298 OA
ENDROOT
BRANCH   6   8
HETATM    8  C10 UNL     1     -32.038  18.103  -1.323  1.00 20.00     0.004 C 
BRANCH   8   9
HETATM    9  C11 UNL     1     -32.460  18.425   0.107  1.00 20.00    -0.004 C 
HETATM   10  C8  UNL     1     -31.285  18.315   1.065  1.00 20.00     0.005 C 
ENDBRANCH   8   9
ENDBRANCH   6   8
BRANCH   5  11
HETATM   11  C9  UNL     1     -33.559  14.826  -4.828  1.00 20.00     0.007 C 
HETATM   12  C7  UNL     1     -34.019  14.989  -6.241  1.00 20.00     0.006 C 
ENDBRANCH   5  11
TORSDOF 3
ENDMDL
MODEL 9
REMARK VINA RESULT:      -4.3      1.806      2.720
REMARK  3 active torsions:
REMARK  status: ('A' for Active; 'I' for Inactive)
REMARK    1  A    between atoms: C5_5  and  C9_9 
REMARK    2  A    between atoms: C6_6  and  C10_10 
REMARK    3  A    between atoms: C10_10  and  C11_11 
ROOT
HETATM    1  C1  UNL     1     -35.938  14.390  -4.937  1.00 20.00     0.131 C 
HETATM    2  C2  UNL     1     -36.046  14.715  -3.464  1.00 20.00     0.079 C 
HETATM    3  C3  UNL     1     -34.763  15.365  -2.964  1.00 20.00     0.012 C 
HETATM    4  C4  UNL     1     -34.219  16.167  -5.289  1.00 20.00     0.016 C 
HETATM    5  C5  UNL     1     -35.501  15.537  -5.843  1.00 20.00     0.055 C 
HETATM    6  C6  UNL     1     -34.372  16.579  -3.817  1.00 20.00    -0.013 C 
HETATM    7  O12 UNL     1     -36.275  13.289  -5.370  1.00 20.00    -0.298 OA
ENDROOT
BRANCH   6   8
HETATM    8  C10 UNL     1     -33.080  17.206  -3.298  1.00 20.00     0.004 C 
BRANCH   8   9
HETATM    9  C11 UNL     1     -33.164  17.482  -1.800  1.00 20.00    -0.004 C 
HETATM   10  C8  UNL     1     -31.970  18.294  -1.323  1.00 20.00     0.005 C 
ENDBRANCH   8   9
ENDBRANCH   6   8
BRANCH   5  11
HETATM   11  C9  UNL     1     -35.298  15.074  -7.283  1.00 20.00     0.007 C 
HETATM   12  C7  UNL     1     -33.912  15.355  -7.764  1.00 20.00     0.006 C 
ENDBRANCH   5  11
TORSDOF 3
ENDMDL
