MODEL 1
REMARK VINA RESULT:      -4.2      0.000      0.000
REMARK  5 active torsions:
REMARK  status: ('A' for Active; 'I' for Inactive)
REMARK    1  A    between atoms: C3_3  and  C4_4 
REMARK    2  A    between atoms: C3_3  and  C5_5 
REMARK    3  A    between atoms: C4_4  and  C6_6 
REMARK    4  A    between atoms: C5_5  and  C7_7 
REMARK    5  A    between atoms: C6_6  and  O8_8 
ROOT
HETATM    1  C3  UNL     1     -33.371   4.759   2.676  1.00 20.00     0.004 C 
ENDROOT
BRANCH   1   2
HETATM    2  C4  UNL     1     -34.126   4.230   3.896  1.00 20.00     0.026 C 
BRANCH   2   3
HETATM    3  C6  UNL     1     -35.169   5.198   4.437  1.00 20.00     0.167 C 
BRANCH   3   4
HETATM    4  O8  UNL     1     -34.938   5.388   5.827  1.00 20.00    -0.396 OA
HETATM    5  C2  UNL     1     -34.157   6.550   6.072  1.00 20.00     0.201 C 
ENDBRANCH   3   4
ENDBRANCH   2   3
ENDBRANCH   1   2
BRANCH   1   6
HETATM    6  C5  UNL     1     -33.632   6.246   2.403  1.00 20.00     0.020 C 
BRANCH   6   7
HETATM    7  C7  UNL     1     -32.347   7.052   2.169  1.00 20.00     0.078 C 
HETATM    8  C1  UNL     1     -32.595   8.218   1.219  1.00 20.00     0.026 C 
HETATM    9 CL9  UNL     1     -31.700   7.692   3.710  1.00 20.00    -0.125 Cl
ENDBRANCH   6   7
ENDBRANCH   1   6
TORSDOF 5
ENDMDL
MODEL 2
REMARK VINA RESULT:      -3.9      2.830      4.726
REMARK  5 active torsions:
REMARK  status: ('A' for Active; 'I' for Inactive)
REMARK    1  A    between atoms: C3_3  and  C4_4 
REMARK    2  A    between atoms: C3_3  and  C5_5 
REMARK    3  A    between atoms: C4_4  and  C6_6 
REMARK    4  A    between atoms: C5_5  and  C7_7 
REMARK    5  A    between atoms: C6_6  and  O8_8 
ROOT
HETATM    1  C3  UNL     1     -32.998   6.238   2.995  1.00 20.00     0.004 C 
ENDROOT
BRANCH   1   2
HETATM    2  C4  UNL     1     -32.117   7.433   2.628  1.00 20.00     0.026 C 
BRANCH   2   3
HETATM    3  C6  UNL     1     -32.125   7.765   1.142  1.00 20.00     0.167 C 
BRANCH   3   4
HETATM    4  O8  UNL     1     -32.897   8.941   0.941  1.00 20.00    -0.396 OA
HETATM    5  C2  UNL     1     -33.509   8.952  -0.341  1.00 20.00     0.201 C 
ENDBRANCH   3   4
ENDBRANCH   2   3
ENDBRANCH   1   2
BRANCH   1   6
HETATM    6  C5  UNL     1     -34.057   6.571   4.053  1.00 20.00     0.020 C 
BRANCH   6   7
HETATM    7  C7  UNL     1     -34.858   5.345   4.512  1.00 20.00     0.078 C 
HETATM    8  C1  UNL     1     -34.286   4.061   3.922  1.00 20.00     0.026 C 
HETATM    9 CL9  UNL     1     -34.861   5.209   6.297  1.00 20.00    -0.125 Cl
ENDBRANCH   6   7
ENDBRANCH   1   6
TORSDOF 5
ENDMDL
MODEL 3
REMARK VINA RESULT:      -3.9      2.324      4.151
REMARK  5 active torsions:
REMARK  status: ('A' for Active; 'I' for Inactive)
REMARK    1  A    between atoms: C3_3  and  C4_4 
REMARK    2  A    between atoms: C3_3  and  C5_5 
REMARK    3  A    between atoms: C4_4  and  C6_6 
REMARK    4  A    between atoms: C5_5  and  C7_7 
REMARK    5  A    between atoms: C6_6  and  O8_8 
ROOT
HETATM    1  C3  UNL     1     -34.012   4.911   3.339  1.00 20.00     0.004 C 
ENDROOT
BRANCH   1   2
HETATM    2  C4  UNL     1     -32.949   5.486   2.400  1.00 20.00     0.026 C 
BRANCH   2   3
HETATM    3  C6  UNL     1     -32.727   6.983   2.571  1.00 20.00     0.167 C 
BRANCH   3   4
HETATM    4  O8  UNL     1     -32.168   7.501   1.371  1.00 20.00    -0.396 OA
HETATM    5  C2  UNL     1     -32.887   8.635   0.908  1.00 20.00     0.201 C 
ENDBRANCH   3   4
ENDBRANCH   2   3
ENDBRANCH   1   2
BRANCH   1   6
HETATM    6  C5  UNL     1     -34.906   5.987   3.967  1.00 20.00     0.020 C 
BRANCH   6   7
HETATM    7  C7  UNL     1     -34.821   6.024   5.500  1.00 20.00     0.078 C 
HETATM    8  C1  UNL     1     -34.567   4.632   6.070  1.00 20.00     0.026 C 
HETATM    9 CL9  UNL     1     -33.514   7.117   6.046  1.00 20.00    -0.125 Cl
ENDBRANCH   6   7
ENDBRANCH   1   6
TORSDOF 5
ENDMDL
MODEL 4
REMARK VINA RESULT:      -3.7     11.562     12.249
REMARK  5 active torsions:
REMARK  status: ('A' for Active; 'I' for Inactive)
REMARK    1  A    between atoms: C3_3  and  C4_4 
REMARK    2  A    between atoms: C3_3  and  C5_5 
REMARK    3  A    between atoms: C4_4  and  C6_6 
REMARK    4  A    between atoms: C5_5  and  C7_7 
REMARK    5  A    between atoms: C6_6  and  O8_8 
ROOT
HETATM    1  C3  UNL     1     -34.437  15.315  -5.377  1.00 20.00     0.004 C 
ENDROOT
BRANCH   1   2
HETATM    2  C4  UNL     1     -35.711  14.526  -5.684  1.00 20.00     0.026 C 
BRANCH   2   3
HETATM    3  C6  UNL     1     -36.192  13.666  -4.523  1.00 20.00     0.167 C 
BRANCH   3   4
HETATM    4  O8  UNL     1     -37.613  13.676  -4.505  1.00 20.00    -0.396 OA
HETATM    5  C2  UNL     1     -38.123  14.978  -4.253  1.00 20.00     0.201 C 
ENDBRANCH   3   4
ENDBRANCH   2   3
ENDBRANCH   1   2
BRANCH   1   6
HETATM    6  C5  UNL     1     -33.726  14.841  -4.104  1.00 20.00     0.020 C 
BRANCH   6   7
HETATM    7  C7  UNL     1     -33.580  15.946  -3.047  1.00 20.00     0.078 C 
HETATM    8  C1  UNL     1     -33.411  17.313  -3.701  1.00 20.00     0.026 C 
HETATM    9 CL9  UNL     1     -35.005  15.995  -1.966  1.00 20.00    -0.125 Cl
ENDBRANCH   6   7
ENDBRANCH   1   6
TORSDOF 5
ENDMDL
MODEL 5
REMARK VINA RESULT:      -3.7     11.293     12.031
REMARK  5 active torsions:
REMARK  status: ('A' for Active; 'I' for Inactive)
REMARK    1  A    between atoms: C3_3  and  C4_4 
REMARK    2  A    between atoms: C3_3  and  C5_5 
REMARK    3  A    between atoms: C4_4  and  C6_6 
REMARK    4  A    between atoms: C5_5  and  C7_7 
REMARK    5  A    between atoms: C6_6  and  O8_8 
ROOT
HETATM    1  C3  UNL     1     -34.469  15.133  -3.526  1.00 20.00     0.004 C 
ENDROOT
BRANCH   1   2
HETATM    2  C4  UNL     1     -35.138  13.827  -3.958  1.00 20.00     0.026 C 
BRANCH   2   3
HETATM    3  C6  UNL     1     -36.216  14.013  -5.017  1.00 20.00     0.167 C 
BRANCH   3   4
HETATM    4  O8  UNL     1     -37.473  13.654  -4.458  1.00 20.00    -0.396 OA
HETATM    5  C2  UNL     1     -38.300  14.792  -4.259  1.00 20.00     0.201 C 
ENDBRANCH   3   4
ENDBRANCH   2   3
ENDBRANCH   1   2
BRANCH   1   6
HETATM    6  C5  UNL     1     -35.148  15.788  -2.317  1.00 20.00     0.020 C 
BRANCH   6   7
HETATM    7  C7  UNL     1     -34.544  17.151  -1.949  1.00 20.00     0.078 C 
HETATM    8  C1  UNL     1     -34.763  17.469  -0.474  1.00 20.00     0.026 C 
HETATM    9 CL9  UNL     1     -32.788  17.191  -2.294  1.00 20.00    -0.125 Cl
ENDBRANCH   6   7
ENDBRANCH   1   6
TORSDOF 5
ENDMDL
MODEL 6
REMARK VINA RESULT:      -3.6      1.553      1.854
REMARK  5 active torsions:
REMARK  status: ('A' for Active; 'I' for Inactive)
REMARK    1  A    between atoms: C3_3  and  C4_4 
REMARK    2  A    between atoms: C3_3  and  C5_5 
REMARK    3  A    between atoms: C4_4  and  C6_6 
REMARK    4  A    between atoms: C5_5  and  C7_7 
REMARK    5  A    between atoms: C6_6  and  O8_8 
ROOT
HETATM    1  C3  UNL     1     -32.910   6.150   2.751  1.00 20.00     0.004 C 
ENDROOT
BRANCH   1   2
HETATM    2  C4  UNL     1     -34.030   6.302   3.782  1.00 20.00     0.026 C 
BRANCH   2   3
HETATM    3  C6  UNL     1     -34.705   4.987   4.149  1.00 20.00     0.167 C 
BRANCH   3   4
HETATM    4  O8  UNL     1     -34.855   4.929   5.562  1.00 20.00    -0.396 OA
HETATM    5  C2  UNL     1     -34.409   6.126   6.183  1.00 20.00     0.201 C 
ENDBRANCH   3   4
ENDBRANCH   2   3
ENDBRANCH   1   2
BRANCH   1   6
HETATM    6  C5  UNL     1     -32.272   7.486   2.353  1.00 20.00     0.020 C 
BRANCH   6   7
HETATM    7  C7  UNL     1     -32.735   7.992   0.980  1.00 20.00     0.078 C 
HETATM    8  C1  UNL     1     -33.036   9.486   1.017  1.00 20.00     0.026 C 
HETATM    9 CL9  UNL     1     -31.494   7.684  -0.272  1.00 20.00    -0.125 Cl
ENDBRANCH   6   7
ENDBRANCH   1   6
TORSDOF 5
ENDMDL
MODEL 7
REMARK VINA RESULT:      -3.6     11.331     12.176
REMARK  5 active torsions:
REMARK  status: ('A' for Active; 'I' for Inactive)
REMARK    1  A    between atoms: C3_3  and  C4_4 
REMARK    2  A    between atoms: C3_3  and  C5_5 
REMARK    3  A    between atoms: C4_4  and  C6_6 
REMARK    4  A    between atoms: C5_5  and  C7_7 
REMARK    5  A    between atoms: C6_6  and  O8_8 
ROOT
HETATM    1  C3  UNL     1     -34.869  15.173  -3.167  1.00 20.00     0.004 C 
ENDROOT
BRANCH   1   2
HETATM    2  C4  UNL     1     -35.236  13.922  -3.967  1.00 20.00     0.026 C 
BRANCH   2   3
HETATM    3  C6  UNL     1     -36.344  14.152  -4.987  1.00 20.00     0.167 C 
BRANCH   3   4
HETATM    4  O8  UNL     1     -37.569  13.674  -4.446  1.00 20.00    -0.396 OA
HETATM    5  C2  UNL     1     -38.501  14.728  -4.252  1.00 20.00     0.201 C 
ENDBRANCH   3   4
ENDBRANCH   2   3
ENDBRANCH   1   2
BRANCH   1   6
HETATM    6  C5  UNL     1     -33.490  15.738  -3.531  1.00 20.00     0.020 C 
BRANCH   6   7
HETATM    7  C7  UNL     1     -33.062  16.909  -2.634  1.00 20.00     0.078 C 
HETATM    8  C1  UNL     1     -32.947  18.201  -3.436  1.00 20.00     0.026 C 
HETATM    9 CL9  UNL     1     -34.228  17.159  -1.300  1.00 20.00    -0.125 Cl
ENDBRANCH   6   7
ENDBRANCH   1   6
TORSDOF 5
ENDMDL
MODEL 8
REMARK VINA RESULT:      -3.6     11.625     12.381
REMARK  5 active torsions:
REMARK  status: ('A' for Active; 'I' for Inactive)
REMARK    1  A    between atoms: C3_3  and  C4_4 
REMARK    2  A    between atoms: C3_3  and  C5_5 
REMARK    3  A    between atoms: C4_4  and  C6_6 
REMARK    4  A    between atoms: C5_5  and  C7_7 
REMARK    5  A    between atoms: C6_6  and  O8_8 
ROOT
HETATM    1  C3  UNL     1     -34.922  15.397  -2.995  1.00 20.00     0.004 C 
ENDROOT
BRANCH   1   2
HETATM    2  C4  UNL     1     -34.818  14.216  -3.961  1.00 20.00     0.026 C 
BRANCH   2   3
HETATM    3  C6  UNL     1     -36.156  13.789  -4.551  1.00 20.00     0.167 C 
BRANCH   3   4
HETATM    4  O8  UNL     1     -35.998  13.601  -5.951  1.00 20.00    -0.396 OA
HETATM    5  C2  UNL     1     -35.710  14.825  -6.613  1.00 20.00     0.201 C 
ENDBRANCH   3   4
ENDBRANCH   2   3
ENDBRANCH   1   2
BRANCH   1   6
HETATM    6  C5  UNL     1     -33.597  16.150  -2.818  1.00 20.00     0.020 C 
BRANCH   6   7
HETATM    7  C7  UNL     1     -33.743  17.448  -2.011  1.00 20.00     0.078 C 
HETATM    8  C1  UNL     1     -34.731  17.273  -0.863  1.00 20.00     0.026 C 
HETATM    9 CL9  UNL     1     -32.168  17.973  -1.344  1.00 20.00    -0.125 Cl
ENDBRANCH   6   7
ENDBRANCH   1   6
TORSDOF 5
ENDMDL
MODEL 9
REMARK VINA RESULT:      -3.5     15.983     16.846
REMARK  5 active torsions:
REMARK  status: ('A' for Active; 'I' for Inactive)
REMARK    1  A    between atoms: C3_3  and  C4_4 
REMARK    2  A    between atoms: C3_3  and  C5_5 
REMARK    3  A    between atoms: C4_4  and  C6_6 
REMARK    4  A    between atoms: C5_5  and  C7_7 
REMARK    5  A    between atoms: C6_6  and  O8_8 
ROOT
HETATM    1  C3  UNL     1     -23.092  17.108   9.822  1.00 20.00     0.004 C 
ENDROOT
BRANCH   1   2
HETATM    2  C4  UNL     1     -22.816  17.837   8.506  1.00 20.00     0.026 C 
BRANCH   2   3
HETATM    3  C6  UNL     1     -23.929  18.790   8.091  1.00 20.00     0.167 C 
BRANCH   3   4
HETATM    4  O8  UNL     1     -23.915  18.918   6.675  1.00 20.00    -0.396 OA
HETATM    5  C2  UNL     1     -25.197  19.263   6.169  1.00 20.00     0.201 C 
ENDBRANCH   3   4
ENDBRANCH   2   3
ENDBRANCH   1   2
BRANCH   1   6
HETATM    6  C5  UNL     1     -23.265  18.058  11.014  1.00 20.00     0.020 C 
BRANCH   6   7
HETATM    7  C7  UNL     1     -24.352  17.601  11.997  1.00 20.00     0.078 C 
HETATM    8  C1  UNL     1     -25.608  18.454  11.862  1.00 20.00     0.026 C 
HETATM    9 CL9  UNL     1     -24.787  15.887  11.726  1.00 20.00    -0.125 Cl
ENDBRANCH   6   7
ENDBRANCH   1   6
TORSDOF 5
ENDMDL
