MODEL 1
REMARK VINA RESULT:      -5.0      0.000      0.000
REMARK  3 active torsions:
REMARK  status: ('A' for Active; 'I' for Inactive)
REMARK    1  A    between atoms: C5_5  and  C9_9 
REMARK    2  A    between atoms: C6_6  and  C10_10 
REMARK    3  A    between atoms: C9_9  and  C11_11 
ROOT
HETATM    1  C1  UNL     1     -34.979  13.997  -4.091  1.00 20.00     0.131 C 
HETATM    2  C2  UNL     1     -35.824  14.988  -3.322  1.00 20.00     0.079 C 
HETATM    3  C3  UNL     1     -34.962  15.827  -2.388  1.00 20.00     0.012 C 
HETATM    4  C4  UNL     1     -32.935  15.423  -3.825  1.00 20.00     0.016 C 
HETATM    5  C5  UNL     1     -33.733  14.528  -4.780  1.00 20.00     0.055 C 
HETATM    6  C6  UNL     1     -33.796  16.492  -3.131  1.00 20.00    -0.014 C 
HETATM    7  O12 UNL     1     -35.338  12.827  -4.233  1.00 20.00    -0.298 OA
ENDROOT
BRANCH   5   8
HETATM    8  C9  UNL     1     -34.119  15.236  -6.075  1.00 20.00     0.012 C 
BRANCH   8   9
HETATM    9  C11 UNL     1     -35.424  14.685  -6.638  1.00 20.00    -0.004 C 
HETATM   10  C8  UNL     1     -36.373  15.806  -7.029  1.00 20.00     0.005 C 
ENDBRANCH   8   9
ENDBRANCH   5   8
BRANCH   6  11
HETATM   11  C10 UNL     1     -32.947  17.318  -2.166  1.00 20.00     0.000 C 
HETATM   12  C7  UNL     1     -33.738  17.759  -0.979  1.00 20.00     0.005 C 
ENDBRANCH   6  11
TORSDOF 3
ENDMDL
MODEL 2
REMARK VINA RESULT:      -5.0      1.351      1.692
REMARK  3 active torsions:
REMARK  status: ('A' for Active; 'I' for Inactive)
REMARK    1  A    between atoms: C5_5  and  C9_9 
REMARK    2  A    between atoms: C6_6  and  C10_10 
REMARK    3  A    between atoms: C9_9  and  C11_11 
ROOT
HETATM    1  C1  UNL     1     -36.763  14.438  -4.509  1.00 20.00     0.131 C 
HETATM    2  C2  UNL     1     -36.890  15.776  -3.815  1.00 20.00     0.079 C 
HETATM    3  C3  UNL     1     -35.648  16.079  -2.989  1.00 20.00     0.012 C 
HETATM    4  C4  UNL     1     -34.261  14.556  -4.434  1.00 20.00     0.016 C 
HETATM    5  C5  UNL     1     -35.480  14.170  -5.278  1.00 20.00     0.055 C 
HETATM    6  C6  UNL     1     -34.365  15.962  -3.821  1.00 20.00    -0.014 C 
HETATM    7  O12 UNL     1     -37.699  13.638  -4.531  1.00 20.00    -0.298 OA
ENDROOT
BRANCH   5   8
HETATM    8  C9  UNL     1     -35.522  14.886  -6.624  1.00 20.00     0.012 C 
BRANCH   8   9
HETATM    9  C11 UNL     1     -34.118  15.138  -7.160  1.00 20.00    -0.004 C 
HETATM   10  C8  UNL     1     -34.042  16.455  -7.915  1.00 20.00     0.005 C 
ENDBRANCH   8   9
ENDBRANCH   5   8
BRANCH   6  11
HETATM   11  C10 UNL     1     -33.139  16.265  -2.962  1.00 20.00     0.000 C 
HETATM   12  C7  UNL     1     -33.437  17.296  -1.924  1.00 20.00     0.005 C 
ENDBRANCH   6  11
TORSDOF 3
ENDMDL
MODEL 3
REMARK VINA RESULT:      -4.8      2.675      5.520
REMARK  3 active torsions:
REMARK  status: ('A' for Active; 'I' for Inactive)
REMARK    1  A    between atoms: C5_5  and  C9_9 
REMARK    2  A    between atoms: C6_6  and  C10_10 
REMARK    3  A    between atoms: C9_9  and  C11_11 
ROOT
HETATM    1  C1  UNL     1     -34.409  18.232  -1.291  1.00 20.00     0.131 C 
HETATM    2  C2  UNL     1     -34.991  16.872  -0.976  1.00 20.00     0.079 C 
HETATM    3  C3  UNL     1     -35.028  15.995  -2.220  1.00 20.00     0.012 C 
HETATM    4  C4  UNL     1     -33.157  17.319  -3.261  1.00 20.00     0.016 C 
HETATM    5  C5  UNL     1     -33.098  18.269  -2.059  1.00 20.00     0.055 C 
HETATM    6  C6  UNL     1     -33.655  15.910  -2.900  1.00 20.00    -0.014 C 
HETATM    7  O12 UNL     1     -34.925  19.263  -0.858  1.00 20.00    -0.298 OA
ENDROOT
BRANCH   5   8
HETATM    8  C9  UNL     1     -31.937  17.966  -1.119  1.00 20.00     0.012 C 
BRANCH   8   9
HETATM    9  C11 UNL     1     -31.557  19.193  -0.298  1.00 20.00    -0.004 C 
HETATM   10  C8  UNL     1     -30.777  18.803   0.948  1.00 20.00     0.005 C 
ENDBRANCH   8   9
ENDBRANCH   5   8
BRANCH   6  11
HETATM   11  C10 UNL     1     -33.727  15.031  -4.147  1.00 20.00     0.000 C 
HETATM   12  C7  UNL     1     -34.784  13.984  -4.020  1.00 20.00     0.005 C 
ENDBRANCH   6  11
TORSDOF 3
ENDMDL
MODEL 4
REMARK VINA RESULT:      -4.8      1.788      3.814
REMARK  3 active torsions:
REMARK  status: ('A' for Active; 'I' for Inactive)
REMARK    1  A    between atoms: C5_5  and  C9_9 
REMARK    2  A    between atoms: C6_6  and  C10_10 
REMARK    3  A    between atoms: C9_9  and  C11_11 
ROOT
HETATM    1  C1  UNL     1     -35.871  13.956  -4.733  1.00 20.00     0.131 C 
HETATM    2  C2  UNL     1     -35.717  14.552  -6.115  1.00 20.00     0.079 C 
HETATM    3  C3  UNL     1     -36.588  15.791  -6.273  1.00 20.00     0.012 C 
HETATM    4  C4  UNL     1     -36.585  16.163  -3.783  1.00 20.00     0.016 C 
HETATM    5  C5  UNL     1     -35.749  14.900  -3.549  1.00 20.00     0.055 C 
HETATM    6  C6  UNL     1     -36.337  16.811  -5.155  1.00 20.00    -0.014 C 
HETATM    7  O12 UNL     1     -35.994  12.742  -4.571  1.00 20.00    -0.298 OA
ENDROOT
BRANCH   5   8
HETATM    8  C9  UNL     1     -34.279  15.203  -3.277  1.00 20.00     0.012 C 
BRANCH   8   9
HETATM    9  C11 UNL     1     -34.126  16.324  -2.254  1.00 20.00    -0.004 C 
HETATM   10  C8  UNL     1     -33.027  17.293  -2.657  1.00 20.00     0.005 C 
ENDBRANCH   8   9
ENDBRANCH   5   8
BRANCH   6  11
HETATM   11  C10 UNL     1     -37.230  18.037  -5.338  1.00 20.00     0.000 C 
HETATM   12  C7  UNL     1     -37.402  18.786  -4.058  1.00 20.00     0.005 C 
ENDBRANCH   6  11
TORSDOF 3
ENDMDL
MODEL 5
REMARK VINA RESULT:      -4.6      1.555      4.227
REMARK  3 active torsions:
REMARK  status: ('A' for Active; 'I' for Inactive)
REMARK    1  A    between atoms: C5_5  and  C9_9 
REMARK    2  A    between atoms: C6_6  and  C10_10 
REMARK    3  A    between atoms: C9_9  and  C11_11 
ROOT
HETATM    1  C1  UNL     1     -33.699  14.593  -4.479  1.00 20.00     0.131 C 
HETATM    2  C2  UNL     1     -34.375  15.059  -5.749  1.00 20.00     0.079 C 
HETATM    3  C3  UNL     1     -35.875  15.215  -5.541  1.00 20.00     0.012 C 
HETATM    4  C4  UNL     1     -35.542  15.538  -3.068  1.00 20.00     0.016 C 
HETATM    5  C5  UNL     1     -34.027  15.343  -3.198  1.00 20.00     0.055 C 
HETATM    6  C6  UNL     1     -36.194  16.110  -4.337  1.00 20.00    -0.014 C 
HETATM    7  O12 UNL     1     -32.845  13.706  -4.498  1.00 20.00    -0.298 OA
ENDROOT
BRANCH   5   8
HETATM    8  C9  UNL     1     -33.253  16.656  -3.153  1.00 20.00     0.012 C 
BRANCH   8   9
HETATM    9  C11 UNL     1     -33.465  17.377  -1.827  1.00 20.00    -0.004 C 
HETATM   10  C8  UNL     1     -32.216  18.133  -1.404  1.00 20.00     0.005 C 
ENDBRANCH   8   9
ENDBRANCH   5   8
BRANCH   6  11
HETATM   11  C10 UNL     1     -37.705  16.239  -4.151  1.00 20.00     0.000 C 
HETATM   12  C7  UNL     1     -38.386  14.915  -4.255  1.00 20.00     0.005 C 
ENDBRANCH   6  11
TORSDOF 3
ENDMDL
MODEL 6
REMARK VINA RESULT:      -4.6      1.887      3.867
REMARK  3 active torsions:
REMARK  status: ('A' for Active; 'I' for Inactive)
REMARK    1  A    between atoms: C5_5  and  C9_9 
REMARK    2  A    between atoms: C6_6  and  C10_10 
REMARK    3  A    between atoms: C9_9  and  C11_11 
ROOT
HETATM    1  C1  UNL     1     -36.647  14.471  -4.766  1.00 20.00     0.131 C 
HETATM    2  C2  UNL     1     -35.881  14.405  -6.069  1.00 20.00     0.079 C 
HETATM    3  C3  UNL     1     -35.812  15.774  -6.729  1.00 20.00     0.012 C 
HETATM    4  C4  UNL     1     -36.133  16.911  -4.507  1.00 20.00     0.016 C 
HETATM    5  C5  UNL     1     -36.260  15.565  -3.784  1.00 20.00     0.055 C 
HETATM    6  C6  UNL     1     -35.265  16.842  -5.773  1.00 20.00    -0.014 C 
HETATM    7  O12 UNL     1     -37.483  13.617  -4.473  1.00 20.00    -0.298 OA
ENDROOT
BRANCH   5   8
HETATM    8  C9  UNL     1     -34.990  15.168  -3.040  1.00 20.00     0.012 C 
BRANCH   8   9
HETATM    9  C11 UNL     1     -34.445  16.331  -2.219  1.00 20.00    -0.004 C 
HETATM   10  C8  UNL     1     -33.052  16.728  -2.680  1.00 20.00     0.005 C 
ENDBRANCH   8   9
ENDBRANCH   5   8
BRANCH   6  11
HETATM   11  C10 UNL     1     -35.215  18.205  -6.463  1.00 20.00     0.000 C 
HETATM   12  C7  UNL     1     -34.520  19.222  -5.620  1.00 20.00     0.005 C 
ENDBRANCH   6  11
TORSDOF 3
ENDMDL
MODEL 7
REMARK VINA RESULT:      -4.5      2.797      4.671
REMARK  3 active torsions:
REMARK  status: ('A' for Active; 'I' for Inactive)
REMARK    1  A    between atoms: C5_5  and  C9_9 
REMARK    2  A    between atoms: C6_6  and  C10_10 
REMARK    3  A    between atoms: C9_9  and  C11_11 
ROOT
HETATM    1  C1  UNL     1     -32.408  18.619  -2.171  1.00 20.00     0.131 C 
HETATM    2  C2  UNL     1     -31.670  18.441  -0.863  1.00 20.00     0.079 C 
HETATM    3  C3  UNL     1     -32.605  18.649   0.321  1.00 20.00     0.012 C 
HETATM    4  C4  UNL     1     -34.600  18.057  -1.093  1.00 20.00     0.016 C 
HETATM    5  C5  UNL     1     -33.723  17.876  -2.337  1.00 20.00     0.055 C 
HETATM    6  C6  UNL     1     -33.858  17.770   0.222  1.00 20.00    -0.014 C 
HETATM    7  O12 UNL     1     -31.917  19.262  -3.099  1.00 20.00    -0.298 OA
ENDROOT
BRANCH   5   8
HETATM    8  C9  UNL     1     -33.453  16.411  -2.666  1.00 20.00     0.012 C 
BRANCH   8   9
HETATM    9  C11 UNL     1     -34.748  15.607  -2.709  1.00 20.00    -0.004 C 
HETATM   10  C8  UNL     1     -34.678  14.504  -3.753  1.00 20.00     0.005 C 
ENDBRANCH   8   9
ENDBRANCH   5   8
BRANCH   6  11
HETATM   11  C10 UNL     1     -34.776  18.009   1.419  1.00 20.00     0.000 C 
HETATM   12  C7  UNL     1     -36.208  17.776   1.066  1.00 20.00     0.005 C 
ENDBRANCH   6  11
TORSDOF 3
ENDMDL
MODEL 8
REMARK VINA RESULT:      -4.5      2.193      3.566
REMARK  3 active torsions:
REMARK  status: ('A' for Active; 'I' for Inactive)
REMARK    1  A    between atoms: C5_5  and  C9_9 
REMARK    2  A    between atoms: C6_6  and  C10_10 
REMARK    3  A    between atoms: C9_9  and  C11_11 
ROOT
HETATM    1  C1  UNL     1     -33.970  17.872  -4.063  1.00 20.00     0.131 C 
HETATM    2  C2  UNL     1     -32.797  18.820  -3.946  1.00 20.00     0.079 C 
HETATM    3  C3  UNL     1     -32.582  19.242  -2.499  1.00 20.00     0.012 C 
HETATM    4  C4  UNL     1     -33.721  17.154  -1.675  1.00 20.00     0.016 C 
HETATM    5  C5  UNL     1     -34.013  16.692  -3.107  1.00 20.00     0.055 C 
HETATM    6  C6  UNL     1     -32.464  18.032  -1.562  1.00 20.00    -0.014 C 
HETATM    7  O12 UNL     1     -34.805  17.998  -4.960  1.00 20.00    -0.298 OA
ENDROOT
BRANCH   5   8
HETATM    8  C9  UNL     1     -33.059  15.603  -3.585  1.00 20.00     0.012 C 
BRANCH   8   9
HETATM    9  C11 UNL     1     -33.801  14.523  -4.365  1.00 20.00    -0.004 C 
HETATM   10  C8  UNL     1     -35.232  14.372  -3.875  1.00 20.00     0.005 C 
ENDBRANCH   8   9
ENDBRANCH   5   8
BRANCH   6  11
HETATM   11  C10 UNL     1     -32.258  18.490  -0.119  1.00 20.00     0.000 C 
HETATM   12  C7  UNL     1     -30.838  18.325   0.311  1.00 20.00     0.005 C 
ENDBRANCH   6  11
TORSDOF 3
ENDMDL
MODEL 9
REMARK VINA RESULT:      -4.5      2.248      3.148
REMARK  3 active torsions:
REMARK  status: ('A' for Active; 'I' for Inactive)
REMARK    1  A    between atoms: C5_5  and  C9_9 
REMARK    2  A    between atoms: C6_6  and  C10_10 
REMARK    3  A    between atoms: C9_9  and  C11_11 
ROOT
HETATM    1  C1  UNL     1     -35.993  14.345  -5.301  1.00 20.00     0.131 C 
HETATM    2  C2  UNL     1     -35.080  13.729  -4.264  1.00 20.00     0.079 C 
HETATM    3  C3  UNL     1     -34.435  14.804  -3.400  1.00 20.00     0.012 C 
HETATM    4  C4  UNL     1     -36.319  16.396  -3.898  1.00 20.00     0.016 C 
HETATM    5  C5  UNL     1     -36.999  15.377  -4.820  1.00 20.00     0.055 C 
HETATM    6  C6  UNL     1     -35.478  15.746  -2.787  1.00 20.00    -0.014 C 
HETATM    7  O12 UNL     1     -35.986  13.956  -6.469  1.00 20.00    -0.298 OA
ENDROOT
BRANCH   5   8
HETATM    8  C9  UNL     1     -38.184  14.679  -4.161  1.00 20.00     0.012 C 
BRANCH   8   9
HETATM    9  C11 UNL     1     -39.501  15.342  -4.549  1.00 20.00    -0.004 C 
HETATM   10  C8  UNL     1     -40.257  15.827  -3.322  1.00 20.00     0.005 C 
ENDBRANCH   8   9
ENDBRANCH   5   8
BRANCH   6  11
HETATM   11  C10 UNL     1     -34.799  16.816  -1.934  1.00 20.00     0.000 C 
HETATM   12  C7  UNL     1     -33.359  16.973  -2.294  1.00 20.00     0.005 C 
ENDBRANCH   6  11
TORSDOF 3
ENDMDL
