MODEL 1
REMARK VINA RESULT:      -5.5      0.000      0.000
REMARK  4 active torsions:
REMARK  status: ('A' for Active; 'I' for Inactive)
REMARK    1  A    between atoms: C5_5  and  C6_6 
REMARK    2  A    between atoms: C6_6  and  C8_8 
REMARK    3  A    between atoms: C7_7  and  C8_8 
REMARK    4  A    between atoms: C8_8  and  O9_9 
ROOT
HETATM    1  C1  UNL     1     -32.941   8.784   0.327  1.00 20.00     0.012 C 
HETATM    2  C2  UNL     1     -32.571   8.146   1.275  1.00 20.00    -0.117 C 
HETATM    3  C5  UNL     1     -32.114   7.369   2.435  1.00 20.00     0.095 C 
ENDROOT
BRANCH   3   4
HETATM    4  C6  UNL     1     -33.100   6.267   2.823  1.00 20.00     0.044 C 
BRANCH   4   5
HETATM    5  C8  UNL     1     -33.993   6.569   4.039  1.00 20.00     0.122 C 
BRANCH   5   6
HETATM    6  C7  UNL     1     -34.789   5.367   4.595  1.00 20.00     0.006 C 
HETATM    7  C3  UNL     1     -34.271   4.053   3.995  1.00 20.00     0.012 C 
HETATM    8  C4  UNL     1     -34.744   5.273   6.123  1.00 20.00     0.012 C 
ENDBRANCH   5   6
BRANCH   5   9
HETATM    9  O9  UNL     1     -33.158   7.088   5.080  1.00 20.00    -0.395 OA
HETATM   10  H23 UNL     1     -33.453   6.665   5.900  1.00 20.00     0.210 HD
ENDBRANCH   5   9
ENDBRANCH   4   5
ENDBRANCH   3   4
TORSDOF 4
ENDMDL
MODEL 2
REMARK VINA RESULT:      -5.1      1.465      1.732
REMARK  4 active torsions:
REMARK  status: ('A' for Active; 'I' for Inactive)
REMARK    1  A    between atoms: C5_5  and  C6_6 
REMARK    2  A    between atoms: C6_6  and  C8_8 
REMARK    3  A    between atoms: C7_7  and  C8_8 
REMARK    4  A    between atoms: C8_8  and  O9_9 
ROOT
HETATM    1  C1  UNL     1     -32.891   8.794   0.582  1.00 20.00     0.012 C 
HETATM    2  C2  UNL     1     -32.656   7.964   1.418  1.00 20.00    -0.117 C 
HETATM    3  C5  UNL     1     -32.363   6.952   2.442  1.00 20.00     0.095 C 
ENDROOT
BRANCH   3   4
HETATM    4  C6  UNL     1     -33.451   5.881   2.530  1.00 20.00     0.044 C 
BRANCH   4   5
HETATM    5  C8  UNL     1     -33.628   5.224   3.911  1.00 20.00     0.122 C 
BRANCH   5   6
HETATM    6  C7  UNL     1     -34.429   6.051   4.943  1.00 20.00     0.006 C 
HETATM    7  C3  UNL     1     -35.070   5.132   5.990  1.00 20.00     0.012 C 
HETATM    8  C4  UNL     1     -33.577   7.106   5.655  1.00 20.00     0.012 C 
ENDBRANCH   5   6
BRANCH   5   9
HETATM    9  O9  UNL     1     -34.287   3.968   3.719  1.00 20.00    -0.395 OA
HETATM   10  H23 UNL     1     -34.892   4.090   2.974  1.00 20.00     0.210 HD
ENDBRANCH   5   9
ENDBRANCH   4   5
ENDBRANCH   3   4
TORSDOF 4
ENDMDL
MODEL 3
REMARK VINA RESULT:      -4.4     15.686     16.726
REMARK  4 active torsions:
REMARK  status: ('A' for Active; 'I' for Inactive)
REMARK    1  A    between atoms: C5_5  and  C6_6 
REMARK    2  A    between atoms: C6_6  and  C8_8 
REMARK    3  A    between atoms: C7_7  and  C8_8 
REMARK    4  A    between atoms: C8_8  and  O9_9 
ROOT
HETATM    1  C1  UNL     1     -26.528  18.508  12.058  1.00 20.00     0.012 C 
HETATM    2  C2  UNL     1     -25.865  17.506  12.036  1.00 20.00    -0.117 C 
HETATM    3  C5  UNL     1     -25.060  16.278  12.011  1.00 20.00     0.095 C 
ENDROOT
BRANCH   3   4
HETATM    4  C6  UNL     1     -23.652  16.516  11.464  1.00 20.00     0.044 C 
BRANCH   4   5
HETATM    5  C8  UNL     1     -23.575  16.973   9.997  1.00 20.00     0.122 C 
BRANCH   5   6
HETATM    6  C7  UNL     1     -23.032  18.403   9.773  1.00 20.00     0.006 C 
HETATM    7  C3  UNL     1     -21.594  18.357   9.240  1.00 20.00     0.012 C 
HETATM    8  C4  UNL     1     -23.896  19.229   8.816  1.00 20.00     0.012 C 
ENDBRANCH   5   6
BRANCH   5   9
HETATM    9  O9  UNL     1     -22.740  16.049   9.291  1.00 20.00    -0.395 OA
HETATM   10  H23 UNL     1     -22.678  16.379   8.383  1.00 20.00     0.210 HD
ENDBRANCH   5   9
ENDBRANCH   4   5
ENDBRANCH   3   4
TORSDOF 4
ENDMDL
MODEL 4
REMARK VINA RESULT:      -4.3     10.929     11.951
REMARK  4 active torsions:
REMARK  status: ('A' for Active; 'I' for Inactive)
REMARK    1  A    between atoms: C5_5  and  C6_6 
REMARK    2  A    between atoms: C6_6  and  C8_8 
REMARK    3  A    between atoms: C7_7  and  C8_8 
REMARK    4  A    between atoms: C8_8  and  O9_9 
ROOT
HETATM    1  C1  UNL     1     -35.136  16.338  -1.581  1.00 20.00     0.012 C 
HETATM    2  C2  UNL     1     -34.447  15.947  -2.484  1.00 20.00    -0.117 C 
HETATM    3  C5  UNL     1     -33.601  15.474  -3.588  1.00 20.00     0.095 C 
ENDROOT
BRANCH   3   4
HETATM    4  C6  UNL     1     -34.087  14.144  -4.165  1.00 20.00     0.044 C 
BRANCH   4   5
HETATM    5  C8  UNL     1     -35.614  13.972  -4.251  1.00 20.00     0.122 C 
BRANCH   5   6
HETATM    6  C7  UNL     1     -36.282  14.583  -5.504  1.00 20.00     0.006 C 
HETATM    7  C3  UNL     1     -36.995  15.894  -5.151  1.00 20.00     0.012 C 
HETATM    8  C4  UNL     1     -35.292  14.841  -6.644  1.00 20.00     0.012 C 
ENDBRANCH   5   6
BRANCH   5   9
HETATM    9  O9  UNL     1     -35.902  12.571  -4.214  1.00 20.00    -0.395 OA
HETATM   10  H23 UNL     1     -36.834  12.492  -3.964  1.00 20.00     0.210 HD
ENDBRANCH   5   9
ENDBRANCH   4   5
ENDBRANCH   3   4
TORSDOF 4
ENDMDL
MODEL 5
REMARK VINA RESULT:      -4.3     15.780     16.669
REMARK  4 active torsions:
REMARK  status: ('A' for Active; 'I' for Inactive)
REMARK    1  A    between atoms: C5_5  and  C6_6 
REMARK    2  A    between atoms: C6_6  and  C8_8 
REMARK    3  A    between atoms: C7_7  and  C8_8 
REMARK    4  A    between atoms: C8_8  and  O9_9 
ROOT
HETATM    1  C1  UNL     1     -25.346  18.993   7.902  1.00 20.00     0.012 C 
HETATM    2  C2  UNL     1     -24.267  18.904   8.423  1.00 20.00    -0.117 C 
HETATM    3  C5  UNL     1     -22.946  18.801   9.057  1.00 20.00     0.095 C 
ENDROOT
BRANCH   3   4
HETATM    4  C6  UNL     1     -22.839  17.591   9.986  1.00 20.00     0.044 C 
BRANCH   4   5
HETATM    5  C8  UNL     1     -22.948  17.893  11.491  1.00 20.00     0.122 C 
BRANCH   5   6
HETATM    6  C7  UNL     1     -24.238  17.390  12.178  1.00 20.00     0.006 C 
HETATM    7  C3  UNL     1     -25.323  18.474  12.150  1.00 20.00     0.012 C 
HETATM    8  C4  UNL     1     -24.792  16.109  11.547  1.00 20.00     0.012 C 
ENDBRANCH   5   6
BRANCH   5   9
HETATM    9  O9  UNL     1     -21.820  17.301  12.142  1.00 20.00    -0.395 OA
HETATM   10  H23 UNL     1     -21.508  17.951  12.788  1.00 20.00     0.210 HD
ENDBRANCH   5   9
ENDBRANCH   4   5
ENDBRANCH   3   4
TORSDOF 4
ENDMDL
MODEL 6
REMARK VINA RESULT:      -4.2     11.481     12.279
REMARK  4 active torsions:
REMARK  status: ('A' for Active; 'I' for Inactive)
REMARK    1  A    between atoms: C5_5  and  C6_6 
REMARK    2  A    between atoms: C6_6  and  C8_8 
REMARK    3  A    between atoms: C7_7  and  C8_8 
REMARK    4  A    between atoms: C8_8  and  O9_9 
ROOT
HETATM    1  C1  UNL     1     -35.077  16.365  -1.633  1.00 20.00     0.012 C 
HETATM    2  C2  UNL     1     -34.222  16.164  -2.453  1.00 20.00    -0.117 C 
HETATM    3  C5  UNL     1     -33.173  15.923  -3.452  1.00 20.00     0.095 C 
ENDROOT
BRANCH   3   4
HETATM    4  C6  UNL     1     -33.442  14.672  -4.288  1.00 20.00     0.044 C 
BRANCH   4   5
HETATM    5  C8  UNL     1     -34.166  14.907  -5.626  1.00 20.00     0.122 C 
BRANCH   5   6
HETATM    6  C7  UNL     1     -35.688  14.632  -5.616  1.00 20.00     0.006 C 
HETATM    7  C3  UNL     1     -36.053  13.661  -4.486  1.00 20.00     0.012 C 
HETATM    8  C4  UNL     1     -36.525  15.907  -5.473  1.00 20.00     0.012 C 
ENDBRANCH   5   6
BRANCH   5   9
HETATM    9  O9  UNL     1     -33.948  16.268  -6.012  1.00 20.00    -0.395 OA
HETATM   10  H23 UNL     1     -34.241  16.811  -5.267  1.00 20.00     0.210 HD
ENDBRANCH   5   9
ENDBRANCH   4   5
ENDBRANCH   3   4
TORSDOF 4
ENDMDL
MODEL 7
REMARK VINA RESULT:      -4.2      9.370      9.933
REMARK  4 active torsions:
REMARK  status: ('A' for Active; 'I' for Inactive)
REMARK    1  A    between atoms: C5_5  and  C6_6 
REMARK    2  A    between atoms: C6_6  and  C8_8 
REMARK    3  A    between atoms: C7_7  and  C8_8 
REMARK    4  A    between atoms: C8_8  and  O9_9 
ROOT
HETATM    1  C1  UNL     1     -41.227   9.525   0.363  1.00 20.00     0.012 C 
HETATM    2  C2  UNL     1     -42.211   8.839   0.299  1.00 20.00    -0.117 C 
HETATM    3  C5  UNL     1     -43.416   8.003   0.216  1.00 20.00     0.095 C 
ENDROOT
BRANCH   3   4
HETATM    4  C6  UNL     1     -43.361   6.806   1.165  1.00 20.00     0.044 C 
BRANCH   4   5
HETATM    5  C8  UNL     1     -42.964   5.464   0.525  1.00 20.00     0.122 C 
BRANCH   5   6
HETATM    6  C7  UNL     1     -42.461   5.547  -0.934  1.00 20.00     0.006 C 
HETATM    7  C3  UNL     1     -40.928   5.506  -0.980  1.00 20.00     0.012 C 
HETATM    8  C4  UNL     1     -43.020   4.432  -1.824  1.00 20.00     0.012 C 
ENDBRANCH   5   6
BRANCH   5   9
HETATM    9  O9  UNL     1     -41.937   4.879   1.332  1.00 20.00    -0.395 OA
HETATM   10  H23 UNL     1     -41.212   5.520   1.357  1.00 20.00     0.210 HD
ENDBRANCH   5   9
ENDBRANCH   4   5
ENDBRANCH   3   4
TORSDOF 4
ENDMDL
MODEL 8
REMARK VINA RESULT:      -4.2      9.318      9.993
REMARK  4 active torsions:
REMARK  status: ('A' for Active; 'I' for Inactive)
REMARK    1  A    between atoms: C5_5  and  C6_6 
REMARK    2  A    between atoms: C6_6  and  C8_8 
REMARK    3  A    between atoms: C7_7  and  C8_8 
REMARK    4  A    between atoms: C8_8  and  O9_9 
ROOT
HETATM    1  C1  UNL     1     -42.091   2.826  -3.401  1.00 20.00     0.012 C 
HETATM    2  C2  UNL     1     -42.273   3.689  -2.585  1.00 20.00    -0.117 C 
HETATM    3  C5  UNL     1     -42.503   4.743  -1.588  1.00 20.00     0.095 C 
ENDROOT
BRANCH   3   4
HETATM    4  C6  UNL     1     -41.210   5.447  -1.176  1.00 20.00     0.044 C 
BRANCH   4   5
HETATM    5  C8  UNL     1     -41.151   5.932   0.283  1.00 20.00     0.122 C 
BRANCH   5   6
HETATM    6  C7  UNL     1     -41.633   7.381   0.523  1.00 20.00     0.006 C 
HETATM    7  C3  UNL     1     -41.323   8.261  -0.695  1.00 20.00     0.012 C 
HETATM    8  C4  UNL     1     -43.129   7.470   0.839  1.00 20.00     0.012 C 
ENDBRANCH   5   6
BRANCH   5   9
HETATM    9  O9  UNL     1     -41.949   5.046   1.075  1.00 20.00    -0.395 OA
HETATM   10  H23 UNL     1     -42.246   4.344   0.479  1.00 20.00     0.210 HD
ENDBRANCH   5   9
ENDBRANCH   4   5
ENDBRANCH   3   4
TORSDOF 4
ENDMDL
MODEL 9
REMARK VINA RESULT:      -4.1     10.858     12.070
REMARK  4 active torsions:
REMARK  status: ('A' for Active; 'I' for Inactive)
REMARK    1  A    between atoms: C5_5  and  C6_6 
REMARK    2  A    between atoms: C6_6  and  C8_8 
REMARK    3  A    between atoms: C7_7  and  C8_8 
REMARK    4  A    between atoms: C8_8  and  O9_9 
ROOT
HETATM    1  C1  UNL     1     -35.596  14.964  -7.203  1.00 20.00     0.012 C 
HETATM    2  C2  UNL     1     -35.749  14.513  -6.100  1.00 20.00    -0.117 C 
HETATM    3  C5  UNL     1     -35.943  13.960  -4.753  1.00 20.00     0.095 C 
ENDROOT
BRANCH   3   4
HETATM    4  C6  UNL     1     -34.647  13.936  -3.942  1.00 20.00     0.044 C 
BRANCH   4   5
HETATM    5  C8  UNL     1     -33.680  15.106  -4.194  1.00 20.00     0.122 C 
BRANCH   5   6
HETATM    6  C7  UNL     1     -33.475  16.068  -3.002  1.00 20.00     0.006 C 
HETATM    7  C3  UNL     1     -33.122  17.476  -3.499  1.00 20.00     0.012 C 
HETATM    8  C4  UNL     1     -34.697  16.152  -2.083  1.00 20.00     0.012 C 
ENDBRANCH   5   6
BRANCH   5   9
HETATM    9  O9  UNL     1     -32.412  14.557  -4.566  1.00 20.00    -0.395 OA
HETATM   10  H23 UNL     1     -31.828  15.311  -4.730  1.00 20.00     0.210 HD
ENDBRANCH   5   9
ENDBRANCH   4   5
ENDBRANCH   3   4
TORSDOF 4
ENDMDL
