MODEL 1
REMARK VINA RESULT:      -4.6      0.000      0.000
REMARK  4 active torsions:
REMARK  status: ('A' for Active; 'I' for Inactive)
REMARK    1  A    between atoms: C4_4  and  C5_5 
REMARK    2  A    between atoms: C4_4  and  C6_6 
REMARK    3  A    between atoms: C5_5  and  O8_8 
REMARK    4  A    between atoms: C6_6  and  C7_7 
ROOT
HETATM    1  C1  UNL     1     -33.291   5.080   2.311  1.00 20.00     0.011 C 
HETATM    2  C6  UNL     1     -33.028   6.008   3.506  1.00 20.00     0.001 C 
ENDROOT
BRANCH   2   3
HETATM    3  C4  UNL     1     -32.351   7.298   2.996  1.00 20.00     0.032 C 
BRANCH   3   4
HETATM    4  C5  UNL     1     -32.393   7.470   1.482  1.00 20.00     0.167 C 
BRANCH   4   5
HETATM    5  O8  UNL     1     -32.882   8.773   1.185  1.00 20.00    -0.396 OA
HETATM    6  C3  UNL     1     -33.279   8.883  -0.174  1.00 20.00     0.201 C 
ENDBRANCH   4   5
ENDBRANCH   3   4
ENDBRANCH   2   3
BRANCH   2   7
HETATM    7  C7  UNL     1     -34.285   6.270   4.373  1.00 20.00     0.082 C 
HETATM    8  C2  UNL     1     -35.171   5.037   4.537  1.00 20.00     0.027 C 
HETATM    9 CL9  UNL     1     -33.873   6.901   5.999  1.00 20.00    -0.125 Cl
ENDBRANCH   2   7
TORSDOF 4
ENDMDL
MODEL 2
REMARK VINA RESULT:      -4.5      1.201      1.719
REMARK  4 active torsions:
REMARK  status: ('A' for Active; 'I' for Inactive)
REMARK    1  A    between atoms: C4_4  and  C5_5 
REMARK    2  A    between atoms: C4_4  and  C6_6 
REMARK    3  A    between atoms: C5_5  and  O8_8 
REMARK    4  A    between atoms: C6_6  and  C7_7 
ROOT
HETATM    1  C1  UNL     1     -33.263   7.255   5.194  1.00 20.00     0.011 C 
HETATM    2  C6  UNL     1     -33.985   6.590   4.013  1.00 20.00     0.001 C 
ENDROOT
BRANCH   2   3
HETATM    3  C4  UNL     1     -32.964   6.337   2.882  1.00 20.00     0.032 C 
BRANCH   3   4
HETATM    4  C5  UNL     1     -32.268   7.595   2.377  1.00 20.00     0.167 C 
BRANCH   4   5
HETATM    5  O8  UNL     1     -32.587   7.771   1.002  1.00 20.00    -0.396 OA
HETATM    6  C3  UNL     1     -32.932   9.118   0.715  1.00 20.00     0.201 C 
ENDBRANCH   4   5
ENDBRANCH   3   4
ENDBRANCH   2   3
BRANCH   2   7
HETATM    7  C7  UNL     1     -34.790   5.328   4.413  1.00 20.00     0.082 C 
HETATM    8  C2  UNL     1     -34.223   4.040   3.821  1.00 20.00     0.027 C 
HETATM    9 CL9  UNL     1     -34.919   5.136   6.190  1.00 20.00    -0.125 Cl
ENDBRANCH   2   7
TORSDOF 4
ENDMDL
MODEL 3
REMARK VINA RESULT:      -4.3      2.475      4.230
REMARK  4 active torsions:
REMARK  status: ('A' for Active; 'I' for Inactive)
REMARK    1  A    between atoms: C4_4  and  C5_5 
REMARK    2  A    between atoms: C4_4  and  C6_6 
REMARK    3  A    between atoms: C5_5  and  O8_8 
REMARK    4  A    between atoms: C6_6  and  C7_7 
ROOT
HETATM    1  C1  UNL     1     -33.107   4.513   2.448  1.00 20.00     0.011 C 
HETATM    2  C6  UNL     1     -33.502   5.995   2.530  1.00 20.00     0.001 C 
ENDROOT
BRANCH   2   3
HETATM    3  C4  UNL     1     -34.282   6.232   3.841  1.00 20.00     0.032 C 
BRANCH   3   4
HETATM    4  C5  UNL     1     -34.859   4.965   4.463  1.00 20.00     0.167 C 
BRANCH   4   5
HETATM    5  O8  UNL     1     -34.839   5.104   5.879  1.00 20.00    -0.396 OA
HETATM    6  C3  UNL     1     -34.289   6.352   6.273  1.00 20.00     0.201 C 
ENDBRANCH   4   5
ENDBRANCH   3   4
ENDBRANCH   2   3
BRANCH   2   7
HETATM    7  C7  UNL     1     -32.309   6.964   2.334  1.00 20.00     0.082 C 
HETATM    8  C2  UNL     1     -32.588   8.062   1.310  1.00 20.00     0.027 C 
HETATM    9 CL9  UNL     1     -31.794   7.729   3.871  1.00 20.00    -0.125 Cl
ENDBRANCH   2   7
TORSDOF 4
ENDMDL
MODEL 4
REMARK VINA RESULT:      -4.0     10.875     11.493
REMARK  4 active torsions:
REMARK  status: ('A' for Active; 'I' for Inactive)
REMARK    1  A    between atoms: C4_4  and  C5_5 
REMARK    2  A    between atoms: C4_4  and  C6_6 
REMARK    3  A    between atoms: C5_5  and  O8_8 
REMARK    4  A    between atoms: C6_6  and  C7_7 
ROOT
HETATM    1  C1  UNL     1     -35.184  16.292  -1.632  1.00 20.00     0.011 C 
HETATM    2  C6  UNL     1     -34.957  15.436  -2.886  1.00 20.00     0.001 C 
ENDROOT
BRANCH   2   3
HETATM    3  C4  UNL     1     -36.283  15.340  -3.672  1.00 20.00     0.032 C 
BRANCH   3   4
HETATM    4  C5  UNL     1     -36.494  14.008  -4.381  1.00 20.00     0.167 C 
BRANCH   4   5
HETATM    5  O8  UNL     1     -37.889  13.738  -4.439  1.00 20.00    -0.396 OA
HETATM    6  C3  UNL     1     -38.657  14.914  -4.225  1.00 20.00     0.201 C 
ENDBRANCH   4   5
ENDBRANCH   3   4
ENDBRANCH   2   3
BRANCH   2   7
HETATM    7  C7  UNL     1     -33.760  15.908  -3.749  1.00 20.00     0.082 C 
HETATM    8  C2  UNL     1     -32.863  16.915  -3.033  1.00 20.00     0.027 C 
HETATM    9 CL9  UNL     1     -32.749  14.542  -4.319  1.00 20.00    -0.125 Cl
ENDBRANCH   2   7
TORSDOF 4
ENDMDL
MODEL 5
REMARK VINA RESULT:      -4.0     10.445     11.227
REMARK  4 active torsions:
REMARK  status: ('A' for Active; 'I' for Inactive)
REMARK    1  A    between atoms: C4_4  and  C5_5 
REMARK    2  A    between atoms: C4_4  and  C6_6 
REMARK    3  A    between atoms: C5_5  and  O8_8 
REMARK    4  A    between atoms: C6_6  and  C7_7 
ROOT
HETATM    1  C1  UNL     1     -33.126  14.594  -4.587  1.00 20.00     0.011 C 
HETATM    2  C6  UNL     1     -34.294  15.270  -3.855  1.00 20.00     0.001 C 
ENDROOT
BRANCH   2   3
HETATM    3  C4  UNL     1     -35.412  14.229  -3.628  1.00 20.00     0.032 C 
BRANCH   3   4
HETATM    4  C5  UNL     1     -36.245  13.927  -4.868  1.00 20.00     0.167 C 
BRANCH   4   5
HETATM    5  O8  UNL     1     -37.583  13.659  -4.463  1.00 20.00    -0.396 OA
HETATM    6  C3  UNL     1     -38.307  14.859  -4.230  1.00 20.00     0.201 C 
ENDBRANCH   4   5
ENDBRANCH   3   4
ENDBRANCH   2   3
BRANCH   2   7
HETATM    7  C7  UNL     1     -33.869  16.012  -2.563  1.00 20.00     0.082 C 
HETATM    8  C2  UNL     1     -33.065  17.282  -2.836  1.00 20.00     0.027 C 
HETATM    9 CL9  UNL     1     -35.268  16.430  -1.524  1.00 20.00    -0.125 Cl
ENDBRANCH   2   7
TORSDOF 4
ENDMDL
MODEL 6
REMARK VINA RESULT:      -3.6     10.782     11.635
REMARK  4 active torsions:
REMARK  status: ('A' for Active; 'I' for Inactive)
REMARK    1  A    between atoms: C4_4  and  C5_5 
REMARK    2  A    between atoms: C4_4  and  C6_6 
REMARK    3  A    between atoms: C5_5  and  O8_8 
REMARK    4  A    between atoms: C6_6  and  C7_7 
ROOT
HETATM    1  C1  UNL     1     -35.609  15.936  -2.608  1.00 20.00     0.011 C 
HETATM    2  C6  UNL     1     -34.213  15.456  -3.031  1.00 20.00     0.001 C 
ENDROOT
BRANCH   2   3
HETATM    3  C4  UNL     1     -34.365  14.393  -4.141  1.00 20.00     0.032 C 
BRANCH   3   4
HETATM    4  C5  UNL     1     -35.788  13.879  -4.322  1.00 20.00     0.167 C 
BRANCH   4   5
HETATM    5  O8  UNL     1     -36.034  13.701  -5.712  1.00 20.00    -0.396 OA
HETATM    6  C3  UNL     1     -35.454  14.745  -6.482  1.00 20.00     0.201 C 
ENDBRANCH   4   5
ENDBRANCH   3   4
ENDBRANCH   2   3
BRANCH   2   7
HETATM    7  C7  UNL     1     -33.250  16.610  -3.407  1.00 20.00     0.082 C 
HETATM    8  C2  UNL     1     -33.860  17.605  -4.392  1.00 20.00     0.027 C 
HETATM    9 CL9  UNL     1     -32.667  17.508  -1.969  1.00 20.00    -0.125 Cl
ENDBRANCH   2   7
TORSDOF 4
ENDMDL
MODEL 7
REMARK VINA RESULT:      -3.6     10.769     11.446
REMARK  4 active torsions:
REMARK  status: ('A' for Active; 'I' for Inactive)
REMARK    1  A    between atoms: C4_4  and  C5_5 
REMARK    2  A    between atoms: C4_4  and  C6_6 
REMARK    3  A    between atoms: C5_5  and  O8_8 
REMARK    4  A    between atoms: C6_6  and  C7_7 
ROOT
HETATM    1  C1  UNL     1     -36.330  16.426  -3.374  1.00 20.00     0.011 C 
HETATM    2  C6  UNL     1     -35.244  15.463  -2.873  1.00 20.00     0.001 C 
ENDROOT
BRANCH   2   3
HETATM    3  C4  UNL     1     -34.946  14.428  -3.980  1.00 20.00     0.032 C 
BRANCH   3   4
HETATM    4  C5  UNL     1     -36.189  13.805  -4.605  1.00 20.00     0.167 C 
BRANCH   4   5
HETATM    5  O8  UNL     1     -36.012  13.753  -6.016  1.00 20.00    -0.396 OA
HETATM    6  C3  UNL     1     -35.177  14.806  -6.475  1.00 20.00     0.201 C 
ENDBRANCH   4   5
ENDBRANCH   3   4
ENDBRANCH   2   3
BRANCH   2   7
HETATM    7  C7  UNL     1     -33.979  16.180  -2.339  1.00 20.00     0.082 C 
HETATM    8  C2  UNL     1     -33.164  16.859  -3.438  1.00 20.00     0.027 C 
HETATM    9 CL9  UNL     1     -34.364  17.393  -1.077  1.00 20.00    -0.125 Cl
ENDBRANCH   2   7
TORSDOF 4
ENDMDL
MODEL 8
REMARK VINA RESULT:      -3.5     10.843     11.697
REMARK  4 active torsions:
REMARK  status: ('A' for Active; 'I' for Inactive)
REMARK    1  A    between atoms: C4_4  and  C5_5 
REMARK    2  A    between atoms: C4_4  and  C6_6 
REMARK    3  A    between atoms: C5_5  and  O8_8 
REMARK    4  A    between atoms: C6_6  and  C7_7 
ROOT
HETATM    1  C1  UNL     1     -34.133  15.083  -6.562  1.00 20.00     0.011 C 
HETATM    2  C6  UNL     1     -34.882  15.155  -5.223  1.00 20.00     0.001 C 
ENDROOT
BRANCH   2   3
HETATM    3  C4  UNL     1     -36.208  14.375  -5.351  1.00 20.00     0.032 C 
BRANCH   3   4
HETATM    4  C5  UNL     1     -37.079  14.414  -4.101  1.00 20.00     0.167 C 
BRANCH   4   5
HETATM    5  O8  UNL     1     -38.382  13.951  -4.438  1.00 20.00    -0.396 OA
HETATM    6  C3  UNL     1     -39.356  14.972  -4.274  1.00 20.00     0.201 C 
ENDBRANCH   4   5
ENDBRANCH   3   4
ENDBRANCH   2   3
BRANCH   2   7
HETATM    7  C7  UNL     1     -34.022  14.721  -4.010  1.00 20.00     0.082 C 
HETATM    8  C2  UNL     1     -32.553  14.499  -4.362  1.00 20.00     0.027 C 
HETATM    9 CL9  UNL     1     -34.118  15.888  -2.653  1.00 20.00    -0.125 Cl
ENDBRANCH   2   7
TORSDOF 4
ENDMDL
MODEL 9
REMARK VINA RESULT:      -3.4     10.636     11.171
REMARK  4 active torsions:
REMARK  status: ('A' for Active; 'I' for Inactive)
REMARK    1  A    between atoms: C4_4  and  C5_5 
REMARK    2  A    between atoms: C4_4  and  C6_6 
REMARK    3  A    between atoms: C5_5  and  O8_8 
REMARK    4  A    between atoms: C6_6  and  C7_7 
ROOT
HETATM    1  C1  UNL     1     -33.092  16.844  -2.594  1.00 20.00     0.011 C 
HETATM    2  C6  UNL     1     -34.595  16.774  -2.286  1.00 20.00     0.001 C 
ENDROOT
BRANCH   2   3
HETATM    3  C4  UNL     1     -35.126  15.386  -2.703  1.00 20.00     0.032 C 
BRANCH   3   4
HETATM    4  C5  UNL     1     -34.327  14.720  -3.817  1.00 20.00     0.167 C 
BRANCH   4   5
HETATM    5  O8  UNL     1     -34.922  13.462  -4.115  1.00 20.00    -0.396 OA
HETATM    6  C3  UNL     1     -36.230  13.617  -4.646  1.00 20.00     0.201 C 
ENDBRANCH   4   5
ENDBRANCH   3   4
ENDBRANCH   2   3
BRANCH   2   7
HETATM    7  C7  UNL     1     -34.945  17.158  -0.826  1.00 20.00     0.082 C 
HETATM    8  C2  UNL     1     -33.945  18.130  -0.203  1.00 20.00     0.027 C 
HETATM    9 CL9  UNL     1     -36.590  17.853  -0.679  1.00 20.00    -0.125 Cl
ENDBRANCH   2   7
TORSDOF 4
ENDMDL
