MODEL 1
REMARK VINA RESULT:      -4.5      0.000      0.000
REMARK  4 active torsions:
REMARK  status: ('A' for Active; 'I' for Inactive)
REMARK    1  A    between atoms: C5_5  and  C9_9 
REMARK    2  A    between atoms: C6_6  and  C10_10 
REMARK    3  A    between atoms: C9_9  and  C12_12 
REMARK    4  A    between atoms: C11_11  and  C12_12 
ROOT
HETATM    1  C1  UNL     1     -33.335   4.767   2.704  1.00 20.00     0.131 C 
HETATM    2  C2  UNL     1     -34.002   3.946   3.786  1.00 20.00     0.079 C 
HETATM    3  C3  UNL     1     -35.224   4.671   4.334  1.00 20.00     0.012 C 
HETATM    4  C4  UNL     1     -34.274   6.894   3.621  1.00 20.00     0.016 C 
HETATM    5  C5  UNL     1     -33.020   6.217   3.057  1.00 20.00     0.056 C 
HETATM    6  C6  UNL     1     -34.925   6.112   4.774  1.00 20.00    -0.014 C 
HETATM    7  O13 UNL     1     -32.989   4.251   1.642  1.00 20.00    -0.298 OA
ENDROOT
BRANCH   5   8
HETATM    8  C9  UNL     1     -32.494   6.988   1.849  1.00 20.00     0.012 C 
BRANCH   8   9
HETATM    9  C12 UNL     1     -32.594   8.495   2.067  1.00 20.00     0.000 C 
BRANCH   9  10
HETATM   10  C11 UNL     1     -32.934   9.218   0.764  1.00 20.00    -0.005 C 
HETATM   11  C8  UNL     1     -33.258   8.236  -0.351  1.00 20.00     0.005 C 
ENDBRANCH   9  10
ENDBRANCH   8   9
ENDBRANCH   5   8
BRANCH   6  12
HETATM   12  C10 UNL     1     -34.082   6.160   6.050  1.00 20.00     0.000 C 
HETATM   13  C7  UNL     1     -33.561   7.533   6.311  1.00 20.00     0.005 C 
ENDBRANCH   6  12
TORSDOF 4
ENDMDL
MODEL 2
REMARK VINA RESULT:      -4.5     11.281     12.679
REMARK  4 active torsions:
REMARK  status: ('A' for Active; 'I' for Inactive)
REMARK    1  A    between atoms: C5_5  and  C9_9 
REMARK    2  A    between atoms: C6_6  and  C10_10 
REMARK    3  A    between atoms: C9_9  and  C12_12 
REMARK    4  A    between atoms: C11_11  and  C12_12 
ROOT
HETATM    1  C1  UNL     1     -34.786  17.155  -0.916  1.00 20.00     0.131 C 
HETATM    2  C2  UNL     1     -35.513  16.321  -1.948  1.00 20.00     0.079 C 
HETATM    3  C3  UNL     1     -34.521  15.562  -2.819  1.00 20.00     0.012 C 
HETATM    4  C4  UNL     1     -32.726  17.261  -2.327  1.00 20.00     0.016 C 
HETATM    5  C5  UNL     1     -33.683  18.068  -1.443  1.00 20.00     0.056 C 
HETATM    6  C6  UNL     1     -33.439  16.464  -3.432  1.00 20.00    -0.014 C 
HETATM    7  O13 UNL     1     -35.143  17.154   0.262  1.00 20.00    -0.298 OA
ENDROOT
BRANCH   5   8
HETATM    8  C9  UNL     1     -32.920  18.741  -0.304  1.00 20.00     0.012 C 
BRANCH   8   9
HETATM    9  C12 UNL     1     -31.416  18.520  -0.439  1.00 20.00     0.000 C 
BRANCH   9  10
HETATM   10  C11 UNL     1     -30.784  18.196   0.915  1.00 20.00    -0.005 C 
HETATM   11  C8  UNL     1     -31.816  18.216   2.031  1.00 20.00     0.005 C 
ENDBRANCH   9  10
ENDBRANCH   8   9
ENDBRANCH   5   8
BRANCH   6  12
HETATM   12  C10 UNL     1     -34.002  17.373  -4.526  1.00 20.00     0.000 C 
HETATM   13  C7  UNL     1     -34.651  16.586  -5.613  1.00 20.00     0.005 C 
ENDBRANCH   6  12
TORSDOF 4
ENDMDL
MODEL 3
REMARK VINA RESULT:      -4.5     11.212     12.703
REMARK  4 active torsions:
REMARK  status: ('A' for Active; 'I' for Inactive)
REMARK    1  A    between atoms: C5_5  and  C9_9 
REMARK    2  A    between atoms: C6_6  and  C10_10 
REMARK    3  A    between atoms: C9_9  and  C12_12 
REMARK    4  A    between atoms: C11_11  and  C12_12 
ROOT
HETATM    1  C1  UNL     1     -33.718  17.773  -4.009  1.00 20.00     0.131 C 
HETATM    2  C2  UNL     1     -34.688  17.161  -4.996  1.00 20.00     0.079 C 
HETATM    3  C3  UNL     1     -35.882  16.556  -4.270  1.00 20.00     0.012 C 
HETATM    4  C4  UNL     1     -34.519  16.284  -2.167  1.00 20.00     0.016 C 
HETATM    5  C5  UNL     1     -33.283  16.882  -2.850  1.00 20.00     0.056 C 
HETATM    6  C6  UNL     1     -35.481  15.590  -3.145  1.00 20.00    -0.014 C 
HETATM    7  O13 UNL     1     -33.247  18.894  -4.199  1.00 20.00    -0.298 OA
ENDROOT
BRANCH   5   8
HETATM    8  C9  UNL     1     -32.432  17.648  -1.840  1.00 20.00     0.012 C 
BRANCH   8   9
HETATM    9  C12 UNL     1     -33.282  18.172  -0.685  1.00 20.00     0.000 C 
BRANCH   9  10
HETATM   10  C11 UNL     1     -32.415  18.508   0.528  1.00 20.00    -0.005 C 
HETATM   11  C8  UNL     1     -30.935  18.347   0.217  1.00 20.00     0.005 C 
ENDBRANCH   9  10
ENDBRANCH   8   9
ENDBRANCH   5   8
BRANCH   6  12
HETATM   12  C10 UNL     1     -34.903  14.282  -3.691  1.00 20.00     0.000 C 
HETATM   13  C7  UNL     1     -35.910  13.532  -4.497  1.00 20.00     0.005 C 
ENDBRANCH   6  12
TORSDOF 4
ENDMDL
MODEL 4
REMARK VINA RESULT:      -4.4     15.180     16.105
REMARK  4 active torsions:
REMARK  status: ('A' for Active; 'I' for Inactive)
REMARK    1  A    between atoms: C5_5  and  C9_9 
REMARK    2  A    between atoms: C6_6  and  C10_10 
REMARK    3  A    between atoms: C9_9  and  C12_12 
REMARK    4  A    between atoms: C11_11  and  C12_12 
ROOT
HETATM    1  C1  UNL     1     -22.740  17.872   8.208  1.00 20.00     0.131 C 
HETATM    2  C2  UNL     1     -22.347  17.247   9.528  1.00 20.00     0.079 C 
HETATM    3  C3  UNL     1     -23.554  16.603  10.197  1.00 20.00     0.012 C 
HETATM    4  C4  UNL     1     -25.117  18.128   8.938  1.00 20.00     0.016 C 
HETATM    5  C5  UNL     1     -23.939  18.815   8.239  1.00 20.00     0.056 C 
HETATM    6  C6  UNL     1     -24.757  17.550  10.317  1.00 20.00    -0.014 C 
HETATM    7  O13 UNL     1     -22.062  17.692   7.197  1.00 20.00    -0.298 OA
ENDROOT
BRANCH   5   8
HETATM    8  C9  UNL     1     -24.338  19.263   6.835  1.00 20.00     0.012 C 
BRANCH   8   9
HETATM    9  C12 UNL     1     -25.850  19.189   6.638  1.00 20.00     0.000 C 
BRANCH   9  10
HETATM   10  C11 UNL     1     -26.209  19.109   5.155  1.00 20.00    -0.005 C 
HETATM   11  C8  UNL     1     -24.977  19.254   4.274  1.00 20.00     0.005 C 
ENDBRANCH   9  10
ENDBRANCH   8   9
ENDBRANCH   5   8
BRANCH   6  12
HETATM   12  C10 UNL     1     -24.522  18.648  11.357  1.00 20.00     0.000 C 
HETATM   13  C7  UNL     1     -25.733  18.876  12.197  1.00 20.00     0.005 C 
ENDBRANCH   6  12
TORSDOF 4
ENDMDL
MODEL 5
REMARK VINA RESULT:      -4.4     10.979     12.381
REMARK  4 active torsions:
REMARK  status: ('A' for Active; 'I' for Inactive)
REMARK    1  A    between atoms: C5_5  and  C9_9 
REMARK    2  A    between atoms: C6_6  and  C10_10 
REMARK    3  A    between atoms: C9_9  and  C12_12 
REMARK    4  A    between atoms: C11_11  and  C12_12 
ROOT
HETATM    1  C1  UNL     1     -34.451  17.283  -1.267  1.00 20.00     0.131 C 
HETATM    2  C2  UNL     1     -34.132  17.873   0.089  1.00 20.00     0.079 C 
HETATM    3  C3  UNL     1     -33.334  19.162  -0.060  1.00 20.00     0.012 C 
HETATM    4  C4  UNL     1     -32.494  18.427  -2.321  1.00 20.00     0.016 C 
HETATM    5  C5  UNL     1     -33.273  17.111  -2.221  1.00 20.00     0.056 C 
HETATM    6  C6  UNL     1     -32.094  19.006  -0.954  1.00 20.00    -0.014 C 
HETATM    7  O13 UNL     1     -35.585  16.884  -1.531  1.00 20.00    -0.298 OA
ENDROOT
BRANCH   5   8
HETATM    8  C9  UNL     1     -33.733  16.655  -3.604  1.00 20.00     0.012 C 
BRANCH   8   9
HETATM    9  C12 UNL     1     -33.290  15.223  -3.890  1.00 20.00     0.000 C 
BRANCH   9  10
HETATM   10  C11 UNL     1     -34.473  14.258  -3.829  1.00 20.00    -0.005 C 
HETATM   11  C8  UNL     1     -35.726  14.872  -4.433  1.00 20.00     0.005 C 
ENDBRANCH   9  10
ENDBRANCH   8   9
ENDBRANCH   5   8
BRANCH   6  12
HETATM   12  C10 UNL     1     -31.000  18.178  -0.277  1.00 20.00     0.000 C 
HETATM   13  C7  UNL     1     -30.643  18.731   1.062  1.00 20.00     0.005 C 
ENDBRANCH   6  12
TORSDOF 4
ENDMDL
MODEL 6
REMARK VINA RESULT:      -4.3     11.346     12.746
REMARK  4 active torsions:
REMARK  status: ('A' for Active; 'I' for Inactive)
REMARK    1  A    between atoms: C5_5  and  C9_9 
REMARK    2  A    between atoms: C6_6  and  C10_10 
REMARK    3  A    between atoms: C9_9  and  C12_12 
REMARK    4  A    between atoms: C11_11  and  C12_12 
ROOT
HETATM    1  C1  UNL     1     -35.349  17.601  -2.994  1.00 20.00     0.131 C 
HETATM    2  C2  UNL     1     -34.973  18.991  -2.528  1.00 20.00     0.079 C 
HETATM    3  C3  UNL     1     -33.497  19.263  -2.787  1.00 20.00     0.012 C 
HETATM    4  C4  UNL     1     -32.995  16.793  -2.759  1.00 20.00     0.016 C 
HETATM    5  C5  UNL     1     -34.467  16.461  -2.493  1.00 20.00     0.056 C 
HETATM    6  C6  UNL     1     -32.573  18.172  -2.225  1.00 20.00    -0.014 C 
HETATM    7  O13 UNL     1     -36.365  17.412  -3.661  1.00 20.00    -0.298 OA
ENDROOT
BRANCH   5   8
HETATM    8  C9  UNL     1     -34.843  15.132  -3.145  1.00 20.00     0.012 C 
BRANCH   8   9
HETATM    9  C12 UNL     1     -33.796  14.703  -4.170  1.00 20.00     0.000 C 
BRANCH   9  10
HETATM   10  C11 UNL     1     -34.274  14.979  -5.595  1.00 20.00    -0.005 C 
HETATM   11  C8  UNL     1     -35.706  14.509  -5.803  1.00 20.00     0.005 C 
ENDBRANCH   9  10
ENDBRANCH   8   9
ENDBRANCH   5   8
BRANCH   6  12
HETATM   12  C10 UNL     1     -32.511  18.203  -0.697  1.00 20.00     0.000 C 
HETATM   13  C7  UNL     1     -31.117  18.412  -0.209  1.00 20.00     0.005 C 
ENDBRANCH   6  12
TORSDOF 4
ENDMDL
MODEL 7
REMARK VINA RESULT:      -4.3     11.163     12.417
REMARK  4 active torsions:
REMARK  status: ('A' for Active; 'I' for Inactive)
REMARK    1  A    between atoms: C5_5  and  C9_9 
REMARK    2  A    between atoms: C6_6  and  C10_10 
REMARK    3  A    between atoms: C9_9  and  C12_12 
REMARK    4  A    between atoms: C11_11  and  C12_12 
ROOT
HETATM    1  C1  UNL     1     -35.372  14.605  -5.579  1.00 20.00     0.131 C 
HETATM    2  C2  UNL     1     -33.899  14.892  -5.771  1.00 20.00     0.079 C 
HETATM    3  C3  UNL     1     -33.134  14.658  -4.475  1.00 20.00     0.012 C 
HETATM    4  C4  UNL     1     -35.226  15.041  -3.122  1.00 20.00     0.016 C 
HETATM    5  C5  UNL     1     -36.044  15.291  -4.394  1.00 20.00     0.056 C 
HETATM    6  C6  UNL     1     -33.738  15.399  -3.273  1.00 20.00    -0.014 C 
HETATM    7  O13 UNL     1     -35.995  13.930  -6.398  1.00 20.00    -0.298 OA
ENDROOT
BRANCH   5   8
HETATM    8  C9  UNL     1     -37.482  14.811  -4.208  1.00 20.00     0.012 C 
BRANCH   8   9
HETATM    9  C12 UNL     1     -38.478  15.943  -4.441  1.00 20.00     0.000 C 
BRANCH   9  10
HETATM   10  C11 UNL     1     -37.850  17.302  -4.134  1.00 20.00    -0.005 C 
HETATM   11  C8  UNL     1     -38.170  17.758  -2.719  1.00 20.00     0.005 C 
ENDBRANCH   9  10
ENDBRANCH   8   9
ENDBRANCH   5   8
BRANCH   6  12
HETATM   12  C10 UNL     1     -33.515  16.910  -3.359  1.00 20.00     0.000 C 
HETATM   13  C7  UNL     1     -33.142  17.485  -2.034  1.00 20.00     0.005 C 
ENDBRANCH   6  12
TORSDOF 4
ENDMDL
MODEL 8
REMARK VINA RESULT:      -4.3     11.155     12.424
REMARK  4 active torsions:
REMARK  status: ('A' for Active; 'I' for Inactive)
REMARK    1  A    between atoms: C5_5  and  C9_9 
REMARK    2  A    between atoms: C6_6  and  C10_10 
REMARK    3  A    between atoms: C9_9  and  C12_12 
REMARK    4  A    between atoms: C11_11  and  C12_12 
ROOT
HETATM    1  C1  UNL     1     -35.409  14.603  -5.596  1.00 20.00     0.131 C 
HETATM    2  C2  UNL     1     -33.945  14.945  -5.761  1.00 20.00     0.079 C 
HETATM    3  C3  UNL     1     -33.190  14.717  -4.458  1.00 20.00     0.012 C 
HETATM    4  C4  UNL     1     -35.314  15.004  -3.130  1.00 20.00     0.016 C 
HETATM    5  C5  UNL     1     -36.122  15.245  -4.410  1.00 20.00     0.056 C 
HETATM    6  C6  UNL     1     -33.838  15.416  -3.253  1.00 20.00    -0.014 C 
HETATM    7  O13 UNL     1     -35.996  13.919  -6.434  1.00 20.00    -0.298 OA
ENDROOT
BRANCH   5   8
HETATM    8  C9  UNL     1     -37.544  14.712  -4.253  1.00 20.00     0.012 C 
BRANCH   8   9
HETATM    9  C12 UNL     1     -38.578  15.796  -4.547  1.00 20.00     0.000 C 
BRANCH   9  10
HETATM   10  C11 UNL     1     -39.919  15.471  -3.890  1.00 20.00    -0.005 C 
HETATM   11  C8  UNL     1     -40.929  14.960  -4.906  1.00 20.00     0.005 C 
ENDBRANCH   9  10
ENDBRANCH   8   9
ENDBRANCH   5   8
BRANCH   6  12
HETATM   12  C10 UNL     1     -33.668  16.936  -3.312  1.00 20.00     0.000 C 
HETATM   13  C7  UNL     1     -32.994  17.460  -2.089  1.00 20.00     0.005 C 
ENDBRANCH   6  12
TORSDOF 4
ENDMDL
MODEL 9
REMARK VINA RESULT:      -4.2      9.653     10.605
REMARK  4 active torsions:
REMARK  status: ('A' for Active; 'I' for Inactive)
REMARK    1  A    between atoms: C5_5  and  C9_9 
REMARK    2  A    between atoms: C6_6  and  C10_10 
REMARK    3  A    between atoms: C9_9  and  C12_12 
REMARK    4  A    between atoms: C11_11  and  C12_12 
ROOT
HETATM    1  C1  UNL     1     -43.038   5.103   0.287  1.00 20.00     0.131 C 
HETATM    2  C2  UNL     1     -42.782   6.208   1.289  1.00 20.00     0.079 C 
HETATM    3  C3  UNL     1     -43.417   7.512   0.824  1.00 20.00     0.012 C 
HETATM    4  C4  UNL     1     -43.335   6.743  -1.576  1.00 20.00     0.016 C 
HETATM    5  C5  UNL     1     -42.689   5.415  -1.164  1.00 20.00     0.056 C 
HETATM    6  C6  UNL     1     -43.024   7.899  -0.610  1.00 20.00    -0.014 C 
HETATM    7  O13 UNL     1     -43.417   3.992   0.656  1.00 20.00    -0.298 OA
ENDROOT
BRANCH   5   8
HETATM    8  C9  UNL     1     -43.130   4.293  -2.102  1.00 20.00     0.012 C 
BRANCH   8   9
HETATM    9  C12 UNL     1     -41.930   3.519  -2.641  1.00 20.00     0.000 C 
BRANCH   9  10
HETATM   10  C11 UNL     1     -42.374   2.404  -3.586  1.00 20.00    -0.005 C 
HETATM   11  C8  UNL     1     -41.918   2.666  -5.013  1.00 20.00     0.005 C 
ENDBRANCH   9  10
ENDBRANCH   8   9
ENDBRANCH   5   8
BRANCH   6  12
HETATM   12  C10 UNL     1     -41.565   8.350  -0.703  1.00 20.00     0.000 C 
HETATM   13  C7  UNL     1     -41.250   9.399   0.310  1.00 20.00     0.005 C 
ENDBRANCH   6  12
TORSDOF 4
ENDMDL
