MODEL 1
REMARK VINA RESULT:      -5.3      0.000      0.000
REMARK  0 active torsions:
REMARK  status: ('A' for Active; 'I' for Inactive)
ROOT
HETATM    1  C1  UNL     1     -34.296  16.714  -1.638  1.00 20.00    -0.030 C 
HETATM    2  C2  UNL     1     -33.249  17.006  -2.415  1.00 20.00    -0.030 C 
HETATM    3  C3  UNL     1     -35.523  13.804  -4.249  1.00 20.00     0.128 C 
HETATM    4  C4  UNL     1     -35.543  16.069  -2.149  1.00 20.00     0.037 C 
HETATM    5  C5  UNL     1     -33.209  16.740  -3.886  1.00 20.00     0.037 C 
HETATM    6  C6  UNL     1     -36.571  14.886  -4.122  1.00 20.00     0.088 C 
HETATM    7  C7  UNL     1     -34.116  14.357  -4.228  1.00 20.00     0.088 C 
HETATM    8  C8  UNL     1     -35.718  16.104  -3.702  1.00 20.00    -0.026 C 
HETATM    9  C9  UNL     1     -34.359  15.870  -4.447  1.00 20.00    -0.026 C 
HETATM   10  C10 UNL     1     -36.415  17.415  -4.099  1.00 20.00     0.016 C 
HETATM   11  C11 UNL     1     -34.429  16.129  -5.973  1.00 20.00     0.016 C 
HETATM   12  O12 UNL     1     -35.784  12.612  -4.354  1.00 20.00    -0.298 OA
ENDROOT
TORSDOF 0
ENDMDL
MODEL 2
REMARK VINA RESULT:      -5.2      1.191      1.335
REMARK  0 active torsions:
REMARK  status: ('A' for Active; 'I' for Inactive)
ROOT
HETATM    1  C1  UNL     1     -34.502  16.895  -2.240  1.00 20.00    -0.030 C 
HETATM    2  C2  UNL     1     -33.411  16.248  -2.663  1.00 20.00    -0.030 C 
HETATM    3  C3  UNL     1     -36.914  14.443  -4.469  1.00 20.00     0.128 C 
HETATM    4  C4  UNL     1     -35.789  16.916  -3.000  1.00 20.00     0.037 C 
HETATM    5  C5  UNL     1     -33.344  15.488  -3.948  1.00 20.00     0.037 C 
HETATM    6  C6  UNL     1     -37.045  15.879  -4.922  1.00 20.00     0.088 C 
HETATM    7  C7  UNL     1     -35.495  14.084  -4.087  1.00 20.00     0.088 C 
HETATM    8  C8  UNL     1     -35.683  16.471  -4.494  1.00 20.00    -0.026 C 
HETATM    9  C9  UNL     1     -34.692  15.270  -4.676  1.00 20.00    -0.026 C 
HETATM   10  C10 UNL     1     -35.329  17.692  -5.358  1.00 20.00     0.016 C 
HETATM   11  C11 UNL     1     -34.369  14.943  -6.155  1.00 20.00     0.016 C 
HETATM   12  O12 UNL     1     -37.853  13.658  -4.412  1.00 20.00    -0.298 OA
ENDROOT
TORSDOF 0
ENDMDL
MODEL 3
REMARK VINA RESULT:      -5.2      1.379      3.138
REMARK  0 active torsions:
REMARK  status: ('A' for Active; 'I' for Inactive)
ROOT
HETATM    1  C1  UNL     1     -34.435  16.548  -6.633  1.00 20.00    -0.030 C 
HETATM    2  C2  UNL     1     -34.434  17.552  -5.751  1.00 20.00    -0.030 C 
HETATM    3  C3  UNL     1     -37.034  14.401  -4.303  1.00 20.00     0.128 C 
HETATM    4  C4  UNL     1     -34.770  15.137  -6.270  1.00 20.00     0.037 C 
HETATM    5  C5  UNL     1     -34.748  17.380  -4.299  1.00 20.00     0.037 C 
HETATM    6  C6  UNL     1     -35.725  13.663  -4.463  1.00 20.00     0.088 C 
HETATM    7  C7  UNL     1     -36.844  15.895  -4.170  1.00 20.00     0.088 C 
HETATM    8  C8  UNL     1     -34.741  14.823  -4.740  1.00 20.00    -0.026 C 
HETATM    9  C9  UNL     1     -35.325  16.004  -3.891  1.00 20.00    -0.026 C 
HETATM   10  C10 UNL     1     -33.312  14.428  -4.335  1.00 20.00     0.016 C 
HETATM   11  C11 UNL     1     -35.105  15.847  -2.365  1.00 20.00     0.016 C 
HETATM   12  O12 UNL     1     -38.128  13.850  -4.288  1.00 20.00    -0.298 OA
ENDROOT
TORSDOF 0
ENDMDL
MODEL 4
REMARK VINA RESULT:      -4.8      1.193      1.698
REMARK  0 active torsions:
REMARK  status: ('A' for Active; 'I' for Inactive)
ROOT
HETATM    1  C1  UNL     1     -35.218  17.960  -2.678  1.00 20.00    -0.030 C 
HETATM    2  C2  UNL     1     -34.109  17.362  -2.234  1.00 20.00    -0.030 C 
HETATM    3  C3  UNL     1     -36.485  14.481  -4.434  1.00 20.00     0.128 C 
HETATM    4  C4  UNL     1     -35.996  17.476  -3.859  1.00 20.00     0.037 C 
HETATM    5  C5  UNL     1     -33.505  16.153  -2.875  1.00 20.00     0.037 C 
HETATM    6  C6  UNL     1     -36.281  15.560  -5.471  1.00 20.00     0.088 C 
HETATM    7  C7  UNL     1     -35.440  14.524  -3.341  1.00 20.00     0.088 C 
HETATM    8  C8  UNL     1     -35.237  16.468  -4.782  1.00 20.00    -0.026 C 
HETATM    9  C9  UNL     1     -34.369  15.459  -3.954  1.00 20.00    -0.026 C 
HETATM   10  C10 UNL     1     -34.430  17.254  -5.827  1.00 20.00     0.016 C 
HETATM   11  C11 UNL     1     -33.417  14.596  -4.820  1.00 20.00     0.016 C 
HETATM   12  O12 UNL     1     -37.397  13.664  -4.471  1.00 20.00    -0.298 OA
ENDROOT
TORSDOF 0
ENDMDL
MODEL 5
REMARK VINA RESULT:      -4.7      1.480      2.564
REMARK  0 active torsions:
REMARK  status: ('A' for Active; 'I' for Inactive)
ROOT
HETATM    1  C1  UNL     1     -34.547  17.828  -4.930  1.00 20.00    -0.030 C 
HETATM    2  C2  UNL     1     -33.717  17.473  -3.944  1.00 20.00    -0.030 C 
HETATM    3  C3  UNL     1     -36.622  14.315  -4.550  1.00 20.00     0.128 C 
HETATM    4  C4  UNL     1     -35.315  16.842  -5.750  1.00 20.00     0.037 C 
HETATM    5  C5  UNL     1     -33.445  16.054  -3.559  1.00 20.00     0.037 C 
HETATM    6  C6  UNL     1     -36.004  14.425  -5.924  1.00 20.00     0.088 C 
HETATM    7  C7  UNL     1     -35.724  14.867  -3.466  1.00 20.00     0.088 C 
HETATM    8  C8  UNL     1     -34.808  15.367  -5.658  1.00 20.00    -0.026 C 
HETATM    9  C9  UNL     1     -34.368  14.991  -4.201  1.00 20.00    -0.026 C 
HETATM   10  C10 UNL     1     -33.704  15.149  -6.705  1.00 20.00     0.016 C 
HETATM   11  C11 UNL     1     -33.640  13.628  -4.099  1.00 20.00     0.016 C 
HETATM   12  O12 UNL     1     -37.730  13.835  -4.338  1.00 20.00    -0.298 OA
ENDROOT
TORSDOF 0
ENDMDL
MODEL 6
REMARK VINA RESULT:      -4.7      1.248      2.150
REMARK  0 active torsions:
REMARK  status: ('A' for Active; 'I' for Inactive)
ROOT
HETATM    1  C1  UNL     1     -36.542  17.516  -2.669  1.00 20.00    -0.030 C 
HETATM    2  C2  UNL     1     -35.713  16.975  -1.770  1.00 20.00    -0.030 C 
HETATM    3  C3  UNL     1     -35.556  14.645  -5.422  1.00 20.00     0.128 C 
HETATM    4  C4  UNL     1     -36.388  17.331  -4.144  1.00 20.00     0.037 C 
HETATM    5  C5  UNL     1     -34.527  16.140  -2.134  1.00 20.00     0.037 C 
HETATM    6  C6  UNL     1     -35.178  16.020  -5.923  1.00 20.00     0.088 C 
HETATM    7  C7  UNL     1     -35.317  14.485  -3.937  1.00 20.00     0.088 C 
HETATM    8  C8  UNL     1     -34.992  16.798  -4.601  1.00 20.00    -0.026 C 
HETATM    9  C9  UNL     1     -34.431  15.714  -3.618  1.00 20.00    -0.026 C 
HETATM   10  C10 UNL     1     -34.042  17.989  -4.804  1.00 20.00     0.016 C 
HETATM   11  C11 UNL     1     -32.956  15.325  -3.890  1.00 20.00     0.016 C 
HETATM   12  O12 UNL     1     -36.010  13.760  -6.137  1.00 20.00    -0.298 OA
ENDROOT
TORSDOF 0
ENDMDL
MODEL 7
REMARK VINA RESULT:      -4.6      0.650      2.995
REMARK  0 active torsions:
REMARK  status: ('A' for Active; 'I' for Inactive)
ROOT
HETATM    1  C1  UNL     1     -35.284  17.564  -5.961  1.00 20.00    -0.030 C 
HETATM    2  C2  UNL     1     -36.070  18.085  -5.013  1.00 20.00    -0.030 C 
HETATM    3  C3  UNL     1     -35.428  13.882  -4.168  1.00 20.00     0.128 C 
HETATM    4  C4  UNL     1     -34.446  16.344  -5.753  1.00 20.00     0.037 C 
HETATM    5  C5  UNL     1     -36.190  17.521  -3.634  1.00 20.00     0.037 C 
HETATM    6  C6  UNL     1     -34.010  14.404  -4.206  1.00 20.00     0.088 C 
HETATM    7  C7  UNL     1     -36.438  14.974  -3.898  1.00 20.00     0.088 C 
HETATM    8  C8  UNL     1     -34.237  15.931  -4.260  1.00 20.00    -0.026 C 
HETATM    9  C9  UNL     1     -35.538  16.135  -3.411  1.00 20.00    -0.026 C 
HETATM   10  C10 UNL     1     -33.017  16.679  -3.699  1.00 20.00     0.016 C 
HETATM   11  C11 UNL     1     -35.322  15.969  -1.886  1.00 20.00     0.016 C 
HETATM   12  O12 UNL     1     -35.726  12.706  -4.340  1.00 20.00    -0.298 OA
ENDROOT
TORSDOF 0
ENDMDL
MODEL 8
REMARK VINA RESULT:      -4.5      1.485      2.453
REMARK  0 active torsions:
REMARK  status: ('A' for Active; 'I' for Inactive)
ROOT
HETATM    1  C1  UNL     1     -32.660  18.155  -2.672  1.00 20.00    -0.030 C 
HETATM    2  C2  UNL     1     -33.513  19.055  -3.170  1.00 20.00    -0.030 C 
HETATM    3  C3  UNL     1     -34.252  15.217  -5.043  1.00 20.00     0.128 C 
HETATM    4  C4  UNL     1     -32.925  16.685  -2.671  1.00 20.00     0.037 C 
HETATM    5  C5  UNL     1     -34.838  18.700  -3.767  1.00 20.00     0.037 C 
HETATM    6  C6  UNL     1     -34.430  14.879  -3.581  1.00 20.00     0.088 C 
HETATM    7  C7  UNL     1     -34.430  16.692  -5.322  1.00 20.00     0.088 C 
HETATM    8  C8  UNL     1     -34.413  16.281  -2.929  1.00 20.00    -0.026 C 
HETATM    9  C9  UNL     1     -35.086  17.192  -4.012  1.00 20.00    -0.026 C 
HETATM   10  C10 UNL     1     -35.167  16.263  -1.590  1.00 20.00     0.016 C 
HETATM   11  C11 UNL     1     -36.617  16.992  -4.135  1.00 20.00     0.016 C 
HETATM   12  O12 UNL     1     -33.988  14.388  -5.906  1.00 20.00    -0.298 OA
ENDROOT
TORSDOF 0
ENDMDL
MODEL 9
REMARK VINA RESULT:      -4.5      2.200      3.832
REMARK  0 active torsions:
REMARK  status: ('A' for Active; 'I' for Inactive)
ROOT
HETATM    1  C1  UNL     1     -33.734  14.326  -4.080  1.00 20.00    -0.030 C 
HETATM    2  C2  UNL     1     -35.045  14.084  -3.983  1.00 20.00    -0.030 C 
HETATM    3  C3  UNL     1     -34.033  17.447  -1.441  1.00 20.00     0.128 C 
HETATM    4  C4  UNL     1     -33.120  15.657  -3.787  1.00 20.00     0.037 C 
HETATM    5  C5  UNL     1     -36.051  15.118  -3.588  1.00 20.00     0.037 C 
HETATM    6  C6  UNL     1     -33.551  17.931  -2.790  1.00 20.00     0.088 C 
HETATM    7  C7  UNL     1     -35.075  16.358  -1.557  1.00 20.00     0.088 C 
HETATM    8  C8  UNL     1     -34.126  16.852  -3.736  1.00 20.00    -0.026 C 
HETATM    9  C9  UNL     1     -35.476  16.449  -3.049  1.00 20.00    -0.026 C 
HETATM   10  C10 UNL     1     -34.306  17.417  -5.154  1.00 20.00     0.016 C 
HETATM   11  C11 UNL     1     -36.589  17.518  -3.182  1.00 20.00     0.016 C 
HETATM   12  O12 UNL     1     -33.621  17.885  -0.374  1.00 20.00    -0.298 OA
ENDROOT
TORSDOF 0
ENDMDL
