MODEL 1
REMARK VINA RESULT:      -5.7      0.000      0.000
REMARK  1 active torsions:
REMARK  status: ('A' for Active; 'I' for Inactive)
REMARK    1  A    between atoms: C6_6  and  O8_8 
ROOT
HETATM    1  C1  UNL     1     -34.161   4.565   3.443  1.00 20.00    -0.023 C 
HETATM    2  C2  UNL     1     -33.424   5.363   2.650  1.00 20.00     0.001 C 
HETATM    3  C3  UNL     1     -34.691   5.281   6.018  1.00 20.00     0.009 C 
HETATM    4  C4  UNL     1     -34.293   6.815   5.999  1.00 20.00     0.009 C 
HETATM    5  C5  UNL     1     -34.687   5.427   4.502  1.00 20.00     0.015 C 
HETATM    6  C6  UNL     1     -33.268   6.751   3.259  1.00 20.00     0.145 C 
HETATM    7  C7  UNL     1     -33.476   6.421   4.733  1.00 20.00     0.026 C 
ENDROOT
BRANCH   6   8
HETATM    8  O8  UNL     1     -31.951   7.232   3.051  1.00 20.00    -0.391 OA
HETATM    9  H18 UNL     1     -31.693   7.712   3.857  1.00 20.00     0.210 HD
ENDBRANCH   6   8
TORSDOF 1
ENDMDL
MODEL 2
REMARK VINA RESULT:      -5.2      1.881      3.335
REMARK  1 active torsions:
REMARK  status: ('A' for Active; 'I' for Inactive)
REMARK    1  A    between atoms: C6_6  and  O8_8 
ROOT
HETATM    1  C1  UNL     1     -33.563   6.937   5.736  1.00 20.00    -0.023 C 
HETATM    2  C2  UNL     1     -34.553   6.030   5.814  1.00 20.00     0.001 C 
HETATM    3  C3  UNL     1     -32.146   7.245   3.429  1.00 20.00     0.009 C 
HETATM    4  C4  UNL     1     -33.069   6.474   2.396  1.00 20.00     0.009 C 
HETATM    5  C5  UNL     1     -33.387   7.219   4.311  1.00 20.00     0.015 C 
HETATM    6  C6  UNL     1     -34.945   5.524   4.431  1.00 20.00     0.145 C 
HETATM    7  C7  UNL     1     -33.651   5.795   3.671  1.00 20.00     0.026 C 
ENDROOT
BRANCH   6   8
HETATM    8  O8  UNL     1     -35.199   4.131   4.474  1.00 20.00    -0.391 OA
HETATM    9  H18 UNL     1     -35.885   3.946   3.808  1.00 20.00     0.210 HD
ENDBRANCH   6   8
TORSDOF 1
ENDMDL
MODEL 3
REMARK VINA RESULT:      -4.8      1.550      2.824
REMARK  1 active torsions:
REMARK  status: ('A' for Active; 'I' for Inactive)
REMARK    1  A    between atoms: C6_6  and  O8_8 
ROOT
HETATM    1  C1  UNL     1     -34.910   4.635   4.380  1.00 20.00    -0.023 C 
HETATM    2  C2  UNL     1     -34.855   5.242   5.580  1.00 20.00     0.001 C 
HETATM    3  C3  UNL     1     -33.629   5.707   2.228  1.00 20.00     0.009 C 
HETATM    4  C4  UNL     1     -32.671   6.756   2.931  1.00 20.00     0.009 C 
HETATM    5  C5  UNL     1     -33.754   5.124   3.629  1.00 20.00     0.015 C 
HETATM    6  C6  UNL     1     -33.767   6.309   5.607  1.00 20.00     0.145 C 
HETATM    7  C7  UNL     1     -33.670   6.628   4.119  1.00 20.00     0.026 C 
ENDROOT
BRANCH   6   8
HETATM    8  O8  UNL     1     -34.218   7.448   6.318  1.00 20.00    -0.391 OA
HETATM    9  H18 UNL     1     -34.938   7.153   6.902  1.00 20.00     0.210 HD
ENDBRANCH   6   8
TORSDOF 1
ENDMDL
MODEL 4
REMARK VINA RESULT:      -4.3     11.772     12.287
REMARK  1 active torsions:
REMARK  status: ('A' for Active; 'I' for Inactive)
REMARK    1  A    between atoms: C6_6  and  O8_8 
ROOT
HETATM    1  C1  UNL     1     -35.369  14.769  -3.250  1.00 20.00    -0.023 C 
HETATM    2  C2  UNL     1     -34.536  14.260  -4.176  1.00 20.00     0.001 C 
HETATM    3  C3  UNL     1     -34.559  16.804  -1.629  1.00 20.00     0.009 C 
HETATM    4  C4  UNL     1     -33.256  17.298  -2.382  1.00 20.00     0.009 C 
HETATM    5  C5  UNL     1     -34.865  16.110  -2.949  1.00 20.00     0.015 C 
HETATM    6  C6  UNL     1     -33.329  15.166  -4.386  1.00 20.00     0.145 C 
HETATM    7  C7  UNL     1     -33.300  15.888  -3.043  1.00 20.00     0.026 C 
ENDROOT
BRANCH   6   8
HETATM    8  O8  UNL     1     -32.155  14.388  -4.543  1.00 20.00    -0.391 OA
HETATM    9  H18 UNL     1     -31.921  14.413  -5.487  1.00 20.00     0.210 HD
ENDBRANCH   6   8
TORSDOF 1
ENDMDL
MODEL 5
REMARK VINA RESULT:      -4.3     11.733     12.377
REMARK  1 active torsions:
REMARK  status: ('A' for Active; 'I' for Inactive)
REMARK    1  A    between atoms: C6_6  and  O8_8 
ROOT
HETATM    1  C1  UNL     1     -36.022  15.862  -3.395  1.00 20.00    -0.023 C 
HETATM    2  C2  UNL     1     -36.671  14.774  -3.848  1.00 20.00     0.001 C 
HETATM    3  C3  UNL     1     -33.299  15.932  -3.354  1.00 20.00     0.009 C 
HETATM    4  C4  UNL     1     -32.945  14.702  -4.289  1.00 20.00     0.009 C 
HETATM    5  C5  UNL     1     -34.681  15.803  -3.978  1.00 20.00     0.015 C 
HETATM    6  C6  UNL     1     -35.725  13.842  -4.595  1.00 20.00     0.145 C 
HETATM    7  C7  UNL     1     -34.398  14.245  -3.963  1.00 20.00     0.026 C 
ENDROOT
BRANCH   6   8
HETATM    8  O8  UNL     1     -36.021  12.492  -4.283  1.00 20.00    -0.391 OA
HETATM    9  H18 UNL     1     -36.697  12.195  -4.916  1.00 20.00     0.210 HD
ENDBRANCH   6   8
TORSDOF 1
ENDMDL
MODEL 6
REMARK VINA RESULT:      -4.2     15.814     16.599
REMARK  1 active torsions:
REMARK  status: ('A' for Active; 'I' for Inactive)
REMARK    1  A    between atoms: C6_6  and  O8_8 
ROOT
HETATM    1  C1  UNL     1     -25.084  18.458  10.853  1.00 20.00    -0.023 C 
HETATM    2  C2  UNL     1     -25.121  17.384  11.662  1.00 20.00     0.001 C 
HETATM    3  C3  UNL     1     -23.145  18.690   8.952  1.00 20.00     0.009 C 
HETATM    4  C4  UNL     1     -22.576  17.211   8.910  1.00 20.00     0.009 C 
HETATM    5  C5  UNL     1     -24.321  18.046   9.673  1.00 20.00     0.015 C 
HETATM    6  C6  UNL     1     -24.218  16.272  11.143  1.00 20.00     0.145 C 
HETATM    7  C7  UNL     1     -23.232  17.092  10.317  1.00 20.00     0.026 C 
ENDROOT
BRANCH   6   8
HETATM    8  O8  UNL     1     -23.544  15.646  12.220  1.00 20.00    -0.391 OA
HETATM    9  H18 UNL     1     -24.219  15.417  12.883  1.00 20.00     0.210 HD
ENDBRANCH   6   8
TORSDOF 1
ENDMDL
MODEL 7
REMARK VINA RESULT:      -4.2     12.023     12.430
REMARK  1 active torsions:
REMARK  status: ('A' for Active; 'I' for Inactive)
REMARK    1  A    between atoms: C6_6  and  O8_8 
ROOT
HETATM    1  C1  UNL     1     -34.333  16.134  -2.962  1.00 20.00    -0.023 C 
HETATM    2  C2  UNL     1     -33.211  15.724  -3.581  1.00 20.00     0.001 C 
HETATM    3  C3  UNL     1     -36.757  15.109  -3.669  1.00 20.00     0.009 C 
HETATM    4  C4  UNL     1     -36.320  13.841  -4.513  1.00 20.00     0.009 C 
HETATM    5  C5  UNL     1     -35.319  15.073  -3.171  1.00 20.00     0.015 C 
HETATM    6  C6  UNL     1     -33.463  14.460  -4.394  1.00 20.00     0.145 C 
HETATM    7  C7  UNL     1     -34.962  14.593  -4.637  1.00 20.00     0.026 C 
ENDROOT
BRANCH   6   8
HETATM    8  O8  UNL     1     -32.764  14.523  -5.625  1.00 20.00    -0.391 OA
HETATM    9  H18 UNL     1     -32.622  15.464  -5.823  1.00 20.00     0.210 HD
ENDBRANCH   6   8
TORSDOF 1
ENDMDL
MODEL 8
REMARK VINA RESULT:      -4.1     15.732     16.251
REMARK  1 active torsions:
REMARK  status: ('A' for Active; 'I' for Inactive)
REMARK    1  A    between atoms: C6_6  and  O8_8 
ROOT
HETATM    1  C1  UNL     1     -24.529  18.729   9.696  1.00 20.00    -0.023 C 
HETATM    2  C2  UNL     1     -23.411  18.330   9.064  1.00 20.00     0.001 C 
HETATM    3  C3  UNL     1     -25.665  17.165  11.617  1.00 20.00     0.009 C 
HETATM    4  C4  UNL     1     -24.492  16.141  11.914  1.00 20.00     0.009 C 
HETATM    5  C5  UNL     1     -24.565  17.985  10.956  1.00 20.00     0.015 C 
HETATM    6  C6  UNL     1     -22.758  17.159   9.788  1.00 20.00     0.145 C 
HETATM    7  C7  UNL     1     -23.969  16.586  10.516  1.00 20.00     0.026 C 
ENDROOT
BRANCH   6   8
HETATM    8  O8  UNL     1     -22.265  16.218   8.851  1.00 20.00    -0.391 OA
HETATM    9  H18 UNL     1     -22.086  16.703   8.027  1.00 20.00     0.210 HD
ENDBRANCH   6   8
TORSDOF 1
ENDMDL
MODEL 9
REMARK VINA RESULT:      -4.1     12.110     12.945
REMARK  1 active torsions:
REMARK  status: ('A' for Active; 'I' for Inactive)
REMARK    1  A    between atoms: C6_6  and  O8_8 
ROOT
HETATM    1  C1  UNL     1     -36.152  14.729  -4.847  1.00 20.00    -0.023 C 
HETATM    2  C2  UNL     1     -35.521  14.604  -6.028  1.00 20.00     0.001 C 
HETATM    3  C3  UNL     1     -34.784  15.515  -2.625  1.00 20.00     0.009 C 
HETATM    4  C4  UNL     1     -33.448  16.075  -3.268  1.00 20.00     0.009 C 
HETATM    5  C5  UNL     1     -35.326  15.631  -4.043  1.00 20.00     0.015 C 
HETATM    6  C6  UNL     1     -34.148  15.263  -5.991  1.00 20.00     0.145 C 
HETATM    7  C7  UNL     1     -33.867  15.209  -4.493  1.00 20.00     0.026 C 
ENDROOT
BRANCH   6   8
HETATM    8  O8  UNL     1     -33.205  14.469  -6.690  1.00 20.00    -0.391 OA
HETATM    9  H18 UNL     1     -33.250  13.574  -6.311  1.00 20.00     0.210 HD
ENDBRANCH   6   8
TORSDOF 1
ENDMDL
