MODEL 1
REMARK VINA RESULT:      -4.9      0.000      0.000
REMARK  0 active torsions:
REMARK  status: ('A' for Active; 'I' for Inactive)
ROOT
HETATM    1  C1  UNL     1     -25.058  18.700   9.922  1.00 20.00    -0.082 C 
HETATM    2  C2  UNL     1     -25.857  19.262   9.001  1.00 20.00     0.015 C 
HETATM    3  C3  UNL     1     -25.215  18.997  11.397  1.00 20.00     0.038 C 
HETATM    4  C4  UNL     1     -24.240  16.409  10.313  1.00 20.00     0.018 C 
HETATM    5  C5  UNL     1     -22.669  17.206  12.058  1.00 20.00     0.173 C 
HETATM    6  C6  UNL     1     -23.972  17.703   9.543  1.00 20.00     0.043 C 
HETATM    7  C7  UNL     1     -24.100  16.699  11.809  1.00 20.00     0.014 C 
HETATM    8  C8  UNL     1     -25.175  17.725  12.271  1.00 20.00    -0.009 C 
HETATM    9  C9  UNL     1     -22.567  18.255   9.879  1.00 20.00     0.125 C 
HETATM   10  C10 UNL     1     -26.566  17.076  12.329  1.00 20.00     0.011 C 
HETATM   11  C11 UNL     1     -21.438  17.449   9.235  1.00 20.00     0.040 C 
HETATM   12  O12 UNL     1     -22.344  18.364  11.291  1.00 20.00    -0.385 OA
ENDROOT
TORSDOF 0
ENDMDL
MODEL 2
REMARK VINA RESULT:      -4.9     16.738     18.628
REMARK  0 active torsions:
REMARK  status: ('A' for Active; 'I' for Inactive)
ROOT
HETATM    1  C1  UNL     1     -34.015  17.379  -4.492  1.00 20.00    -0.082 C 
HETATM    2  C2  UNL     1     -33.686  18.642  -4.802  1.00 20.00     0.015 C 
HETATM    3  C3  UNL     1     -33.327  16.630  -3.372  1.00 20.00     0.038 C 
HETATM    4  C4  UNL     1     -36.153  16.194  -4.178  1.00 20.00     0.018 C 
HETATM    5  C5  UNL     1     -34.990  14.007  -4.065  1.00 20.00     0.173 C 
HETATM    6  C6  UNL     1     -35.126  16.636  -5.222  1.00 20.00     0.043 C 
HETATM    7  C7  UNL     1     -35.480  15.201  -3.228  1.00 20.00     0.014 C 
HETATM    8  C8  UNL     1     -34.319  15.887  -2.451  1.00 20.00    -0.009 C 
HETATM    9  C9  UNL     1     -34.569  15.414  -5.990  1.00 20.00     0.125 C 
HETATM   10  C10 UNL     1     -34.865  16.842  -1.379  1.00 20.00     0.011 C 
HETATM   11  C11 UNL     1     -35.568  14.828  -6.987  1.00 20.00     0.040 C 
HETATM   12  O12 UNL     1     -34.095  14.385  -5.110  1.00 20.00    -0.385 OA
ENDROOT
TORSDOF 0
ENDMDL
MODEL 3
REMARK VINA RESULT:      -4.6     15.949     17.930
REMARK  0 active torsions:
REMARK  status: ('A' for Active; 'I' for Inactive)
ROOT
HETATM    1  C1  UNL     1     -33.617  15.302  -4.122  1.00 20.00    -0.082 C 
HETATM    2  C2  UNL     1     -32.780  14.291  -4.400  1.00 20.00     0.015 C 
HETATM    3  C3  UNL     1     -34.740  15.686  -5.060  1.00 20.00     0.038 C 
HETATM    4  C4  UNL     1     -34.857  15.994  -2.107  1.00 20.00     0.018 C 
HETATM    5  C5  UNL     1     -35.516  18.132  -3.177  1.00 20.00     0.173 C 
HETATM    6  C6  UNL     1     -33.512  16.099  -2.828  1.00 20.00     0.043 C 
HETATM    7  C7  UNL     1     -35.924  16.662  -2.977  1.00 20.00     0.014 C 
HETATM    8  C8  UNL     1     -36.082  15.907  -4.329  1.00 20.00    -0.009 C 
HETATM    9  C9  UNL     1     -33.160  17.578  -3.112  1.00 20.00     0.125 C 
HETATM   10  C10 UNL     1     -36.805  14.567  -4.128  1.00 20.00     0.011 C 
HETATM   11  C11 UNL     1     -32.730  18.342  -1.859  1.00 20.00     0.040 C 
HETATM   12  O12 UNL     1     -34.226  18.278  -3.768  1.00 20.00    -0.385 OA
ENDROOT
TORSDOF 0
ENDMDL
MODEL 4
REMARK VINA RESULT:      -4.5     17.653     19.570
REMARK  0 active torsions:
REMARK  status: ('A' for Active; 'I' for Inactive)
ROOT
HETATM    1  C1  UNL     1     -33.833  14.720  -4.586  1.00 20.00    -0.082 C 
HETATM    2  C2  UNL     1     -32.550  14.335  -4.503  1.00 20.00     0.015 C 
HETATM    3  C3  UNL     1     -34.842  14.358  -3.518  1.00 20.00     0.038 C 
HETATM    4  C4  UNL     1     -34.952  16.844  -5.141  1.00 20.00     0.018 C 
HETATM    5  C5  UNL     1     -37.165  15.727  -5.208  1.00 20.00     0.173 C 
HETATM    6  C6  UNL     1     -34.343  15.575  -5.738  1.00 20.00     0.043 C 
HETATM    7  C7  UNL     1     -36.161  16.446  -4.291  1.00 20.00     0.014 C 
HETATM    8  C8  UNL     1     -35.719  15.555  -3.093  1.00 20.00    -0.009 C 
HETATM    9  C9  UNL     1     -35.392  14.809  -6.578  1.00 20.00     0.125 C 
HETATM   10  C10 UNL     1     -34.997  16.391  -2.025  1.00 20.00     0.011 C 
HETATM   11  C11 UNL     1     -35.696  15.485  -7.915  1.00 20.00     0.040 C 
HETATM   12  O12 UNL     1     -36.611  14.584  -5.857  1.00 20.00    -0.385 OA
ENDROOT
TORSDOF 0
ENDMDL
MODEL 5
REMARK VINA RESULT:      -4.5     16.353     18.318
REMARK  0 active torsions:
REMARK  status: ('A' for Active; 'I' for Inactive)
ROOT
HETATM    1  C1  UNL     1     -35.616  17.516  -3.948  1.00 20.00    -0.082 C 
HETATM    2  C2  UNL     1     -36.593  18.429  -3.835  1.00 20.00     0.015 C 
HETATM    3  C3  UNL     1     -34.227  17.891  -4.415  1.00 20.00     0.038 C 
HETATM    4  C4  UNL     1     -34.805  15.688  -2.507  1.00 20.00     0.018 C 
HETATM    5  C5  UNL     1     -33.337  14.837  -4.315  1.00 20.00     0.173 C 
HETATM    6  C6  UNL     1     -35.835  16.055  -3.577  1.00 20.00     0.043 C 
HETATM    7  C7  UNL     1     -33.409  15.805  -3.121  1.00 20.00     0.014 C 
HETATM    8  C8  UNL     1     -33.114  17.275  -3.540  1.00 20.00    -0.009 C 
HETATM    9  C9  UNL     1     -35.687  15.138  -4.813  1.00 20.00     0.125 C 
HETATM   10  C10 UNL     1     -32.859  18.156  -2.307  1.00 20.00     0.011 C 
HETATM   11  C11 UNL     1     -36.206  13.720  -4.572  1.00 20.00     0.040 C 
HETATM   12  O12 UNL     1     -34.339  15.088  -5.299  1.00 20.00    -0.385 OA
ENDROOT
TORSDOF 0
ENDMDL
MODEL 6
REMARK VINA RESULT:      -4.4     15.940     17.670
REMARK  0 active torsions:
REMARK  status: ('A' for Active; 'I' for Inactive)
ROOT
HETATM    1  C1  UNL     1     -35.102  17.098  -1.481  1.00 20.00    -0.082 C 
HETATM    2  C2  UNL     1     -35.378  17.014  -0.170  1.00 20.00     0.015 C 
HETATM    3  C3  UNL     1     -34.890  18.431  -2.165  1.00 20.00     0.038 C 
HETATM    4  C4  UNL     1     -33.555  15.907  -2.985  1.00 20.00     0.018 C 
HETATM    5  C5  UNL     1     -34.580  16.973  -4.976  1.00 20.00     0.173 C 
HETATM    6  C6  UNL     1     -34.946  15.858  -2.351  1.00 20.00     0.043 C 
HETATM    7  C7  UNL     1     -33.487  17.129  -3.905  1.00 20.00     0.014 C 
HETATM    8  C8  UNL     1     -33.651  18.442  -3.086  1.00 20.00    -0.009 C 
HETATM    9  C9  UNL     1     -36.041  15.802  -3.441  1.00 20.00     0.125 C 
HETATM   10  C10 UNL     1     -32.385  18.742  -2.270  1.00 20.00     0.011 C 
HETATM   11  C11 UNL     1     -36.130  14.439  -4.128  1.00 20.00     0.040 C 
HETATM   12  O12 UNL     1     -35.888  16.835  -4.424  1.00 20.00    -0.385 OA
ENDROOT
TORSDOF 0
ENDMDL
MODEL 7
REMARK VINA RESULT:      -4.2     17.190     19.115
REMARK  0 active torsions:
REMARK  status: ('A' for Active; 'I' for Inactive)
ROOT
HETATM    1  C1  UNL     1     -34.011  16.255  -3.469  1.00 20.00    -0.082 C 
HETATM    2  C2  UNL     1     -32.985  16.727  -2.745  1.00 20.00     0.015 C 
HETATM    3  C3  UNL     1     -35.214  15.609  -2.817  1.00 20.00     0.038 C 
HETATM    4  C4  UNL     1     -35.318  17.133  -5.365  1.00 20.00     0.018 C 
HETATM    5  C5  UNL     1     -36.446  14.947  -5.675  1.00 20.00     0.173 C 
HETATM    6  C6  UNL     1     -34.046  16.373  -4.987  1.00 20.00     0.043 C 
HETATM    7  C7  UNL     1     -36.525  16.296  -4.939  1.00 20.00     0.014 C 
HETATM    8  C8  UNL     1     -36.553  16.119  -3.392  1.00 20.00    -0.009 C 
HETATM    9  C9  UNL     1     -34.025  14.979  -5.655  1.00 20.00     0.125 C 
HETATM   10  C10 UNL     1     -36.967  17.425  -2.698  1.00 20.00     0.011 C 
HETATM   11  C11 UNL     1     -33.736  15.039  -7.155  1.00 20.00     0.040 C 
HETATM   12  O12 UNL     1     -35.233  14.241  -5.420  1.00 20.00    -0.385 OA
ENDROOT
TORSDOF 0
ENDMDL
MODEL 8
REMARK VINA RESULT:      -4.2     16.093     18.002
REMARK  0 active torsions:
REMARK  status: ('A' for Active; 'I' for Inactive)
ROOT
HETATM    1  C1  UNL     1     -34.733  16.937  -5.128  1.00 20.00    -0.082 C 
HETATM    2  C2  UNL     1     -34.521  17.155  -6.435  1.00 20.00     0.015 C 
HETATM    3  C3  UNL     1     -36.094  16.544  -4.598  1.00 20.00     0.038 C 
HETATM    4  C4  UNL     1     -33.523  15.690  -3.380  1.00 20.00     0.018 C 
HETATM    5  C5  UNL     1     -34.991  16.628  -1.615  1.00 20.00     0.173 C 
HETATM    6  C6  UNL     1     -33.610  17.035  -4.104  1.00 20.00     0.043 C 
HETATM    7  C7  UNL     1     -34.829  15.469  -2.614  1.00 20.00     0.014 C 
HETATM    8  C8  UNL     1     -36.032  15.370  -3.597  1.00 20.00    -0.009 C 
HETATM    9  C9  UNL     1     -33.872  18.180  -3.098  1.00 20.00     0.125 C 
HETATM   10  C10 UNL     1     -36.018  14.031  -4.349  1.00 20.00     0.011 C 
HETATM   11  C11 UNL     1     -32.643  18.530  -2.258  1.00 20.00     0.040 C 
HETATM   12  O12 UNL     1     -34.989  17.910  -2.240  1.00 20.00    -0.385 OA
ENDROOT
TORSDOF 0
ENDMDL
MODEL 9
REMARK VINA RESULT:      -4.2     17.975     19.645
REMARK  0 active torsions:
REMARK  status: ('A' for Active; 'I' for Inactive)
ROOT
HETATM    1  C1  UNL     1     -34.914  16.827  -5.233  1.00 20.00    -0.082 C 
HETATM    2  C2  UNL     1     -34.523  18.093  -5.443  1.00 20.00     0.015 C 
HETATM    3  C3  UNL     1     -34.237  15.661  -5.920  1.00 20.00     0.038 C 
HETATM    4  C4  UNL     1     -35.470  15.516  -3.221  1.00 20.00     0.018 C 
HETATM    5  C5  UNL     1     -36.314  13.640  -4.607  1.00 20.00     0.173 C 
HETATM    6  C6  UNL     1     -36.036  16.482  -4.263  1.00 20.00     0.043 C 
HETATM    7  C7  UNL     1     -35.060  14.224  -3.933  1.00 20.00     0.014 C 
HETATM    8  C8  UNL     1     -33.920  14.499  -4.955  1.00 20.00    -0.009 C 
HETATM    9  C9  UNL     1     -37.236  15.844  -5.002  1.00 20.00     0.125 C 
HETATM   10  C10 UNL     1     -32.587  14.754  -4.235  1.00 20.00     0.011 C 
HETATM   11  C11 UNL     1     -38.499  15.776  -4.144  1.00 20.00     0.040 C 
HETATM   12  O12 UNL     1     -36.929  14.544  -5.524  1.00 20.00    -0.385 OA
ENDROOT
TORSDOF 0
ENDMDL
