MODEL 1
REMARK VINA RESULT:      -4.8      0.000      0.000
REMARK  1 active torsions:
REMARK  status: ('A' for Active; 'I' for Inactive)
REMARK    1  A    between atoms: C8_8  and  O10_10 
ROOT
HETATM    1  C1  UNL     1     -33.505   6.780   5.073  1.00 20.00    -0.023 C 
HETATM    2  C2  UNL     1     -33.565   7.463   3.917  1.00 20.00     0.001 C 
HETATM    3  C3  UNL     1     -33.898   4.867   2.561  1.00 20.00     0.003 C 
HETATM    4  C4  UNL     1     -32.544   5.625   2.524  1.00 20.00     0.036 C 
HETATM    5  C5  UNL     1     -34.210   4.153   3.896  1.00 20.00     0.005 C 
HETATM    6  C6  UNL     1     -34.733   4.857   6.328  1.00 20.00     0.014 A 
HETATM    7  C7  UNL     1     -34.720   6.176   5.618  1.00 20.00     0.012 A 
HETATM    8  C8  UNL     1     -32.604   7.146   2.812  1.00 20.00     0.140 C 
HETATM    9  C9  UNL     1     -35.111   4.897   4.868  1.00 20.00    -0.006 A 
ENDROOT
BRANCH   8  10
HETATM   10  O10 UNL     1     -31.309   7.660   3.094  1.00 20.00    -0.392 OA
HETATM   11  H24 UNL     1     -30.751   6.900   3.328  1.00 20.00     0.210 HD
ENDBRANCH   8  10
TORSDOF 1
ENDMDL
MODEL 2
REMARK VINA RESULT:      -4.6     11.760     13.200
REMARK  1 active torsions:
REMARK  status: ('A' for Active; 'I' for Inactive)
REMARK    1  A    between atoms: C8_8  and  O10_10 
ROOT
HETATM    1  C1  UNL     1     -35.194  15.136  -2.997  1.00 20.00    -0.023 C 
HETATM    2  C2  UNL     1     -35.177  14.096  -3.848  1.00 20.00     0.001 C 
HETATM    3  C3  UNL     1     -34.843  16.057  -6.023  1.00 20.00     0.003 C 
HETATM    4  C4  UNL     1     -36.209  15.364  -5.768  1.00 20.00     0.036 C 
HETATM    5  C5  UNL     1     -34.483  17.179  -5.023  1.00 20.00     0.005 C 
HETATM    6  C6  UNL     1     -33.903  17.344  -2.509  1.00 20.00     0.014 A 
HETATM    7  C7  UNL     1     -33.955  15.862  -2.721  1.00 20.00     0.012 A 
HETATM    8  C8  UNL     1     -36.163  14.035  -4.974  1.00 20.00     0.140 C 
HETATM    9  C9  UNL     1     -33.567  16.794  -3.874  1.00 20.00    -0.006 A 
ENDROOT
BRANCH   8  10
HETATM   10  O10 UNL     1     -37.458  13.680  -4.505  1.00 20.00    -0.392 OA
HETATM   11  H24 UNL     1     -38.092  14.237  -4.986  1.00 20.00     0.210 HD
ENDBRANCH   8  10
TORSDOF 1
ENDMDL
MODEL 3
REMARK VINA RESULT:      -4.6     11.867     12.800
REMARK  1 active torsions:
REMARK  status: ('A' for Active; 'I' for Inactive)
REMARK    1  A    between atoms: C8_8  and  O10_10 
ROOT
HETATM    1  C1  UNL     1     -34.196  14.894  -3.435  1.00 20.00    -0.023 C 
HETATM    2  C2  UNL     1     -34.606  14.603  -4.682  1.00 20.00     0.001 C 
HETATM    3  C3  UNL     1     -36.970  16.281  -4.149  1.00 20.00     0.003 C 
HETATM    4  C4  UNL     1     -37.065  14.731  -4.141  1.00 20.00     0.036 C 
HETATM    5  C5  UNL     1     -36.310  16.901  -2.897  1.00 20.00     0.005 C 
HETATM    6  C6  UNL     1     -33.954  16.932  -1.832  1.00 20.00     0.014 A 
HETATM    7  C7  UNL     1     -33.699  16.236  -3.134  1.00 20.00     0.012 A 
HETATM    8  C8  UNL     1     -35.947  13.974  -4.900  1.00 20.00     0.140 C 
HETATM    9  C9  UNL     1     -34.837  17.255  -3.013  1.00 20.00    -0.006 A 
ENDROOT
BRANCH   8  10
HETATM   10  O10 UNL     1     -35.934  12.598  -4.541  1.00 20.00    -0.392 OA
HETATM   11  H24 UNL     1     -35.777  12.097  -5.358  1.00 20.00     0.210 HD
ENDBRANCH   8  10
TORSDOF 1
ENDMDL
MODEL 4
REMARK VINA RESULT:      -4.5     15.641     16.571
REMARK  1 active torsions:
REMARK  status: ('A' for Active; 'I' for Inactive)
REMARK    1  A    between atoms: C8_8  and  O10_10 
ROOT
HETATM    1  C1  UNL     1     -25.573  18.527  10.036  1.00 20.00    -0.023 C 
HETATM    2  C2  UNL     1     -25.589  18.513  11.380  1.00 20.00     0.001 C 
HETATM    3  C3  UNL     1     -23.247  16.729  11.254  1.00 20.00     0.003 C 
HETATM    4  C4  UNL     1     -24.660  16.179  11.588  1.00 20.00     0.036 C 
HETATM    5  C5  UNL     1     -23.012  17.061   9.763  1.00 20.00     0.005 C 
HETATM    6  C6  UNL     1     -23.901  18.788   8.057  1.00 20.00     0.014 A 
HETATM    7  C7  UNL     1     -24.522  19.263   9.335  1.00 20.00     0.012 A 
HETATM    8  C8  UNL     1     -25.689  17.211  12.113  1.00 20.00     0.140 C 
HETATM    9  C9  UNL     1     -23.185  18.515   9.358  1.00 20.00    -0.006 A 
ENDROOT
BRANCH   8  10
HETATM   10  O10 UNL     1     -27.008  16.686  12.053  1.00 20.00    -0.392 OA
HETATM   11  H24 UNL     1     -27.082  16.210  11.210  1.00 20.00     0.210 HD
ENDBRANCH   8  10
TORSDOF 1
ENDMDL
MODEL 5
REMARK VINA RESULT:      -4.5     15.671     16.469
REMARK  1 active torsions:
REMARK  status: ('A' for Active; 'I' for Inactive)
REMARK    1  A    between atoms: C8_8  and  O10_10 
ROOT
HETATM    1  C1  UNL     1     -23.406  16.986  10.069  1.00 20.00    -0.023 C 
HETATM    2  C2  UNL     1     -22.960  18.203   9.710  1.00 20.00     0.001 C 
HETATM    3  C3  UNL     1     -25.573  19.263  10.566  1.00 20.00     0.003 C 
HETATM    4  C4  UNL     1     -25.230  19.088   9.063  1.00 20.00     0.036 C 
HETATM    5  C5  UNL     1     -25.915  17.955  11.315  1.00 20.00     0.005 C 
HETATM    6  C6  UNL     1     -24.657  15.811  12.027  1.00 20.00     0.014 A 
HETATM    7  C7  UNL     1     -23.547  16.659  11.487  1.00 20.00     0.012 A 
HETATM    8  C8  UNL     1     -23.724  19.013   8.709  1.00 20.00     0.140 C 
HETATM    9  C9  UNL     1     -24.788  17.312  12.106  1.00 20.00    -0.006 A 
ENDROOT
BRANCH   8  10
HETATM   10  O10 UNL     1     -23.537  18.513   7.391  1.00 20.00    -0.392 OA
HETATM   11  H24 UNL     1     -24.377  18.103   7.126  1.00 20.00     0.210 HD
ENDBRANCH   8  10
TORSDOF 1
ENDMDL
MODEL 6
REMARK VINA RESULT:      -4.4     16.438     16.957
REMARK  1 active torsions:
REMARK  status: ('A' for Active; 'I' for Inactive)
REMARK    1  A    between atoms: C8_8  and  O10_10 
ROOT
HETATM    1  C1  UNL     1     -24.785  19.262   9.905  1.00 20.00    -0.023 C 
HETATM    2  C2  UNL     1     -24.166  18.413   9.066  1.00 20.00     0.001 C 
HETATM    3  C3  UNL     1     -23.381  16.855  11.442  1.00 20.00     0.003 C 
HETATM    4  C4  UNL     1     -22.362  17.763  10.703  1.00 20.00     0.036 C 
HETATM    5  C5  UNL     1     -24.399  17.605  12.331  1.00 20.00     0.005 C 
HETATM    6  C6  UNL     1     -26.372  19.235  11.969  1.00 20.00     0.014 A 
HETATM    7  C7  UNL     1     -26.023  18.850  10.564  1.00 20.00     0.012 A 
HETATM    8  C8  UNL     1     -22.706  18.127   9.238  1.00 20.00     0.140 C 
HETATM    9  C9  UNL     1     -25.762  17.877  11.719  1.00 20.00    -0.006 A 
ENDROOT
BRANCH   8  10
HETATM   10  O10 UNL     1     -21.911  19.215   8.786  1.00 20.00    -0.392 OA
HETATM   11  H24 UNL     1     -21.974  19.225   7.817  1.00 20.00     0.210 HD
ENDBRANCH   8  10
TORSDOF 1
ENDMDL
MODEL 7
REMARK VINA RESULT:      -4.4     12.358     12.856
REMARK  1 active torsions:
REMARK  status: ('A' for Active; 'I' for Inactive)
REMARK    1  A    between atoms: C8_8  and  O10_10 
ROOT
HETATM    1  C1  UNL     1     -36.088  15.997  -3.532  1.00 20.00    -0.023 C 
HETATM    2  C2  UNL     1     -36.187  14.719  -3.940  1.00 20.00     0.001 C 
HETATM    3  C3  UNL     1     -33.271  14.773  -4.366  1.00 20.00     0.003 C 
HETATM    4  C4  UNL     1     -34.259  14.856  -5.560  1.00 20.00     0.036 C 
HETATM    5  C5  UNL     1     -33.125  16.076  -3.548  1.00 20.00     0.005 C 
HETATM    6  C6  UNL     1     -34.622  17.497  -1.990  1.00 20.00     0.014 A 
HETATM    7  C7  UNL     1     -35.480  16.295  -2.236  1.00 20.00     0.012 A 
HETATM    8  C8  UNL     1     -35.693  14.329  -5.299  1.00 20.00     0.140 C 
HETATM    9  C9  UNL     1     -33.953  16.175  -2.278  1.00 20.00    -0.006 A 
ENDROOT
BRANCH   8  10
HETATM   10  O10 UNL     1     -36.585  14.764  -6.316  1.00 20.00    -0.392 OA
HETATM   11  H24 UNL     1     -37.145  14.004  -6.542  1.00 20.00     0.210 HD
ENDBRANCH   8  10
TORSDOF 1
ENDMDL
MODEL 8
REMARK VINA RESULT:      -4.2     12.018     13.063
REMARK  1 active torsions:
REMARK  status: ('A' for Active; 'I' for Inactive)
REMARK    1  A    between atoms: C8_8  and  O10_10 
ROOT
HETATM    1  C1  UNL     1     -34.966  16.293  -1.559  1.00 20.00    -0.023 C 
HETATM    2  C2  UNL     1     -35.662  17.307  -1.015  1.00 20.00     0.001 C 
HETATM    3  C3  UNL     1     -33.123  18.797  -0.880  1.00 20.00     0.003 C 
HETATM    4  C4  UNL     1     -33.749  18.159   0.389  1.00 20.00     0.036 C 
HETATM    5  C5  UNL     1     -32.430  17.801  -1.837  1.00 20.00     0.005 C 
HETATM    6  C6  UNL     1     -33.156  15.859  -3.381  1.00 20.00     0.014 A 
HETATM    7  C7  UNL     1     -34.474  16.410  -2.932  1.00 20.00     0.012 A 
HETATM    8  C8  UNL     1     -35.266  17.851   0.322  1.00 20.00     0.140 C 
HETATM    9  C9  UNL     1     -33.246  17.323  -3.025  1.00 20.00    -0.006 A 
ENDROOT
BRANCH   8  10
HETATM   10  O10 UNL     1     -35.651  16.972   1.371  1.00 20.00    -0.392 OA
HETATM   11  H24 UNL     1     -36.550  16.668   1.165  1.00 20.00     0.210 HD
ENDBRANCH   8  10
TORSDOF 1
ENDMDL
MODEL 9
REMARK VINA RESULT:      -4.2     11.635     12.622
REMARK  1 active torsions:
REMARK  status: ('A' for Active; 'I' for Inactive)
REMARK    1  A    between atoms: C8_8  and  O10_10 
ROOT
HETATM    1  C1  UNL     1     -32.748  16.376  -3.080  1.00 20.00    -0.023 C 
HETATM    2  C2  UNL     1     -33.162  16.082  -4.324  1.00 20.00     0.001 C 
HETATM    3  C3  UNL     1     -35.824  15.564  -3.169  1.00 20.00     0.003 C 
HETATM    4  C4  UNL     1     -34.889  14.398  -3.590  1.00 20.00     0.036 C 
HETATM    5  C5  UNL     1     -35.440  16.262  -1.845  1.00 20.00     0.005 C 
HETATM    6  C6  UNL     1     -33.497  17.738  -0.991  1.00 20.00     0.014 A 
HETATM    7  C7  UNL     1     -33.182  17.622  -2.450  1.00 20.00     0.012 A 
HETATM    8  C8  UNL     1     -33.778  14.747  -4.611  1.00 20.00     0.140 C 
HETATM    9  C9  UNL     1     -34.633  17.544  -1.964  1.00 20.00    -0.006 A 
ENDROOT
BRANCH   8  10
HETATM   10  O10 UNL     1     -32.791  13.724  -4.655  1.00 20.00    -0.392 OA
HETATM   11  H24 UNL     1     -32.079  14.047  -5.230  1.00 20.00     0.210 HD
ENDBRANCH   8  10
TORSDOF 1
ENDMDL
