MODEL 1
REMARK VINA RESULT:      -4.6      0.000      0.000
REMARK  1 active torsions:
REMARK  status: ('A' for Active; 'I' for Inactive)
REMARK    1  A    between atoms: C6_6  and  O10_10 
ROOT
HETATM    1  C1  UNL     1     -25.553  18.935  10.717  1.00 20.00     0.003 C 
HETATM    2  C2  UNL     1     -25.324  18.999   9.212  1.00 20.00     0.032 C 
HETATM    3  C3  UNL     1     -24.822  17.745  11.332  1.00 20.00     0.010 C 
HETATM    4  C4  UNL     1     -23.034  16.890   9.675  1.00 20.00     0.017 A 
HETATM    5  C5  UNL     1     -22.907  18.386   9.662  1.00 20.00     0.023 A 
HETATM    6  C6  UNL     1     -23.852  19.260   8.896  1.00 20.00     0.125 C 
HETATM    7  C7  UNL     1     -23.362  17.682  10.929  1.00 20.00    -0.038 A 
HETATM    8  C8  UNL     1     -22.391  17.611  12.076  1.00 20.00     0.015 C 
ENDROOT
BRANCH   6   9
HETATM    9  O10 UNL     1     -23.623  19.082   7.502  1.00 20.00    -0.390 OA
HETATM   10  C9  UNL     1     -24.817  19.259   6.754  1.00 20.00     0.202 C 
ENDBRANCH   6   9
TORSDOF 1
ENDMDL
MODEL 2
REMARK VINA RESULT:      -4.3     17.300     18.999
REMARK  1 active torsions:
REMARK  status: ('A' for Active; 'I' for Inactive)
REMARK    1  A    between atoms: C6_6  and  O10_10 
ROOT
HETATM    1  C1  UNL     1     -35.408  16.041  -6.339  1.00 20.00     0.003 C 
HETATM    2  C2  UNL     1     -36.691  15.492  -5.728  1.00 20.00     0.032 C 
HETATM    3  C3  UNL     1     -34.367  16.329  -5.262  1.00 20.00     0.010 C 
HETATM    4  C4  UNL     1     -35.023  15.096  -3.088  1.00 20.00     0.017 A 
HETATM    5  C5  UNL     1     -35.235  14.099  -4.191  1.00 20.00     0.023 A 
HETATM    6  C6  UNL     1     -36.444  14.133  -5.075  1.00 20.00     0.125 C 
HETATM    7  C7  UNL     1     -34.149  15.154  -4.329  1.00 20.00    -0.038 A 
HETATM    8  C8  UNL     1     -32.719  14.704  -4.200  1.00 20.00     0.015 C 
ENDROOT
BRANCH   6   9
HETATM    9  O10 UNL     1     -37.586  13.753  -4.314  1.00 20.00    -0.390 OA
HETATM   10  C9  UNL     1     -38.539  14.803  -4.251  1.00 20.00     0.202 C 
ENDBRANCH   6   9
TORSDOF 1
ENDMDL
MODEL 3
REMARK VINA RESULT:      -4.2     16.191     17.775
REMARK  1 active torsions:
REMARK  status: ('A' for Active; 'I' for Inactive)
REMARK    1  A    between atoms: C6_6  and  O10_10 
ROOT
HETATM    1  C1  UNL     1     -32.812  15.399  -3.770  1.00 20.00     0.003 C 
HETATM    2  C2  UNL     1     -33.714  14.767  -4.822  1.00 20.00     0.032 C 
HETATM    3  C3  UNL     1     -33.491  16.599  -3.116  1.00 20.00     0.010 C 
HETATM    4  C4  UNL     1     -36.028  16.513  -3.594  1.00 20.00     0.017 A 
HETATM    5  C5  UNL     1     -35.645  15.110  -3.217  1.00 20.00     0.023 A 
HETATM    6  C6  UNL     1     -34.971  14.181  -4.180  1.00 20.00     0.125 C 
HETATM    7  C7  UNL     1     -34.887  16.283  -2.617  1.00 20.00    -0.038 A 
HETATM    8  C8  UNL     1     -35.130  16.604  -1.168  1.00 20.00     0.015 C 
ENDROOT
BRANCH   6   9
HETATM    9  O10 UNL     1     -35.899  13.812  -5.194  1.00 20.00    -0.390 OA
HETATM   10  C9  UNL     1     -35.634  14.493  -6.411  1.00 20.00     0.202 C 
ENDBRANCH   6   9
TORSDOF 1
ENDMDL
MODEL 4
REMARK VINA RESULT:      -4.2     15.332     17.566
REMARK  1 active torsions:
REMARK  status: ('A' for Active; 'I' for Inactive)
REMARK    1  A    between atoms: C6_6  and  O10_10 
ROOT
HETATM    1  C1  UNL     1     -34.491  17.087  -5.412  1.00 20.00     0.003 C 
HETATM    2  C2  UNL     1     -35.113  15.698  -5.345  1.00 20.00     0.032 C 
HETATM    3  C3  UNL     1     -34.515  17.763  -4.045  1.00 20.00     0.010 C 
HETATM    4  C4  UNL     1     -34.923  15.985  -2.216  1.00 20.00     0.017 A 
HETATM    5  C5  UNL     1     -33.905  15.380  -3.140  1.00 20.00     0.023 A 
HETATM    6  C6  UNL     1     -34.283  14.772  -4.456  1.00 20.00     0.125 C 
HETATM    7  C7  UNL     1     -33.944  16.887  -2.947  1.00 20.00    -0.038 A 
HETATM    8  C8  UNL     1     -32.839  17.517  -2.144  1.00 20.00     0.015 C 
ENDROOT
BRANCH   6   9
HETATM    9  O10 UNL     1     -35.001  13.565  -4.220  1.00 20.00    -0.390 OA
HETATM   10  C9  UNL     1     -36.343  13.663  -4.675  1.00 20.00     0.202 C 
ENDBRANCH   6   9
TORSDOF 1
ENDMDL
MODEL 5
REMARK VINA RESULT:      -4.0     14.773     15.992
REMARK  1 active torsions:
REMARK  status: ('A' for Active; 'I' for Inactive)
REMARK    1  A    between atoms: C6_6  and  O10_10 
ROOT
HETATM    1  C1  UNL     1     -32.605  17.715  -1.707  1.00 20.00     0.003 C 
HETATM    2  C2  UNL     1     -33.034  17.064  -3.016  1.00 20.00     0.032 C 
HETATM    3  C3  UNL     1     -33.801  18.325  -0.982  1.00 20.00     0.010 C 
HETATM    4  C4  UNL     1     -35.984  17.344  -1.955  1.00 20.00     0.017 A 
HETATM    5  C5  UNL     1     -35.061  16.172  -1.785  1.00 20.00     0.023 A 
HETATM    6  C6  UNL     1     -33.959  15.876  -2.756  1.00 20.00     0.125 C 
HETATM    7  C7  UNL     1     -34.957  17.355  -0.836  1.00 20.00    -0.038 A 
HETATM    8  C8  UNL     1     -35.452  17.166   0.571  1.00 20.00     0.015 C 
ENDROOT
BRANCH   6   9
HETATM    9  O10 UNL     1     -34.529  15.436  -3.984  1.00 20.00    -0.390 OA
HETATM   10  C9  UNL     1     -33.572  14.758  -4.786  1.00 20.00     0.202 C 
ENDBRANCH   6   9
TORSDOF 1
ENDMDL
MODEL 6
REMARK VINA RESULT:      -3.9     16.037     18.049
REMARK  1 active torsions:
REMARK  status: ('A' for Active; 'I' for Inactive)
REMARK    1  A    between atoms: C6_6  and  O10_10 
ROOT
HETATM    1  C1  UNL     1     -36.358  15.649  -3.475  1.00 20.00     0.003 C 
HETATM    2  C2  UNL     1     -36.196  14.879  -4.780  1.00 20.00     0.032 C 
HETATM    3  C3  UNL     1     -35.100  15.546  -2.619  1.00 20.00     0.010 C 
HETATM    4  C4  UNL     1     -33.129  14.750  -4.086  1.00 20.00     0.017 A 
HETATM    5  C5  UNL     1     -33.836  15.794  -4.901  1.00 20.00     0.023 A 
HETATM    6  C6  UNL     1     -35.102  15.502  -5.646  1.00 20.00     0.125 C 
HETATM    7  C7  UNL     1     -33.839  15.895  -3.385  1.00 20.00    -0.038 A 
HETATM    8  C8  UNL     1     -32.990  16.965  -2.754  1.00 20.00     0.015 C 
ENDROOT
BRANCH   6   9
HETATM    9  O10 UNL     1     -34.808  14.638  -6.740  1.00 20.00    -0.390 OA
HETATM   10  C9  UNL     1     -33.961  15.272  -7.687  1.00 20.00     0.202 C 
ENDBRANCH   6   9
TORSDOF 1
ENDMDL
MODEL 7
REMARK VINA RESULT:      -3.9     16.722     18.551
REMARK  1 active torsions:
REMARK  status: ('A' for Active; 'I' for Inactive)
REMARK    1  A    between atoms: C6_6  and  O10_10 
ROOT
HETATM    1  C1  UNL     1     -36.235  14.014  -4.971  1.00 20.00     0.003 C 
HETATM    2  C2  UNL     1     -35.487  14.579  -6.172  1.00 20.00     0.032 C 
HETATM    3  C3  UNL     1     -35.356  14.026  -3.724  1.00 20.00     0.010 C 
HETATM    4  C4  UNL     1     -33.356  15.616  -4.101  1.00 20.00     0.017 A 
HETATM    5  C5  UNL     1     -34.556  16.354  -4.622  1.00 20.00     0.023 A 
HETATM    6  C6  UNL     1     -35.157  16.056  -5.961  1.00 20.00     0.125 C 
HETATM    7  C7  UNL     1     -34.716  15.376  -3.469  1.00 20.00    -0.038 A 
HETATM    8  C8  UNL     1     -34.963  15.946  -2.099  1.00 20.00     0.015 C 
ENDROOT
BRANCH   6   9
HETATM    9  O10 UNL     1     -34.262  16.495  -6.979  1.00 20.00    -0.390 OA
HETATM   10  C9  UNL     1     -33.958  15.448  -7.889  1.00 20.00     0.202 C 
ENDBRANCH   6   9
TORSDOF 1
ENDMDL
MODEL 8
REMARK VINA RESULT:      -3.9     17.840     19.593
REMARK  1 active torsions:
REMARK  status: ('A' for Active; 'I' for Inactive)
REMARK    1  A    between atoms: C6_6  and  O10_10 
ROOT
HETATM    1  C1  UNL     1     -34.045  14.611  -4.022  1.00 20.00     0.003 C 
HETATM    2  C2  UNL     1     -35.353  13.837  -3.925  1.00 20.00     0.032 C 
HETATM    3  C3  UNL     1     -33.752  15.011  -5.465  1.00 20.00     0.010 C 
HETATM    4  C4  UNL     1     -35.913  14.811  -6.865  1.00 20.00     0.017 A 
HETATM    5  C5  UNL     1     -36.327  15.483  -5.587  1.00 20.00     0.023 A 
HETATM    6  C6  UNL     1     -36.538  14.719  -4.316  1.00 20.00     0.125 C 
HETATM    7  C7  UNL     1     -34.925  15.702  -6.132  1.00 20.00    -0.038 A 
HETATM    8  C8  UNL     1     -34.611  17.044  -6.735  1.00 20.00     0.015 C 
ENDROOT
BRANCH   6   9
HETATM    9  O10 UNL     1     -37.709  13.919  -4.445  1.00 20.00    -0.390 OA
HETATM   10  C9  UNL     1     -38.887  14.697  -4.296  1.00 20.00     0.202 C 
ENDBRANCH   6   9
TORSDOF 1
ENDMDL
MODEL 9
REMARK VINA RESULT:      -3.9     22.982     24.208
REMARK  1 active torsions:
REMARK  status: ('A' for Active; 'I' for Inactive)
REMARK    1  A    between atoms: C6_6  and  O10_10 
ROOT
HETATM    1  C1  UNL     1     -42.317   5.923   1.135  1.00 20.00     0.003 C 
HETATM    2  C2  UNL     1     -42.674   5.274  -0.196  1.00 20.00     0.032 C 
HETATM    3  C3  UNL     1     -41.240   6.988   0.954  1.00 20.00     0.010 C 
HETATM    4  C4  UNL     1     -41.093   7.639  -1.542  1.00 20.00     0.017 A 
HETATM    5  C5  UNL     1     -42.561   7.585  -1.230  1.00 20.00     0.023 A 
HETATM    6  C6  UNL     1     -43.311   6.290  -1.143  1.00 20.00     0.125 C 
HETATM    7  C7  UNL     1     -41.576   7.980  -0.142  1.00 20.00    -0.038 A 
HETATM    8  C8  UNL     1     -41.542   9.424   0.278  1.00 20.00     0.015 C 
ENDROOT
BRANCH   6   9
HETATM    9  O10 UNL     1     -43.417   5.728  -2.447  1.00 20.00    -0.390 OA
HETATM   10  C9  UNL     1     -43.325   4.311  -2.409  1.00 20.00     0.202 C 
ENDBRANCH   6   9
TORSDOF 1
ENDMDL
