MODEL 1
REMARK VINA RESULT:      -4.9      0.000      0.000
REMARK  0 active torsions:
REMARK  status: ('A' for Active; 'I' for Inactive)
ROOT
HETATM    1  C1  UNL     1     -34.187  17.126  -4.688  1.00 20.00    -0.082 C 
HETATM    2  C2  UNL     1     -33.765  18.363  -4.992  1.00 20.00     0.015 C 
HETATM    3  C3  UNL     1     -33.517  16.300  -3.612  1.00 20.00     0.038 C 
HETATM    4  C4  UNL     1     -36.405  16.126  -4.288  1.00 20.00     0.018 C 
HETATM    5  C5  UNL     1     -35.429  13.844  -4.260  1.00 20.00     0.173 C 
HETATM    6  C6  UNL     1     -35.391  16.497  -5.373  1.00 20.00     0.043 C 
HETATM    7  C7  UNL     1     -35.777  15.060  -3.384  1.00 20.00     0.014 C 
HETATM    8  C8  UNL     1     -34.528  15.632  -2.653  1.00 20.00    -0.009 C 
HETATM    9  C9  UNL     1     -35.053  15.221  -6.183  1.00 20.00     0.125 C 
HETATM   10  C10 UNL     1     -34.940  16.614  -1.546  1.00 20.00     0.011 C 
HETATM   11  C11 UNL     1     -34.022  15.468  -7.279  1.00 20.00     0.040 C 
HETATM   12  O12 UNL     1     -34.555  14.173  -5.341  1.00 20.00    -0.385 OA
ENDROOT
TORSDOF 0
ENDMDL
MODEL 2
REMARK VINA RESULT:      -4.6      1.308      2.804
REMARK  0 active torsions:
REMARK  status: ('A' for Active; 'I' for Inactive)
ROOT
HETATM    1  C1  UNL     1     -36.043  16.588  -3.985  1.00 20.00    -0.082 C 
HETATM    2  C2  UNL     1     -37.286  17.077  -3.853  1.00 20.00     0.015 C 
HETATM    3  C3  UNL     1     -35.062  17.170  -4.978  1.00 20.00     0.038 C 
HETATM    4  C4  UNL     1     -34.279  15.944  -2.388  1.00 20.00     0.018 C 
HETATM    5  C5  UNL     1     -32.917  14.953  -4.211  1.00 20.00     0.173 C 
HETATM    6  C6  UNL     1     -35.531  15.449  -3.116  1.00 20.00     0.043 C 
HETATM    7  C7  UNL     1     -33.201  16.250  -3.433  1.00 20.00     0.014 C 
HETATM    8  C8  UNL     1     -33.662  17.405  -4.369  1.00 20.00    -0.009 C 
HETATM    9  C9  UNL     1     -35.161  14.173  -3.912  1.00 20.00     0.125 C 
HETATM   10  C10 UNL     1     -33.619  18.755  -3.638  1.00 20.00     0.011 C 
HETATM   11  C11 UNL     1     -36.333  13.606  -4.705  1.00 20.00     0.040 C 
HETATM   12  O12 UNL     1     -34.085  14.411  -4.828  1.00 20.00    -0.385 OA
ENDROOT
TORSDOF 0
ENDMDL
MODEL 3
REMARK VINA RESULT:      -4.5     17.012     19.045
REMARK  0 active torsions:
REMARK  status: ('A' for Active; 'I' for Inactive)
ROOT
HETATM    1  C1  UNL     1     -22.381  17.868   9.420  1.00 20.00    -0.082 C 
HETATM    2  C2  UNL     1     -21.363  17.542   8.610  1.00 20.00     0.015 C 
HETATM    3  C3  UNL     1     -23.113  19.185   9.286  1.00 20.00     0.038 C 
HETATM    4  C4  UNL     1     -24.379  16.666  10.223  1.00 20.00     0.018 C 
HETATM    5  C5  UNL     1     -24.897  18.490  11.825  1.00 20.00     0.173 C 
HETATM    6  C6  UNL     1     -22.892  16.915  10.491  1.00 20.00     0.043 C 
HETATM    7  C7  UNL     1     -25.128  17.992  10.387  1.00 20.00     0.014 C 
HETATM    8  C8  UNL     1     -24.649  19.024   9.325  1.00 20.00    -0.009 C 
HETATM    9  C9  UNL     1     -22.739  17.457  11.933  1.00 20.00     0.125 C 
HETATM   10  C10 UNL     1     -25.182  18.665   7.930  1.00 20.00     0.011 C 
HETATM   11  C11 UNL     1     -21.293  17.772  12.300  1.00 20.00     0.040 C 
HETATM   12  O12 UNL     1     -23.513  18.646  12.139  1.00 20.00    -0.385 OA
ENDROOT
TORSDOF 0
ENDMDL
MODEL 4
REMARK VINA RESULT:      -4.5      1.129      3.334
REMARK  0 active torsions:
REMARK  status: ('A' for Active; 'I' for Inactive)
ROOT
HETATM    1  C1  UNL     1     -33.960  17.221  -4.316  1.00 20.00    -0.082 C 
HETATM    2  C2  UNL     1     -33.234  18.345  -4.216  1.00 20.00     0.015 C 
HETATM    3  C3  UNL     1     -35.097  17.095  -5.307  1.00 20.00     0.038 C 
HETATM    4  C4  UNL     1     -33.394  14.824  -4.429  1.00 20.00     0.018 C 
HETATM    5  C5  UNL     1     -35.784  14.195  -4.200  1.00 20.00     0.173 C 
HETATM    6  C6  UNL     1     -33.657  15.991  -3.474  1.00 20.00     0.043 C 
HETATM    7  C7  UNL     1     -34.680  14.543  -5.214  1.00 20.00     0.014 C 
HETATM    8  C8  UNL     1     -35.059  15.767  -6.096  1.00 20.00    -0.009 C 
HETATM    9  C9  UNL     1     -34.807  15.590  -2.517  1.00 20.00     0.125 C 
HETATM   10  C10 UNL     1     -34.113  15.891  -7.300  1.00 20.00     0.011 C 
HETATM   11  C11 UNL     1     -35.176  16.696  -1.535  1.00 20.00     0.040 C 
HETATM   12  O12 UNL     1     -35.993  15.226  -3.235  1.00 20.00    -0.385 OA
ENDROOT
TORSDOF 0
ENDMDL
MODEL 5
REMARK VINA RESULT:      -4.4      1.193      1.742
REMARK  0 active torsions:
REMARK  status: ('A' for Active; 'I' for Inactive)
ROOT
HETATM    1  C1  UNL     1     -35.543  17.078  -4.829  1.00 20.00    -0.082 C 
HETATM    2  C2  UNL     1     -36.490  18.007  -5.029  1.00 20.00     0.015 C 
HETATM    3  C3  UNL     1     -34.082  17.448  -4.701  1.00 20.00     0.038 C 
HETATM    4  C4  UNL     1     -35.342  15.138  -3.321  1.00 20.00     0.018 C 
HETATM    5  C5  UNL     1     -33.288  14.376  -4.489  1.00 20.00     0.173 C 
HETATM    6  C6  UNL     1     -35.884  15.604  -4.675  1.00 20.00     0.043 C 
HETATM    7  C7  UNL     1     -33.814  15.260  -3.344  1.00 20.00     0.014 C 
HETATM    8  C8  UNL     1     -33.389  16.748  -3.510  1.00 20.00    -0.009 C 
HETATM    9  C9  UNL     1     -35.279  14.703  -5.779  1.00 20.00     0.125 C 
HETATM   10  C10 UNL     1     -33.632  17.538  -2.215  1.00 20.00     0.011 C 
HETATM   11  C11 UNL     1     -35.729  15.097  -7.181  1.00 20.00     0.040 C 
HETATM   12  O12 UNL     1     -33.846  14.724  -5.757  1.00 20.00    -0.385 OA
ENDROOT
TORSDOF 0
ENDMDL
MODEL 6
REMARK VINA RESULT:      -4.3      1.699      3.659
REMARK  0 active torsions:
REMARK  status: ('A' for Active; 'I' for Inactive)
ROOT
HETATM    1  C1  UNL     1     -34.059  15.125  -4.465  1.00 20.00    -0.082 C 
HETATM    2  C2  UNL     1     -32.861  14.522  -4.428  1.00 20.00     0.015 C 
HETATM    3  C3  UNL     1     -34.421  16.109  -5.555  1.00 20.00     0.038 C 
HETATM    4  C4  UNL     1     -36.380  14.336  -4.196  1.00 20.00     0.018 C 
HETATM    5  C5  UNL     1     -37.225  16.670  -4.166  1.00 20.00     0.173 C 
HETATM    6  C6  UNL     1     -35.142  14.823  -3.439  1.00 20.00     0.043 C 
HETATM    7  C7  UNL     1     -36.886  15.481  -5.081  1.00 20.00     0.014 C 
HETATM    8  C8  UNL     1     -35.821  15.852  -6.154  1.00 20.00    -0.009 C 
HETATM    9  C9  UNL     1     -35.545  16.045  -2.578  1.00 20.00     0.125 C 
HETATM   10  C10 UNL     1     -35.743  14.775  -7.247  1.00 20.00     0.011 C 
HETATM   11  C11 UNL     1     -34.375  16.635  -1.798  1.00 20.00     0.040 C 
HETATM   12  O12 UNL     1     -36.114  17.092  -3.374  1.00 20.00    -0.385 OA
ENDROOT
TORSDOF 0
ENDMDL
MODEL 7
REMARK VINA RESULT:      -4.3      1.266      2.858
REMARK  0 active torsions:
REMARK  status: ('A' for Active; 'I' for Inactive)
ROOT
HETATM    1  C1  UNL     1     -35.347  15.722  -3.332  1.00 20.00    -0.082 C 
HETATM    2  C2  UNL     1     -35.077  16.061  -2.062  1.00 20.00     0.015 C 
HETATM    3  C3  UNL     1     -36.502  14.811  -3.683  1.00 20.00     0.038 C 
HETATM    4  C4  UNL     1     -35.503  16.987  -5.443  1.00 20.00     0.018 C 
HETATM    5  C5  UNL     1     -35.672  14.884  -6.751  1.00 20.00     0.173 C 
HETATM    6  C6  UNL     1     -34.537  16.268  -4.498  1.00 20.00     0.043 C 
HETATM    7  C7  UNL     1     -36.487  15.954  -6.004  1.00 20.00     0.014 C 
HETATM    8  C8  UNL     1     -37.348  15.343  -4.861  1.00 20.00    -0.009 C 
HETATM    9  C9  UNL     1     -33.787  15.178  -5.303  1.00 20.00     0.125 C 
HETATM   10  C10 UNL     1     -38.388  16.354  -4.355  1.00 20.00     0.011 C 
HETATM   11  C11 UNL     1     -32.813  14.373  -4.450  1.00 20.00     0.040 C 
HETATM   12  O12 UNL     1     -34.694  14.256  -5.921  1.00 20.00    -0.385 OA
ENDROOT
TORSDOF 0
ENDMDL
MODEL 8
REMARK VINA RESULT:      -4.2      1.457      2.358
REMARK  0 active torsions:
REMARK  status: ('A' for Active; 'I' for Inactive)
ROOT
HETATM    1  C1  UNL     1     -33.923  15.364  -4.165  1.00 20.00    -0.082 C 
HETATM    2  C2  UNL     1     -32.802  14.641  -4.308  1.00 20.00     0.015 C 
HETATM    3  C3  UNL     1     -34.781  15.263  -2.923  1.00 20.00     0.038 C 
HETATM    4  C4  UNL     1     -34.492  17.732  -4.551  1.00 20.00     0.018 C 
HETATM    5  C5  UNL     1     -36.902  17.267  -4.184  1.00 20.00     0.173 C 
HETATM    6  C6  UNL     1     -34.376  16.361  -5.222  1.00 20.00     0.043 C 
HETATM    7  C7  UNL     1     -35.589  17.657  -3.483  1.00 20.00     0.014 C 
HETATM    8  C8  UNL     1     -35.196  16.644  -2.369  1.00 20.00    -0.009 C 
HETATM    9  C9  UNL     1     -35.743  16.014  -5.863  1.00 20.00     0.125 C 
HETATM   10  C10 UNL     1     -34.086  17.214  -1.473  1.00 20.00     0.011 C 
HETATM   11  C11 UNL     1     -35.753  14.647  -6.538  1.00 20.00     0.040 C 
HETATM   12  O12 UNL     1     -36.803  16.035  -4.899  1.00 20.00    -0.385 OA
ENDROOT
TORSDOF 0
ENDMDL
MODEL 9
REMARK VINA RESULT:      -4.2      1.858      3.419
REMARK  0 active torsions:
REMARK  status: ('A' for Active; 'I' for Inactive)
ROOT
HETATM    1  C1  UNL     1     -35.920  15.462  -3.820  1.00 20.00    -0.082 C 
HETATM    2  C2  UNL     1     -36.663  14.387  -4.127  1.00 20.00     0.015 C 
HETATM    3  C3  UNL     1     -36.162  16.806  -4.471  1.00 20.00     0.038 C 
HETATM    4  C4  UNL     1     -35.142  16.455  -1.702  1.00 20.00     0.018 C 
HETATM    5  C5  UNL     1     -33.672  18.039  -2.924  1.00 20.00     0.173 C 
HETATM    6  C6  UNL     1     -34.822  15.406  -2.770  1.00 20.00     0.043 C 
HETATM    7  C7  UNL     1     -35.089  17.840  -2.355  1.00 20.00     0.014 C 
HETATM    8  C8  UNL     1     -36.184  17.968  -3.453  1.00 20.00    -0.009 C 
HETATM    9  C9  UNL     1     -33.407  15.694  -3.329  1.00 20.00     0.125 C 
HETATM   10  C10 UNL     1     -37.580  18.098  -2.825  1.00 20.00     0.011 C 
HETATM   11  C11 UNL     1     -32.992  14.721  -4.428  1.00 20.00     0.040 C 
HETATM   12  O12 UNL     1     -33.304  17.022  -3.857  1.00 20.00    -0.385 OA
ENDROOT
TORSDOF 0
ENDMDL
