MODEL 1
REMARK VINA RESULT:      -4.6      0.000      0.000
REMARK  1 active torsions:
REMARK  status: ('A' for Active; 'I' for Inactive)
REMARK    1  A    between atoms: C6_6  and  O10_10 
ROOT
HETATM    1  C1  UNL     1     -25.456  18.843  10.084  1.00 20.00     0.003 C 
HETATM    2  C2  UNL     1     -24.327  18.920   9.043  1.00 20.00     0.032 C 
HETATM    3  C3  UNL     1     -24.997  18.438  11.489  1.00 20.00     0.010 C 
HETATM    4  C4  UNL     1     -22.613  17.477  11.914  1.00 20.00     0.017 A 
HETATM    5  C5  UNL     1     -22.899  17.448  10.437  1.00 20.00     0.023 A 
HETATM    6  C6  UNL     1     -22.927  18.710   9.626  1.00 20.00     0.125 C 
HETATM    7  C7  UNL     1     -24.031  17.274  11.427  1.00 20.00    -0.038 A 
HETATM    8  C8  UNL     1     -24.648  15.912  11.564  1.00 20.00     0.015 C 
ENDROOT
BRANCH   6   9
HETATM    9  O10 UNL     1     -21.976  18.614   8.570  1.00 20.00    -0.390 OA
HETATM   10  C9  UNL     1     -21.833  17.274   8.129  1.00 20.00     0.202 C 
ENDBRANCH   6   9
TORSDOF 1
ENDMDL
MODEL 2
REMARK VINA RESULT:      -4.3      1.673      3.199
REMARK  1 active torsions:
REMARK  status: ('A' for Active; 'I' for Inactive)
REMARK    1  A    between atoms: C6_6  and  O10_10 
ROOT
HETATM    1  C1  UNL     1     -22.732  18.461   8.959  1.00 20.00     0.003 C 
HETATM    2  C2  UNL     1     -24.069  19.198   9.145  1.00 20.00     0.032 C 
HETATM    3  C3  UNL     1     -22.609  17.158   9.754  1.00 20.00     0.010 C 
HETATM    4  C4  UNL     1     -24.311  16.547  11.630  1.00 20.00     0.017 A 
HETATM    5  C5  UNL     1     -24.466  18.002  11.281  1.00 20.00     0.023 A 
HETATM    6  C6  UNL     1     -25.092  18.428   9.985  1.00 20.00     0.125 C 
HETATM    7  C7  UNL     1     -23.108  17.342  11.172  1.00 20.00    -0.038 A 
HETATM    8  C8  UNL     1     -22.061  17.705  12.185  1.00 20.00     0.015 C 
ENDROOT
BRANCH   6   9
HETATM    9  O10 UNL     1     -26.215  19.260  10.256  1.00 20.00    -0.390 OA
HETATM   10  C9  UNL     1     -26.532  19.263  11.638  1.00 20.00     0.202 C 
ENDBRANCH   6   9
TORSDOF 1
ENDMDL
MODEL 3
REMARK VINA RESULT:      -4.3      1.620      2.881
REMARK  1 active torsions:
REMARK  status: ('A' for Active; 'I' for Inactive)
REMARK    1  A    between atoms: C6_6  and  O10_10 
ROOT
HETATM    1  C1  UNL     1     -21.973  18.468   9.104  1.00 20.00     0.003 C 
HETATM    2  C2  UNL     1     -23.289  19.174   8.737  1.00 20.00     0.032 C 
HETATM    3  C3  UNL     1     -22.150  17.160   9.884  1.00 20.00     0.010 C 
HETATM    4  C4  UNL     1     -24.449  16.498  10.917  1.00 20.00     0.017 A 
HETATM    5  C5  UNL     1     -24.483  17.953  10.534  1.00 20.00     0.023 A 
HETATM    6  C6  UNL     1     -24.545  18.376   9.096  1.00 20.00     0.125 C 
HETATM    7  C7  UNL     1     -23.181  17.322  10.981  1.00 20.00    -0.038 A 
HETATM    8  C8  UNL     1     -22.638  17.699  12.329  1.00 20.00     0.015 C 
ENDROOT
BRANCH   6   9
HETATM    9  O10 UNL     1     -25.701  19.182   8.891  1.00 20.00    -0.390 OA
HETATM   10  C9  UNL     1     -26.074  19.208   7.524  1.00 20.00     0.202 C 
ENDBRANCH   6   9
TORSDOF 1
ENDMDL
MODEL 4
REMARK VINA RESULT:      -4.2     17.321     18.489
REMARK  1 active torsions:
REMARK  status: ('A' for Active; 'I' for Inactive)
REMARK    1  A    between atoms: C6_6  and  O10_10 
ROOT
HETATM    1  C1  UNL     1     -33.704  16.388  -2.436  1.00 20.00     0.003 C 
HETATM    2  C2  UNL     1     -33.114  15.761  -3.711  1.00 20.00     0.032 C 
HETATM    3  C3  UNL     1     -35.145  15.966  -2.130  1.00 20.00     0.010 C 
HETATM    4  C4  UNL     1     -36.597  14.715  -3.895  1.00 20.00     0.017 A 
HETATM    5  C5  UNL     1     -35.391  15.302  -4.577  1.00 20.00     0.023 A 
HETATM    6  C6  UNL     1     -34.023  14.721  -4.371  1.00 20.00     0.125 C 
HETATM    7  C7  UNL     1     -35.996  16.005  -3.381  1.00 20.00    -0.038 A 
HETATM    8  C8  UNL     1     -36.742  17.287  -3.616  1.00 20.00     0.015 C 
ENDROOT
BRANCH   6   9
HETATM    9  O10 UNL     1     -33.479  14.339  -5.630  1.00 20.00    -0.390 OA
HETATM   10  C9  UNL     1     -34.067  15.076  -6.690  1.00 20.00     0.202 C 
ENDBRANCH   6   9
TORSDOF 1
ENDMDL
MODEL 5
REMARK VINA RESULT:      -4.2     18.235     19.475
REMARK  1 active torsions:
REMARK  status: ('A' for Active; 'I' for Inactive)
REMARK    1  A    between atoms: C6_6  and  O10_10 
ROOT
HETATM    1  C1  UNL     1     -34.370  14.794  -6.076  1.00 20.00     0.003 C 
HETATM    2  C2  UNL     1     -35.794  14.239  -5.911  1.00 20.00     0.032 C 
HETATM    3  C3  UNL     1     -33.701  15.225  -4.766  1.00 20.00     0.010 C 
HETATM    4  C4  UNL     1     -35.065  15.462  -2.559  1.00 20.00     0.017 A 
HETATM    5  C5  UNL     1     -36.019  15.379  -3.720  1.00 20.00     0.023 A 
HETATM    6  C6  UNL     1     -36.239  14.088  -4.453  1.00 20.00     0.125 C 
HETATM    7  C7  UNL     1     -34.660  16.020  -3.906  1.00 20.00    -0.038 A 
HETATM    8  C8  UNL     1     -34.598  17.510  -4.075  1.00 20.00     0.015 C 
ENDROOT
BRANCH   6   9
HETATM    9  O10 UNL     1     -37.621  13.749  -4.405  1.00 20.00    -0.390 OA
HETATM   10  C9  UNL     1     -38.428  14.902  -4.232  1.00 20.00     0.202 C 
ENDBRANCH   6   9
TORSDOF 1
ENDMDL
MODEL 6
REMARK VINA RESULT:      -4.2     18.344     19.533
REMARK  1 active torsions:
REMARK  status: ('A' for Active; 'I' for Inactive)
REMARK    1  A    between atoms: C6_6  and  O10_10 
ROOT
HETATM    1  C1  UNL     1     -35.808  16.905  -5.360  1.00 20.00     0.003 C 
HETATM    2  C2  UNL     1     -37.055  16.034  -5.129  1.00 20.00     0.032 C 
HETATM    3  C3  UNL     1     -34.478  16.190  -5.100  1.00 20.00     0.010 C 
HETATM    4  C4  UNL     1     -34.390  13.885  -3.887  1.00 20.00     0.017 A 
HETATM    5  C5  UNL     1     -35.752  14.495  -3.687  1.00 20.00     0.023 A 
HETATM    6  C6  UNL     1     -36.742  14.570  -4.812  1.00 20.00     0.125 C 
HETATM    7  C7  UNL     1     -34.538  15.390  -3.816  1.00 20.00    -0.038 A 
HETATM    8  C8  UNL     1     -34.048  16.101  -2.587  1.00 20.00     0.015 C 
ENDROOT
BRANCH   6   9
HETATM    9  O10 UNL     1     -37.937  13.894  -4.433  1.00 20.00    -0.390 OA
HETATM   10  C9  UNL     1     -38.991  14.811  -4.190  1.00 20.00     0.202 C 
ENDBRANCH   6   9
TORSDOF 1
ENDMDL
MODEL 7
REMARK VINA RESULT:      -4.1     23.247     24.204
REMARK  1 active torsions:
REMARK  status: ('A' for Active; 'I' for Inactive)
REMARK    1  A    between atoms: C6_6  and  O10_10 
ROOT
HETATM    1  C1  UNL     1     -43.417   6.260   1.201  1.00 20.00     0.003 C 
HETATM    2  C2  UNL     1     -42.703   7.565   0.811  1.00 20.00     0.032 C 
HETATM    3  C3  UNL     1     -42.756   4.988   0.660  1.00 20.00     0.010 C 
HETATM    4  C4  UNL     1     -40.901   5.095  -1.167  1.00 20.00     0.017 A 
HETATM    5  C5  UNL     1     -41.597   6.428  -1.094  1.00 20.00     0.023 A 
HETATM    6  C6  UNL     1     -41.382   7.353   0.067  1.00 20.00     0.125 C 
HETATM    7  C7  UNL     1     -42.366   5.159  -0.793  1.00 20.00    -0.038 A 
HETATM    8  C8  UNL     1     -43.383   4.693  -1.795  1.00 20.00     0.015 C 
ENDROOT
BRANCH   6   9
HETATM    9  O10 UNL     1     -40.893   8.602  -0.410  1.00 20.00    -0.390 OA
HETATM   10  C9  UNL     1     -41.389   9.679   0.368  1.00 20.00     0.202 C 
ENDBRANCH   6   9
TORSDOF 1
ENDMDL
MODEL 8
REMARK VINA RESULT:      -4.1     16.710     17.916
REMARK  1 active torsions:
REMARK  status: ('A' for Active; 'I' for Inactive)
REMARK    1  A    between atoms: C6_6  and  O10_10 
ROOT
HETATM    1  C1  UNL     1     -36.259  15.092  -3.598  1.00 20.00     0.003 C 
HETATM    2  C2  UNL     1     -35.555  16.161  -2.745  1.00 20.00     0.032 C 
HETATM    3  C3  UNL     1     -35.315  14.071  -4.241  1.00 20.00     0.010 C 
HETATM    4  C4  UNL     1     -32.737  14.446  -4.287  1.00 20.00     0.017 A 
HETATM    5  C5  UNL     1     -33.415  15.739  -3.925  1.00 20.00     0.023 A 
HETATM    6  C6  UNL     1     -34.050  15.933  -2.579  1.00 20.00     0.125 C 
HETATM    7  C7  UNL     1     -34.108  14.757  -4.845  1.00 20.00    -0.038 A 
HETATM    8  C8  UNL     1     -34.226  15.112  -6.300  1.00 20.00     0.015 C 
ENDROOT
BRANCH   6   9
HETATM    9  O10 UNL     1     -33.461  17.061  -1.939  1.00 20.00    -0.390 OA
HETATM   10  C9  UNL     1     -32.841  17.921  -2.881  1.00 20.00     0.202 C 
ENDBRANCH   6   9
TORSDOF 1
ENDMDL
MODEL 9
REMARK VINA RESULT:      -4.1     14.919     16.209
REMARK  1 active torsions:
REMARK  status: ('A' for Active; 'I' for Inactive)
REMARK    1  A    between atoms: C6_6  and  O10_10 
ROOT
HETATM    1  C1  UNL     1     -35.241  17.102  -1.080  1.00 20.00     0.003 C 
HETATM    2  C2  UNL     1     -34.003  18.003  -0.933  1.00 20.00     0.032 C 
HETATM    3  C3  UNL     1     -35.056  15.921  -2.040  1.00 20.00     0.010 C 
HETATM    4  C4  UNL     1     -33.005  15.783  -3.642  1.00 20.00     0.017 A 
HETATM    5  C5  UNL     1     -33.108  17.181  -3.094  1.00 20.00     0.023 A 
HETATM    6  C6  UNL     1     -32.763  17.482  -1.665  1.00 20.00     0.125 C 
HETATM    7  C7  UNL     1     -34.363  16.363  -3.311  1.00 20.00    -0.038 A 
HETATM    8  C8  UNL     1     -35.273  16.750  -4.443  1.00 20.00     0.015 C 
ENDROOT
BRANCH   6   9
HETATM    9  O10 UNL     1     -31.734  18.466  -1.626  1.00 20.00    -0.390 OA
HETATM   10  C9  UNL     1     -31.101  18.497  -0.358  1.00 20.00     0.202 C 
ENDBRANCH   6   9
TORSDOF 1
ENDMDL
