MODEL 1
REMARK VINA RESULT:      -4.7      0.000      0.000
REMARK  0 active torsions:
REMARK  status: ('A' for Active; 'I' for Inactive)
ROOT
HETATM    1  C1  UNL     1     -25.109  15.943  12.096  1.00 20.00    -0.029 C 
HETATM    2  C2  UNL     1     -23.931  16.192  11.500  1.00 20.00    -0.014 C 
HETATM    3  C3  UNL     1     -24.622  18.321  10.256  1.00 20.00     0.143 C 
HETATM    4  C4  UNL     1     -26.342  16.795  12.096  1.00 20.00     0.032 C 
HETATM    5  C5  UNL     1     -26.755  19.263  11.412  1.00 20.00     0.018 A 
HETATM    6  C6  UNL     1     -25.263  19.051  11.379  1.00 20.00     0.061 A 
HETATM    7  C7  UNL     1     -26.121  18.258  12.332  1.00 20.00     0.001 A 
HETATM    8  C8  UNL     1     -23.484  17.354  10.632  1.00 20.00     0.031 C 
HETATM    9  C9  UNL     1     -22.376  18.132  11.361  1.00 20.00     0.027 C 
HETATM   10  C10 UNL     1     -22.893  16.774   9.331  1.00 20.00     0.027 C 
HETATM   11  O11 UNL     1     -25.010  18.512   9.109  1.00 20.00    -0.296 OA
ENDROOT
TORSDOF 0
ENDMDL
MODEL 2
REMARK VINA RESULT:      -4.6     17.243     18.068
REMARK  0 active torsions:
REMARK  status: ('A' for Active; 'I' for Inactive)
ROOT
HETATM    1  C1  UNL     1     -32.873  15.529  -3.660  1.00 20.00    -0.029 C 
HETATM    2  C2  UNL     1     -33.363  16.498  -2.870  1.00 20.00    -0.014 C 
HETATM    3  C3  UNL     1     -35.807  16.343  -3.615  1.00 20.00     0.143 C 
HETATM    4  C4  UNL     1     -33.631  14.595  -4.554  1.00 20.00     0.032 C 
HETATM    5  C5  UNL     1     -36.154  14.017  -4.732  1.00 20.00     0.018 A 
HETATM    6  C6  UNL     1     -35.994  14.874  -3.502  1.00 20.00     0.061 A 
HETATM    7  C7  UNL     1     -34.865  13.986  -3.960  1.00 20.00     0.001 A 
HETATM    8  C8  UNL     1     -34.787  16.977  -2.653  1.00 20.00     0.031 C 
HETATM    9  C9  UNL     1     -35.204  16.682  -1.202  1.00 20.00     0.027 C 
HETATM   10  C10 UNL     1     -34.810  18.504  -2.862  1.00 20.00     0.027 C 
HETATM   11  O11 UNL     1     -36.455  16.974  -4.444  1.00 20.00    -0.296 OA
ENDROOT
TORSDOF 0
ENDMDL
MODEL 3
REMARK VINA RESULT:      -4.4      1.572      3.233
REMARK  0 active torsions:
REMARK  status: ('A' for Active; 'I' for Inactive)
ROOT
HETATM    1  C1  UNL     1     -25.700  18.958  10.475  1.00 20.00    -0.029 C 
HETATM    2  C2  UNL     1     -25.160  18.191  11.436  1.00 20.00    -0.014 C 
HETATM    3  C3  UNL     1     -23.426  16.992   9.982  1.00 20.00     0.143 C 
HETATM    4  C4  UNL     1     -25.251  19.107   9.052  1.00 20.00     0.032 C 
HETATM    5  C5  UNL     1     -23.071  18.413   7.830  1.00 20.00     0.018 A 
HETATM    6  C6  UNL     1     -22.837  18.172   9.300  1.00 20.00     0.061 A 
HETATM    7  C7  UNL     1     -23.774  19.263   8.850  1.00 20.00     0.001 A 
HETATM    8  C8  UNL     1     -23.985  17.231  11.397  1.00 20.00     0.031 C 
HETATM    9  C9  UNL     1     -22.863  17.768  12.303  1.00 20.00     0.027 C 
HETATM   10  C10 UNL     1     -24.459  15.878  11.964  1.00 20.00     0.027 C 
HETATM   11  O11 UNL     1     -23.442  15.907   9.412  1.00 20.00    -0.296 OA
ENDROOT
TORSDOF 0
ENDMDL
MODEL 4
REMARK VINA RESULT:      -4.4     16.362     17.109
REMARK  0 active torsions:
REMARK  status: ('A' for Active; 'I' for Inactive)
ROOT
HETATM    1  C1  UNL     1     -35.163  16.272  -1.537  1.00 20.00    -0.029 C 
HETATM    2  C2  UNL     1     -35.074  15.583  -2.686  1.00 20.00    -0.014 C 
HETATM    3  C3  UNL     1     -33.738  17.314  -4.019  1.00 20.00     0.143 C 
HETATM    4  C4  UNL     1     -34.513  17.578  -1.190  1.00 20.00     0.032 C 
HETATM    5  C5  UNL     1     -32.609  18.930  -2.319  1.00 20.00     0.018 A 
HETATM    6  C6  UNL     1     -32.671  17.600  -3.027  1.00 20.00     0.061 A 
HETATM    7  C7  UNL     1     -33.071  17.707  -1.578  1.00 20.00     0.001 A 
HETATM    8  C8  UNL     1     -34.344  15.899  -3.979  1.00 20.00     0.031 C 
HETATM    9  C9  UNL     1     -33.230  14.862  -4.197  1.00 20.00     0.027 C 
HETATM   10  C10 UNL     1     -35.355  15.774  -5.137  1.00 20.00     0.027 C 
HETATM   11  O11 UNL     1     -34.082  18.187  -4.808  1.00 20.00    -0.296 OA
ENDROOT
TORSDOF 0
ENDMDL
MODEL 5
REMARK VINA RESULT:      -4.2     18.093     18.769
REMARK  0 active torsions:
REMARK  status: ('A' for Active; 'I' for Inactive)
ROOT
HETATM    1  C1  UNL     1     -35.098  13.753  -4.134  1.00 20.00    -0.029 C 
HETATM    2  C2  UNL     1     -34.423  14.656  -3.405  1.00 20.00    -0.014 C 
HETATM    3  C3  UNL     1     -35.780  16.721  -4.077  1.00 20.00     0.143 C 
HETATM    4  C4  UNL     1     -36.345  13.962  -4.940  1.00 20.00     0.032 C 
HETATM    5  C5  UNL     1     -38.066  15.901  -5.014  1.00 20.00     0.018 A 
HETATM    6  C6  UNL     1     -37.147  16.185  -3.854  1.00 20.00     0.061 A 
HETATM    7  C7  UNL     1     -37.421  14.764  -4.273  1.00 20.00     0.001 A 
HETATM    8  C8  UNL     1     -34.666  16.139  -3.188  1.00 20.00     0.031 C 
HETATM    9  C9  UNL     1     -35.014  16.384  -1.711  1.00 20.00     0.027 C 
HETATM   10  C10 UNL     1     -33.355  16.886  -3.507  1.00 20.00     0.027 C 
HETATM   11  O11 UNL     1     -35.598  17.580  -4.933  1.00 20.00    -0.296 OA
ENDROOT
TORSDOF 0
ENDMDL
MODEL 6
REMARK VINA RESULT:      -4.2     18.799     19.474
REMARK  0 active torsions:
REMARK  status: ('A' for Active; 'I' for Inactive)
ROOT
HETATM    1  C1  UNL     1     -36.295  14.022  -5.169  1.00 20.00    -0.029 C 
HETATM    2  C2  UNL     1     -35.853  14.535  -6.328  1.00 20.00    -0.014 C 
HETATM    3  C3  UNL     1     -34.459  16.445  -5.346  1.00 20.00     0.143 C 
HETATM    4  C4  UNL     1     -35.910  14.419  -3.776  1.00 20.00     0.032 C 
HETATM    5  C5  UNL     1     -33.971  15.875  -2.853  1.00 20.00     0.018 A 
HETATM    6  C6  UNL     1     -33.701  15.680  -4.323  1.00 20.00     0.061 A 
HETATM    7  C7  UNL     1     -34.444  14.626  -3.542  1.00 20.00     0.001 A 
HETATM    8  C8  UNL     1     -34.881  15.667  -6.606  1.00 20.00     0.031 C 
HETATM    9  C9  UNL     1     -33.629  15.101  -7.297  1.00 20.00     0.027 C 
HETATM   10  C10 UNL     1     -35.565  16.653  -7.575  1.00 20.00     0.027 C 
HETATM   11  O11 UNL     1     -34.710  17.630  -5.154  1.00 20.00    -0.296 OA
ENDROOT
TORSDOF 0
ENDMDL
MODEL 7
REMARK VINA RESULT:      -4.2     22.853     23.975
REMARK  0 active torsions:
REMARK  status: ('A' for Active; 'I' for Inactive)
ROOT
HETATM    1  C1  UNL     1     -43.332   6.303   1.479  1.00 20.00    -0.029 C 
HETATM    2  C2  UNL     1     -43.066   7.554   1.071  1.00 20.00    -0.014 C 
HETATM    3  C3  UNL     1     -41.791   6.954  -1.066  1.00 20.00     0.143 C 
HETATM    4  C4  UNL     1     -43.060   5.019   0.755  1.00 20.00     0.032 C 
HETATM    5  C5  UNL     1     -42.413   4.508  -1.704  1.00 20.00     0.018 A 
HETATM    6  C6  UNL     1     -42.748   5.977  -1.643  1.00 20.00     0.061 A 
HETATM    7  C7  UNL     1     -43.415   5.007  -0.701  1.00 20.00     0.001 A 
HETATM    8  C8  UNL     1     -42.396   8.067  -0.190  1.00 20.00     0.031 C 
HETATM    9  C9  UNL     1     -43.417   8.865  -1.017  1.00 20.00     0.027 C 
HETATM   10  C10 UNL     1     -41.260   9.021   0.230  1.00 20.00     0.027 C 
HETATM   11  O11 UNL     1     -40.593   6.841  -1.303  1.00 20.00    -0.296 OA
ENDROOT
TORSDOF 0
ENDMDL
MODEL 8
REMARK VINA RESULT:      -4.2     23.035     24.045
REMARK  0 active torsions:
REMARK  status: ('A' for Active; 'I' for Inactive)
ROOT
HETATM    1  C1  UNL     1     -43.127   5.773   1.434  1.00 20.00    -0.029 C 
HETATM    2  C2  UNL     1     -42.684   4.972   0.452  1.00 20.00    -0.014 C 
HETATM    3  C3  UNL     1     -42.612   6.725  -1.412  1.00 20.00     0.143 C 
HETATM    4  C4  UNL     1     -43.336   7.257   1.392  1.00 20.00     0.032 C 
HETATM    5  C5  UNL     1     -42.578   9.075  -0.295  1.00 20.00     0.018 A 
HETATM    6  C6  UNL     1     -41.881   7.800  -0.694  1.00 20.00     0.061 A 
HETATM    7  C7  UNL     1     -42.238   8.049   0.748  1.00 20.00     0.001 A 
HETATM    8  C8  UNL     1     -42.295   5.280  -0.982  1.00 20.00     0.031 C 
HETATM    9  C9  UNL     1     -40.793   5.012  -1.168  1.00 20.00     0.027 C 
HETATM   10  C10 UNL     1     -43.076   4.321  -1.902  1.00 20.00     0.027 C 
HETATM   11  O11 UNL     1     -43.412   7.020  -2.293  1.00 20.00    -0.296 OA
ENDROOT
TORSDOF 0
ENDMDL
MODEL 9
REMARK VINA RESULT:      -4.2     15.616     16.682
REMARK  0 active torsions:
REMARK  status: ('A' for Active; 'I' for Inactive)
ROOT
HETATM    1  C1  UNL     1     -32.891  18.143  -1.798  1.00 20.00    -0.029 C 
HETATM    2  C2  UNL     1     -33.814  18.436  -0.868  1.00 20.00    -0.014 C 
HETATM    3  C3  UNL     1     -35.786  17.212  -1.948  1.00 20.00     0.143 C 
HETATM    4  C4  UNL     1     -33.030  17.239  -2.986  1.00 20.00     0.032 C 
HETATM    5  C5  UNL     1     -34.821  15.478  -3.634  1.00 20.00     0.018 A 
HETATM    6  C6  UNL     1     -35.131  15.908  -2.222  1.00 20.00     0.061 A 
HETATM    7  C7  UNL     1     -33.711  15.929  -2.727  1.00 20.00     0.001 A 
HETATM    8  C8  UNL     1     -35.261  17.998  -0.733  1.00 20.00     0.031 C 
HETATM    9  C9  UNL     1     -35.412  17.138   0.533  1.00 20.00     0.027 C 
HETATM   10  C10 UNL     1     -36.126  19.263  -0.566  1.00 20.00     0.027 C 
HETATM   11  O11 UNL     1     -36.694  17.599  -2.677  1.00 20.00    -0.296 OA
ENDROOT
TORSDOF 0
ENDMDL
