MODEL 1
REMARK VINA RESULT:      -4.0      0.000      0.000
REMARK  4 active torsions:
REMARK  status: ('A' for Active; 'I' for Inactive)
REMARK    1  A    between atoms: C1_1  and  C7_7 
REMARK    2  A    between atoms: C7_7  and  N10_10 
REMARK    3  A    between atoms: C8_8  and  C9_9 
REMARK    4  A    between atoms: C8_8  and  N10_10 
ROOT
HETATM    1  C2  UNL     1     -35.721  17.670  -4.513  1.00 20.00     0.043 C 
HETATM    2  C8  UNL     1     -35.135  16.294  -4.836  1.00 20.00     0.226 C 
ENDROOT
BRANCH   2   3
HETATM    3  C9  UNL     1     -34.481  15.550  -3.626  1.00 20.00    -0.021 C 
HETATM    4  C3  UNL     1     -35.173  15.889  -2.292  1.00 20.00     0.016 C 
HETATM    5  C4  UNL     1     -34.547  14.023  -3.834  1.00 20.00     0.016 C 
HETATM    6  C5  UNL     1     -32.991  15.941  -3.515  1.00 20.00     0.016 C 
ENDBRANCH   2   3
BRANCH   2   7
HETATM    7  N10 UNL     1     -36.159  15.483  -5.463  1.00 20.00     0.095 N 
HETATM    8  C6  UNL     1     -35.966  15.426  -6.917  1.00 20.00     0.310 C 
BRANCH   7   9
HETATM    9  C7  UNL     1     -37.498  15.998  -5.157  1.00 20.00     0.341 C 
BRANCH   9  10
HETATM   10  C1  UNL     1     -38.214  14.986  -4.311  1.00 20.00     0.261 C 
HETATM   11  O11 UNL     1     -37.991  13.781  -4.389  1.00 20.00    -0.305 OA
ENDBRANCH   9  10
ENDBRANCH   7   9
ENDBRANCH   2   7
TORSDOF 4
ENDMDL
MODEL 2
REMARK VINA RESULT:      -4.0      0.038      1.303
REMARK  4 active torsions:
REMARK  status: ('A' for Active; 'I' for Inactive)
REMARK    1  A    between atoms: C1_1  and  C7_7 
REMARK    2  A    between atoms: C7_7  and  N10_10 
REMARK    3  A    between atoms: C8_8  and  C9_9 
REMARK    4  A    between atoms: C8_8  and  N10_10 
ROOT
HETATM    1  C2  UNL     1     -35.739  17.637  -4.482  1.00 20.00     0.043 C 
HETATM    2  C8  UNL     1     -35.150  16.273  -4.844  1.00 20.00     0.226 C 
ENDROOT
BRANCH   2   3
HETATM    3  C9  UNL     1     -34.477  15.504  -3.659  1.00 20.00    -0.021 C 
HETATM    4  C3  UNL     1     -34.553  13.976  -3.840  1.00 20.00     0.016 C 
HETATM    5  C4  UNL     1     -32.993  15.906  -3.533  1.00 20.00     0.016 C 
HETATM    6  C5  UNL     1     -35.174  15.874  -2.331  1.00 20.00     0.016 C 
ENDBRANCH   2   3
BRANCH   2   7
HETATM    7  N10 UNL     1     -36.176  15.471  -5.479  1.00 20.00     0.095 N 
HETATM    8  C6  UNL     1     -35.976  15.418  -6.932  1.00 20.00     0.310 C 
BRANCH   7   9
HETATM    9  C7  UNL     1     -37.513  15.995  -5.178  1.00 20.00     0.341 C 
BRANCH   9  10
HETATM   10  C1  UNL     1     -38.242  14.983  -4.343  1.00 20.00     0.261 C 
HETATM   11  O11 UNL     1     -37.980  13.783  -4.378  1.00 20.00    -0.305 OA
ENDBRANCH   9  10
ENDBRANCH   7   9
ENDBRANCH   2   7
TORSDOF 4
ENDMDL
MODEL 3
REMARK VINA RESULT:      -3.9      1.847      2.749
REMARK  4 active torsions:
REMARK  status: ('A' for Active; 'I' for Inactive)
REMARK    1  A    between atoms: C1_1  and  C7_7 
REMARK    2  A    between atoms: C7_7  and  N10_10 
REMARK    3  A    between atoms: C8_8  and  C9_9 
REMARK    4  A    between atoms: C8_8  and  N10_10 
ROOT
HETATM    1  C2  UNL     1     -34.854  17.204  -5.276  1.00 20.00     0.043 C 
HETATM    2  C8  UNL     1     -33.987  16.570  -4.188  1.00 20.00     0.226 C 
ENDROOT
BRANCH   2   3
HETATM    3  C9  UNL     1     -34.186  17.159  -2.752  1.00 20.00    -0.021 C 
HETATM    4  C3  UNL     1     -32.845  17.454  -2.054  1.00 20.00     0.016 C 
HETATM    5  C4  UNL     1     -34.999  18.468  -2.818  1.00 20.00     0.016 C 
HETATM    6  C5  UNL     1     -34.980  16.160  -1.882  1.00 20.00     0.016 C 
ENDBRANCH   2   3
BRANCH   2   7
HETATM    7  N10 UNL     1     -34.187  15.135  -4.203  1.00 20.00     0.095 N 
HETATM    8  C6  UNL     1     -32.921  14.431  -4.441  1.00 20.00     0.310 C 
BRANCH   7   9
HETATM    9  C7  UNL     1     -35.170  14.754  -5.223  1.00 20.00     0.341 C 
BRANCH   9  10
HETATM   10  C1  UNL     1     -36.132  13.775  -4.613  1.00 20.00     0.261 C 
HETATM   11  O11 UNL     1     -35.895  12.573  -4.539  1.00 20.00    -0.305 OA
ENDBRANCH   9  10
ENDBRANCH   7   9
ENDBRANCH   2   7
TORSDOF 4
ENDMDL
MODEL 4
REMARK VINA RESULT:      -3.8      1.240      1.928
REMARK  4 active torsions:
REMARK  status: ('A' for Active; 'I' for Inactive)
REMARK    1  A    between atoms: C1_1  and  C7_7 
REMARK    2  A    between atoms: C7_7  and  N10_10 
REMARK    3  A    between atoms: C8_8  and  C9_9 
REMARK    4  A    between atoms: C8_8  and  N10_10 
ROOT
HETATM    1  C2  UNL     1     -36.006  17.593  -4.188  1.00 20.00     0.043 C 
HETATM    2  C8  UNL     1     -34.688  16.927  -4.589  1.00 20.00     0.226 C 
ENDROOT
BRANCH   2   3
HETATM    3  C9  UNL     1     -33.843  16.359  -3.402  1.00 20.00    -0.021 C 
HETATM    4  C3  UNL     1     -32.978  15.158  -3.828  1.00 20.00     0.016 C 
HETATM    5  C4  UNL     1     -32.914  17.452  -2.835  1.00 20.00     0.016 C 
HETATM    6  C5  UNL     1     -34.780  15.906  -2.262  1.00 20.00     0.016 C 
ENDBRANCH   2   3
BRANCH   2   7
HETATM    7  N10 UNL     1     -34.960  15.907  -5.581  1.00 20.00     0.095 N 
HETATM    8  C6  UNL     1     -34.606  16.375  -6.927  1.00 20.00     0.310 C 
BRANCH   7   9
HETATM    9  C7  UNL     1     -36.370  15.504  -5.547  1.00 20.00     0.341 C 
BRANCH   9  10
HETATM   10  C1  UNL     1     -36.444  14.073  -5.098  1.00 20.00     0.261 C 
HETATM   11  O11 UNL     1     -37.396  13.626  -4.464  1.00 20.00    -0.305 OA
ENDBRANCH   9  10
ENDBRANCH   7   9
ENDBRANCH   2   7
TORSDOF 4
ENDMDL
MODEL 5
REMARK VINA RESULT:      -3.7      1.771      2.854
REMARK  4 active torsions:
REMARK  status: ('A' for Active; 'I' for Inactive)
REMARK    1  A    between atoms: C1_1  and  C7_7 
REMARK    2  A    between atoms: C7_7  and  N10_10 
REMARK    3  A    between atoms: C8_8  and  C9_9 
REMARK    4  A    between atoms: C8_8  and  N10_10 
ROOT
HETATM    1  C2  UNL     1     -33.057  14.611  -4.341  1.00 20.00     0.043 C 
HETATM    2  C8  UNL     1     -34.404  14.997  -3.728  1.00 20.00     0.226 C 
ENDROOT
BRANCH   2   3
HETATM    3  C9  UNL     1     -34.420  16.362  -2.965  1.00 20.00    -0.021 C 
HETATM    4  C3  UNL     1     -35.114  16.254  -1.594  1.00 20.00     0.016 C 
HETATM    5  C4  UNL     1     -32.980  16.870  -2.743  1.00 20.00     0.016 C 
HETATM    6  C5  UNL     1     -35.164  17.423  -3.806  1.00 20.00     0.016 C 
ENDBRANCH   2   3
BRANCH   2   7
HETATM    7  N10 UNL     1     -35.419  14.955  -4.760  1.00 20.00     0.095 N 
HETATM    8  C6  UNL     1     -36.393  13.889  -4.495  1.00 20.00     0.310 C 
BRANCH   7   9
HETATM    9  C7  UNL     1     -34.816  14.763  -6.083  1.00 20.00     0.341 C 
BRANCH   9  10
HETATM   10  C1  UNL     1     -35.748  15.329  -7.116  1.00 20.00     0.261 C 
HETATM   11  O11 UNL     1     -36.354  14.623  -7.918  1.00 20.00    -0.305 OA
ENDBRANCH   9  10
ENDBRANCH   7   9
ENDBRANCH   2   7
TORSDOF 4
ENDMDL
MODEL 6
REMARK VINA RESULT:      -3.7      1.816      2.832
REMARK  4 active torsions:
REMARK  status: ('A' for Active; 'I' for Inactive)
REMARK    1  A    between atoms: C1_1  and  C7_7 
REMARK    2  A    between atoms: C7_7  and  N10_10 
REMARK    3  A    between atoms: C8_8  and  C9_9 
REMARK    4  A    between atoms: C8_8  and  N10_10 
ROOT
HETATM    1  C2  UNL     1     -32.999  14.603  -4.338  1.00 20.00     0.043 C 
HETATM    2  C8  UNL     1     -34.354  14.983  -3.738  1.00 20.00     0.226 C 
ENDROOT
BRANCH   2   3
HETATM    3  C9  UNL     1     -34.394  16.366  -3.010  1.00 20.00    -0.021 C 
HETATM    4  C3  UNL     1     -35.069  17.454  -3.867  1.00 20.00     0.016 C 
HETATM    5  C4  UNL     1     -35.162  16.250  -1.678  1.00 20.00     0.016 C 
HETATM    6  C5  UNL     1     -32.957  16.827  -2.681  1.00 20.00     0.016 C 
ENDBRANCH   2   3
BRANCH   2   7
HETATM    7  N10 UNL     1     -35.365  14.900  -4.772  1.00 20.00     0.095 N 
HETATM    8  C6  UNL     1     -36.272  13.772  -4.529  1.00 20.00     0.310 C 
BRANCH   7   9
HETATM    9  C7  UNL     1     -34.751  14.770  -6.098  1.00 20.00     0.341 C 
BRANCH   9  10
HETATM   10  C1  UNL     1     -35.686  15.361  -7.114  1.00 20.00     0.261 C 
HETATM   11  O11 UNL     1     -36.310  14.674  -7.918  1.00 20.00    -0.305 OA
ENDBRANCH   9  10
ENDBRANCH   7   9
ENDBRANCH   2   7
TORSDOF 4
ENDMDL
MODEL 7
REMARK VINA RESULT:      -3.5      1.037      2.232
REMARK  4 active torsions:
REMARK  status: ('A' for Active; 'I' for Inactive)
REMARK    1  A    between atoms: C1_1  and  C7_7 
REMARK    2  A    between atoms: C7_7  and  N10_10 
REMARK    3  A    between atoms: C8_8  and  C9_9 
REMARK    4  A    between atoms: C8_8  and  N10_10 
ROOT
HETATM    1  C2  UNL     1     -35.181  15.905  -2.362  1.00 20.00     0.043 C 
HETATM    2  C8  UNL     1     -34.899  16.086  -3.855  1.00 20.00     0.226 C 
ENDROOT
BRANCH   2   3
HETATM    3  C9  UNL     1     -34.233  14.859  -4.558  1.00 20.00    -0.021 C 
HETATM    4  C3  UNL     1     -34.452  14.874  -6.083  1.00 20.00     0.016 C 
HETATM    5  C4  UNL     1     -32.715  14.843  -4.285  1.00 20.00     0.016 C 
HETATM    6  C5  UNL     1     -34.822  13.548  -3.994  1.00 20.00     0.016 C 
ENDBRANCH   2   3
BRANCH   2   7
HETATM    7  N10 UNL     1     -36.125  16.477  -4.521  1.00 20.00     0.095 N 
HETATM    8  C6  UNL     1     -36.130  17.916  -4.810  1.00 20.00     0.310 C 
BRANCH   7   9
HETATM    9  C7  UNL     1     -37.297  16.126  -3.711  1.00 20.00     0.341 C 
BRANCH   9  10
HETATM   10  C1  UNL     1     -38.167  15.200  -4.512  1.00 20.00     0.261 C 
HETATM   11  O11 UNL     1     -38.164  13.983  -4.349  1.00 20.00    -0.305 OA
ENDBRANCH   9  10
ENDBRANCH   7   9
ENDBRANCH   2   7
TORSDOF 4
ENDMDL
MODEL 8
REMARK VINA RESULT:      -3.5      1.943      2.940
REMARK  4 active torsions:
REMARK  status: ('A' for Active; 'I' for Inactive)
REMARK    1  A    between atoms: C1_1  and  C7_7 
REMARK    2  A    between atoms: C7_7  and  N10_10 
REMARK    3  A    between atoms: C8_8  and  C9_9 
REMARK    4  A    between atoms: C8_8  and  N10_10 
ROOT
HETATM    1  C2  UNL     1     -36.758  16.492  -4.652  1.00 20.00     0.043 C 
HETATM    2  C8  UNL     1     -35.307  16.828  -4.302  1.00 20.00     0.226 C 
ENDROOT
BRANCH   2   3
HETATM    3  C9  UNL     1     -34.617  15.836  -3.309  1.00 20.00    -0.021 C 
HETATM    4  C3  UNL     1     -34.999  14.371  -3.592  1.00 20.00     0.016 C 
HETATM    5  C4  UNL     1     -33.083  15.966  -3.399  1.00 20.00     0.016 C 
HETATM    6  C5  UNL     1     -35.029  16.175  -1.859  1.00 20.00     0.016 C 
ENDBRANCH   2   3
BRANCH   2   7
HETATM    7  N10 UNL     1     -34.547  16.963  -5.528  1.00 20.00     0.095 N 
HETATM    8  C6  UNL     1     -34.251  18.373  -5.809  1.00 20.00     0.310 C 
BRANCH   7   9
HETATM    9  C7  UNL     1     -35.266  16.368  -6.660  1.00 20.00     0.341 C 
BRANCH   9  10
HETATM   10  C1  UNL     1     -34.365  15.363  -7.319  1.00 20.00     0.261 C 
HETATM   11  O11 UNL     1     -33.563  14.680  -6.688  1.00 20.00    -0.305 OA
ENDBRANCH   9  10
ENDBRANCH   7   9
ENDBRANCH   2   7
TORSDOF 4
ENDMDL
MODEL 9
REMARK VINA RESULT:      -3.4      1.710      2.597
REMARK  4 active torsions:
REMARK  status: ('A' for Active; 'I' for Inactive)
REMARK    1  A    between atoms: C1_1  and  C7_7 
REMARK    2  A    between atoms: C7_7  and  N10_10 
REMARK    3  A    between atoms: C8_8  and  C9_9 
REMARK    4  A    between atoms: C8_8  and  N10_10 
ROOT
HETATM    1  C2  UNL     1     -35.533  16.349  -1.734  1.00 20.00     0.043 C 
HETATM    2  C8  UNL     1     -35.071  16.974  -3.051  1.00 20.00     0.226 C 
ENDROOT
BRANCH   2   3
HETATM    3  C9  UNL     1     -33.527  17.187  -3.180  1.00 20.00    -0.021 C 
HETATM    4  C3  UNL     1     -33.176  18.303  -4.183  1.00 20.00     0.016 C 
HETATM    5  C4  UNL     1     -32.920  17.555  -1.810  1.00 20.00     0.016 C 
HETATM    6  C5  UNL     1     -32.855  15.879  -3.651  1.00 20.00     0.016 C 
ENDBRANCH   2   3
BRANCH   2   7
HETATM    7  N10 UNL     1     -35.590  16.188  -4.152  1.00 20.00     0.095 N 
HETATM    8  C6  UNL     1     -36.527  16.974  -4.963  1.00 20.00     0.310 C 
BRANCH   7   9
HETATM    9  C7  UNL     1     -36.250  14.972  -3.664  1.00 20.00     0.341 C 
BRANCH   9  10
HETATM   10  C1  UNL     1     -36.193  13.934  -4.747  1.00 20.00     0.261 C 
HETATM   11  O11 UNL     1     -35.936  12.754  -4.520  1.00 20.00    -0.305 OA
ENDBRANCH   9  10
ENDBRANCH   7   9
ENDBRANCH   2   7
TORSDOF 4
ENDMDL
