MODEL 1
REMARK VINA RESULT:      -4.8      0.000      0.000
REMARK  4 active torsions:
REMARK  status: ('A' for Active; 'I' for Inactive)
REMARK    1  A    between atoms: C1_1  and  C3_3 
REMARK    2  A    between atoms: C3_3  and  N6_6 
REMARK    3  A    between atoms: C4_4  and  C5_5 
REMARK    4  A    between atoms: C4_4  and  N6_6 
ROOT
HETATM    1  C4  UNL     1     -33.687   6.276   4.569  1.00 20.00     0.389 C 
ENDROOT
BRANCH   1   2
HETATM    2  C5  UNL     1     -34.819   5.338   4.905  1.00 20.00     0.413 C 
HETATM    3  F8  UNL     1     -35.190   5.488   6.196  1.00 20.00    -0.169 F 
HETATM    4  F9  UNL     1     -35.904   5.582   4.138  1.00 20.00    -0.169 F 
HETATM    5  F10 UNL     1     -34.461   4.049   4.728  1.00 20.00    -0.169 F 
ENDBRANCH   1   2
BRANCH   1   6
HETATM    6  N6  UNL     1     -33.478   6.376   3.126  1.00 20.00     0.099 N 
HETATM    7  C2  UNL     1     -33.187   5.058   2.559  1.00 20.00     0.310 C 
BRANCH   6   8
HETATM    8  C3  UNL     1     -32.394   7.311   2.829  1.00 20.00     0.341 C 
BRANCH   8   9
HETATM    9  C1  UNL     1     -32.492   7.708   1.383  1.00 20.00     0.261 C 
HETATM   10  O7  UNL     1     -32.893   8.814   1.028  1.00 20.00    -0.305 OA
ENDBRANCH   8   9
ENDBRANCH   6   8
ENDBRANCH   1   6
TORSDOF 4
ENDMDL
MODEL 2
REMARK VINA RESULT:      -4.7     11.592     12.477
REMARK  4 active torsions:
REMARK  status: ('A' for Active; 'I' for Inactive)
REMARK    1  A    between atoms: C1_1  and  C3_3 
REMARK    2  A    between atoms: C3_3  and  N6_6 
REMARK    3  A    between atoms: C4_4  and  C5_5 
REMARK    4  A    between atoms: C4_4  and  N6_6 
ROOT
HETATM    1  C4  UNL     1     -34.296  16.077  -4.825  1.00 20.00     0.389 C 
ENDROOT
BRANCH   1   2
HETATM    2  C5  UNL     1     -33.391  15.767  -3.659  1.00 20.00     0.413 C 
HETATM    3  F8  UNL     1     -32.723  16.876  -3.271  1.00 20.00    -0.169 F 
HETATM    4  F9  UNL     1     -34.093  15.321  -2.595  1.00 20.00    -0.169 F 
HETATM    5  F10 UNL     1     -32.476  14.828  -3.981  1.00 20.00    -0.169 F 
ENDBRANCH   1   2
BRANCH   1   6
HETATM    6  N6  UNL     1     -34.490  14.909  -5.683  1.00 20.00     0.099 N 
HETATM    7  C2  UNL     1     -33.939  15.157  -7.015  1.00 20.00     0.310 C 
BRANCH   6   8
HETATM    8  C3  UNL     1     -35.909  14.569  -5.771  1.00 20.00     0.341 C 
BRANCH   8   9
HETATM    9  C1  UNL     1     -36.263  13.699  -4.598  1.00 20.00     0.261 C 
HETATM   10  O7  UNL     1     -35.807  12.567  -4.455  1.00 20.00    -0.305 OA
ENDBRANCH   8   9
ENDBRANCH   6   8
ENDBRANCH   1   6
TORSDOF 4
ENDMDL
MODEL 3
REMARK VINA RESULT:      -4.7     11.635     12.490
REMARK  4 active torsions:
REMARK  status: ('A' for Active; 'I' for Inactive)
REMARK    1  A    between atoms: C1_1  and  C3_3 
REMARK    2  A    between atoms: C3_3  and  N6_6 
REMARK    3  A    between atoms: C4_4  and  C5_5 
REMARK    4  A    between atoms: C4_4  and  N6_6 
ROOT
HETATM    1  C4  UNL     1     -34.348  16.097  -4.790  1.00 20.00     0.389 C 
ENDROOT
BRANCH   1   2
HETATM    2  C5  UNL     1     -33.490  15.781  -3.591  1.00 20.00     0.413 C 
HETATM    3  F8  UNL     1     -32.596  14.812  -3.891  1.00 20.00    -0.169 F 
HETATM    4  F9  UNL     1     -32.795  16.864  -3.182  1.00 20.00    -0.169 F 
HETATM    5  F10 UNL     1     -34.235  15.344  -2.554  1.00 20.00    -0.169 F 
ENDBRANCH   1   2
BRANCH   1   6
HETATM    6  N6  UNL     1     -34.530  14.927  -5.648  1.00 20.00     0.099 N 
HETATM    7  C2  UNL     1     -33.909  15.148  -6.954  1.00 20.00     0.310 C 
BRANCH   6   8
HETATM    8  C3  UNL     1     -35.952  14.622  -5.802  1.00 20.00     0.341 C 
BRANCH   8   9
HETATM    9  C1  UNL     1     -36.367  13.713  -4.680  1.00 20.00     0.261 C 
HETATM   10  O7  UNL     1     -35.832  12.624  -4.480  1.00 20.00    -0.305 OA
ENDBRANCH   8   9
ENDBRANCH   6   8
ENDBRANCH   1   6
TORSDOF 4
ENDMDL
MODEL 4
REMARK VINA RESULT:      -4.6     15.928     16.634
REMARK  4 active torsions:
REMARK  status: ('A' for Active; 'I' for Inactive)
REMARK    1  A    between atoms: C1_1  and  C3_3 
REMARK    2  A    between atoms: C3_3  and  N6_6 
REMARK    3  A    between atoms: C4_4  and  C5_5 
REMARK    4  A    between atoms: C4_4  and  N6_6 
ROOT
HETATM    1  C4  UNL     1     -23.891  16.866  10.023  1.00 20.00     0.389 C 
ENDROOT
BRANCH   1   2
HETATM    2  C5  UNL     1     -24.147  16.452  11.451  1.00 20.00     0.413 C 
HETATM    3  F8  UNL     1     -24.682  15.212  11.496  1.00 20.00    -0.169 F 
HETATM    4  F9  UNL     1     -23.004  16.430  12.170  1.00 20.00    -0.169 F 
HETATM    5  F10 UNL     1     -25.010  17.293  12.060  1.00 20.00    -0.169 F 
ENDBRANCH   1   2
BRANCH   1   6
HETATM    6  N6  UNL     1     -23.556  18.285   9.924  1.00 20.00     0.099 N 
HETATM    7  C2  UNL     1     -24.594  19.005   9.186  1.00 20.00     0.310 C 
BRANCH   6   8
HETATM    8  C3  UNL     1     -22.255  18.460   9.279  1.00 20.00     0.341 C 
BRANCH   8   9
HETATM    9  C1  UNL     1     -22.135  17.450   8.173  1.00 20.00     0.261 C 
HETATM   10  O7  UNL     1     -22.071  17.772   6.989  1.00 20.00    -0.305 OA
ENDBRANCH   8   9
ENDBRANCH   6   8
ENDBRANCH   1   6
TORSDOF 4
ENDMDL
MODEL 5
REMARK VINA RESULT:      -4.4     11.499     12.412
REMARK  4 active torsions:
REMARK  status: ('A' for Active; 'I' for Inactive)
REMARK    1  A    between atoms: C1_1  and  C3_3 
REMARK    2  A    between atoms: C3_3  and  N6_6 
REMARK    3  A    between atoms: C4_4  and  C5_5 
REMARK    4  A    between atoms: C4_4  and  N6_6 
ROOT
HETATM    1  C4  UNL     1     -34.258  15.434  -5.247  1.00 20.00     0.389 C 
ENDROOT
BRANCH   1   2
HETATM    2  C5  UNL     1     -33.735  14.666  -4.059  1.00 20.00     0.413 C 
HETATM    3  F8  UNL     1     -33.860  15.399  -2.930  1.00 20.00    -0.169 F 
HETATM    4  F9  UNL     1     -34.420  13.516  -3.876  1.00 20.00    -0.169 F 
HETATM    5  F10 UNL     1     -32.430  14.359  -4.206  1.00 20.00    -0.169 F 
ENDBRANCH   1   2
BRANCH   1   6
HETATM    6  N6  UNL     1     -35.559  14.932  -5.685  1.00 20.00     0.099 N 
HETATM    7  C2  UNL     1     -35.638  14.923  -7.146  1.00 20.00     0.310 C 
BRANCH   6   8
HETATM    8  C3  UNL     1     -36.636  15.743  -5.120  1.00 20.00     0.341 C 
BRANCH   8   9
HETATM    9  C1  UNL     1     -37.525  14.848  -4.303  1.00 20.00     0.261 C 
HETATM   10  O7  UNL     1     -37.552  13.629  -4.453  1.00 20.00    -0.305 OA
ENDBRANCH   8   9
ENDBRANCH   6   8
ENDBRANCH   1   6
TORSDOF 4
ENDMDL
MODEL 6
REMARK VINA RESULT:      -4.2     16.165     16.762
REMARK  4 active torsions:
REMARK  status: ('A' for Active; 'I' for Inactive)
REMARK    1  A    between atoms: C1_1  and  C3_3 
REMARK    2  A    between atoms: C3_3  and  N6_6 
REMARK    3  A    between atoms: C4_4  and  C5_5 
REMARK    4  A    between atoms: C4_4  and  N6_6 
ROOT
HETATM    1  C4  UNL     1     -22.777  17.750  10.928  1.00 20.00     0.389 C 
ENDROOT
BRANCH   1   2
HETATM    2  C5  UNL     1     -23.905  16.881  11.427  1.00 20.00     0.413 C 
HETATM    3  F8  UNL     1     -24.829  17.629  12.071  1.00 20.00    -0.169 F 
HETATM    4  F9  UNL     1     -24.529  16.251  10.408  1.00 20.00    -0.169 F 
HETATM    5  F10 UNL     1     -23.461  15.945  12.291  1.00 20.00    -0.169 F 
ENDBRANCH   1   2
BRANCH   1   6
HETATM    6  N6  UNL     1     -22.769  17.839   9.469  1.00 20.00     0.099 N 
HETATM    7  C2  UNL     1     -21.404  17.716   8.957  1.00 20.00     0.310 C 
BRANCH   6   8
HETATM    8  C3  UNL     1     -23.369  19.098   9.030  1.00 20.00     0.341 C 
BRANCH   8   9
HETATM    9  C1  UNL     1     -24.286  18.811   7.875  1.00 20.00     0.261 C 
HETATM   10  O7  UNL     1     -23.917  18.888   6.705  1.00 20.00    -0.305 OA
ENDBRANCH   8   9
ENDBRANCH   6   8
ENDBRANCH   1   6
TORSDOF 4
ENDMDL
MODEL 7
REMARK VINA RESULT:      -4.1     11.822     12.462
REMARK  4 active torsions:
REMARK  status: ('A' for Active; 'I' for Inactive)
REMARK    1  A    between atoms: C1_1  and  C3_3 
REMARK    2  A    between atoms: C3_3  and  N6_6 
REMARK    3  A    between atoms: C4_4  and  C5_5 
REMARK    4  A    between atoms: C4_4  and  N6_6 
ROOT
HETATM    1  C4  UNL     1     -34.755  15.924  -2.641  1.00 20.00     0.389 C 
ENDROOT
BRANCH   1   2
HETATM    2  C5  UNL     1     -33.391  16.305  -3.159  1.00 20.00     0.413 C 
HETATM    3  F8  UNL     1     -32.751  15.219  -3.648  1.00 20.00    -0.169 F 
HETATM    4  F9  UNL     1     -33.478  17.211  -4.157  1.00 20.00    -0.169 F 
HETATM    5  F10 UNL     1     -32.622  16.829  -2.182  1.00 20.00    -0.169 F 
ENDBRANCH   1   2
BRANCH   1   6
HETATM    6  N6  UNL     1     -35.786  16.088  -3.665  1.00 20.00     0.099 N 
HETATM    7  C2  UNL     1     -36.662  17.212  -3.332  1.00 20.00     0.310 C 
BRANCH   6   8
HETATM    8  C3  UNL     1     -36.564  14.858  -3.809  1.00 20.00     0.341 C 
BRANCH   8   9
HETATM    9  C1  UNL     1     -35.747  13.869  -4.592  1.00 20.00     0.261 C 
HETATM   10  O7  UNL     1     -35.918  12.655  -4.503  1.00 20.00    -0.305 OA
ENDBRANCH   8   9
ENDBRANCH   6   8
ENDBRANCH   1   6
TORSDOF 4
ENDMDL
MODEL 8
REMARK VINA RESULT:      -4.1      3.754      4.903
REMARK  4 active torsions:
REMARK  status: ('A' for Active; 'I' for Inactive)
REMARK    1  A    between atoms: C1_1  and  C3_3 
REMARK    2  A    between atoms: C3_3  and  N6_6 
REMARK    3  A    between atoms: C4_4  and  C5_5 
REMARK    4  A    between atoms: C4_4  and  N6_6 
ROOT
HETATM    1  C4  UNL     1     -32.296   7.601   1.273  1.00 20.00     0.389 C 
ENDROOT
BRANCH   1   2
HETATM    2  C5  UNL     1     -33.068   8.733   0.643  1.00 20.00     0.413 C 
HETATM    3  F8  UNL     1     -33.704   8.310  -0.472  1.00 20.00    -0.169 F 
HETATM    4  F9  UNL     1     -34.003   9.221   1.486  1.00 20.00    -0.169 F 
HETATM    5  F10 UNL     1     -32.252   9.748   0.288  1.00 20.00    -0.169 F 
ENDBRANCH   1   2
BRANCH   1   6
HETATM    6  N6  UNL     1     -32.900   7.171   2.533  1.00 20.00     0.099 N 
HETATM    7  C2  UNL     1     -32.034   7.520   3.660  1.00 20.00     0.310 C 
BRANCH   6   8
HETATM    8  C3  UNL     1     -33.158   5.732   2.512  1.00 20.00     0.341 C 
BRANCH   8   9
HETATM    9  C1  UNL     1     -34.125   5.407   3.616  1.00 20.00     0.261 C 
HETATM   10  O7  UNL     1     -34.421   4.253   3.916  1.00 20.00    -0.305 OA
ENDBRANCH   8   9
ENDBRANCH   6   8
ENDBRANCH   1   6
TORSDOF 4
ENDMDL
MODEL 9
REMARK VINA RESULT:      -4.1     11.763     12.609
REMARK  4 active torsions:
REMARK  status: ('A' for Active; 'I' for Inactive)
REMARK    1  A    between atoms: C1_1  and  C3_3 
REMARK    2  A    between atoms: C3_3  and  N6_6 
REMARK    3  A    between atoms: C4_4  and  C5_5 
REMARK    4  A    between atoms: C4_4  and  N6_6 
ROOT
HETATM    1  C4  UNL     1     -34.643  16.785  -4.003  1.00 20.00     0.389 C 
ENDROOT
BRANCH   1   2
HETATM    2  C5  UNL     1     -33.970  15.900  -2.984  1.00 20.00     0.413 C 
HETATM    3  F8  UNL     1     -34.879  15.406  -2.114  1.00 20.00    -0.169 F 
HETATM    4  F9  UNL     1     -33.356  14.850  -3.572  1.00 20.00    -0.169 F 
HETATM    5  F10 UNL     1     -33.048  16.580  -2.272  1.00 20.00    -0.169 F 
ENDBRANCH   1   2
BRANCH   1   6
HETATM    6  N6  UNL     1     -34.886  16.075  -5.258  1.00 20.00     0.099 N 
HETATM    7  C2  UNL     1     -34.628  16.953  -6.400  1.00 20.00     0.310 C 
BRANCH   6   8
HETATM    8  C3  UNL     1     -36.257  15.569  -5.302  1.00 20.00     0.341 C 
BRANCH   8   9
HETATM    9  C1  UNL     1     -36.211  14.068  -5.238  1.00 20.00     0.261 C 
HETATM   10  O7  UNL     1     -36.800  13.426  -4.371  1.00 20.00    -0.305 OA
ENDBRANCH   8   9
ENDBRANCH   6   8
ENDBRANCH   1   6
TORSDOF 4
ENDMDL
