MODEL 1
REMARK VINA RESULT:      -4.6      0.000      0.000
REMARK  2 active torsions:
REMARK  status: ('A' for Active; 'I' for Inactive)
REMARK    1  A    between atoms: C2_2  and  C8_8 
REMARK    2  A    between atoms: C8_8  and  O9_9 
ROOT
HETATM    1  C3  UNL     1     -24.792  18.126  11.530  1.00 20.00     0.012 C 
HETATM    2  C4  UNL     1     -24.209  16.127  11.652  1.00 20.00     0.012 C 
HETATM    3  C5  UNL     1     -22.378  17.734  11.296  1.00 20.00     0.047 C 
HETATM    4  C6  UNL     1     -23.570  17.435  12.214  1.00 20.00    -0.010 C 
HETATM    5  C7  UNL     1     -24.440  17.072  10.424  1.00 20.00     0.024 C 
HETATM    6  C8  UNL     1     -23.031  17.431   9.935  1.00 20.00     0.079 C 
ENDROOT
BRANCH   6   7
HETATM    7  C2  UNL     1     -23.085  18.575   8.981  1.00 20.00     0.001 C 
HETATM    8  C1  UNL     1     -23.952  18.664   7.965  1.00 20.00     0.010 C 
ENDBRANCH   6   7
BRANCH   6   9
HETATM    9  O9  UNL     1     -22.440  16.321   9.275  1.00 20.00    -0.385 OA
HETATM   10  H21 UNL     1     -22.124  15.719   9.968  1.00 20.00     0.211 HD
ENDBRANCH   6   9
TORSDOF 2
ENDMDL
MODEL 2
REMARK VINA RESULT:      -4.3     23.603     24.440
REMARK  2 active torsions:
REMARK  status: ('A' for Active; 'I' for Inactive)
REMARK    1  A    between atoms: C2_2  and  C8_8 
REMARK    2  A    between atoms: C8_8  and  O9_9 
ROOT
HETATM    1  C3  UNL     1     -42.690   7.848  -0.982  1.00 20.00     0.012 C 
HETATM    2  C4  UNL     1     -41.424   7.829   0.675  1.00 20.00     0.012 C 
HETATM    3  C5  UNL     1     -41.122   5.958  -0.896  1.00 20.00     0.047 C 
HETATM    4  C6  UNL     1     -41.177   7.490  -0.828  1.00 20.00    -0.010 C 
HETATM    5  C7  UNL     1     -42.751   7.054   0.368  1.00 20.00     0.024 C 
HETATM    6  C8  UNL     1     -42.301   5.625   0.036  1.00 20.00     0.079 C 
ENDROOT
BRANCH   6   7
HETATM    7  C2  UNL     1     -43.417   4.860  -0.590  1.00 20.00     0.001 C 
HETATM    8  C1  UNL     1     -43.348   4.284  -1.795  1.00 20.00     0.010 C 
ENDBRANCH   6   7
BRANCH   6   9
HETATM    9  O9  UNL     1     -41.896   4.948   1.217  1.00 20.00    -0.385 OA
HETATM   10  H21 UNL     1     -42.707   4.661   1.667  1.00 20.00     0.211 HD
ENDBRANCH   6   9
TORSDOF 2
ENDMDL
MODEL 3
REMARK VINA RESULT:      -4.3     23.223     24.058
REMARK  2 active torsions:
REMARK  status: ('A' for Active; 'I' for Inactive)
REMARK    1  A    between atoms: C2_2  and  C8_8 
REMARK    2  A    between atoms: C8_8  and  O9_9 
ROOT
HETATM    1  C3  UNL     1     -42.950   7.229   1.068  1.00 20.00     0.012 C 
HETATM    2  C4  UNL     1     -41.882   8.899   0.418  1.00 20.00     0.012 C 
HETATM    3  C5  UNL     1     -43.000   7.611  -1.358  1.00 20.00     0.047 C 
HETATM    4  C6  UNL     1     -43.260   8.309  -0.017  1.00 20.00    -0.010 C 
HETATM    5  C7  UNL     1     -41.523   7.373   0.435  1.00 20.00     0.024 C 
HETATM    6  C8  UNL     1     -41.665   6.922  -1.025  1.00 20.00     0.079 C 
ENDROOT
BRANCH   6   7
HETATM    7  C2  UNL     1     -41.672   5.434  -1.112  1.00 20.00     0.001 C 
HETATM    8  C1  UNL     1     -42.673   4.718  -1.637  1.00 20.00     0.010 C 
ENDBRANCH   6   7
BRANCH   6   9
HETATM    9  O9  UNL     1     -40.582   7.414  -1.801  1.00 20.00    -0.385 OA
HETATM   10  H21 UNL     1     -40.897   7.472  -2.717  1.00 20.00     0.211 HD
ENDBRANCH   6   9
TORSDOF 2
ENDMDL
MODEL 4
REMARK VINA RESULT:      -4.2     23.304     24.107
REMARK  2 active torsions:
REMARK  status: ('A' for Active; 'I' for Inactive)
REMARK    1  A    between atoms: C2_2  and  C8_8 
REMARK    2  A    between atoms: C8_8  and  O9_9 
ROOT
HETATM    1  C3  UNL     1     -41.851   5.738   0.618  1.00 20.00     0.012 C 
HETATM    2  C4  UNL     1     -42.638   5.165  -1.226  1.00 20.00     0.012 C 
HETATM    3  C5  UNL     1     -41.088   7.076  -1.295  1.00 20.00     0.047 C 
HETATM    4  C6  UNL     1     -41.210   5.629  -0.802  1.00 20.00    -0.010 C 
HETATM    5  C7  UNL     1     -43.028   6.318  -0.239  1.00 20.00     0.024 C 
HETATM    6  C8  UNL     1     -42.481   7.594  -0.893  1.00 20.00     0.079 C 
ENDROOT
BRANCH   6   7
HETATM    7  C2  UNL     1     -42.490   8.724   0.079  1.00 20.00     0.001 C 
HETATM    8  C1  UNL     1     -41.421   9.476   0.364  1.00 20.00     0.010 C 
ENDBRANCH   6   7
BRANCH   6   9
HETATM    9  O9  UNL     1     -43.279   7.956  -2.012  1.00 20.00    -0.385 OA
HETATM   10  H21 UNL     1     -43.964   8.560  -1.683  1.00 20.00     0.211 HD
ENDBRANCH   6   9
TORSDOF 2
ENDMDL
MODEL 5
REMARK VINA RESULT:      -4.1     23.008     23.841
REMARK  2 active torsions:
REMARK  status: ('A' for Active; 'I' for Inactive)
REMARK    1  A    between atoms: C2_2  and  C8_8 
REMARK    2  A    between atoms: C8_8  and  O9_9 
ROOT
HETATM    1  C3  UNL     1     -43.025   6.420  -1.563  1.00 20.00     0.012 C 
HETATM    2  C4  UNL     1     -41.445   5.139  -1.101  1.00 20.00     0.012 C 
HETATM    3  C5  UNL     1     -42.737   5.950   0.831  1.00 20.00     0.047 C 
HETATM    4  C6  UNL     1     -42.892   5.257  -0.528  1.00 20.00    -0.010 C 
HETATM    5  C7  UNL     1     -41.571   6.700  -1.048  1.00 20.00     0.024 C 
HETATM    6  C8  UNL     1     -41.711   7.031   0.444  1.00 20.00     0.079 C 
ENDROOT
BRANCH   6   7
HETATM    7  C2  UNL     1     -42.163   8.439   0.626  1.00 20.00     0.001 C 
HETATM    8  C1  UNL     1     -41.461   9.509   0.235  1.00 20.00     0.010 C 
ENDBRANCH   6   7
BRANCH   6   9
HETATM    9  O9  UNL     1     -40.464   6.868   1.104  1.00 20.00    -0.385 OA
HETATM   10  H21 UNL     1     -39.977   7.701   0.992  1.00 20.00     0.211 HD
ENDBRANCH   6   9
TORSDOF 2
ENDMDL
MODEL 6
REMARK VINA RESULT:      -4.0     17.182     18.508
REMARK  2 active torsions:
REMARK  status: ('A' for Active; 'I' for Inactive)
REMARK    1  A    between atoms: C2_2  and  C8_8 
REMARK    2  A    between atoms: C8_8  and  O9_9 
ROOT
HETATM    1  C3  UNL     1     -34.505  17.067  -3.937  1.00 20.00     0.012 C 
HETATM    2  C4  UNL     1     -34.758  15.725  -2.360  1.00 20.00     0.012 C 
HETATM    3  C5  UNL     1     -33.207  14.989  -4.125  1.00 20.00     0.047 C 
HETATM    4  C6  UNL     1     -33.495  16.155  -3.170  1.00 20.00    -0.010 C 
HETATM    5  C7  UNL     1     -35.382  15.774  -3.797  1.00 20.00     0.024 C 
HETATM    6  C8  UNL     1     -34.645  14.680  -4.581  1.00 20.00     0.079 C 
ENDROOT
BRANCH   6   7
HETATM    7  C2  UNL     1     -34.899  14.825  -6.043  1.00 20.00     0.001 C 
HETATM    8  C1  UNL     1     -33.942  15.038  -6.953  1.00 20.00     0.010 C 
ENDBRANCH   6   7
BRANCH   6   9
HETATM    9  O9  UNL     1     -35.089  13.395  -4.171  1.00 20.00    -0.385 OA
HETATM   10  H21 UNL     1     -35.647  13.529  -3.387  1.00 20.00     0.211 HD
ENDBRANCH   6   9
TORSDOF 2
ENDMDL
MODEL 7
REMARK VINA RESULT:      -4.0     17.180     19.030
REMARK  2 active torsions:
REMARK  status: ('A' for Active; 'I' for Inactive)
REMARK    1  A    between atoms: C2_2  and  C8_8 
REMARK    2  A    between atoms: C8_8  and  O9_9 
ROOT
HETATM    1  C3  UNL     1     -35.861  16.287  -5.341  1.00 20.00     0.012 C 
HETATM    2  C4  UNL     1     -35.366  14.651  -6.537  1.00 20.00     0.012 C 
HETATM    3  C5  UNL     1     -35.336  14.226  -4.112  1.00 20.00     0.047 C 
HETATM    4  C6  UNL     1     -36.223  14.771  -5.238  1.00 20.00    -0.010 C 
HETATM    5  C7  UNL     1     -34.477  15.665  -5.737  1.00 20.00     0.024 C 
HETATM    6  C8  UNL     1     -34.001  14.882  -4.507  1.00 20.00     0.079 C 
ENDROOT
BRANCH   6   7
HETATM    7  C2  UNL     1     -33.417  15.808  -3.494  1.00 20.00     0.001 C 
HETATM    8  C1  UNL     1     -34.040  16.177  -2.369  1.00 20.00     0.010 C 
ENDBRANCH   6   7
BRANCH   6   9
HETATM    9  O9  UNL     1     -33.010  13.936  -4.877  1.00 20.00    -0.385 OA
HETATM   10  H21 UNL     1     -32.344  14.415  -5.397  1.00 20.00     0.211 HD
ENDBRANCH   6   9
TORSDOF 2
ENDMDL
MODEL 8
REMARK VINA RESULT:      -3.9     17.881     19.348
REMARK  2 active torsions:
REMARK  status: ('A' for Active; 'I' for Inactive)
REMARK    1  A    between atoms: C2_2  and  C8_8 
REMARK    2  A    between atoms: C8_8  and  O9_9 
ROOT
HETATM    1  C3  UNL     1     -34.643  15.383  -2.891  1.00 20.00     0.012 C 
HETATM    2  C4  UNL     1     -33.367  14.851  -4.453  1.00 20.00     0.012 C 
HETATM    3  C5  UNL     1     -35.402  16.062  -5.126  1.00 20.00     0.047 C 
HETATM    4  C6  UNL     1     -34.198  16.144  -4.180  1.00 20.00    -0.010 C 
HETATM    5  C7  UNL     1     -34.687  14.197  -3.916  1.00 20.00     0.024 C 
HETATM    6  C8  UNL     1     -35.758  14.574  -4.948  1.00 20.00     0.079 C 
ENDROOT
BRANCH   6   7
HETATM    7  C2  UNL     1     -37.121  14.301  -4.408  1.00 20.00     0.001 C 
HETATM    8  C1  UNL     1     -38.106  15.205  -4.368  1.00 20.00     0.010 C 
ENDBRANCH   6   7
BRANCH   6   9
HETATM    9  O9  UNL     1     -35.584  13.819  -6.138  1.00 20.00    -0.385 OA
HETATM   10  H21 UNL     1     -35.654  12.883  -5.888  1.00 20.00     0.211 HD
ENDBRANCH   6   9
TORSDOF 2
ENDMDL
MODEL 9
REMARK VINA RESULT:      -3.9     17.045     18.323
REMARK  2 active torsions:
REMARK  status: ('A' for Active; 'I' for Inactive)
REMARK    1  A    between atoms: C2_2  and  C8_8 
REMARK    2  A    between atoms: C8_8  and  O9_9 
ROOT
HETATM    1  C3  UNL     1     -34.970  16.428  -2.650  1.00 20.00     0.012 C 
HETATM    2  C4  UNL     1     -33.108  16.931  -3.443  1.00 20.00     0.012 C 
HETATM    3  C5  UNL     1     -34.764  16.132  -5.080  1.00 20.00     0.047 C 
HETATM    4  C6  UNL     1     -34.560  17.165  -3.965  1.00 20.00    -0.010 C 
HETATM    5  C7  UNL     1     -33.740  15.548  -3.064  1.00 20.00     0.024 C 
HETATM    6  C8  UNL     1     -34.115  14.908  -4.407  1.00 20.00     0.079 C 
ENDROOT
BRANCH   6   7
HETATM    7  C2  UNL     1     -35.017  13.740  -4.194  1.00 20.00     0.001 C 
HETATM    8  C1  UNL     1     -36.293  13.696  -4.593  1.00 20.00     0.010 C 
ENDBRANCH   6   7
BRANCH   6   9
HETATM    9  O9  UNL     1     -32.949  14.461  -5.083  1.00 20.00    -0.385 OA
HETATM   10  H21 UNL     1     -32.533  15.246  -5.474  1.00 20.00     0.211 HD
ENDBRANCH   6   9
TORSDOF 2
ENDMDL
