MODEL 1
REMARK VINA RESULT:      -5.1      0.000      0.000
REMARK  0 active torsions:
REMARK  status: ('A' for Active; 'I' for Inactive)
ROOT
HETATM    1  C1  UNL     1     -22.658  18.480   9.586  1.00 20.00     0.136 C 
HETATM    2  C2  UNL     1     -22.423  17.434  12.048  1.00 20.00     0.018 A 
HETATM    3  C3  UNL     1     -24.824  18.521   8.198  1.00 20.00     0.018 A 
HETATM    4  C4  UNL     1     -26.108  19.238  11.959  1.00 20.00     0.011 A 
HETATM    5  C5  UNL     1     -22.998  17.567  10.684  1.00 20.00     0.060 A 
HETATM    6  C6  UNL     1     -23.782  19.263   8.990  1.00 20.00     0.060 A 
HETATM    7  C7  UNL     1     -23.603  18.331  11.871  1.00 20.00     0.002 A 
HETATM    8  C8  UNL     1     -25.238  19.254   9.452  1.00 20.00     0.002 A 
HETATM    9  C9  UNL     1     -25.104  18.123  11.918  1.00 20.00    -0.005 A 
HETATM   10  C10 UNL     1     -25.870  18.517  10.653  1.00 20.00    -0.005 A 
HETATM   11  O11 UNL     1     -21.516  18.572   9.158  1.00 20.00    -0.297 OA
ENDROOT
TORSDOF 0
ENDMDL
MODEL 2
REMARK VINA RESULT:      -4.6     17.495     18.915
REMARK  0 active torsions:
REMARK  status: ('A' for Active; 'I' for Inactive)
ROOT
HETATM    1  C1  UNL     1     -35.666  13.899  -4.431  1.00 20.00     0.136 C 
HETATM    2  C2  UNL     1     -37.815  15.476  -4.749  1.00 20.00     0.018 A 
HETATM    3  C3  UNL     1     -33.221  14.701  -4.495  1.00 20.00     0.018 A 
HETATM    4  C4  UNL     1     -35.135  17.686  -2.563  1.00 20.00     0.011 A 
HETATM    5  C5  UNL     1     -36.399  15.066  -4.936  1.00 20.00     0.060 A 
HETATM    6  C6  UNL     1     -34.387  14.170  -3.707  1.00 20.00     0.060 A 
HETATM    7  C7  UNL     1     -36.802  16.005  -3.788  1.00 20.00     0.002 A 
HETATM    8  C8  UNL     1     -33.802  15.544  -3.384  1.00 20.00     0.002 A 
HETATM    9  C9  UNL     1     -35.901  17.224  -3.768  1.00 20.00    -0.005 A 
HETATM   10  C10 UNL     1     -34.401  16.941  -3.654  1.00 20.00    -0.005 A 
HETATM   11  O11 UNL     1     -36.064  12.759  -4.622  1.00 20.00    -0.297 OA
ENDROOT
TORSDOF 0
ENDMDL
MODEL 3
REMARK VINA RESULT:      -4.6     16.883     18.426
REMARK  0 active torsions:
REMARK  status: ('A' for Active; 'I' for Inactive)
ROOT
HETATM    1  C1  UNL     1     -35.080  14.859  -5.400  1.00 20.00     0.136 C 
HETATM    2  C2  UNL     1     -32.644  14.584  -4.306  1.00 20.00     0.018 A 
HETATM    3  C3  UNL     1     -37.262  15.214  -4.082  1.00 20.00     0.018 A 
HETATM    4  C4  UNL     1     -34.563  17.416  -2.038  1.00 20.00     0.011 A 
HETATM    5  C5  UNL     1     -34.126  14.489  -4.347  1.00 20.00     0.060 A 
HETATM    6  C6  UNL     1     -36.204  15.760  -5.003  1.00 20.00     0.060 A 
HETATM    7  C7  UNL     1     -33.434  15.732  -3.768  1.00 20.00     0.002 A 
HETATM    8  C8  UNL     1     -36.422  16.384  -3.626  1.00 20.00     0.002 A 
HETATM    9  C9  UNL     1     -34.014  16.069  -2.409  1.00 20.00    -0.005 A 
HETATM   10  C10 UNL     1     -35.527  16.301  -2.371  1.00 20.00    -0.005 A 
HETATM   11  O11 UNL     1     -34.980  14.425  -6.539  1.00 20.00    -0.297 OA
ENDROOT
TORSDOF 0
ENDMDL
MODEL 4
REMARK VINA RESULT:      -4.5      1.388      2.979
REMARK  0 active torsions:
REMARK  status: ('A' for Active; 'I' for Inactive)
ROOT
HETATM    1  C1  UNL     1     -23.437  17.330  11.418  1.00 20.00     0.136 C 
HETATM    2  C2  UNL     1     -21.639  17.799   9.481  1.00 20.00     0.018 A 
HETATM    3  C3  UNL     1     -25.511  18.779  11.893  1.00 20.00     0.018 A 
HETATM    4  C4  UNL     1     -25.285  18.760   7.861  1.00 20.00     0.011 A 
HETATM    5  C5  UNL     1     -22.669  18.165  10.486  1.00 20.00     0.060 A 
HETATM    6  C6  UNL     1     -24.923  17.487  11.393  1.00 20.00     0.060 A 
HETATM    7  C7  UNL     1     -23.060  17.872   9.030  1.00 20.00     0.002 A 
HETATM    8  C8  UNL     1     -25.724  18.383  10.450  1.00 20.00     0.002 A 
HETATM    9  C9  UNL     1     -23.941  18.982   8.491  1.00 20.00    -0.005 A 
HETATM   10  C10 UNL     1     -25.220  19.261   9.285  1.00 20.00    -0.005 A 
HETATM   11  O11 UNL     1     -22.888  16.567  12.199  1.00 20.00    -0.297 OA
ENDROOT
TORSDOF 0
ENDMDL
MODEL 5
REMARK VINA RESULT:      -4.5     17.158     19.113
REMARK  0 active torsions:
REMARK  status: ('A' for Active; 'I' for Inactive)
ROOT
HETATM    1  C1  UNL     1     -35.066  14.006  -4.077  1.00 20.00     0.136 C 
HETATM    2  C2  UNL     1     -33.230  15.811  -3.315  1.00 20.00     0.018 A 
HETATM    3  C3  UNL     1     -37.590  14.464  -4.290  1.00 20.00     0.018 A 
HETATM    4  C4  UNL     1     -35.901  17.870  -5.654  1.00 20.00     0.011 A 
HETATM    5  C5  UNL     1     -34.583  15.199  -3.370  1.00 20.00     0.060 A 
HETATM    6  C6  UNL     1     -36.266  14.183  -4.949  1.00 20.00     0.060 A 
HETATM    7  C7  UNL     1     -34.178  16.302  -4.359  1.00 20.00     0.002 A 
HETATM    8  C8  UNL     1     -37.001  15.493  -5.227  1.00 20.00     0.002 A 
HETATM    9  C9  UNL     1     -35.237  17.386  -4.398  1.00 20.00    -0.005 A 
HETATM   10  C10 UNL     1     -36.652  16.920  -4.750  1.00 20.00    -0.005 A 
HETATM   11  O11 UNL     1     -34.533  12.915  -3.934  1.00 20.00    -0.297 OA
ENDROOT
TORSDOF 0
ENDMDL
MODEL 6
REMARK VINA RESULT:      -4.5     17.229     19.181
REMARK  0 active torsions:
REMARK  status: ('A' for Active; 'I' for Inactive)
ROOT
HETATM    1  C1  UNL     1     -35.660  15.032  -6.170  1.00 20.00     0.136 C 
HETATM    2  C2  UNL     1     -35.603  13.231  -4.180  1.00 20.00     0.018 A 
HETATM    3  C3  UNL     1     -35.700  17.586  -5.852  1.00 20.00     0.018 A 
HETATM    4  C4  UNL     1     -33.198  16.319  -2.946  1.00 20.00     0.011 A 
HETATM    5  C5  UNL     1     -35.923  14.537  -4.813  1.00 20.00     0.060 A 
HETATM    6  C6  UNL     1     -34.960  16.348  -6.280  1.00 20.00     0.060 A 
HETATM    7  C7  UNL     1     -34.614  14.340  -4.033  1.00 20.00     0.002 A 
HETATM    8  C8  UNL     1     -34.435  17.196  -5.123  1.00 20.00     0.002 A 
HETATM    9  C9  UNL     1     -34.428  15.463  -3.031  1.00 20.00    -0.005 A 
HETATM   10  C10 UNL     1     -34.433  16.879  -3.612  1.00 20.00    -0.005 A 
HETATM   11  O11 UNL     1     -36.024  14.416  -7.161  1.00 20.00    -0.297 OA
ENDROOT
TORSDOF 0
ENDMDL
MODEL 7
REMARK VINA RESULT:      -4.4     17.818     19.826
REMARK  0 active torsions:
REMARK  status: ('A' for Active; 'I' for Inactive)
ROOT
HETATM    1  C1  UNL     1     -36.427  15.424  -6.399  1.00 20.00     0.136 C 
HETATM    2  C2  UNL     1     -33.866  15.168  -7.161  1.00 20.00     0.018 A 
HETATM    3  C3  UNL     1     -37.422  14.485  -4.218  1.00 20.00     0.018 A 
HETATM    4  C4  UNL     1     -33.758  15.765  -3.102  1.00 20.00     0.011 A 
HETATM    5  C5  UNL     1     -35.113  14.772  -6.458  1.00 20.00     0.060 A 
HETATM    6  C6  UNL     1     -36.993  15.672  -5.038  1.00 20.00     0.060 A 
HETATM    7  C7  UNL     1     -34.045  15.616  -5.748  1.00 20.00     0.002 A 
HETATM    8  C8  UNL     1     -36.312  15.373  -3.704  1.00 20.00     0.002 A 
HETATM    9  C9  UNL     1     -33.711  15.011  -4.398  1.00 20.00    -0.005 A 
HETATM   10  C10 UNL     1     -34.892  14.826  -3.442  1.00 20.00    -0.005 A 
HETATM   11  O11 UNL     1     -37.044  15.720  -7.412  1.00 20.00    -0.297 OA
ENDROOT
TORSDOF 0
ENDMDL
MODEL 8
REMARK VINA RESULT:      -4.4     14.759     16.175
REMARK  0 active torsions:
REMARK  status: ('A' for Active; 'I' for Inactive)
ROOT
HETATM    1  C1  UNL     1     -35.365  16.497  -2.299  1.00 20.00     0.136 C 
HETATM    2  C2  UNL     1     -33.055  16.044  -3.590  1.00 20.00     0.018 A 
HETATM    3  C3  UNL     1     -35.566  17.209   0.166  1.00 20.00     0.018 A 
HETATM    4  C4  UNL     1     -32.341  19.259  -1.141  1.00 20.00     0.011 A 
HETATM    5  C5  UNL     1     -33.952  16.114  -2.407  1.00 20.00     0.060 A 
HETATM    6  C6  UNL     1     -35.700  17.550  -1.293  1.00 20.00     0.060 A 
HETATM    7  C7  UNL     1     -33.082  17.315  -2.808  1.00 20.00     0.002 A 
HETATM    8  C8  UNL     1     -34.711  18.312  -0.414  1.00 20.00     0.002 A 
HETATM    9  C9  UNL     1     -32.317  17.832  -1.605  1.00 20.00    -0.005 A 
HETATM   10  C10 UNL     1     -33.168  18.235  -0.399  1.00 20.00    -0.005 A 
HETATM   11  O11 UNL     1     -36.230  15.958  -2.974  1.00 20.00    -0.297 OA
ENDROOT
TORSDOF 0
ENDMDL
MODEL 9
REMARK VINA RESULT:      -4.3      1.395      2.266
REMARK  0 active torsions:
REMARK  status: ('A' for Active; 'I' for Inactive)
ROOT
HETATM    1  C1  UNL     1     -23.647  18.538   8.094  1.00 20.00     0.136 C 
HETATM    2  C2  UNL     1     -21.557  17.001   8.785  1.00 20.00     0.018 A 
HETATM    3  C3  UNL     1     -25.917  18.578   9.305  1.00 20.00     0.018 A 
HETATM    4  C4  UNL     1     -23.254  18.215  12.319  1.00 20.00     0.011 A 
HETATM    5  C5  UNL     1     -22.995  17.357   8.674  1.00 20.00     0.060 A 
HETATM    6  C6  UNL     1     -24.621  19.263   8.964  1.00 20.00     0.060 A 
HETATM    7  C7  UNL     1     -22.186  17.731   9.925  1.00 20.00     0.002 A 
HETATM    8  C8  UNL     1     -24.959  18.935  10.417  1.00 20.00     0.002 A 
HETATM    9  C9  UNL     1     -22.927  17.299  11.176  1.00 20.00    -0.005 A 
HETATM   10  C10 UNL     1     -24.343  17.856  11.335  1.00 20.00    -0.005 A 
HETATM   11  O11 UNL     1     -23.428  18.893   6.944  1.00 20.00    -0.297 OA
ENDROOT
TORSDOF 0
ENDMDL
