MODEL 1
REMARK VINA RESULT:      -5.6      0.000      0.000
REMARK  1 active torsions:
REMARK  status: ('A' for Active; 'I' for Inactive)
REMARK    1  A    between atoms: C5_5  and  C8_8 
ROOT
HETATM    1  C1  UNL     1     -34.028  14.087  -4.090  1.00 20.00     0.047 C 
HETATM    2  C2  UNL     1     -33.584  15.283  -3.687  1.00 20.00    -0.009 C 
HETATM    3  C3  UNL     1     -35.482  13.821  -4.195  1.00 20.00     0.149 C 
HETATM    4  C6  UNL     1     -36.441  14.958  -3.927  1.00 20.00     0.084 C 
HETATM    5  C7  UNL     1     -35.877  15.920  -2.889  1.00 20.00     0.025 C 
HETATM    6  C8  UNL     1     -34.466  16.436  -3.251  1.00 20.00    -0.003 C 
HETATM    7  C11 UNL     1     -34.532  17.468  -4.389  1.00 20.00     0.024 C 
HETATM    8  O12 UNL     1     -35.876  12.714  -4.555  1.00 20.00    -0.293 OA
ENDROOT
BRANCH   6   9
HETATM    9  C5  UNL     1     -33.883  17.114  -2.035  1.00 20.00    -0.076 C 
HETATM   10  C4  UNL     1     -32.633  17.616  -2.049  1.00 20.00    -0.027 C 
HETATM   11  C9  UNL     1     -31.924  18.302  -0.952  1.00 20.00     0.036 C 
HETATM   12  C10 UNL     1     -34.795  17.175  -0.843  1.00 20.00     0.044 C 
ENDBRANCH   6   9
TORSDOF 1
ENDMDL
MODEL 2
REMARK VINA RESULT:      -5.5      1.123      1.403
REMARK  1 active torsions:
REMARK  status: ('A' for Active; 'I' for Inactive)
REMARK    1  A    between atoms: C5_5  and  C8_8 
ROOT
HETATM    1  C1  UNL     1     -33.166  15.351  -3.828  1.00 20.00     0.047 C 
HETATM    2  C2  UNL     1     -32.951  16.529  -3.230  1.00 20.00    -0.009 C 
HETATM    3  C3  UNL     1     -34.479  14.675  -3.705  1.00 20.00     0.149 C 
HETATM    4  C6  UNL     1     -35.590  15.390  -2.970  1.00 20.00     0.084 C 
HETATM    5  C7  UNL     1     -35.034  16.267  -1.856  1.00 20.00     0.025 C 
HETATM    6  C8  UNL     1     -33.948  17.251  -2.348  1.00 20.00    -0.003 C 
HETATM    7  C11 UNL     1     -34.573  18.406  -3.148  1.00 20.00     0.024 C 
HETATM    8  O12 UNL     1     -34.659  13.588  -4.250  1.00 20.00    -0.293 OA
ENDROOT
BRANCH   6   9
HETATM    9  C5  UNL     1     -33.257  17.835  -1.140  1.00 20.00    -0.076 C 
HETATM   10  C4  UNL     1     -31.939  18.111  -1.157  1.00 20.00    -0.027 C 
HETATM   11  C9  UNL     1     -31.121  18.680  -0.069  1.00 20.00     0.036 C 
HETATM   12  C10 UNL     1     -34.145  18.074   0.049  1.00 20.00     0.044 C 
ENDBRANCH   6   9
TORSDOF 1
ENDMDL
MODEL 3
REMARK VINA RESULT:      -5.3      0.455      1.374
REMARK  1 active torsions:
REMARK  status: ('A' for Active; 'I' for Inactive)
REMARK    1  A    between atoms: C5_5  and  C8_8 
ROOT
HETATM    1  C1  UNL     1     -34.147  14.078  -3.993  1.00 20.00     0.047 C 
HETATM    2  C2  UNL     1     -33.719  15.261  -3.535  1.00 20.00    -0.009 C 
HETATM    3  C3  UNL     1     -35.588  13.846  -4.244  1.00 20.00     0.149 C 
HETATM    4  C6  UNL     1     -36.545  15.002  -4.060  1.00 20.00     0.084 C 
HETATM    5  C7  UNL     1     -36.066  15.942  -2.961  1.00 20.00     0.025 C 
HETATM    6  C8  UNL     1     -34.614  16.429  -3.176  1.00 20.00    -0.003 C 
HETATM    7  C11 UNL     1     -34.545  17.472  -4.304  1.00 20.00     0.024 C 
HETATM    8  O12 UNL     1     -35.969  12.751  -4.653  1.00 20.00    -0.293 OA
ENDROOT
BRANCH   6   9
HETATM    9  C5  UNL     1     -34.141  17.083  -1.901  1.00 20.00    -0.076 C 
HETATM   10  C4  UNL     1     -34.935  17.151  -0.816  1.00 20.00    -0.027 C 
HETATM   11  C9  UNL     1     -34.624  17.752   0.495  1.00 20.00     0.036 C 
HETATM   12  C10 UNL     1     -32.744  17.636  -1.951  1.00 20.00     0.044 C 
ENDBRANCH   6   9
TORSDOF 1
ENDMDL
MODEL 4
REMARK VINA RESULT:      -5.3      1.643      2.679
REMARK  1 active torsions:
REMARK  status: ('A' for Active; 'I' for Inactive)
REMARK    1  A    between atoms: C5_5  and  C8_8 
ROOT
HETATM    1  C1  UNL     1     -35.868  14.085  -5.070  1.00 20.00     0.047 C 
HETATM    2  C2  UNL     1     -35.108  14.404  -4.015  1.00 20.00    -0.009 C 
HETATM    3  C3  UNL     1     -35.633  14.724  -6.385  1.00 20.00     0.149 C 
HETATM    4  C6  UNL     1     -34.463  15.670  -6.527  1.00 20.00     0.084 C 
HETATM    5  C7  UNL     1     -34.191  16.405  -5.221  1.00 20.00     0.025 C 
HETATM    6  C8  UNL     1     -34.012  15.451  -4.019  1.00 20.00    -0.003 C 
HETATM    7  C11 UNL     1     -32.649  14.741  -4.077  1.00 20.00     0.024 C 
HETATM    8  O12 UNL     1     -36.346  14.429  -7.343  1.00 20.00    -0.293 OA
ENDROOT
BRANCH   6   9
HETATM    9  C5  UNL     1     -34.062  16.270  -2.752  1.00 20.00    -0.076 C 
HETATM   10  C4  UNL     1     -35.109  16.186  -1.908  1.00 20.00    -0.027 C 
HETATM   11  C9  UNL     1     -35.307  16.914  -0.641  1.00 20.00     0.036 C 
HETATM   12  C10 UNL     1     -32.875  17.163  -2.524  1.00 20.00     0.044 C 
ENDBRANCH   6   9
TORSDOF 1
ENDMDL
MODEL 5
REMARK VINA RESULT:      -5.2      1.668      2.302
REMARK  1 active torsions:
REMARK  status: ('A' for Active; 'I' for Inactive)
REMARK    1  A    between atoms: C5_5  and  C8_8 
ROOT
HETATM    1  C1  UNL     1     -35.821  14.053  -5.089  1.00 20.00     0.047 C 
HETATM    2  C2  UNL     1     -35.042  14.370  -4.048  1.00 20.00    -0.009 C 
HETATM    3  C3  UNL     1     -35.603  14.688  -6.410  1.00 20.00     0.149 C 
HETATM    4  C6  UNL     1     -34.429  15.625  -6.573  1.00 20.00     0.084 C 
HETATM    5  C7  UNL     1     -34.130  16.362  -5.274  1.00 20.00     0.025 C 
HETATM    6  C8  UNL     1     -33.939  15.409  -4.072  1.00 20.00    -0.003 C 
HETATM    7  C11 UNL     1     -32.582  14.690  -4.149  1.00 20.00     0.024 C 
HETATM    8  O12 UNL     1     -36.333  14.395  -7.356  1.00 20.00    -0.293 OA
ENDROOT
BRANCH   6   9
HETATM    9  C5  UNL     1     -33.964  16.232  -2.807  1.00 20.00    -0.076 C 
HETATM   10  C4  UNL     1     -32.944  17.052  -2.489  1.00 20.00    -0.027 C 
HETATM   11  C9  UNL     1     -32.817  17.916  -1.300  1.00 20.00     0.036 C 
HETATM   12  C10 UNL     1     -35.191  16.057  -1.958  1.00 20.00     0.044 C 
ENDBRANCH   6   9
TORSDOF 1
ENDMDL
MODEL 6
REMARK VINA RESULT:      -4.9     10.827     13.224
REMARK  1 active torsions:
REMARK  status: ('A' for Active; 'I' for Inactive)
REMARK    1  A    between atoms: C5_5  and  C8_8 
ROOT
HETATM    1  C1  UNL     1     -40.889   8.008   0.536  1.00 20.00     0.047 C 
HETATM    2  C2  UNL     1     -41.209   6.720   0.366  1.00 20.00    -0.009 C 
HETATM    3  C3  UNL     1     -41.854   9.075   0.181  1.00 20.00     0.149 C 
HETATM    4  C6  UNL     1     -43.233   8.671  -0.287  1.00 20.00     0.084 C 
HETATM    5  C7  UNL     1     -43.192   7.347  -1.039  1.00 20.00     0.025 C 
HETATM    6  C8  UNL     1     -42.506   6.219  -0.236  1.00 20.00    -0.003 C 
HETATM    7  C11 UNL     1     -43.417   5.716   0.896  1.00 20.00     0.024 C 
HETATM    8  O12 UNL     1     -41.542  10.255   0.331  1.00 20.00    -0.293 OA
ENDROOT
BRANCH   6   9
HETATM    9  C5  UNL     1     -42.240   5.065  -1.173  1.00 20.00    -0.076 C 
HETATM   10  C4  UNL     1     -43.248   4.436  -1.807  1.00 20.00    -0.027 C 
HETATM   11  C9  UNL     1     -43.155   3.302  -2.746  1.00 20.00     0.036 C 
HETATM   12  C10 UNL     1     -40.792   4.692  -1.328  1.00 20.00     0.044 C 
ENDBRANCH   6   9
TORSDOF 1
ENDMDL
MODEL 7
REMARK VINA RESULT:      -4.8      1.166      2.134
REMARK  1 active torsions:
REMARK  status: ('A' for Active; 'I' for Inactive)
REMARK    1  A    between atoms: C5_5  and  C8_8 
ROOT
HETATM    1  C1  UNL     1     -35.934  16.090  -5.069  1.00 20.00     0.047 C 
HETATM    2  C2  UNL     1     -35.455  16.874  -4.095  1.00 20.00    -0.009 C 
HETATM    3  C3  UNL     1     -35.544  14.663  -5.143  1.00 20.00     0.149 C 
HETATM    4  C6  UNL     1     -34.671  14.097  -4.047  1.00 20.00     0.084 C 
HETATM    5  C7  UNL     1     -33.725  15.157  -3.497  1.00 20.00     0.025 C 
HETATM    6  C8  UNL     1     -34.458  16.440  -3.041  1.00 20.00    -0.003 C 
HETATM    7  C11 UNL     1     -35.205  16.207  -1.717  1.00 20.00     0.024 C 
HETATM    8  O12 UNL     1     -35.983  13.957  -6.049  1.00 20.00    -0.293 OA
ENDROOT
BRANCH   6   9
HETATM    9  C5  UNL     1     -33.427  17.519  -2.816  1.00 20.00    -0.076 C 
HETATM   10  C4  UNL     1     -32.835  17.678  -1.616  1.00 20.00    -0.027 C 
HETATM   11  C9  UNL     1     -31.817  18.675  -1.237  1.00 20.00     0.036 C 
HETATM   12  C10 UNL     1     -33.129  18.376  -4.014  1.00 20.00     0.044 C 
ENDBRANCH   6   9
TORSDOF 1
ENDMDL
MODEL 8
REMARK VINA RESULT:      -4.8      3.145      5.198
REMARK  1 active torsions:
REMARK  status: ('A' for Active; 'I' for Inactive)
REMARK    1  A    between atoms: C5_5  and  C8_8 
ROOT
HETATM    1  C1  UNL     1     -33.926  18.164   0.728  1.00 20.00     0.047 C 
HETATM    2  C2  UNL     1     -34.426  17.753  -0.444  1.00 20.00    -0.009 C 
HETATM    3  C3  UNL     1     -32.568  18.750   0.801  1.00 20.00     0.149 C 
HETATM    4  C6  UNL     1     -31.803  18.956  -0.487  1.00 20.00     0.084 C 
HETATM    5  C7  UNL     1     -32.159  17.888  -1.513  1.00 20.00     0.025 C 
HETATM    6  C8  UNL     1     -33.681  17.776  -1.763  1.00 20.00    -0.003 C 
HETATM    7  C11 UNL     1     -34.190  18.962  -2.600  1.00 20.00     0.024 C 
HETATM    8  O12 UNL     1     -32.117  19.113   1.886  1.00 20.00    -0.293 OA
ENDROOT
BRANCH   6   9
HETATM    9  C5  UNL     1     -33.941  16.508  -2.538  1.00 20.00    -0.076 C 
HETATM   10  C4  UNL     1     -33.042  16.032  -3.420  1.00 20.00    -0.027 C 
HETATM   11  C9  UNL     1     -33.145  14.816  -4.249  1.00 20.00     0.036 C 
HETATM   12  C10 UNL     1     -35.257  15.843  -2.246  1.00 20.00     0.044 C 
ENDBRANCH   6   9
TORSDOF 1
ENDMDL
MODEL 9
REMARK VINA RESULT:      -4.7      2.678      4.877
REMARK  1 active torsions:
REMARK  status: ('A' for Active; 'I' for Inactive)
REMARK    1  A    between atoms: C5_5  and  C8_8 
ROOT
HETATM    1  C1  UNL     1     -35.042  17.341   0.081  1.00 20.00     0.047 C 
HETATM    2  C2  UNL     1     -35.312  16.887  -1.149  1.00 20.00    -0.009 C 
HETATM    3  C3  UNL     1     -33.831  18.157   0.330  1.00 20.00     0.149 C 
HETATM    4  C6  UNL     1     -32.964  18.537  -0.848  1.00 20.00     0.084 C 
HETATM    5  C7  UNL     1     -32.993  17.457  -1.922  1.00 20.00     0.025 C 
HETATM    6  C8  UNL     1     -34.427  17.085  -2.363  1.00 20.00    -0.003 C 
HETATM    7  C11 UNL     1     -35.035  18.188  -3.245  1.00 20.00     0.024 C 
HETATM    8  O12 UNL     1     -33.589  18.558   1.467  1.00 20.00    -0.293 OA
ENDROOT
BRANCH   6   9
HETATM    9  C5  UNL     1     -34.358  15.816  -3.177  1.00 20.00    -0.076 C 
HETATM   10  C4  UNL     1     -35.455  15.064  -3.391  1.00 20.00    -0.027 C 
HETATM   11  C9  UNL     1     -35.553  13.808  -4.158  1.00 20.00     0.036 C 
HETATM   12  C10 UNL     1     -32.995  15.476  -3.711  1.00 20.00     0.044 C 
ENDBRANCH   6   9
TORSDOF 1
ENDMDL
