MODEL 1
REMARK VINA RESULT:      -4.3      0.000      0.000
REMARK  1 active torsions:
REMARK  status: ('A' for Active; 'I' for Inactive)
REMARK    1  A    between atoms: C2_2  and  C6_6 
ROOT
HETATM    1  C1  UNL     1     -22.505  17.975   8.584  1.00 20.00     0.133 A 
HETATM    2  C2  UNL     1     -23.228  18.168   9.743  1.00 20.00     0.007 A 
HETATM    3  C3  UNL     1     -24.364  18.723   7.693  1.00 20.00     0.143 A 
HETATM    4  N7  UNL     1     -23.155  18.292   7.407  1.00 20.00    -0.245 NA
HETATM    5  S8  UNL     1     -24.786  18.772   9.356  1.00 20.00    -0.066 SA
HETATM    6 BR9  UNL     1     -25.587  19.263   6.329  1.00 20.00    -0.021 Br
ENDROOT
BRANCH   2   7
HETATM    7  C6  UNL     1     -22.721  17.886  11.167  1.00 20.00     0.027 A 
HETATM    8  C4  UNL     1     -23.307  16.718  11.926  1.00 20.00     0.010 A 
HETATM    9  C5  UNL     1     -23.660  18.116  12.328  1.00 20.00     0.010 A 
ENDBRANCH   2   7
TORSDOF 1
ENDMDL
MODEL 2
REMARK VINA RESULT:      -4.3     17.774     19.003
REMARK  1 active torsions:
REMARK  status: ('A' for Active; 'I' for Inactive)
REMARK    1  A    between atoms: C2_2  and  C6_6 
ROOT
HETATM    1  C1  UNL     1     -36.218  13.868  -4.616  1.00 20.00     0.133 A 
HETATM    2  C2  UNL     1     -35.682  15.139  -4.625  1.00 20.00     0.007 A 
HETATM    3  C3  UNL     1     -38.068  15.010  -4.328  1.00 20.00     0.143 A 
HETATM    4  N7  UNL     1     -37.587  13.793  -4.445  1.00 20.00    -0.245 NA
HETATM    5  S8  UNL     1     -36.932  16.294  -4.414  1.00 20.00    -0.066 SA
HETATM    6 BR9  UNL     1     -39.934  15.334  -4.073  1.00 20.00    -0.021 Br
ENDROOT
BRANCH   2   7
HETATM    7  C6  UNL     1     -34.191  15.476  -4.798  1.00 20.00     0.027 A 
HETATM    8  C4  UNL     1     -33.164  14.457  -4.365  1.00 20.00     0.010 A 
HETATM    9  C5  UNL     1     -33.353  15.706  -3.563  1.00 20.00     0.010 A 
ENDBRANCH   2   7
TORSDOF 1
ENDMDL
MODEL 3
REMARK VINA RESULT:      -4.2     17.349     18.643
REMARK  1 active torsions:
REMARK  status: ('A' for Active; 'I' for Inactive)
REMARK    1  A    between atoms: C2_2  and  C6_6 
ROOT
HETATM    1  C1  UNL     1     -36.226  13.824  -4.301  1.00 20.00     0.133 A 
HETATM    2  C2  UNL     1     -35.719  14.979  -3.743  1.00 20.00     0.007 A 
HETATM    3  C3  UNL     1     -38.065  15.019  -4.286  1.00 20.00     0.143 A 
HETATM    4  N7  UNL     1     -37.572  13.845  -4.612  1.00 20.00    -0.245 NA
HETATM    5  S8  UNL     1     -36.968  16.146  -3.599  1.00 20.00    -0.066 SA
HETATM    6 BR9  UNL     1     -39.907  15.447  -4.559  1.00 20.00    -0.021 Br
ENDROOT
BRANCH   2   7
HETATM    7  C6  UNL     1     -34.258  15.195  -3.313  1.00 20.00     0.027 A 
HETATM    8  C4  UNL     1     -33.935  16.359  -2.406  1.00 20.00     0.010 A 
HETATM    9  C5  UNL     1     -33.518  16.401  -3.843  1.00 20.00     0.010 A 
ENDBRANCH   2   7
TORSDOF 1
ENDMDL
MODEL 4
REMARK VINA RESULT:      -4.0      2.294      2.975
REMARK  1 active torsions:
REMARK  status: ('A' for Active; 'I' for Inactive)
REMARK    1  A    between atoms: C2_2  and  C6_6 
ROOT
HETATM    1  C1  UNL     1     -24.269  19.196   6.516  1.00 20.00     0.133 A 
HETATM    2  C2  UNL     1     -25.090  19.220   7.625  1.00 20.00     0.007 A 
HETATM    3  C3  UNL     1     -26.207  19.238   5.491  1.00 20.00     0.143 A 
HETATM    4  N7  UNL     1     -24.908  19.206   5.292  1.00 20.00    -0.245 NA
HETATM    5  S8  UNL     1     -26.730  19.258   7.126  1.00 20.00    -0.066 SA
HETATM    6 BR9  UNL     1     -27.448  19.259   4.039  1.00 20.00    -0.021 Br
ENDROOT
BRANCH   2   7
HETATM    7  C6  UNL     1     -24.613  19.213   9.087  1.00 20.00     0.027 A 
HETATM    8  C4  UNL     1     -23.229  18.693   9.394  1.00 20.00     0.010 A 
HETATM    9  C5  UNL     1     -24.427  17.885   9.782  1.00 20.00     0.010 A 
ENDBRANCH   2   7
TORSDOF 1
ENDMDL
MODEL 5
REMARK VINA RESULT:      -3.9      2.876      3.380
REMARK  1 active torsions:
REMARK  status: ('A' for Active; 'I' for Inactive)
REMARK    1  A    between atoms: C2_2  and  C6_6 
ROOT
HETATM    1  C1  UNL     1     -24.575  16.709  11.197  1.00 20.00     0.133 A 
HETATM    2  C2  UNL     1     -25.050  18.002  11.135  1.00 20.00     0.007 A 
HETATM    3  C3  UNL     1     -23.344  17.432   9.533  1.00 20.00     0.143 A 
HETATM    4  N7  UNL     1     -23.598  16.380  10.278  1.00 20.00    -0.245 NA
HETATM    5  S8  UNL     1     -24.245  18.852   9.881  1.00 20.00    -0.066 SA
HETATM    6 BR9  UNL     1     -22.044  17.385   8.134  1.00 20.00    -0.021 Br
ENDROOT
BRANCH   2   7
HETATM    7  C6  UNL     1     -26.134  18.599  12.048  1.00 20.00     0.027 A 
HETATM    8  C4  UNL     1     -27.371  17.780  12.332  1.00 20.00     0.010 A 
HETATM    9  C5  UNL     1     -27.464  18.978  11.439  1.00 20.00     0.010 A 
ENDBRANCH   2   7
TORSDOF 1
ENDMDL
MODEL 6
REMARK VINA RESULT:      -3.9     23.579     24.425
REMARK  1 active torsions:
REMARK  status: ('A' for Active; 'I' for Inactive)
REMARK    1  A    between atoms: C2_2  and  C6_6 
ROOT
HETATM    1  C1  UNL     1     -40.804   5.792  -0.723  1.00 20.00     0.133 A 
HETATM    2  C2  UNL     1     -41.985   6.402  -0.358  1.00 20.00     0.007 A 
HETATM    3  C3  UNL     1     -42.192   4.522  -1.849  1.00 20.00     0.143 A 
HETATM    4  N7  UNL     1     -40.920   4.713  -1.577  1.00 20.00    -0.245 NA
HETATM    5  S8  UNL     1     -43.303   5.603  -1.111  1.00 20.00    -0.066 SA
HETATM    6 BR9  UNL     1     -42.774   3.115  -3.003  1.00 20.00    -0.021 Br
ENDROOT
BRANCH   2   7
HETATM    7  C6  UNL     1     -42.110   7.615   0.580  1.00 20.00     0.027 A 
HETATM    8  C4  UNL     1     -43.142   8.671   0.262  1.00 20.00     0.010 A 
HETATM    9  C5  UNL     1     -41.688   8.972   0.068  1.00 20.00     0.010 A 
ENDBRANCH   2   7
TORSDOF 1
ENDMDL
MODEL 7
REMARK VINA RESULT:      -3.9     16.180     16.934
REMARK  1 active torsions:
REMARK  status: ('A' for Active; 'I' for Inactive)
REMARK    1  A    between atoms: C2_2  and  C6_6 
ROOT
HETATM    1  C1  UNL     1     -33.231   5.562   2.116  1.00 20.00     0.133 A 
HETATM    2  C2  UNL     1     -32.936   6.891   2.336  1.00 20.00     0.007 A 
HETATM    3  C3  UNL     1     -33.976   5.729   4.171  1.00 20.00     0.143 A 
HETATM    4  N7  UNL     1     -33.827   4.893   3.168  1.00 20.00    -0.245 NA
HETATM    5  S8  UNL     1     -33.421   7.334   3.920  1.00 20.00    -0.066 SA
HETATM    6 BR9  UNL     1     -34.766   5.185   5.824  1.00 20.00    -0.021 Br
ENDROOT
BRANCH   2   7
HETATM    7  C6  UNL     1     -32.273   7.837   1.321  1.00 20.00     0.027 A 
HETATM    8  C4  UNL     1     -32.867   9.211   1.118  1.00 20.00     0.010 A 
HETATM    9  C5  UNL     1     -33.018   8.172   0.050  1.00 20.00     0.010 A 
ENDBRANCH   2   7
TORSDOF 1
ENDMDL
MODEL 8
REMARK VINA RESULT:      -3.8     16.345     17.472
REMARK  1 active torsions:
REMARK  status: ('A' for Active; 'I' for Inactive)
REMARK    1  A    between atoms: C2_2  and  C6_6 
ROOT
HETATM    1  C1  UNL     1     -33.586  14.656  -4.240  1.00 20.00     0.133 A 
HETATM    2  C2  UNL     1     -34.141  15.811  -3.729  1.00 20.00     0.007 A 
HETATM    3  C3  UNL     1     -34.508  15.419  -6.077  1.00 20.00     0.143 A 
HETATM    4  N7  UNL     1     -33.797  14.429  -5.586  1.00 20.00    -0.245 NA
HETATM    5  S8  UNL     1     -34.960  16.657  -4.977  1.00 20.00    -0.066 SA
HETATM    6 BR9  UNL     1     -35.016  15.477  -7.918  1.00 20.00    -0.021 Br
ENDROOT
BRANCH   2   7
HETATM    7  C6  UNL     1     -34.044  16.276  -2.266  1.00 20.00     0.027 A 
HETATM    8  C4  UNL     1     -34.572  17.645  -1.906  1.00 20.00     0.010 A 
HETATM    9  C5  UNL     1     -33.095  17.401  -1.926  1.00 20.00     0.010 A 
ENDBRANCH   2   7
TORSDOF 1
ENDMDL
MODEL 9
REMARK VINA RESULT:      -3.8      2.883      3.598
REMARK  1 active torsions:
REMARK  status: ('A' for Active; 'I' for Inactive)
REMARK    1  A    between atoms: C2_2  and  C6_6 
ROOT
HETATM    1  C1  UNL     1     -24.433  19.139   9.123  1.00 20.00     0.133 A 
HETATM    2  C2  UNL     1     -23.360  18.467   9.671  1.00 20.00     0.007 A 
HETATM    3  C3  UNL     1     -25.390  18.441  10.968  1.00 20.00     0.143 A 
HETATM    4  N7  UNL     1     -25.598  19.124   9.864  1.00 20.00    -0.245 NA
HETATM    5  S8  UNL     1     -23.817  17.787  11.178  1.00 20.00    -0.066 SA
HETATM    6 BR9  UNL     1     -26.767  18.186  12.267  1.00 20.00    -0.021 Br
ENDROOT
BRANCH   2   7
HETATM    7  C6  UNL     1     -21.965  18.342   9.035  1.00 20.00     0.027 A 
HETATM    8  C4  UNL     1     -21.825  17.563   7.749  1.00 20.00     0.010 A 
HETATM    9  C5  UNL     1     -21.293  16.990   9.025  1.00 20.00     0.010 A 
ENDBRANCH   2   7
TORSDOF 1
ENDMDL
