MODEL 1
REMARK VINA RESULT:      -4.7      0.000      0.000
REMARK  1 active torsions:
REMARK  status: ('A' for Active; 'I' for Inactive)
REMARK    1  A    between atoms: C10_10  and  O11_11 
ROOT
HETATM    1  C1  UNL     1     -33.023  15.965  -3.424  1.00 20.00     0.011 A 
HETATM    2  C2  UNL     1     -35.031  13.454  -3.948  1.00 20.00     0.013 A 
HETATM    3  C3  UNL     1     -34.427  17.148  -6.594  1.00 20.00     0.013 A 
HETATM    4  C4  UNL     1     -34.430  15.858  -2.895  1.00 20.00    -0.005 A 
HETATM    5  C5  UNL     1     -34.042  16.984  -3.854  1.00 20.00    -0.005 A 
HETATM    6  C6  UNL     1     -35.428  14.728  -3.235  1.00 20.00    -0.003 A 
HETATM    7  C7  UNL     1     -34.801  17.030  -5.157  1.00 20.00    -0.003 A 
HETATM    8  C8  UNL     1     -36.094  14.328  -4.560  1.00 20.00     0.019 A 
HETATM    9  C9  UNL     1     -34.672  15.786  -6.014  1.00 20.00     0.019 A 
HETATM   10  C10 UNL     1     -35.900  14.956  -5.926  1.00 20.00     0.127 C 
ENDROOT
BRANCH  10  11
HETATM   11  O11 UNL     1     -35.842  13.915  -6.900  1.00 20.00    -0.395 OA
HETATM   12  H25 UNL     1     -36.701  13.910  -7.348  1.00 20.00     0.210 HD
ENDBRANCH  10  11
TORSDOF 1
ENDMDL
MODEL 2
REMARK VINA RESULT:      -4.6      1.390      2.235
REMARK  1 active torsions:
REMARK  status: ('A' for Active; 'I' for Inactive)
REMARK    1  A    between atoms: C10_10  and  O11_11 
ROOT
HETATM    1  C1  UNL     1     -35.102  16.040  -1.931  1.00 20.00     0.011 A 
HETATM    2  C2  UNL     1     -37.283  15.757  -4.333  1.00 20.00     0.013 A 
HETATM    3  C3  UNL     1     -32.909  14.387  -4.356  1.00 20.00     0.013 A 
HETATM    4  C4  UNL     1     -35.382  17.092  -2.972  1.00 20.00    -0.005 A 
HETATM    5  C5  UNL     1     -33.996  16.454  -2.863  1.00 20.00    -0.005 A 
HETATM    6  C6  UNL     1     -36.328  16.921  -4.182  1.00 20.00    -0.003 A 
HETATM    7  C7  UNL     1     -33.509  15.725  -4.090  1.00 20.00    -0.003 A 
HETATM    8  C8  UNL     1     -36.252  15.996  -5.406  1.00 20.00     0.019 A 
HETATM    9  C9  UNL     1     -34.387  14.571  -4.537  1.00 20.00     0.019 A 
HETATM   10  C10 UNL     1     -35.196  14.955  -5.721  1.00 20.00     0.127 C 
ENDROOT
BRANCH  10  11
HETATM   11  O11 UNL     1     -35.844  13.798  -6.250  1.00 20.00    -0.395 OA
HETATM   12  H25 UNL     1     -35.311  13.036  -5.976  1.00 20.00     0.210 HD
ENDBRANCH  10  11
TORSDOF 1
ENDMDL
MODEL 3
REMARK VINA RESULT:      -4.6      1.598      2.356
REMARK  1 active torsions:
REMARK  status: ('A' for Active; 'I' for Inactive)
REMARK    1  A    between atoms: C10_10  and  O11_11 
ROOT
HETATM    1  C1  UNL     1     -35.859  17.842  -3.515  1.00 20.00     0.011 A 
HETATM    2  C2  UNL     1     -33.180  15.996  -3.364  1.00 20.00     0.013 A 
HETATM    3  C3  UNL     1     -36.504  15.843  -6.517  1.00 20.00     0.013 A 
HETATM    4  C4  UNL     1     -35.739  16.555  -2.741  1.00 20.00    -0.005 A 
HETATM    5  C5  UNL     1     -36.745  16.684  -3.886  1.00 20.00    -0.005 A 
HETATM    6  C6  UNL     1     -34.513  15.614  -2.758  1.00 20.00    -0.003 A 
HETATM    7  C7  UNL     1     -36.563  15.721  -5.033  1.00 20.00    -0.003 A 
HETATM    8  C8  UNL     1     -33.894  14.776  -3.887  1.00 20.00     0.019 A 
HETATM    9  C9  UNL     1     -35.222  15.813  -5.737  1.00 20.00     0.019 A 
HETATM   10  C10 UNL     1     -34.338  14.691  -5.333  1.00 20.00     0.127 C 
ENDROOT
BRANCH  10  11
HETATM   11  O11 UNL     1     -33.178  14.677  -6.164  1.00 20.00    -0.395 OA
HETATM   12  H25 UNL     1     -32.983  13.745  -6.348  1.00 20.00     0.210 HD
ENDBRANCH  10  11
TORSDOF 1
ENDMDL
MODEL 4
REMARK VINA RESULT:      -4.4      1.525      1.874
REMARK  1 active torsions:
REMARK  status: ('A' for Active; 'I' for Inactive)
REMARK    1  A    between atoms: C10_10  and  O11_11 
ROOT
HETATM    1  C1  UNL     1     -33.847  16.814  -2.146  1.00 20.00     0.011 A 
HETATM    2  C2  UNL     1     -33.214  14.560  -4.410  1.00 20.00     0.013 A 
HETATM    3  C3  UNL     1     -35.181  18.655  -5.018  1.00 20.00     0.013 A 
HETATM    4  C4  UNL     1     -34.762  15.674  -2.511  1.00 20.00    -0.005 A 
HETATM    5  C5  UNL     1     -35.207  17.125  -2.707  1.00 20.00    -0.005 A 
HETATM    6  C6  UNL     1     -34.525  14.671  -3.662  1.00 20.00    -0.003 A 
HETATM    7  C7  UNL     1     -35.547  17.522  -4.122  1.00 20.00    -0.003 A 
HETATM    8  C8  UNL     1     -34.469  14.869  -5.184  1.00 20.00     0.019 A 
HETATM    9  C9  UNL     1     -34.413  17.370  -5.117  1.00 20.00     0.019 A 
HETATM   10  C10 UNL     1     -34.611  16.164  -5.959  1.00 20.00     0.127 C 
ENDROOT
BRANCH  10  11
HETATM   11  O11 UNL     1     -33.657  16.163  -7.021  1.00 20.00    -0.395 OA
HETATM   12  H25 UNL     1     -33.024  16.870  -6.822  1.00 20.00     0.210 HD
ENDBRANCH  10  11
TORSDOF 1
ENDMDL
MODEL 5
REMARK VINA RESULT:      -4.3     17.433     19.298
REMARK  1 active torsions:
REMARK  status: ('A' for Active; 'I' for Inactive)
REMARK    1  A    between atoms: C10_10  and  O11_11 
ROOT
HETATM    1  C1  UNL     1     -25.791  17.281  11.644  1.00 20.00     0.011 A 
HETATM    2  C2  UNL     1     -24.988  18.316   8.662  1.00 20.00     0.013 A 
HETATM    3  C3  UNL     1     -22.163  17.369  12.145  1.00 20.00     0.013 A 
HETATM    4  C4  UNL     1     -25.720  18.725  11.220  1.00 20.00    -0.005 A 
HETATM    5  C5  UNL     1     -24.804  18.191  12.323  1.00 20.00    -0.005 A 
HETATM    6  C6  UNL     1     -25.227  19.229   9.845  1.00 20.00    -0.003 A 
HETATM    7  C7  UNL     1     -23.323  18.300  12.058  1.00 20.00    -0.003 A 
HETATM    8  C8  UNL     1     -23.847  19.157   9.174  1.00 20.00     0.019 A 
HETATM    9  C9  UNL     1     -22.841  17.565  10.821  1.00 20.00     0.019 A 
HETATM   10  C10 UNL     1     -22.583  18.517   9.712  1.00 20.00     0.127 C 
ENDROOT
BRANCH  10  11
HETATM   11  O11 UNL     1     -21.930  17.835   8.642  1.00 20.00    -0.395 OA
HETATM   12  H25 UNL     1     -20.978  17.935   8.793  1.00 20.00     0.210 HD
ENDBRANCH  10  11
TORSDOF 1
ENDMDL
MODEL 6
REMARK VINA RESULT:      -4.3      1.586      2.482
REMARK  1 active torsions:
REMARK  status: ('A' for Active; 'I' for Inactive)
REMARK    1  A    between atoms: C10_10  and  O11_11 
ROOT
HETATM    1  C1  UNL     1     -33.243  17.310  -3.686  1.00 20.00     0.011 A 
HETATM    2  C2  UNL     1     -34.296  14.823  -5.506  1.00 20.00     0.013 A 
HETATM    3  C3  UNL     1     -36.642  17.152  -2.331  1.00 20.00     0.013 A 
HETATM    4  C4  UNL     1     -33.085  15.853  -3.334  1.00 20.00    -0.005 A 
HETATM    5  C5  UNL     1     -33.896  16.788  -2.436  1.00 20.00    -0.005 A 
HETATM    6  C6  UNL     1     -33.684  14.672  -4.131  1.00 20.00    -0.003 A 
HETATM    7  C7  UNL     1     -35.347  16.421  -2.244  1.00 20.00    -0.003 A 
HETATM    8  C8  UNL     1     -35.140  14.260  -4.392  1.00 20.00     0.019 A 
HETATM    9  C9  UNL     1     -36.166  16.369  -3.519  1.00 20.00     0.019 A 
HETATM   10  C10 UNL     1     -36.403  14.964  -3.935  1.00 20.00     0.127 C 
ENDROOT
BRANCH  10  11
HETATM   11  O11 UNL     1     -37.349  14.936  -5.003  1.00 20.00    -0.395 OA
HETATM   12  H25 UNL     1     -38.203  15.184  -4.619  1.00 20.00     0.210 HD
ENDBRANCH  10  11
TORSDOF 1
ENDMDL
MODEL 7
REMARK VINA RESULT:      -4.3      1.514      2.022
REMARK  1 active torsions:
REMARK  status: ('A' for Active; 'I' for Inactive)
REMARK    1  A    between atoms: C10_10  and  O11_11 
ROOT
HETATM    1  C1  UNL     1     -34.866  17.746  -3.674  1.00 20.00     0.011 A 
HETATM    2  C2  UNL     1     -33.736  14.766  -4.345  1.00 20.00     0.013 A 
HETATM    3  C3  UNL     1     -37.865  16.480  -5.356  1.00 20.00     0.013 A 
HETATM    4  C4  UNL     1     -34.945  16.562  -2.746  1.00 20.00    -0.005 A 
HETATM    5  C5  UNL     1     -36.219  17.237  -3.258  1.00 20.00    -0.005 A 
HETATM    6  C6  UNL     1     -34.519  15.120  -3.099  1.00 20.00    -0.003 A 
HETATM    7  C7  UNL     1     -37.154  16.359  -4.053  1.00 20.00    -0.003 A 
HETATM    8  C8  UNL     1     -35.078  14.119  -4.122  1.00 20.00     0.019 A 
HETATM    9  C9  UNL     1     -36.551  15.758  -5.308  1.00 20.00     0.019 A 
HETATM   10  C10 UNL     1     -36.218  14.326  -5.098  1.00 20.00     0.127 C 
ENDROOT
BRANCH  10  11
HETATM   11  O11 UNL     1     -35.860  13.733  -6.346  1.00 20.00    -0.395 OA
HETATM   12  H25 UNL     1     -35.387  12.914  -6.135  1.00 20.00     0.210 HD
ENDBRANCH  10  11
TORSDOF 1
ENDMDL
MODEL 8
REMARK VINA RESULT:      -4.3      1.478      3.060
REMARK  1 active torsions:
REMARK  status: ('A' for Active; 'I' for Inactive)
REMARK    1  A    between atoms: C10_10  and  O11_11 
ROOT
HETATM    1  C1  UNL     1     -35.977  17.668  -5.064  1.00 20.00     0.011 A 
HETATM    2  C2  UNL     1     -35.331  14.797  -6.459  1.00 20.00     0.013 A 
HETATM    3  C3  UNL     1     -34.093  16.215  -2.280  1.00 20.00     0.013 A 
HETATM    4  C4  UNL     1     -34.793  17.386  -5.952  1.00 20.00    -0.005 A 
HETATM    5  C5  UNL     1     -34.592  17.805  -4.495  1.00 20.00    -0.005 A 
HETATM    6  C6  UNL     1     -34.415  16.000  -6.521  1.00 20.00    -0.003 A 
HETATM    7  C7  UNL     1     -33.858  16.817  -3.622  1.00 20.00    -0.003 A 
HETATM    8  C8  UNL     1     -33.967  14.706  -5.825  1.00 20.00     0.019 A 
HETATM    9  C9  UNL     1     -34.518  15.457  -3.503  1.00 20.00     0.019 A 
HETATM   10  C10 UNL     1     -33.811  14.454  -4.339  1.00 20.00     0.127 C 
ENDROOT
BRANCH  10  11
HETATM   11  O11 UNL     1     -34.311  13.151  -4.044  1.00 20.00    -0.395 OA
HETATM   12  H25 UNL     1     -34.844  13.237  -3.240  1.00 20.00     0.210 HD
ENDBRANCH  10  11
TORSDOF 1
ENDMDL
MODEL 9
REMARK VINA RESULT:      -4.3      1.739      2.786
REMARK  1 active torsions:
REMARK  status: ('A' for Active; 'I' for Inactive)
REMARK    1  A    between atoms: C10_10  and  O11_11 
ROOT
HETATM    1  C1  UNL     1     -34.424  16.449  -2.131  1.00 20.00     0.011 A 
HETATM    2  C2  UNL     1     -37.420  16.799  -3.360  1.00 20.00     0.013 A 
HETATM    3  C3  UNL     1     -34.530  13.298  -3.997  1.00 20.00     0.013 A 
HETATM    4  C4  UNL     1     -34.753  17.166  -3.415  1.00 20.00    -0.005 A 
HETATM    5  C5  UNL     1     -33.858  15.926  -3.423  1.00 20.00    -0.005 A 
HETATM    6  C6  UNL     1     -36.154  17.235  -4.065  1.00 20.00    -0.003 A 
HETATM    7  C7  UNL     1     -34.358  14.759  -4.237  1.00 20.00    -0.003 A 
HETATM    8  C8  UNL     1     -37.049  16.140  -4.663  1.00 20.00     0.019 A 
HETATM    9  C9  UNL     1     -35.706  14.211  -3.806  1.00 20.00     0.019 A 
HETATM   10  C10 UNL     1     -36.775  14.651  -4.737  1.00 20.00     0.127 C 
ENDROOT
BRANCH  10  11
HETATM   11  O11 UNL     1     -37.983  13.953  -4.439  1.00 20.00    -0.395 OA
HETATM   12  H25 UNL     1     -37.753  13.271  -3.789  1.00 20.00     0.210 HD
ENDBRANCH  10  11
TORSDOF 1
ENDMDL
