MODEL 1
REMARK VINA RESULT:      -4.6      0.000      0.000
REMARK  1 active torsions:
REMARK  status: ('A' for Active; 'I' for Inactive)
REMARK    1  A    between atoms: C4_4  and  C8_8 
ROOT
HETATM    1  C1  UNL     1     -24.959  18.837   9.649  1.00 20.00     0.012 A 
HETATM    2  C2  UNL     1     -25.455  19.115   8.380  1.00 20.00     0.040 A 
HETATM    3  C3  UNL     1     -22.922  18.136   8.643  1.00 20.00     0.125 A 
HETATM    4  C4  UNL     1     -23.670  18.337   9.792  1.00 20.00    -0.036 A 
HETATM    5  C5  UNL     1     -24.628  18.878   7.295  1.00 20.00     0.102 A 
HETATM    6  N9  UNL     1     -23.369  18.394   7.394  1.00 20.00    -0.253 NA
HETATM    7 BR10 UNL     1     -25.284  19.251   5.552  1.00 20.00    -0.029 Br
ENDROOT
BRANCH   4   8
HETATM    8  C8  UNL     1     -23.110  18.033  11.135  1.00 20.00     0.020 A 
HETATM    9  C6  UNL     1     -23.461  16.724  11.799  1.00 20.00     0.010 A 
HETATM   10  C7  UNL     1     -24.033  18.002  12.328  1.00 20.00     0.010 A 
ENDBRANCH   4   8
TORSDOF 1
ENDMDL
MODEL 2
REMARK VINA RESULT:      -4.5     14.835     16.780
REMARK  1 active torsions:
REMARK  status: ('A' for Active; 'I' for Inactive)
REMARK    1  A    between atoms: C4_4  and  C8_8 
ROOT
HETATM    1  C1  UNL     1     -35.252  15.786  -2.379  1.00 20.00     0.012 A 
HETATM    2  C2  UNL     1     -34.543  16.788  -1.726  1.00 20.00     0.040 A 
HETATM    3  C3  UNL     1     -33.377  15.458  -3.804  1.00 20.00     0.125 A 
HETATM    4  C4  UNL     1     -34.666  15.104  -3.440  1.00 20.00    -0.036 A 
HETATM    5  C5  UNL     1     -33.260  17.067  -2.169  1.00 20.00     0.102 A 
HETATM    6  N9  UNL     1     -32.656  16.425  -3.195  1.00 20.00    -0.253 NA
HETATM    7 BR10 UNL     1     -32.272  18.431  -1.292  1.00 20.00    -0.029 Br
ENDROOT
BRANCH   4   8
HETATM    8  C8  UNL     1     -35.398  14.026  -4.156  1.00 20.00     0.020 A 
HETATM    9  C6  UNL     1     -35.950  14.302  -5.533  1.00 20.00     0.010 A 
HETATM   10  C7  UNL     1     -36.884  14.163  -4.373  1.00 20.00     0.010 A 
ENDBRANCH   4   8
TORSDOF 1
ENDMDL
MODEL 3
REMARK VINA RESULT:      -4.4     14.634     16.425
REMARK  1 active torsions:
REMARK  status: ('A' for Active; 'I' for Inactive)
REMARK    1  A    between atoms: C4_4  and  C8_8 
ROOT
HETATM    1  C1  UNL     1     -33.095  16.246  -3.189  1.00 20.00     0.012 A 
HETATM    2  C2  UNL     1     -32.900  17.290  -2.290  1.00 20.00     0.040 A 
HETATM    3  C3  UNL     1     -35.205  15.833  -2.173  1.00 20.00     0.125 A 
HETATM    4  C4  UNL     1     -34.266  15.499  -3.136  1.00 20.00    -0.036 A 
HETATM    5  C5  UNL     1     -33.900  17.543  -1.366  1.00 20.00     0.102 A 
HETATM    6  N9  UNL     1     -35.052  16.839  -1.284  1.00 20.00    -0.253 NA
HETATM    7 BR10 UNL     1     -33.656  18.963  -0.128  1.00 20.00    -0.029 Br
ENDROOT
BRANCH   4   8
HETATM    8  C8  UNL     1     -34.504  14.379  -4.084  1.00 20.00     0.020 A 
HETATM    9  C6  UNL     1     -35.202  14.658  -5.392  1.00 20.00     0.010 A 
HETATM   10  C7  UNL     1     -35.915  13.899  -4.318  1.00 20.00     0.010 A 
ENDBRANCH   4   8
TORSDOF 1
ENDMDL
MODEL 4
REMARK VINA RESULT:      -4.4      2.672      3.301
REMARK  1 active torsions:
REMARK  status: ('A' for Active; 'I' for Inactive)
REMARK    1  A    between atoms: C4_4  and  C8_8 
ROOT
HETATM    1  C1  UNL     1     -25.042  18.815   9.887  1.00 20.00     0.012 A 
HETATM    2  C2  UNL     1     -23.972  18.476   9.066  1.00 20.00     0.040 A 
HETATM    3  C3  UNL     1     -23.909  17.780  11.704  1.00 20.00     0.125 A 
HETATM    4  C4  UNL     1     -25.019  18.464  11.232  1.00 20.00    -0.036 A 
HETATM    5  C5  UNL     1     -22.911  17.791   9.635  1.00 20.00     0.102 A 
HETATM    6  N9  UNL     1     -22.852  17.433  10.938  1.00 20.00    -0.253 NA
HETATM    7 BR10 UNL     1     -21.438  17.318   8.532  1.00 20.00    -0.029 Br
ENDROOT
BRANCH   4   8
HETATM    8  C8  UNL     1     -26.146  18.814  12.136  1.00 20.00     0.020 A 
HETATM    9  C6  UNL     1     -27.267  17.823  12.331  1.00 20.00     0.010 A 
HETATM   10  C7  UNL     1     -27.509  19.074  11.547  1.00 20.00     0.010 A 
ENDBRANCH   4   8
TORSDOF 1
ENDMDL
MODEL 5
REMARK VINA RESULT:      -4.3     13.281     15.001
REMARK  1 active torsions:
REMARK  status: ('A' for Active; 'I' for Inactive)
REMARK    1  A    between atoms: C4_4  and  C8_8 
ROOT
HETATM    1  C1  UNL     1     -34.495  16.979  -1.456  1.00 20.00     0.012 A 
HETATM    2  C2  UNL     1     -35.166  15.952  -2.112  1.00 20.00     0.040 A 
HETATM    3  C3  UNL     1     -32.753  16.799  -3.064  1.00 20.00     0.125 A 
HETATM    4  C4  UNL     1     -33.265  17.416  -1.935  1.00 20.00    -0.036 A 
HETATM    5  C5  UNL     1     -34.567  15.400  -3.232  1.00 20.00     0.102 A 
HETATM    6  N9  UNL     1     -33.374  15.799  -3.728  1.00 20.00    -0.253 NA
HETATM    7 BR10 UNL     1     -35.465  13.996  -4.144  1.00 20.00    -0.029 Br
ENDROOT
BRANCH   4   8
HETATM    8  C8  UNL     1     -32.525  18.514  -1.258  1.00 20.00     0.020 A 
HETATM    9  C6  UNL     1     -31.286  18.184  -0.463  1.00 20.00     0.010 A 
HETATM   10  C7  UNL     1     -32.538  18.591   0.248  1.00 20.00     0.010 A 
ENDBRANCH   4   8
TORSDOF 1
ENDMDL
MODEL 6
REMARK VINA RESULT:      -4.2     13.174     14.942
REMARK  1 active torsions:
REMARK  status: ('A' for Active; 'I' for Inactive)
REMARK    1  A    between atoms: C4_4  and  C8_8 
ROOT
HETATM    1  C1  UNL     1     -32.747  16.982  -2.737  1.00 20.00     0.012 A 
HETATM    2  C2  UNL     1     -33.307  15.941  -3.470  1.00 20.00     0.040 A 
HETATM    3  C3  UNL     1     -34.668  16.960  -1.336  1.00 20.00     0.125 A 
HETATM    4  C4  UNL     1     -33.434  17.508  -1.649  1.00 20.00    -0.036 A 
HETATM    5  C5  UNL     1     -34.546  15.465  -3.076  1.00 20.00     0.102 A 
HETATM    6  N9  UNL     1     -35.244  15.949  -2.023  1.00 20.00    -0.253 NA
HETATM    7 BR10 UNL     1     -35.330  14.043  -4.062  1.00 20.00    -0.029 Br
ENDROOT
BRANCH   4   8
HETATM    8  C8  UNL     1     -32.861  18.619  -0.844  1.00 20.00     0.020 A 
HETATM    9  C6  UNL     1     -31.595  18.382  -0.058  1.00 20.00     0.010 A 
HETATM   10  C7  UNL     1     -32.899  18.535   0.661  1.00 20.00     0.010 A 
ENDBRANCH   4   8
TORSDOF 1
ENDMDL
MODEL 7
REMARK VINA RESULT:      -4.2      2.058      2.935
REMARK  1 active torsions:
REMARK  status: ('A' for Active; 'I' for Inactive)
REMARK    1  A    between atoms: C4_4  and  C8_8 
ROOT
HETATM    1  C1  UNL     1     -26.386  19.175   7.387  1.00 20.00     0.012 A 
HETATM    2  C2  UNL     1     -27.123  19.148   6.208  1.00 20.00     0.040 A 
HETATM    3  C3  UNL     1     -24.399  19.260   6.082  1.00 20.00     0.125 A 
HETATM    4  C4  UNL     1     -24.997  19.231   7.332  1.00 20.00    -0.036 A 
HETATM    5  C5  UNL     1     -26.429  19.180   5.009  1.00 20.00     0.102 A 
HETATM    6  N9  UNL     1     -25.081  19.236   4.915  1.00 20.00    -0.253 NA
HETATM    7 BR10 UNL     1     -27.416  19.145   3.386  1.00 20.00    -0.029 Br
ENDROOT
BRANCH   4   8
HETATM    8  C8  UNL     1     -24.181  19.263   8.574  1.00 20.00     0.020 A 
HETATM    9  C6  UNL     1     -23.610  17.974   9.112  1.00 20.00     0.010 A 
HETATM   10  C7  UNL     1     -24.734  18.647   9.834  1.00 20.00     0.010 A 
ENDBRANCH   4   8
TORSDOF 1
ENDMDL
MODEL 8
REMARK VINA RESULT:      -4.2     15.671     16.632
REMARK  1 active torsions:
REMARK  status: ('A' for Active; 'I' for Inactive)
REMARK    1  A    between atoms: C4_4  and  C8_8 
ROOT
HETATM    1  C1  UNL     1     -33.430   5.877   2.141  1.00 20.00     0.012 A 
HETATM    2  C2  UNL     1     -34.001   5.217   3.224  1.00 20.00     0.040 A 
HETATM    3  C3  UNL     1     -32.813   7.644   3.608  1.00 20.00     0.125 A 
HETATM    4  C4  UNL     1     -32.823   7.114   2.328  1.00 20.00    -0.036 A 
HETATM    5  C5  UNL     1     -33.938   5.833   4.464  1.00 20.00     0.102 A 
HETATM    6  N9  UNL     1     -33.356   7.033   4.684  1.00 20.00    -0.253 NA
HETATM    7 BR10 UNL     1     -34.710   4.950   5.958  1.00 20.00    -0.029 Br
ENDROOT
BRANCH   4   8
HETATM    8  C8  UNL     1     -32.203   7.843   1.190  1.00 20.00     0.020 A 
HETATM    9  C6  UNL     1     -32.756   9.188   0.789  1.00 20.00     0.010 A 
HETATM   10  C7  UNL     1     -32.977   8.001  -0.094  1.00 20.00     0.010 A 
ENDBRANCH   4   8
TORSDOF 1
ENDMDL
MODEL 9
REMARK VINA RESULT:      -4.2     13.136     14.721
REMARK  1 active torsions:
REMARK  status: ('A' for Active; 'I' for Inactive)
REMARK    1  A    between atoms: C4_4  and  C8_8 
ROOT
HETATM    1  C1  UNL     1     -35.174  16.659  -1.225  1.00 20.00     0.012 A 
HETATM    2  C2  UNL     1     -34.985  15.799  -2.302  1.00 20.00     0.040 A 
HETATM    3  C3  UNL     1     -33.057  17.633  -1.697  1.00 20.00     0.125 A 
HETATM    4  C4  UNL     1     -34.197  17.596  -0.910  1.00 20.00    -0.036 A 
HETATM    5  C5  UNL     1     -33.809  15.917  -3.026  1.00 20.00     0.102 A 
HETATM    6  N9  UNL     1     -32.837  16.815  -2.750  1.00 20.00    -0.253 NA
HETATM    7 BR10 UNL     1     -33.529  14.753  -4.500  1.00 20.00    -0.029 Br
ENDROOT
BRANCH   4   8
HETATM    8  C8  UNL     1     -34.371  18.530   0.234  1.00 20.00     0.020 A 
HETATM    9  C6  UNL     1     -33.759  18.182   1.568  1.00 20.00     0.010 A 
HETATM   10  C7  UNL     1     -35.244  18.121   1.393  1.00 20.00     0.010 A 
ENDBRANCH   4   8
TORSDOF 1
ENDMDL
