MODEL 1
REMARK VINA RESULT:      -5.2      0.000      0.000
REMARK  2 active torsions:
REMARK  status: ('A' for Active; 'I' for Inactive)
REMARK    1  A    between atoms: C3_3  and  C6_6 
REMARK    2  A    between atoms: C3_3  and  O10_10 
ROOT
HETATM    1  C1  UNL     1     -34.955   4.876   5.372  1.00 20.00    -0.003 C 
HETATM    2  C2  UNL     1     -34.531   4.541   4.148  1.00 20.00     0.132 C 
HETATM    3  C4  UNL     1     -34.561   6.168   6.013  1.00 20.00     0.032 C 
HETATM    4  C5  UNL     1     -33.409   6.816   5.251  1.00 20.00     0.046 C 
HETATM    5  C6  UNL     1     -33.639   6.681   3.749  1.00 20.00     0.227 C 
HETATM    6  O9  UNL     1     -33.756   5.318   3.326  1.00 20.00    -0.348 OA
ENDROOT
BRANCH   5   7
HETATM    7  C3  UNL     1     -32.466   7.202   2.985  1.00 20.00     0.288 C 
HETATM    8  O8  UNL     1     -31.422   7.574   3.503  1.00 20.00    -0.262 OA
BRANCH   7   9
HETATM    9  O10 UNL     1     -32.751   7.192   1.652  1.00 20.00    -0.324 OA
HETATM   10  C7  UNL     1     -32.744   8.473   1.013  1.00 20.00     0.213 C 
ENDBRANCH   7   9
ENDBRANCH   5   7
TORSDOF 2
ENDMDL
MODEL 2
REMARK VINA RESULT:      -4.8     11.293     12.066
REMARK  2 active torsions:
REMARK  status: ('A' for Active; 'I' for Inactive)
REMARK    1  A    between atoms: C3_3  and  C6_6 
REMARK    2  A    between atoms: C3_3  and  O10_10 
ROOT
HETATM    1  C1  UNL     1     -33.957  16.361  -2.377  1.00 20.00    -0.003 C 
HETATM    2  C2  UNL     1     -35.232  15.955  -2.330  1.00 20.00     0.132 C 
HETATM    3  C4  UNL     1     -33.026  15.897  -3.450  1.00 20.00     0.032 C 
HETATM    4  C5  UNL     1     -33.621  14.710  -4.203  1.00 20.00     0.046 C 
HETATM    5  C6  UNL     1     -35.108  14.947  -4.451  1.00 20.00     0.227 C 
HETATM    6  O9  UNL     1     -35.850  15.139  -3.242  1.00 20.00    -0.348 OA
ENDROOT
BRANCH   5   7
HETATM    7  C3  UNL     1     -35.737  13.748  -5.080  1.00 20.00     0.288 C 
HETATM    8  O8  UNL     1     -35.979  12.709  -4.482  1.00 20.00    -0.262 OA
BRANCH   7   9
HETATM    9  O10 UNL     1     -35.986  14.002  -6.396  1.00 20.00    -0.324 OA
HETATM   10  C7  UNL     1     -36.075  15.387  -6.748  1.00 20.00     0.213 C 
ENDBRANCH   7   9
ENDBRANCH   5   7
TORSDOF 2
ENDMDL
MODEL 3
REMARK VINA RESULT:      -4.6     11.375     12.082
REMARK  2 active torsions:
REMARK  status: ('A' for Active; 'I' for Inactive)
REMARK    1  A    between atoms: C3_3  and  C6_6 
REMARK    2  A    between atoms: C3_3  and  O10_10 
ROOT
HETATM    1  C1  UNL     1     -33.208  15.880  -3.095  1.00 20.00    -0.003 C 
HETATM    2  C2  UNL     1     -33.122  15.073  -4.160  1.00 20.00     0.132 C 
HETATM    3  C4  UNL     1     -34.511  16.136  -2.408  1.00 20.00     0.032 C 
HETATM    4  C5  UNL     1     -35.676  15.652  -3.267  1.00 20.00     0.046 C 
HETATM    5  C6  UNL     1     -35.331  14.306  -3.899  1.00 20.00     0.227 C 
HETATM    6  O9  UNL     1     -34.155  14.360  -4.714  1.00 20.00    -0.348 OA
ENDROOT
BRANCH   5   7
HETATM    7  C3  UNL     1     -36.407  13.870  -4.837  1.00 20.00     0.288 C 
HETATM    8  O8  UNL     1     -37.552  13.610  -4.493  1.00 20.00    -0.262 OA
BRANCH   7   9
HETATM    9  O10 UNL     1     -35.910  13.814  -6.105  1.00 20.00    -0.324 OA
HETATM   10  C7  UNL     1     -36.161  14.966  -6.916  1.00 20.00     0.213 C 
ENDBRANCH   7   9
ENDBRANCH   5   7
TORSDOF 2
ENDMDL
MODEL 4
REMARK VINA RESULT:      -4.6     11.350     12.007
REMARK  2 active torsions:
REMARK  status: ('A' for Active; 'I' for Inactive)
REMARK    1  A    between atoms: C3_3  and  C6_6 
REMARK    2  A    between atoms: C3_3  and  O10_10 
ROOT
HETATM    1  C1  UNL     1     -33.122  15.917  -3.119  1.00 20.00    -0.003 C 
HETATM    2  C2  UNL     1     -33.053  15.137  -4.205  1.00 20.00     0.132 C 
HETATM    3  C4  UNL     1     -34.407  16.125  -2.384  1.00 20.00     0.032 C 
HETATM    4  C5  UNL     1     -35.589  15.633  -3.216  1.00 20.00     0.046 C 
HETATM    5  C6  UNL     1     -35.233  14.312  -3.891  1.00 20.00     0.227 C 
HETATM    6  O9  UNL     1     -34.087  14.413  -4.742  1.00 20.00    -0.348 OA
ENDROOT
BRANCH   5   7
HETATM    7  C3  UNL     1     -36.330  13.873  -4.805  1.00 20.00     0.288 C 
HETATM    8  O8  UNL     1     -36.191  13.702  -6.008  1.00 20.00    -0.262 OA
BRANCH   7   9
HETATM    9  O10 UNL     1     -37.477  13.701  -4.089  1.00 20.00    -0.324 OA
HETATM   10  C7  UNL     1     -38.539  14.607  -4.405  1.00 20.00     0.213 C 
ENDBRANCH   7   9
ENDBRANCH   5   7
TORSDOF 2
ENDMDL
MODEL 5
REMARK VINA RESULT:      -4.4     11.636     12.431
REMARK  2 active torsions:
REMARK  status: ('A' for Active; 'I' for Inactive)
REMARK    1  A    between atoms: C3_3  and  C6_6 
REMARK    2  A    between atoms: C3_3  and  O10_10 
ROOT
HETATM    1  C1  UNL     1     -33.150  15.268  -3.871  1.00 20.00    -0.003 C 
HETATM    2  C2  UNL     1     -33.588  14.633  -4.965  1.00 20.00     0.132 C 
HETATM    3  C4  UNL     1     -34.092  15.750  -2.815  1.00 20.00     0.032 C 
HETATM    4  C5  UNL     1     -35.531  15.717  -3.321  1.00 20.00     0.046 C 
HETATM    5  C6  UNL     1     -35.772  14.436  -4.115  1.00 20.00     0.227 C 
HETATM    6  O9  UNL     1     -34.891  14.303  -5.236  1.00 20.00    -0.348 OA
ENDROOT
BRANCH   5   7
HETATM    7  C3  UNL     1     -37.137  14.439  -4.721  1.00 20.00     0.288 C 
HETATM    8  O8  UNL     1     -38.075  13.776  -4.299  1.00 20.00    -0.262 OA
BRANCH   7   9
HETATM    9  O10 UNL     1     -37.157  15.279  -5.794  1.00 20.00    -0.324 OA
HETATM   10  C7  UNL     1     -38.137  16.321  -5.740  1.00 20.00     0.213 C 
ENDBRANCH   7   9
ENDBRANCH   5   7
TORSDOF 2
ENDMDL
MODEL 6
REMARK VINA RESULT:      -4.4     11.146     12.528
REMARK  2 active torsions:
REMARK  status: ('A' for Active; 'I' for Inactive)
REMARK    1  A    between atoms: C3_3  and  C6_6 
REMARK    2  A    between atoms: C3_3  and  O10_10 
ROOT
HETATM    1  C1  UNL     1     -33.719  17.253  -3.912  1.00 20.00    -0.003 C 
HETATM    2  C2  UNL     1     -34.444  17.059  -5.021  1.00 20.00     0.132 C 
HETATM    3  C4  UNL     1     -33.662  16.229  -2.824  1.00 20.00     0.032 C 
HETATM    4  C5  UNL     1     -34.755  15.181  -3.013  1.00 20.00     0.046 C 
HETATM    5  C6  UNL     1     -34.865  14.807  -4.489  1.00 20.00     0.227 C 
HETATM    6  O9  UNL     1     -35.160  15.930  -5.326  1.00 20.00    -0.348 OA
ENDROOT
BRANCH   5   7
HETATM    7  C3  UNL     1     -36.008  13.872  -4.714  1.00 20.00     0.288 C 
HETATM    8  O8  UNL     1     -35.960  12.668  -4.501  1.00 20.00    -0.262 OA
BRANCH   7   9
HETATM    9  O10 UNL     1     -37.080  14.570  -5.183  1.00 20.00    -0.324 OA
HETATM   10  C7  UNL     1     -38.210  14.624  -4.306  1.00 20.00     0.213 C 
ENDBRANCH   7   9
ENDBRANCH   5   7
TORSDOF 2
ENDMDL
MODEL 7
REMARK VINA RESULT:      -4.3      0.999      1.600
REMARK  2 active torsions:
REMARK  status: ('A' for Active; 'I' for Inactive)
REMARK    1  A    between atoms: C3_3  and  C6_6 
REMARK    2  A    between atoms: C3_3  and  O10_10 
ROOT
HETATM    1  C1  UNL     1     -34.974   5.391   5.735  1.00 20.00    -0.003 C 
HETATM    2  C2  UNL     1     -34.217   6.463   5.998  1.00 20.00     0.132 C 
HETATM    3  C4  UNL     1     -34.936   4.711   4.404  1.00 20.00     0.032 C 
HETATM    4  C5  UNL     1     -34.221   5.582   3.375  1.00 20.00     0.046 C 
HETATM    5  C6  UNL     1     -32.988   6.224   4.006  1.00 20.00     0.227 C 
HETATM    6  O9  UNL     1     -33.304   7.030   5.146  1.00 20.00    -0.348 OA
ENDROOT
BRANCH   5   7
HETATM    7  C3  UNL     1     -32.341   7.175   3.054  1.00 20.00     0.288 C 
HETATM    8  O8  UNL     1     -31.367   7.863   3.329  1.00 20.00    -0.262 OA
BRANCH   7   9
HETATM    9  O10 UNL     1     -33.001   7.146   1.862  1.00 20.00    -0.324 OA
HETATM   10  C7  UNL     1     -32.774   8.270   1.006  1.00 20.00     0.213 C 
ENDBRANCH   7   9
ENDBRANCH   5   7
TORSDOF 2
ENDMDL
MODEL 8
REMARK VINA RESULT:      -4.3     11.153     11.978
REMARK  2 active torsions:
REMARK  status: ('A' for Active; 'I' for Inactive)
REMARK    1  A    between atoms: C3_3  and  C6_6 
REMARK    2  A    between atoms: C3_3  and  O10_10 
ROOT
HETATM    1  C1  UNL     1     -34.057  17.183  -1.613  1.00 20.00    -0.003 C 
HETATM    2  C2  UNL     1     -35.092  16.335  -1.658  1.00 20.00     0.132 C 
HETATM    3  C4  UNL     1     -32.975  17.157  -2.644  1.00 20.00     0.032 C 
HETATM    4  C5  UNL     1     -33.057  15.880  -3.476  1.00 20.00     0.046 C 
HETATM    5  C6  UNL     1     -34.513  15.567  -3.805  1.00 20.00     0.227 C 
HETATM    6  O9  UNL     1     -35.324  15.402  -2.637  1.00 20.00    -0.348 OA
ENDROOT
BRANCH   5   7
HETATM    7  C3  UNL     1     -34.626  14.259  -4.516  1.00 20.00     0.288 C 
HETATM    8  O8  UNL     1     -34.842  13.192  -3.957  1.00 20.00    -0.262 OA
BRANCH   7   9
HETATM    9  O10 UNL     1     -34.451  14.451  -5.854  1.00 20.00    -0.324 OA
HETATM   10  C7  UNL     1     -35.639  14.757  -6.592  1.00 20.00     0.213 C 
ENDBRANCH   7   9
ENDBRANCH   5   7
TORSDOF 2
ENDMDL
MODEL 9
REMARK VINA RESULT:      -4.1     11.089     12.189
REMARK  2 active torsions:
REMARK  status: ('A' for Active; 'I' for Inactive)
REMARK    1  A    between atoms: C3_3  and  C6_6 
REMARK    2  A    between atoms: C3_3  and  O10_10 
ROOT
HETATM    1  C1  UNL     1     -39.160  16.099  -4.017  1.00 20.00    -0.003 C 
HETATM    2  C2  UNL     1     -39.137  14.773  -4.198  1.00 20.00     0.132 C 
HETATM    3  C4  UNL     1     -37.902  16.894  -3.881  1.00 20.00     0.032 C 
HETATM    4  C5  UNL     1     -36.707  15.974  -3.644  1.00 20.00     0.046 C 
HETATM    5  C6  UNL     1     -36.811  14.748  -4.545  1.00 20.00     0.227 C 
HETATM    6  O9  UNL     1     -38.013  14.000  -4.331  1.00 20.00    -0.348 OA
ENDROOT
BRANCH   5   7
HETATM    7  C3  UNL     1     -35.717  13.777  -4.245  1.00 20.00     0.288 C 
HETATM    8  O8  UNL     1     -35.770  12.583  -4.507  1.00 20.00    -0.262 OA
BRANCH   7   9
HETATM    9  O10 UNL     1     -34.680  14.429  -3.647  1.00 20.00    -0.324 OA
HETATM   10  C7  UNL     1     -33.467  14.480  -4.405  1.00 20.00     0.213 C 
ENDBRANCH   7   9
ENDBRANCH   5   7
TORSDOF 2
ENDMDL
