MODEL 1
REMARK VINA RESULT:      -4.7      0.000      0.000
REMARK  0 active torsions:
REMARK  status: ('A' for Active; 'I' for Inactive)
ROOT
HETATM    1  C1  UNL     1     -37.039  14.008  -4.543  1.00 20.00     0.069 C 
HETATM    2  C2  UNL     1     -34.333  15.197  -3.381  1.00 20.00     0.007 C 
HETATM    3  C3  UNL     1     -34.721  13.751  -3.712  1.00 20.00     0.025 C 
HETATM    4  C4  UNL     1     -34.753  16.049  -4.580  1.00 20.00     0.070 C 
HETATM    5  C5  UNL     1     -35.430  15.228  -7.911  1.00 20.00     0.197 C 
HETATM    6  C6  UNL     1     -33.949  15.225  -7.654  1.00 20.00     0.197 C 
HETATM    7  C7  UNL     1     -35.631  13.832  -4.940  1.00 20.00     0.155 C 
HETATM    8  C8  UNL     1     -35.067  15.046  -5.688  1.00 20.00     0.180 C 
HETATM    9  N9  UNL     1     -38.148  14.146  -4.229  1.00 20.00    -0.197 NA
HETATM   10  O10 UNL     1     -35.977  15.590  -6.646  1.00 20.00    -0.352 OA
HETATM   11  O11 UNL     1     -33.846  14.662  -6.349  1.00 20.00    -0.352 OA
ENDROOT
TORSDOF 0
ENDMDL
MODEL 2
REMARK VINA RESULT:      -4.6     18.361     19.914
REMARK  0 active torsions:
REMARK  status: ('A' for Active; 'I' for Inactive)
ROOT
HETATM    1  C1  UNL     1     -22.028  17.531   9.466  1.00 20.00     0.069 C 
HETATM    2  C2  UNL     1     -23.539  16.269  11.957  1.00 20.00     0.007 C 
HETATM    3  C3  UNL     1     -22.584  17.467  11.877  1.00 20.00     0.025 C 
HETATM    4  C4  UNL     1     -24.549  16.437  10.821  1.00 20.00     0.070 C 
HETATM    5  C5  UNL     1     -25.533  19.229   8.958  1.00 20.00     0.197 C 
HETATM    6  C6  UNL     1     -26.146  19.263  10.330  1.00 20.00     0.197 C 
HETATM    7  C7  UNL     1     -22.858  18.130  10.525  1.00 20.00     0.155 C 
HETATM    8  C8  UNL     1     -24.356  17.870  10.328  1.00 20.00     0.180 C 
HETATM    9  N9  UNL     1     -21.374  17.058   8.631  1.00 20.00    -0.197 NA
HETATM   10  O10 UNL     1     -24.780  18.019   8.971  1.00 20.00    -0.352 OA
HETATM   11  O11 UNL     1     -25.102  18.772  11.167  1.00 20.00    -0.352 OA
ENDROOT
TORSDOF 0
ENDMDL
MODEL 3
REMARK VINA RESULT:      -4.6     18.035     19.598
REMARK  0 active torsions:
REMARK  status: ('A' for Active; 'I' for Inactive)
ROOT
HETATM    1  C1  UNL     1     -24.252  18.934   7.842  1.00 20.00     0.069 C 
HETATM    2  C2  UNL     1     -22.011  17.011   9.010  1.00 20.00     0.007 C 
HETATM    3  C3  UNL     1     -22.015  18.533   8.824  1.00 20.00     0.025 C 
HETATM    4  C4  UNL     1     -23.343  16.647   9.667  1.00 20.00     0.070 C 
HETATM    5  C5  UNL     1     -25.649  18.541  11.492  1.00 20.00     0.197 C 
HETATM    6  C6  UNL     1     -24.445  18.217  12.331  1.00 20.00     0.197 C 
HETATM    7  C7  UNL     1     -23.456  18.983   9.081  1.00 20.00     0.155 C 
HETATM    8  C8  UNL     1     -23.932  17.976  10.135  1.00 20.00     0.180 C 
HETATM    9  N9  UNL     1     -24.879  18.896   6.866  1.00 20.00    -0.197 NA
HETATM   10  O10 UNL     1     -25.355  17.909  10.248  1.00 20.00    -0.352 OA
HETATM   11  O11 UNL     1     -23.364  18.332  11.410  1.00 20.00    -0.352 OA
ENDROOT
TORSDOF 0
ENDMDL
MODEL 4
REMARK VINA RESULT:      -4.5      1.929      3.369
REMARK  0 active torsions:
REMARK  status: ('A' for Active; 'I' for Inactive)
ROOT
HETATM    1  C1  UNL     1     -36.686  14.657  -4.658  1.00 20.00     0.069 C 
HETATM    2  C2  UNL     1     -34.055  14.963  -6.410  1.00 20.00     0.007 C 
HETATM    3  C3  UNL     1     -35.326  15.821  -6.368  1.00 20.00     0.025 C 
HETATM    4  C4  UNL     1     -33.637  14.728  -4.958  1.00 20.00     0.070 C 
HETATM    5  C5  UNL     1     -34.400  16.427  -1.998  1.00 20.00     0.197 C 
HETATM    6  C6  UNL     1     -33.393  17.195  -2.806  1.00 20.00     0.197 C 
HETATM    7  C7  UNL     1     -35.795  15.803  -4.911  1.00 20.00     0.155 C 
HETATM    8  C8  UNL     1     -34.472  15.711  -4.141  1.00 20.00     0.180 C 
HETATM    9  N9  UNL     1     -37.388  13.754  -4.458  1.00 20.00    -0.197 NA
HETATM   10  O10 UNL     1     -34.635  15.266  -2.792  1.00 20.00    -0.352 OA
HETATM   11  O11 UNL     1     -33.836  17.004  -4.148  1.00 20.00    -0.352 OA
ENDROOT
TORSDOF 0
ENDMDL
MODEL 5
REMARK VINA RESULT:      -4.3      2.859      3.652
REMARK  0 active torsions:
REMARK  status: ('A' for Active; 'I' for Inactive)
ROOT
HETATM    1  C1  UNL     1     -33.553  14.563  -4.341  1.00 20.00     0.069 C 
HETATM    2  C2  UNL     1     -33.694  16.816  -2.107  1.00 20.00     0.007 C 
HETATM    3  C3  UNL     1     -33.303  16.908  -3.587  1.00 20.00     0.025 C 
HETATM    4  C4  UNL     1     -34.987  16.001  -2.045  1.00 20.00     0.070 C 
HETATM    5  C5  UNL     1     -37.414  15.276  -4.455  1.00 20.00     0.197 C 
HETATM    6  C6  UNL     1     -37.560  16.688  -3.963  1.00 20.00     0.197 C 
HETATM    7  C7  UNL     1     -34.187  15.893  -4.317  1.00 20.00     0.155 C 
HETATM    8  C8  UNL     1     -35.477  15.924  -3.489  1.00 20.00     0.180 C 
HETATM    9  N9  UNL     1     -33.054  13.515  -4.359  1.00 20.00    -0.197 NA
HETATM   10  O10 UNL     1     -36.310  14.783  -3.700  1.00 20.00    -0.352 OA
HETATM   11  O11 UNL     1     -36.210  17.122  -3.811  1.00 20.00    -0.352 OA
ENDROOT
TORSDOF 0
ENDMDL
MODEL 6
REMARK VINA RESULT:      -4.3      2.361      3.134
REMARK  0 active torsions:
REMARK  status: ('A' for Active; 'I' for Inactive)
ROOT
HETATM    1  C1  UNL     1     -35.592  13.944  -4.586  1.00 20.00     0.069 C 
HETATM    2  C2  UNL     1     -33.902  15.866  -2.707  1.00 20.00     0.007 C 
HETATM    3  C3  UNL     1     -33.774  15.582  -4.208  1.00 20.00     0.025 C 
HETATM    4  C4  UNL     1     -35.386  16.113  -2.431  1.00 20.00     0.070 C 
HETATM    5  C5  UNL     1     -38.035  17.018  -4.527  1.00 20.00     0.197 C 
HETATM    6  C6  UNL     1     -37.156  18.203  -4.241  1.00 20.00     0.197 C 
HETATM    7  C7  UNL     1     -35.202  15.359  -4.714  1.00 20.00     0.155 C 
HETATM    8  C8  UNL     1     -36.021  16.287  -3.810  1.00 20.00     0.180 C 
HETATM    9  N9  UNL     1     -35.899  12.829  -4.485  1.00 20.00    -0.197 NA
HETATM   10  O10 UNL     1     -37.414  15.969  -3.789  1.00 20.00    -0.352 OA
HETATM   11  O11 UNL     1     -35.844  17.646  -4.252  1.00 20.00    -0.352 OA
ENDROOT
TORSDOF 0
ENDMDL
MODEL 7
REMARK VINA RESULT:      -4.2      2.058      2.460
REMARK  0 active torsions:
REMARK  status: ('A' for Active; 'I' for Inactive)
ROOT
HETATM    1  C1  UNL     1     -35.380  13.906  -4.565  1.00 20.00     0.069 C 
HETATM    2  C2  UNL     1     -34.654  16.004  -2.295  1.00 20.00     0.007 C 
HETATM    3  C3  UNL     1     -33.782  15.394  -3.399  1.00 20.00     0.025 C 
HETATM    4  C4  UNL     1     -35.955  16.453  -2.962  1.00 20.00     0.070 C 
HETATM    5  C5  UNL     1     -36.757  17.153  -6.293  1.00 20.00     0.197 C 
HETATM    6  C6  UNL     1     -35.961  18.276  -5.691  1.00 20.00     0.197 C 
HETATM    7  C7  UNL     1     -34.703  15.214  -4.608  1.00 20.00     0.155 C 
HETATM    8  C8  UNL     1     -35.673  16.392  -4.461  1.00 20.00     0.180 C 
HETATM    9  N9  UNL     1     -35.913  12.875  -4.531  1.00 20.00    -0.197 NA
HETATM   10  O10 UNL     1     -36.876  16.228  -5.215  1.00 20.00    -0.352 OA
HETATM   11  O11 UNL     1     -35.007  17.600  -4.875  1.00 20.00    -0.352 OA
ENDROOT
TORSDOF 0
ENDMDL
MODEL 8
REMARK VINA RESULT:      -4.2      2.121      3.136
REMARK  0 active torsions:
REMARK  status: ('A' for Active; 'I' for Inactive)
ROOT
HETATM    1  C1  UNL     1     -36.417  14.477  -4.779  1.00 20.00     0.069 C 
HETATM    2  C2  UNL     1     -33.313  14.758  -4.168  1.00 20.00     0.007 C 
HETATM    3  C3  UNL     1     -34.088  14.950  -5.477  1.00 20.00     0.025 C 
HETATM    4  C4  UNL     1     -34.083  15.519  -3.087  1.00 20.00     0.070 C 
HETATM    5  C5  UNL     1     -36.433  18.102  -3.267  1.00 20.00     0.197 C 
HETATM    6  C6  UNL     1     -35.047  18.628  -3.511  1.00 20.00     0.197 C 
HETATM    7  C7  UNL     1     -35.443  15.542  -5.078  1.00 20.00     0.155 C 
HETATM    8  C8  UNL     1     -35.085  16.384  -3.849  1.00 20.00     0.180 C 
HETATM    9  N9  UNL     1     -37.183  13.638  -4.543  1.00 20.00    -0.197 NA
HETATM   10  O10 UNL     1     -36.217  16.711  -3.040  1.00 20.00    -0.352 OA
HETATM   11  O11 UNL     1     -34.438  17.596  -4.284  1.00 20.00    -0.352 OA
ENDROOT
TORSDOF 0
ENDMDL
MODEL 9
REMARK VINA RESULT:      -4.1      2.646      3.807
REMARK  0 active torsions:
REMARK  status: ('A' for Active; 'I' for Inactive)
ROOT
HETATM    1  C1  UNL     1     -33.913  14.785  -5.756  1.00 20.00     0.069 C 
HETATM    2  C2  UNL     1     -36.568  14.642  -4.020  1.00 20.00     0.007 C 
HETATM    3  C3  UNL     1     -35.324  13.745  -4.008  1.00 20.00     0.025 C 
HETATM    4  C4  UNL     1     -36.066  16.087  -4.007  1.00 20.00     0.070 C 
HETATM    5  C5  UNL     1     -33.008  17.495  -3.060  1.00 20.00     0.197 C 
HETATM    6  C6  UNL     1     -33.817  17.119  -1.851  1.00 20.00     0.197 C 
HETATM    7  C7  UNL     1     -34.139  14.668  -4.305  1.00 20.00     0.155 C 
HETATM    8  C8  UNL     1     -34.582  15.988  -3.663  1.00 20.00     0.180 C 
HETATM    9  N9  UNL     1     -33.735  14.877  -6.900  1.00 20.00    -0.197 NA
HETATM   10  O10 UNL     1     -33.855  17.121  -4.144  1.00 20.00    -0.352 OA
HETATM   11  O11 UNL     1     -34.426  15.888  -2.234  1.00 20.00    -0.352 OA
ENDROOT
TORSDOF 0
ENDMDL
