MODEL 1
REMARK VINA RESULT:      -5.0      0.000      0.000
REMARK  1 active torsions:
REMARK  status: ('A' for Active; 'I' for Inactive)
REMARK    1  A    between atoms: C4_4  and  C7_7 
ROOT
HETATM    1  C1  UNL     1     -33.863   6.515   6.119  1.00 20.00     0.056 A 
HETATM    2  C2  UNL     1     -33.383   7.279   5.142  1.00 20.00     0.010 A 
HETATM    3  C3  UNL     1     -34.701   5.514   5.472  1.00 20.00     0.157 A 
HETATM    4  C4  UNL     1     -33.872   6.835   3.816  1.00 20.00     0.157 A 
HETATM    5  N8  UNL     1     -35.364   4.566   6.031  1.00 20.00    -0.278 NA
HETATM    6  O9  UNL     1     -34.706   5.710   4.124  1.00 20.00    -0.325 OA
HETATM    7  H20 UNL     1     -35.859   4.024   5.313  1.00 20.00     0.189 HD
ENDROOT
BRANCH   4   8
HETATM    8  C7  UNL     1     -32.756   6.393   2.886  1.00 20.00     0.011 C 
HETATM    9  C5  UNL     1     -33.079   5.038   2.251  1.00 20.00     0.012 C 
HETATM   10  C6  UNL     1     -32.505   7.440   1.799  1.00 20.00     0.012 C 
ENDBRANCH   4   8
TORSDOF 1
ENDMDL
MODEL 2
REMARK VINA RESULT:      -4.7      2.151      3.661
REMARK  1 active torsions:
REMARK  status: ('A' for Active; 'I' for Inactive)
REMARK    1  A    between atoms: C4_4  and  C7_7 
ROOT
HETATM    1  C1  UNL     1     -33.129   4.975   2.692  1.00 20.00     0.056 A 
HETATM    2  C2  UNL     1     -34.162   4.673   3.474  1.00 20.00     0.010 A 
HETATM    3  C3  UNL     1     -33.021   6.428   2.713  1.00 20.00     0.157 A 
HETATM    4  C4  UNL     1     -34.785   5.890   4.045  1.00 20.00     0.157 A 
HETATM    5  N8  UNL     1     -32.161   7.159   2.100  1.00 20.00    -0.278 NA
HETATM    6  O9  UNL     1     -33.996   6.958   3.503  1.00 20.00    -0.325 OA
HETATM    7  H20 UNL     1     -32.339   8.148   2.310  1.00 20.00     0.189 HD
ENDROOT
BRANCH   4   8
HETATM    8  C7  UNL     1     -34.723   5.938   5.561  1.00 20.00     0.011 C 
HETATM    9  C5  UNL     1     -34.383   4.561   6.136  1.00 20.00     0.012 C 
HETATM   10  C6  UNL     1     -33.702   6.975   6.032  1.00 20.00     0.012 C 
ENDBRANCH   4   8
TORSDOF 1
ENDMDL
MODEL 3
REMARK VINA RESULT:      -4.4     11.627     12.335
REMARK  1 active torsions:
REMARK  status: ('A' for Active; 'I' for Inactive)
REMARK    1  A    between atoms: C4_4  and  C7_7 
ROOT
HETATM    1  C1  UNL     1     -33.734  15.646  -3.444  1.00 20.00     0.056 A 
HETATM    2  C2  UNL     1     -34.984  15.256  -3.217  1.00 20.00     0.010 A 
HETATM    3  C3  UNL     1     -33.107  14.566  -4.196  1.00 20.00     0.157 A 
HETATM    4  C4  UNL     1     -35.251  13.917  -3.794  1.00 20.00     0.157 A 
HETATM    5  N8  UNL     1     -31.901  14.512  -4.634  1.00 20.00    -0.278 NA
HETATM    6  O9  UNL     1     -33.999  13.555  -4.394  1.00 20.00    -0.325 OA
HETATM    7  H20 UNL     1     -31.754  13.624  -5.128  1.00 20.00     0.189 HD
ENDROOT
BRANCH   4   8
HETATM    8  C7  UNL     1     -36.333  13.931  -4.859  1.00 20.00     0.011 C 
HETATM    9  C5  UNL     1     -37.581  14.662  -4.359  1.00 20.00     0.012 C 
HETATM   10  C6  UNL     1     -35.822  14.577  -6.148  1.00 20.00     0.012 C 
ENDBRANCH   4   8
TORSDOF 1
ENDMDL
MODEL 4
REMARK VINA RESULT:      -4.3     11.769     12.561
REMARK  1 active torsions:
REMARK  status: ('A' for Active; 'I' for Inactive)
REMARK    1  A    between atoms: C4_4  and  C7_7 
ROOT
HETATM    1  C1  UNL     1     -35.693  14.753  -5.780  1.00 20.00     0.056 A 
HETATM    2  C2  UNL     1     -34.442  15.016  -5.416  1.00 20.00     0.010 A 
HETATM    3  C3  UNL     1     -36.336  14.164  -4.612  1.00 20.00     0.157 A 
HETATM    4  C4  UNL     1     -34.189  14.620  -4.011  1.00 20.00     0.157 A 
HETATM    5  N8  UNL     1     -37.550  13.759  -4.506  1.00 20.00    -0.278 NA
HETATM    6  O9  UNL     1     -35.449  14.084  -3.581  1.00 20.00    -0.325 OA
HETATM    7  H20 UNL     1     -37.708  13.393  -3.560  1.00 20.00     0.189 HD
ENDROOT
BRANCH   4   8
HETATM    8  C7  UNL     1     -33.810  15.789  -3.120  1.00 20.00     0.011 C 
HETATM    9  C5  UNL     1     -33.568  17.052  -3.951  1.00 20.00     0.012 C 
HETATM   10  C6  UNL     1     -34.889  16.047  -2.068  1.00 20.00     0.012 C 
ENDBRANCH   4   8
TORSDOF 1
ENDMDL
MODEL 5
REMARK VINA RESULT:      -4.3     11.693     12.338
REMARK  1 active torsions:
REMARK  status: ('A' for Active; 'I' for Inactive)
REMARK    1  A    between atoms: C4_4  and  C7_7 
ROOT
HETATM    1  C1  UNL     1     -36.738  14.929  -4.121  1.00 20.00     0.056 A 
HETATM    2  C2  UNL     1     -36.108  16.062  -3.826  1.00 20.00     0.010 A 
HETATM    3  C3  UNL     1     -35.702  13.910  -4.228  1.00 20.00     0.157 A 
HETATM    4  C4  UNL     1     -34.643  15.860  -3.724  1.00 20.00     0.157 A 
HETATM    5  N8  UNL     1     -35.853  12.663  -4.497  1.00 20.00    -0.278 NA
HETATM    6  O9  UNL     1     -34.477  14.462  -3.999  1.00 20.00    -0.325 OA
HETATM    7  H20 UNL     1     -34.937  12.199  -4.502  1.00 20.00     0.189 HD
ENDROOT
BRANCH   4   8
HETATM    8  C7  UNL     1     -34.092  16.170  -2.344  1.00 20.00     0.011 C 
HETATM    9  C5  UNL     1     -32.967  17.205  -2.426  1.00 20.00     0.012 C 
HETATM   10  C6  UNL     1     -35.199  16.664  -1.413  1.00 20.00     0.012 C 
ENDBRANCH   4   8
TORSDOF 1
ENDMDL
MODEL 6
REMARK VINA RESULT:      -4.3     15.901     16.641
REMARK  1 active torsions:
REMARK  status: ('A' for Active; 'I' for Inactive)
REMARK    1  A    between atoms: C4_4  and  C7_7 
ROOT
HETATM    1  C1  UNL     1     -23.604  18.468   8.239  1.00 20.00     0.056 A 
HETATM    2  C2  UNL     1     -24.206  18.855   9.360  1.00 20.00     0.010 A 
HETATM    3  C3  UNL     1     -22.729  17.364   8.614  1.00 20.00     0.157 A 
HETATM    4  C4  UNL     1     -23.769  18.044  10.520  1.00 20.00     0.157 A 
HETATM    5  N8  UNL     1     -21.956  16.681   7.849  1.00 20.00    -0.278 NA
HETATM    6  O9  UNL     1     -22.827  17.124   9.952  1.00 20.00    -0.325 OA
HETATM    7  H20 UNL     1     -21.465  15.969   8.404  1.00 20.00     0.189 HD
ENDROOT
BRANCH   4   8
HETATM    8  C7  UNL     1     -24.903  17.267  11.167  1.00 20.00     0.011 C 
HETATM    9  C5  UNL     1     -24.420  15.895  11.646  1.00 20.00     0.012 C 
HETATM   10  C6  UNL     1     -25.507  18.052  12.332  1.00 20.00     0.012 C 
ENDBRANCH   4   8
TORSDOF 1
ENDMDL
MODEL 7
REMARK VINA RESULT:      -4.3     16.183     16.860
REMARK  1 active torsions:
REMARK  status: ('A' for Active; 'I' for Inactive)
REMARK    1  A    between atoms: C4_4  and  C7_7 
ROOT
HETATM    1  C1  UNL     1     -22.498  17.558   8.335  1.00 20.00     0.056 A 
HETATM    2  C2  UNL     1     -22.720  16.987   9.514  1.00 20.00     0.010 A 
HETATM    3  C3  UNL     1     -23.699  18.323   8.026  1.00 20.00     0.157 A 
HETATM    4  C4  UNL     1     -24.060  17.334  10.043  1.00 20.00     0.157 A 
HETATM    5  N8  UNL     1     -23.928  19.038   6.984  1.00 20.00    -0.278 NA
HETATM    6  O9  UNL     1     -24.612  18.183   9.028  1.00 20.00    -0.325 OA
HETATM    7  H20 UNL     1     -24.864  19.455   7.052  1.00 20.00     0.189 HD
ENDROOT
BRANCH   4   8
HETATM    8  C7  UNL     1     -24.005  18.092  11.358  1.00 20.00     0.011 C 
HETATM    9  C5  UNL     1     -25.298  17.896  12.154  1.00 20.00     0.012 C 
HETATM   10  C6  UNL     1     -22.800  17.654  12.190  1.00 20.00     0.012 C 
ENDBRANCH   4   8
TORSDOF 1
ENDMDL
MODEL 8
REMARK VINA RESULT:      -4.3     12.373     12.904
REMARK  1 active torsions:
REMARK  status: ('A' for Active; 'I' for Inactive)
REMARK    1  A    between atoms: C4_4  and  C7_7 
ROOT
HETATM    1  C1  UNL     1     -35.176  14.175  -4.600  1.00 20.00     0.056 A 
HETATM    2  C2  UNL     1     -35.658  14.912  -3.604  1.00 20.00     0.010 A 
HETATM    3  C3  UNL     1     -34.085  14.949  -5.180  1.00 20.00     0.157 A 
HETATM    4  C4  UNL     1     -34.927  16.194  -3.472  1.00 20.00     0.157 A 
HETATM    5  N8  UNL     1     -33.330  14.622  -6.167  1.00 20.00    -0.278 NA
HETATM    6  O9  UNL     1     -33.948  16.132  -4.518  1.00 20.00    -0.325 OA
HETATM    7  H20 UNL     1     -32.652  15.373  -6.343  1.00 20.00     0.189 HD
ENDROOT
BRANCH   4   8
HETATM    8  C7  UNL     1     -34.225  16.347  -2.135  1.00 20.00     0.011 C 
HETATM    9  C5  UNL     1     -33.021  17.285  -2.255  1.00 20.00     0.012 C 
HETATM   10  C6  UNL     1     -35.192  16.860  -1.067  1.00 20.00     0.012 C 
ENDBRANCH   4   8
TORSDOF 1
ENDMDL
MODEL 9
REMARK VINA RESULT:      -4.3     11.964     12.672
REMARK  1 active torsions:
REMARK  status: ('A' for Active; 'I' for Inactive)
REMARK    1  A    between atoms: C4_4  and  C7_7 
ROOT
HETATM    1  C1  UNL     1     -34.748  14.386  -3.776  1.00 20.00     0.056 A 
HETATM    2  C2  UNL     1     -35.316  15.383  -3.104  1.00 20.00     0.010 A 
HETATM    3  C3  UNL     1     -33.435  14.872  -4.180  1.00 20.00     0.157 A 
HETATM    4  C4  UNL     1     -34.427  16.566  -3.030  1.00 20.00     0.157 A 
HETATM    5  N8  UNL     1     -32.537  14.242  -4.849  1.00 20.00    -0.278 NA
HETATM    6  O9  UNL     1     -33.255  16.151  -3.745  1.00 20.00    -0.325 OA
HETATM    7  H20 UNL     1     -31.717  14.847  -4.978  1.00 20.00     0.189 HD
ENDROOT
BRANCH   4   8
HETATM    8  C7  UNL     1     -34.044  16.937  -1.608  1.00 20.00     0.011 C 
HETATM    9  C5  UNL     1     -32.807  17.839  -1.595  1.00 20.00     0.012 C 
HETATM   10  C6  UNL     1     -35.207  17.623  -0.891  1.00 20.00     0.012 C 
ENDBRANCH   4   8
TORSDOF 1
ENDMDL
