MODEL 1
REMARK VINA RESULT:      -4.1      0.000      0.000
REMARK  1 active torsions:
REMARK  status: ('A' for Active; 'I' for Inactive)
REMARK    1  A    between atoms: C3_3  and  C7_7 
ROOT
HETATM    1  C1  UNL     1     -33.265   7.244   3.575  1.00 20.00     0.034 A 
HETATM    2  C2  UNL     1     -33.149   5.578   1.960  1.00 20.00     0.058 A 
HETATM    3  C3  UNL     1     -32.893   6.902   2.243  1.00 20.00    -0.046 A 
HETATM    4  C4  UNL     1     -33.790   6.170   4.259  1.00 20.00     0.051 A 
HETATM    5  S8  UNL     1     -33.834   4.755   3.296  1.00 20.00    -0.094 SA
HETATM    6 BR9  UNL     1     -34.399   6.234   6.057  1.00 20.00    -0.043 Br
ENDROOT
BRANCH   3   7
HETATM    7  C7  UNL     1     -32.283   7.887   1.249  1.00 20.00     0.019 A 
HETATM    8  C5  UNL     1     -32.903   9.262   1.105  1.00 20.00     0.010 A 
HETATM    9  C6  UNL     1     -33.070   8.258   0.007  1.00 20.00     0.010 A 
ENDBRANCH   3   7
TORSDOF 1
ENDMDL
MODEL 2
REMARK VINA RESULT:      -4.0     10.846     11.281
REMARK  1 active torsions:
REMARK  status: ('A' for Active; 'I' for Inactive)
REMARK    1  A    between atoms: C3_3  and  C7_7 
ROOT
HETATM    1  C1  UNL     1     -33.085  16.776  -2.460  1.00 20.00     0.034 A 
HETATM    2  C2  UNL     1     -35.250  16.301  -1.761  1.00 20.00     0.058 A 
HETATM    3  C3  UNL     1     -34.239  15.959  -2.633  1.00 20.00    -0.046 A 
HETATM    4  C4  UNL     1     -33.256  17.711  -1.463  1.00 20.00     0.051 A 
HETATM    5  S8  UNL     1     -34.805  17.602  -0.740  1.00 20.00    -0.094 SA
HETATM    6 BR9  UNL     1     -31.942  18.978  -0.940  1.00 20.00    -0.043 Br
ENDROOT
BRANCH   3   7
HETATM    7  C7  UNL     1     -34.342  14.837  -3.664  1.00 20.00     0.019 A 
HETATM    8  C5  UNL     1     -33.121  14.487  -4.490  1.00 20.00     0.010 A 
HETATM    9  C6  UNL     1     -34.276  15.186  -5.138  1.00 20.00     0.010 A 
ENDBRANCH   3   7
TORSDOF 1
ENDMDL
MODEL 3
REMARK VINA RESULT:      -3.9     10.458     11.076
REMARK  1 active torsions:
REMARK  status: ('A' for Active; 'I' for Inactive)
REMARK    1  A    between atoms: C3_3  and  C7_7 
ROOT
HETATM    1  C1  UNL     1     -34.854  16.355  -1.886  1.00 20.00     0.034 A 
HETATM    2  C2  UNL     1     -32.950  17.403  -2.707  1.00 20.00     0.058 A 
HETATM    3  C3  UNL     1     -33.909  16.444  -2.949  1.00 20.00    -0.046 A 
HETATM    4  C4  UNL     1     -34.582  17.248  -0.874  1.00 20.00     0.051 A 
HETATM    5  S8  UNL     1     -33.191  18.190  -1.206  1.00 20.00    -0.094 SA
HETATM    6 BR9  UNL     1     -35.616  17.427   0.709  1.00 20.00    -0.043 Br
ENDROOT
BRANCH   3   7
HETATM    7  C7  UNL     1     -33.956  15.579  -4.206  1.00 20.00     0.019 A 
HETATM    8  C5  UNL     1     -34.446  14.149  -4.093  1.00 20.00     0.010 A 
HETATM    9  C6  UNL     1     -32.992  14.415  -4.331  1.00 20.00     0.010 A 
ENDBRANCH   3   7
TORSDOF 1
ENDMDL
MODEL 4
REMARK VINA RESULT:      -3.9     10.578     10.997
REMARK  1 active torsions:
REMARK  status: ('A' for Active; 'I' for Inactive)
REMARK    1  A    between atoms: C3_3  and  C7_7 
ROOT
HETATM    1  C1  UNL     1     -35.137  15.856  -2.157  1.00 20.00     0.034 A 
HETATM    2  C2  UNL     1     -33.400  15.895  -3.700  1.00 20.00     0.058 A 
HETATM    3  C3  UNL     1     -34.574  15.276  -3.331  1.00 20.00    -0.046 A 
HETATM    4  C4  UNL     1     -34.372  16.895  -1.674  1.00 20.00     0.051 A 
HETATM    5  S8  UNL     1     -32.981  17.168  -2.634  1.00 20.00    -0.094 SA
HETATM    6 BR9  UNL     1     -34.796  17.913  -0.128  1.00 20.00    -0.043 Br
ENDROOT
BRANCH   3   7
HETATM    7  C7  UNL     1     -35.200  14.108  -4.089  1.00 20.00     0.019 A 
HETATM    8  C5  UNL     1     -35.706  14.337  -5.499  1.00 20.00     0.010 A 
HETATM    9  C6  UNL     1     -36.687  14.138  -4.385  1.00 20.00     0.010 A 
ENDBRANCH   3   7
TORSDOF 1
ENDMDL
MODEL 5
REMARK VINA RESULT:      -3.9     10.916     11.632
REMARK  1 active torsions:
REMARK  status: ('A' for Active; 'I' for Inactive)
REMARK    1  A    between atoms: C3_3  and  C7_7 
ROOT
HETATM    1  C1  UNL     1     -32.836  16.820  -2.557  1.00 20.00     0.034 A 
HETATM    2  C2  UNL     1     -34.679  17.334  -1.238  1.00 20.00     0.058 A 
HETATM    3  C3  UNL     1     -33.361  17.630  -1.509  1.00 20.00    -0.046 A 
HETATM    4  C4  UNL     1     -33.772  15.936  -3.048  1.00 20.00     0.051 A 
HETATM    5  S8  UNL     1     -35.278  16.085  -2.245  1.00 20.00    -0.094 SA
HETATM    6 BR9  UNL     1     -33.449  14.694  -4.447  1.00 20.00    -0.043 Br
ENDROOT
BRANCH   3   7
HETATM    7  C7  UNL     1     -32.556  18.699  -0.774  1.00 20.00     0.019 A 
HETATM    8  C5  UNL     1     -31.128  18.394  -0.371  1.00 20.00     0.010 A 
HETATM    9  C6  UNL     1     -32.191  18.472   0.680  1.00 20.00     0.010 A 
ENDBRANCH   3   7
TORSDOF 1
ENDMDL
MODEL 6
REMARK VINA RESULT:      -3.8     10.662     11.212
REMARK  1 active torsions:
REMARK  status: ('A' for Active; 'I' for Inactive)
REMARK    1  A    between atoms: C3_3  and  C7_7 
ROOT
HETATM    1  C1  UNL     1     -35.278  15.651  -2.638  1.00 20.00     0.034 A 
HETATM    2  C2  UNL     1     -33.081  16.269  -3.077  1.00 20.00     0.058 A 
HETATM    3  C3  UNL     1     -34.163  16.446  -2.242  1.00 20.00    -0.046 A 
HETATM    4  C4  UNL     1     -35.006  14.898  -3.759  1.00 20.00     0.051 A 
HETATM    5  S8  UNL     1     -33.412  15.151  -4.331  1.00 20.00    -0.094 SA
HETATM    6 BR9  UNL     1     -36.241  13.716  -4.586  1.00 20.00    -0.043 Br
ENDROOT
BRANCH   3   7
HETATM    7  C7  UNL     1     -34.168  17.380  -1.035  1.00 20.00     0.019 A 
HETATM    8  C5  UNL     1     -35.387  17.406  -0.134  1.00 20.00     0.010 A 
HETATM    9  C6  UNL     1     -35.108  18.571  -1.033  1.00 20.00     0.010 A 
ENDBRANCH   3   7
TORSDOF 1
ENDMDL
MODEL 7
REMARK VINA RESULT:      -3.7     10.464     11.131
REMARK  1 active torsions:
REMARK  status: ('A' for Active; 'I' for Inactive)
REMARK    1  A    between atoms: C3_3  and  C7_7 
ROOT
HETATM    1  C1  UNL     1     -36.190  15.819  -3.298  1.00 20.00     0.034 A 
HETATM    2  C2  UNL     1     -34.665  14.208  -3.992  1.00 20.00     0.058 A 
HETATM    3  C3  UNL     1     -34.836  15.374  -3.276  1.00 20.00    -0.046 A 
HETATM    4  C4  UNL     1     -37.001  14.978  -4.027  1.00 20.00     0.051 A 
HETATM    5  S8  UNL     1     -36.131  13.657  -4.683  1.00 20.00    -0.094 SA
HETATM    6 BR9  UNL     1     -38.865  15.237  -4.284  1.00 20.00    -0.043 Br
ENDROOT
BRANCH   3   7
HETATM    7  C7  UNL     1     -33.711  16.103  -2.547  1.00 20.00     0.019 A 
HETATM    8  C5  UNL     1     -33.977  17.484  -1.982  1.00 20.00     0.010 A 
HETATM    9  C6  UNL     1     -33.099  17.335  -3.186  1.00 20.00     0.010 A 
ENDBRANCH   3   7
TORSDOF 1
ENDMDL
MODEL 8
REMARK VINA RESULT:      -3.6     11.270     11.828
REMARK  1 active torsions:
REMARK  status: ('A' for Active; 'I' for Inactive)
REMARK    1  A    between atoms: C3_3  and  C7_7 
ROOT
HETATM    1  C1  UNL     1     -33.963  15.829  -4.869  1.00 20.00     0.034 A 
HETATM    2  C2  UNL     1     -35.760  14.816  -3.799  1.00 20.00     0.058 A 
HETATM    3  C3  UNL     1     -34.627  15.584  -3.633  1.00 20.00    -0.046 A 
HETATM    4  C4  UNL     1     -34.612  15.242  -5.932  1.00 20.00     0.051 A 
HETATM    5  S8  UNL     1     -36.017  14.396  -5.439  1.00 20.00    -0.094 SA
HETATM    6 BR9  UNL     1     -34.032  15.346  -7.737  1.00 20.00    -0.043 Br
ENDROOT
BRANCH   3   7
HETATM    7  C7  UNL     1     -34.141  16.109  -2.284  1.00 20.00     0.019 A 
HETATM    8  C5  UNL     1     -35.160  16.621  -1.286  1.00 20.00     0.010 A 
HETATM    9  C6  UNL     1     -34.261  17.591  -1.988  1.00 20.00     0.010 A 
ENDBRANCH   3   7
TORSDOF 1
ENDMDL
MODEL 9
REMARK VINA RESULT:      -3.5     11.445     12.293
REMARK  1 active torsions:
REMARK  status: ('A' for Active; 'I' for Inactive)
REMARK    1  A    between atoms: C3_3  and  C7_7 
ROOT
HETATM    1  C1  UNL     1     -36.213  16.165  -4.702  1.00 20.00     0.034 A 
HETATM    2  C2  UNL     1     -34.430  14.901  -5.492  1.00 20.00     0.058 A 
HETATM    3  C3  UNL     1     -35.003  15.483  -4.382  1.00 20.00    -0.046 A 
HETATM    4  C4  UNL     1     -36.518  16.078  -6.043  1.00 20.00     0.051 A 
HETATM    5  S8  UNL     1     -35.348  15.178  -6.910  1.00 20.00    -0.094 SA
HETATM    6 BR9  UNL     1     -38.049  16.859  -6.850  1.00 20.00    -0.043 Br
ENDROOT
BRANCH   3   7
HETATM    7  C7  UNL     1     -34.414  15.407  -2.976  1.00 20.00     0.019 A 
HETATM    8  C5  UNL     1     -35.005  16.279  -1.886  1.00 20.00     0.010 A 
HETATM    9  C6  UNL     1     -33.650  16.600  -2.435  1.00 20.00     0.010 A 
ENDBRANCH   3   7
TORSDOF 1
ENDMDL
