MODEL 1
REMARK VINA RESULT:      -7.5      0.000      0.000
REMARK  1 active torsions:
REMARK  status: ('A' for Active; 'I' for Inactive)
REMARK    1  A    between atoms: C9_9  and  C10_10 
ROOT
HETATM    1  C1  UNL     1     -32.734   8.292   0.849  1.00 20.00     0.063 C 
HETATM    2  C10 UNL     1     -31.962   7.724   1.936  1.00 20.00     0.163 C 
HETATM    3  N11 UNL     1     -33.325   8.765  -0.030  1.00 20.00    -0.197 NA
ENDROOT
BRANCH   2   4
HETATM    4  C9  UNL     1     -32.835   6.707   2.678  1.00 20.00    -0.033 A 
HETATM    5  C6  UNL     1     -33.435   5.438   2.308  1.00 20.00     0.021 A 
HETATM    6  C7  UNL     1     -33.952   5.345   3.539  1.00 20.00    -0.025 A 
HETATM    7  C4  UNL     1     -34.756   4.594   4.513  1.00 20.00     0.012 A 
HETATM    8  C8  UNL     1     -33.366   6.582   3.899  1.00 20.00    -0.019 A 
HETATM    9  C2  UNL     1     -34.910   5.126   5.744  1.00 20.00     0.001 A 
HETATM   10  C3  UNL     1     -34.301   6.408   6.117  1.00 20.00     0.001 A 
HETATM   11  C5  UNL     1     -33.556   7.126   5.250  1.00 20.00     0.013 A 
ENDBRANCH   2   4
TORSDOF 1
ENDMDL
MODEL 2
REMARK VINA RESULT:      -5.9     10.791     11.616
REMARK  1 active torsions:
REMARK  status: ('A' for Active; 'I' for Inactive)
REMARK    1  A    between atoms: C9_9  and  C10_10 
ROOT
HETATM    1  C1  UNL     1     -36.644  13.875  -4.338  1.00 20.00     0.063 C 
HETATM    2  C10 UNL     1     -35.257  13.465  -4.246  1.00 20.00     0.163 C 
HETATM    3  N11 UNL     1     -37.762  14.170  -4.423  1.00 20.00    -0.197 NA
ENDROOT
BRANCH   2   4
HETATM    4  C9  UNL     1     -34.432  14.643  -3.721  1.00 20.00    -0.033 A 
HETATM    5  C6  UNL     1     -33.143  15.208  -4.079  1.00 20.00     0.021 A 
HETATM    6  C7  UNL     1     -33.302  16.130  -3.123  1.00 20.00    -0.025 A 
HETATM    7  C4  UNL     1     -32.780  17.299  -2.403  1.00 20.00     0.012 A 
HETATM    8  C8  UNL     1     -34.559  15.580  -2.775  1.00 20.00    -0.019 A 
HETATM    9  C2  UNL     1     -33.537  17.818  -1.413  1.00 20.00     0.001 A 
HETATM   10  C3  UNL     1     -34.841  17.248  -1.053  1.00 20.00     0.001 A 
HETATM   11  C5  UNL     1     -35.353  16.174  -1.691  1.00 20.00     0.013 A 
ENDBRANCH   2   4
TORSDOF 1
ENDMDL
MODEL 3
REMARK VINA RESULT:      -5.6     10.983     11.762
REMARK  1 active torsions:
REMARK  status: ('A' for Active; 'I' for Inactive)
REMARK    1  A    between atoms: C9_9  and  C10_10 
ROOT
HETATM    1  C1  UNL     1     -35.788  14.091  -5.377  1.00 20.00     0.063 C 
HETATM    2  C10 UNL     1     -35.618  13.932  -3.947  1.00 20.00     0.163 C 
HETATM    3  N11 UNL     1     -35.947  14.192  -6.522  1.00 20.00    -0.197 NA
ENDROOT
BRANCH   2   4
HETATM    4  C9  UNL     1     -34.645  15.004  -3.447  1.00 20.00    -0.033 A 
HETATM    5  C6  UNL     1     -33.330  15.446  -3.877  1.00 20.00     0.021 A 
HETATM    6  C7  UNL     1     -33.332  16.349  -2.888  1.00 20.00    -0.025 A 
HETATM    7  C4  UNL     1     -32.647  17.435  -2.175  1.00 20.00     0.012 A 
HETATM    8  C8  UNL     1     -34.614  15.917  -2.471  1.00 20.00    -0.019 A 
HETATM    9  C2  UNL     1     -33.282  17.995  -1.123  1.00 20.00     0.001 A 
HETATM   10  C3  UNL     1     -34.612  17.548  -0.691  1.00 20.00     0.001 A 
HETATM   11  C5  UNL     1     -35.271  16.553  -1.322  1.00 20.00     0.013 A 
ENDBRANCH   2   4
TORSDOF 1
ENDMDL
MODEL 4
REMARK VINA RESULT:      -5.6     11.096     11.998
REMARK  1 active torsions:
REMARK  status: ('A' for Active; 'I' for Inactive)
REMARK    1  A    between atoms: C9_9  and  C10_10 
ROOT
HETATM    1  C1  UNL     1     -31.798  18.390  -0.629  1.00 20.00     0.063 C 
HETATM    2  C10 UNL     1     -33.214  18.699  -0.669  1.00 20.00     0.163 C 
HETATM    3  N11 UNL     1     -30.659  18.173  -0.581  1.00 20.00    -0.197 NA
ENDROOT
BRANCH   2   4
HETATM    4  C9  UNL     1     -33.950  17.533  -1.334  1.00 20.00    -0.033 A 
HETATM    5  C6  UNL     1     -35.242  16.904  -1.118  1.00 20.00     0.021 A 
HETATM    6  C7  UNL     1     -34.976  16.057  -2.119  1.00 20.00    -0.025 A 
HETATM    7  C4  UNL     1     -35.398  14.926  -2.956  1.00 20.00     0.012 A 
HETATM    8  C8  UNL     1     -33.718  16.671  -2.330  1.00 20.00    -0.019 A 
HETATM    9  C2  UNL     1     -34.550  14.504  -3.918  1.00 20.00     0.001 A 
HETATM   10  C3  UNL     1     -33.245  15.141  -4.137  1.00 20.00     0.001 A 
HETATM   11  C5  UNL     1     -32.824  16.183  -3.388  1.00 20.00     0.013 A 
ENDBRANCH   2   4
TORSDOF 1
ENDMDL
MODEL 5
REMARK VINA RESULT:      -5.3     16.445     16.757
REMARK  1 active torsions:
REMARK  status: ('A' for Active; 'I' for Inactive)
REMARK    1  A    between atoms: C9_9  and  C10_10 
ROOT
HETATM    1  C1  UNL     1     -21.355  17.160   7.694  1.00 20.00     0.063 C 
HETATM    2  C10 UNL     1     -21.352  17.787   9.000  1.00 20.00     0.163 C 
HETATM    3  N11 UNL     1     -21.324  16.650   6.652  1.00 20.00    -0.197 NA
ENDROOT
BRANCH   2   4
HETATM    4  C9  UNL     1     -22.773  18.259   9.320  1.00 20.00    -0.033 A 
HETATM    5  C6  UNL     1     -23.814  18.912   8.546  1.00 20.00     0.021 A 
HETATM    6  C7  UNL     1     -24.603  18.895   9.627  1.00 20.00    -0.025 A 
HETATM    7  C4  UNL     1     -25.894  19.220  10.248  1.00 20.00     0.012 A 
HETATM    8  C8  UNL     1     -23.588  18.258  10.380  1.00 20.00    -0.019 A 
HETATM    9  C2  UNL     1     -26.068  18.891  11.546  1.00 20.00     0.001 A 
HETATM   10  C3  UNL     1     -25.016  18.229  12.327  1.00 20.00     0.001 A 
HETATM   11  C5  UNL     1     -23.817  17.915  11.790  1.00 20.00     0.013 A 
ENDBRANCH   2   4
TORSDOF 1
ENDMDL
MODEL 6
REMARK VINA RESULT:      -5.3     11.153     11.767
REMARK  1 active torsions:
REMARK  status: ('A' for Active; 'I' for Inactive)
REMARK    1  A    between atoms: C9_9  and  C10_10 
ROOT
HETATM    1  C1  UNL     1     -33.955  14.806  -5.679  1.00 20.00     0.063 C 
HETATM    2  C10 UNL     1     -33.091  14.840  -4.516  1.00 20.00     0.163 C 
HETATM    3  N11 UNL     1     -34.620  14.763  -6.629  1.00 20.00    -0.197 NA
ENDROOT
BRANCH   2   4
HETATM    4  C9  UNL     1     -33.856  15.485  -3.357  1.00 20.00    -0.033 A 
HETATM    5  C6  UNL     1     -35.167  15.264  -2.771  1.00 20.00     0.021 A 
HETATM    6  C7  UNL     1     -34.918  16.243  -1.892  1.00 20.00    -0.025 A 
HETATM    7  C4  UNL     1     -35.365  17.056  -0.754  1.00 20.00     0.012 A 
HETATM    8  C8  UNL     1     -33.640  16.456  -2.464  1.00 20.00    -0.019 A 
HETATM    9  C2  UNL     1     -34.521  17.999  -0.284  1.00 20.00     0.001 A 
HETATM   10  C3  UNL     1     -33.196  18.220  -0.876  1.00 20.00     0.001 A 
HETATM   11  C5  UNL     1     -32.750  17.493  -1.923  1.00 20.00     0.013 A 
ENDBRANCH   2   4
TORSDOF 1
ENDMDL
MODEL 7
REMARK VINA RESULT:      -5.3     10.896     11.754
REMARK  1 active torsions:
REMARK  status: ('A' for Active; 'I' for Inactive)
REMARK    1  A    between atoms: C9_9  and  C10_10 
ROOT
HETATM    1  C1  UNL     1     -35.117  13.773  -4.384  1.00 20.00     0.063 C 
HETATM    2  C10 UNL     1     -34.059  14.759  -4.293  1.00 20.00     0.163 C 
HETATM    3  N11 UNL     1     -35.948  12.969  -4.484  1.00 20.00    -0.197 NA
ENDROOT
BRANCH   2   4
HETATM    4  C9  UNL     1     -34.326  15.652  -3.078  1.00 20.00    -0.033 A 
HETATM    5  C6  UNL     1     -35.442  15.792  -2.158  1.00 20.00     0.021 A 
HETATM    6  C7  UNL     1     -34.764  16.747  -1.510  1.00 20.00    -0.025 A 
HETATM    7  C4  UNL     1     -34.703  17.725  -0.416  1.00 20.00     0.012 A 
HETATM    8  C8  UNL     1     -33.676  16.609  -2.406  1.00 20.00    -0.019 A 
HETATM    9  C2  UNL     1     -33.585  18.474  -0.303  1.00 20.00     0.001 A 
HETATM   10  C3  UNL     1     -32.458  18.330  -1.232  1.00 20.00     0.001 A 
HETATM   11  C5  UNL     1     -32.477  17.443  -2.249  1.00 20.00     0.013 A 
ENDBRANCH   2   4
TORSDOF 1
ENDMDL
MODEL 8
REMARK VINA RESULT:      -5.0     11.106     11.884
REMARK  1 active torsions:
REMARK  status: ('A' for Active; 'I' for Inactive)
REMARK    1  A    between atoms: C9_9  and  C10_10 
ROOT
HETATM    1  C1  UNL     1     -34.918  17.697   0.820  1.00 20.00     0.063 C 
HETATM    2  C10 UNL     1     -35.709  17.373  -0.351  1.00 20.00     0.163 C 
HETATM    3  N11 UNL     1     -34.315  17.965   1.774  1.00 20.00    -0.197 NA
ENDROOT
BRANCH   2   4
HETATM    4  C9  UNL     1     -34.772  16.850  -1.444  1.00 20.00    -0.033 A 
HETATM    5  C6  UNL     1     -33.421  17.187  -1.856  1.00 20.00     0.021 A 
HETATM    6  C7  UNL     1     -33.498  16.250  -2.808  1.00 20.00    -0.025 A 
HETATM    7  C4  UNL     1     -32.866  15.538  -3.927  1.00 20.00     0.012 A 
HETATM    8  C8  UNL     1     -34.814  15.922  -2.405  1.00 20.00    -0.019 A 
HETATM    9  C2  UNL     1     -33.582  14.573  -4.543  1.00 20.00     0.001 A 
HETATM   10  C3  UNL     1     -34.947  14.233  -4.125  1.00 20.00     0.001 A 
HETATM   11  C5  UNL     1     -35.561  14.865  -3.102  1.00 20.00     0.013 A 
ENDBRANCH   2   4
TORSDOF 1
ENDMDL
MODEL 9
REMARK VINA RESULT:      -4.9     11.317     12.252
REMARK  1 active torsions:
REMARK  status: ('A' for Active; 'I' for Inactive)
REMARK    1  A    between atoms: C9_9  and  C10_10 
ROOT
HETATM    1  C1  UNL     1     -33.270  18.317   1.884  1.00 20.00     0.063 C 
HETATM    2  C10 UNL     1     -33.747  19.045   0.726  1.00 20.00     0.163 C 
HETATM    3  N11 UNL     1     -32.901  17.760   2.832  1.00 20.00    -0.197 NA
ENDROOT
BRANCH   2   4
HETATM    4  C9  UNL     1     -33.433  18.227  -0.530  1.00 20.00    -0.033 A 
HETATM    5  C6  UNL     1     -32.295  18.163  -1.430  1.00 20.00     0.021 A 
HETATM    6  C7  UNL     1     -32.934  17.228  -2.142  1.00 20.00    -0.025 A 
HETATM    7  C4  UNL     1     -32.947  16.308  -3.287  1.00 20.00     0.012 A 
HETATM    8  C8  UNL     1     -34.042  17.290  -1.263  1.00 20.00    -0.019 A 
HETATM    9  C2  UNL     1     -34.041  15.537  -3.463  1.00 20.00     0.001 A 
HETATM   10  C3  UNL     1     -35.190  15.601  -2.551  1.00 20.00     0.001 A 
HETATM   11  C5  UNL     1     -35.215  16.434  -1.489  1.00 20.00     0.013 A 
ENDBRANCH   2   4
TORSDOF 1
ENDMDL
