MODEL 1
REMARK VINA RESULT:      -5.0      0.000      0.000
REMARK  2 active torsions:
REMARK  status: ('A' for Active; 'I' for Inactive)
REMARK    1  A    between atoms: C5_5  and  C9_9 
REMARK    2  A    between atoms: C6_6  and  C10_10 
ROOT
HETATM    1  C1  UNL     1     -34.020  14.686  -4.804  1.00 20.00     0.131 C 
HETATM    2  C2  UNL     1     -32.816  15.230  -4.065  1.00 20.00     0.079 C 
HETATM    3  C3  UNL     1     -33.224  16.377  -3.151  1.00 20.00     0.012 C 
HETATM    4  C4  UNL     1     -35.581  15.493  -3.029  1.00 20.00     0.016 C 
HETATM    5  C5  UNL     1     -35.221  14.315  -3.940  1.00 20.00     0.055 C 
HETATM    6  C6  UNL     1     -34.371  15.976  -2.213  1.00 20.00    -0.014 C 
HETATM    7  O11 UNL     1     -33.979  14.477  -6.015  1.00 20.00    -0.298 OA
ENDROOT
BRANCH   5   8
HETATM    8  C9  UNL     1     -36.420  13.903  -4.789  1.00 20.00     0.007 C 
HETATM    9  C7  UNL     1     -37.674  14.583  -4.342  1.00 20.00     0.006 C 
ENDBRANCH   5   8
BRANCH   6  10
HETATM   10  C10 UNL     1     -34.763  17.147  -1.313  1.00 20.00     0.000 C 
HETATM   11  C8  UNL     1     -33.577  17.973  -0.937  1.00 20.00     0.005 C 
ENDBRANCH   6  10
TORSDOF 2
ENDMDL
MODEL 2
REMARK VINA RESULT:      -4.5      3.297      5.943
REMARK  2 active torsions:
REMARK  status: ('A' for Active; 'I' for Inactive)
REMARK    1  A    between atoms: C5_5  and  C9_9 
REMARK    2  A    between atoms: C6_6  and  C10_10 
ROOT
HETATM    1  C1  UNL     1     -31.480  18.595  -0.368  1.00 20.00     0.131 C 
HETATM    2  C2  UNL     1     -31.985  18.583  -1.795  1.00 20.00     0.079 C 
HETATM    3  C3  UNL     1     -33.134  17.596  -1.947  1.00 20.00     0.012 C 
HETATM    4  C4  UNL     1     -33.677  17.791   0.507  1.00 20.00     0.016 C 
HETATM    5  C5  UNL     1     -32.537  18.795   0.712  1.00 20.00     0.055 C 
HETATM    6  C6  UNL     1     -34.245  17.854  -0.920  1.00 20.00    -0.014 C 
HETATM    7  O11 UNL     1     -30.276  18.539  -0.122  1.00 20.00    -0.298 OA
ENDROOT
BRANCH   5   8
HETATM    8  C9  UNL     1     -31.946  18.661   2.113  1.00 20.00     0.007 C 
HETATM    9  C7  UNL     1     -32.726  17.704   2.954  1.00 20.00     0.006 C 
ENDBRANCH   5   8
BRANCH   6  10
HETATM   10  C10 UNL     1     -35.380  16.846  -1.091  1.00 20.00     0.000 C 
HETATM   11  C8  UNL     1     -35.114  15.902  -2.217  1.00 20.00     0.005 C 
ENDBRANCH   6  10
TORSDOF 2
ENDMDL
MODEL 3
REMARK VINA RESULT:      -4.4      2.569      5.384
REMARK  2 active torsions:
REMARK  status: ('A' for Active; 'I' for Inactive)
REMARK    1  A    between atoms: C5_5  and  C9_9 
REMARK    2  A    between atoms: C6_6  and  C10_10 
ROOT
HETATM    1  C1  UNL     1     -34.362  18.096  -0.765  1.00 20.00     0.131 C 
HETATM    2  C2  UNL     1     -35.433  17.030  -0.854  1.00 20.00     0.079 C 
HETATM    3  C3  UNL     1     -35.434  16.386  -2.233  1.00 20.00     0.012 C 
HETATM    4  C4  UNL     1     -33.016  17.013  -2.569  1.00 20.00     0.016 C 
HETATM    5  C5  UNL     1     -32.960  17.668  -1.185  1.00 20.00     0.055 C 
HETATM    6  C6  UNL     1     -34.041  15.869  -2.619  1.00 20.00    -0.014 C 
HETATM    7  O11 UNL     1     -34.609  19.205  -0.293  1.00 20.00    -0.298 OA
ENDROOT
BRANCH   5   8
HETATM    8  C9  UNL     1     -31.987  18.844  -1.183  1.00 20.00     0.007 C 
HETATM    9  C7  UNL     1     -31.053  18.788  -0.019  1.00 20.00     0.006 C 
ENDBRANCH   5   8
BRANCH   6  10
HETATM   10  C10 UNL     1     -34.070  15.234  -4.009  1.00 20.00     0.000 C 
HETATM   11  C8  UNL     1     -34.935  14.018  -4.040  1.00 20.00     0.005 C 
ENDBRANCH   6  10
TORSDOF 2
ENDMDL
MODEL 4
REMARK VINA RESULT:      -4.4      2.274      4.301
REMARK  2 active torsions:
REMARK  status: ('A' for Active; 'I' for Inactive)
REMARK    1  A    between atoms: C5_5  and  C9_9 
REMARK    2  A    between atoms: C6_6  and  C10_10 
ROOT
HETATM    1  C1  UNL     1     -33.466  17.574  -1.538  1.00 20.00     0.131 C 
HETATM    2  C2  UNL     1     -32.820  17.408  -2.896  1.00 20.00     0.079 C 
HETATM    3  C3  UNL     1     -33.046  15.999  -3.427  1.00 20.00     0.012 C 
HETATM    4  C4  UNL     1     -35.111  15.754  -2.003  1.00 20.00     0.016 C 
HETATM    5  C5  UNL     1     -34.933  17.168  -1.443  1.00 20.00     0.055 C 
HETATM    6  C6  UNL     1     -34.534  15.622  -3.421  1.00 20.00    -0.014 C 
HETATM    7  O11 UNL     1     -32.855  18.093  -0.605  1.00 20.00    -0.298 OA
ENDROOT
BRANCH   5   8
HETATM    8  C9  UNL     1     -35.450  17.251  -0.010  1.00 20.00     0.007 C 
HETATM    9  C7  UNL     1     -36.763  17.959   0.065  1.00 20.00     0.006 C 
ENDBRANCH   5   8
BRANCH   6  10
HETATM   10  C10 UNL     1     -34.731  14.203  -3.953  1.00 20.00     0.000 C 
HETATM   11  C8  UNL     1     -36.138  13.973  -4.399  1.00 20.00     0.005 C 
ENDBRANCH   6  10
TORSDOF 2
ENDMDL
MODEL 5
REMARK VINA RESULT:      -4.2      2.172      4.860
REMARK  2 active torsions:
REMARK  status: ('A' for Active; 'I' for Inactive)
REMARK    1  A    between atoms: C5_5  and  C9_9 
REMARK    2  A    between atoms: C6_6  and  C10_10 
ROOT
HETATM    1  C1  UNL     1     -34.898  18.034  -2.258  1.00 20.00     0.131 C 
HETATM    2  C2  UNL     1     -36.193  17.254  -2.322  1.00 20.00     0.079 C 
HETATM    3  C3  UNL     1     -36.059  16.075  -3.276  1.00 20.00     0.012 C 
HETATM    4  C4  UNL     1     -33.561  16.039  -2.944  1.00 20.00     0.016 C 
HETATM    5  C5  UNL     1     -33.641  17.220  -1.971  1.00 20.00     0.055 C 
HETATM    6  C6  UNL     1     -34.847  15.199  -2.931  1.00 20.00    -0.014 C 
HETATM    7  O11 UNL     1     -34.894  19.262  -2.343  1.00 20.00    -0.298 OA
ENDROOT
BRANCH   5   8
HETATM    8  C9  UNL     1     -32.381  18.077  -2.056  1.00 20.00     0.007 C 
HETATM    9  C7  UNL     1     -31.780  18.313  -0.709  1.00 20.00     0.006 C 
ENDBRANCH   5   8
BRANCH   6  10
HETATM   10  C10 UNL     1     -34.735  14.028  -3.907  1.00 20.00     0.000 C 
HETATM   11  C8  UNL     1     -36.067  13.644  -4.462  1.00 20.00     0.005 C 
ENDBRANCH   6  10
TORSDOF 2
ENDMDL
MODEL 6
REMARK VINA RESULT:      -4.1      1.948      2.837
REMARK  2 active torsions:
REMARK  status: ('A' for Active; 'I' for Inactive)
REMARK    1  A    between atoms: C5_5  and  C9_9 
REMARK    2  A    between atoms: C6_6  and  C10_10 
ROOT
HETATM    1  C1  UNL     1     -35.984  14.564  -5.812  1.00 20.00     0.131 C 
HETATM    2  C2  UNL     1     -36.044  13.731  -4.550  1.00 20.00     0.079 C 
HETATM    3  C3  UNL     1     -35.044  14.243  -3.523  1.00 20.00     0.012 C 
HETATM    4  C4  UNL     1     -35.086  16.535  -4.569  1.00 20.00     0.016 C 
HETATM    5  C5  UNL     1     -36.099  16.072  -5.622  1.00 20.00     0.055 C 
HETATM    6  C6  UNL     1     -35.220  15.745  -3.259  1.00 20.00    -0.014 C 
HETATM    7  O11 UNL     1     -35.938  14.032  -6.921  1.00 20.00    -0.298 OA
ENDROOT
BRANCH   5   8
HETATM    8  C9  UNL     1     -35.896  16.824  -6.934  1.00 20.00     0.007 C 
HETATM    9  C7  UNL     1     -34.483  17.279  -7.099  1.00 20.00     0.006 C 
ENDBRANCH   5   8
BRANCH   6  10
HETATM   10  C10 UNL     1     -34.200  16.232  -2.230  1.00 20.00     0.000 C 
HETATM   11  C8  UNL     1     -33.047  16.921  -2.882  1.00 20.00     0.005 C 
ENDBRANCH   6  10
TORSDOF 2
ENDMDL
MODEL 7
REMARK VINA RESULT:      -4.1      1.500      2.336
REMARK  2 active torsions:
REMARK  status: ('A' for Active; 'I' for Inactive)
REMARK    1  A    between atoms: C5_5  and  C9_9 
REMARK    2  A    between atoms: C6_6  and  C10_10 
ROOT
HETATM    1  C1  UNL     1     -34.092  17.058  -4.351  1.00 20.00     0.131 C 
HETATM    2  C2  UNL     1     -34.092  18.390  -3.634  1.00 20.00     0.079 C 
HETATM    3  C3  UNL     1     -34.948  18.321  -2.377  1.00 20.00     0.012 C 
HETATM    4  C4  UNL     1     -34.616  15.826  -2.243  1.00 20.00     0.016 C 
HETATM    5  C5  UNL     1     -33.741  15.842  -3.501  1.00 20.00     0.055 C 
HETATM    6  C6  UNL     1     -34.534  17.152  -1.471  1.00 20.00    -0.014 C 
HETATM    7  O11 UNL     1     -34.276  16.993  -5.566  1.00 20.00    -0.298 OA
ENDROOT
BRANCH   5   8
HETATM    8  C9  UNL     1     -33.896  14.542  -4.284  1.00 20.00     0.007 C 
HETATM    9  C7  UNL     1     -35.235  13.918  -4.060  1.00 20.00     0.006 C 
ENDBRANCH   5   8
BRANCH   6  10
HETATM   10  C10 UNL     1     -35.413  17.103  -0.222  1.00 20.00     0.000 C 
HETATM   11  C8  UNL     1     -34.755  17.772   0.940  1.00 20.00     0.005 C 
ENDBRANCH   6  10
TORSDOF 2
ENDMDL
MODEL 8
REMARK VINA RESULT:      -4.1      1.658      2.741
REMARK  2 active torsions:
REMARK  status: ('A' for Active; 'I' for Inactive)
REMARK    1  A    between atoms: C5_5  and  C9_9 
REMARK    2  A    between atoms: C6_6  and  C10_10 
ROOT
HETATM    1  C1  UNL     1     -35.295  15.498  -3.379  1.00 20.00     0.131 C 
HETATM    2  C2  UNL     1     -35.781  16.507  -2.360  1.00 20.00     0.079 C 
HETATM    3  C3  UNL     1     -34.636  16.953  -1.462  1.00 20.00     0.012 C 
HETATM    4  C4  UNL     1     -32.956  16.361  -3.245  1.00 20.00     0.016 C 
HETATM    5  C5  UNL     1     -34.072  15.906  -4.191  1.00 20.00     0.055 C 
HETATM    6  C6  UNL     1     -33.436  17.454  -2.278  1.00 20.00    -0.014 C 
HETATM    7  O11 UNL     1     -35.919  14.458  -3.586  1.00 20.00    -0.298 OA
ENDROOT
BRANCH   5   8
HETATM    8  C9  UNL     1     -33.588  14.772  -5.091  1.00 20.00     0.007 C 
HETATM    9  C7  UNL     1     -33.988  14.986  -6.514  1.00 20.00     0.006 C 
ENDBRANCH   5   8
BRANCH   6  10
HETATM   10  C10 UNL     1     -32.301  17.890  -1.352  1.00 20.00     0.000 C 
HETATM   11  C8  UNL     1     -32.821  18.466  -0.076  1.00 20.00     0.005 C 
ENDBRANCH   6  10
TORSDOF 2
ENDMDL
MODEL 9
REMARK VINA RESULT:      -4.0      1.896      2.805
REMARK  2 active torsions:
REMARK  status: ('A' for Active; 'I' for Inactive)
REMARK    1  A    between atoms: C5_5  and  C9_9 
REMARK    2  A    between atoms: C6_6  and  C10_10 
ROOT
HETATM    1  C1  UNL     1     -35.941  14.380  -5.037  1.00 20.00     0.131 C 
HETATM    2  C2  UNL     1     -36.023  14.688  -3.558  1.00 20.00     0.079 C 
HETATM    3  C3  UNL     1     -34.754  15.382  -3.084  1.00 20.00     0.012 C 
HETATM    4  C4  UNL     1     -34.299  16.223  -5.416  1.00 20.00     0.016 C 
HETATM    5  C5  UNL     1     -35.570  15.549  -5.942  1.00 20.00     0.055 C 
HETATM    6  C6  UNL     1     -34.430  16.617  -3.937  1.00 20.00    -0.014 C 
HETATM    7  O11 UNL     1     -36.247  13.270  -5.471  1.00 20.00    -0.298 OA
ENDROOT
BRANCH   5   8
HETATM    8  C9  UNL     1     -35.386  15.106  -7.391  1.00 20.00     0.007 C 
HETATM    9  C7  UNL     1     -33.982  15.310  -7.858  1.00 20.00     0.006 C 
ENDBRANCH   5   8
BRANCH   6  10
HETATM   10  C10 UNL     1     -33.149  17.289  -3.444  1.00 20.00     0.000 C 
HETATM   11  C8  UNL     1     -33.071  17.299  -1.953  1.00 20.00     0.005 C 
ENDBRANCH   6  10
TORSDOF 2
ENDMDL
