MODEL 1
REMARK VINA RESULT:      -4.7      0.000      0.000
REMARK  0 active torsions:
REMARK  status: ('A' for Active; 'I' for Inactive)
ROOT
HETATM    1  C1  UNL     1     -25.365  19.263   9.251  1.00 20.00     0.050 C 
HETATM    2  C2  UNL     1     -25.112  18.605  10.395  1.00 20.00     0.003 C 
HETATM    3  C3  UNL     1     -24.757  18.889   7.938  1.00 20.00     0.027 C 
HETATM    4  C4  UNL     1     -22.114  17.016   9.091  1.00 20.00     0.056 A 
HETATM    5  C5  UNL     1     -22.531  18.414   8.701  1.00 20.00     0.133 A 
HETATM    6  C6  UNL     1     -22.803  17.903  10.084  1.00 20.00     0.108 A 
HETATM    7  C7  UNL     1     -25.953  18.899  11.613  1.00 20.00     0.068 C 
HETATM    8  C8  UNL     1     -25.690  18.991   6.750  1.00 20.00     0.070 C 
HETATM    9  N9  UNL     1     -23.554  18.501   7.672  1.00 20.00    -0.287 NA
HETATM   10  N10 UNL     1     -24.146  17.639  10.581  1.00 20.00    -0.387 N 
HETATM   11  H22 UNL     1     -24.254  17.062  11.411  1.00 20.00     0.159 HD
ENDROOT
TORSDOF 0
ENDMDL
MODEL 2
REMARK VINA RESULT:      -4.4      1.547      2.811
REMARK  0 active torsions:
REMARK  status: ('A' for Active; 'I' for Inactive)
ROOT
HETATM    1  C1  UNL     1     -23.478  18.660   8.539  1.00 20.00     0.050 C 
HETATM    2  C2  UNL     1     -24.711  18.533   9.061  1.00 20.00     0.003 C 
HETATM    3  C3  UNL     1     -22.321  17.810   8.953  1.00 20.00     0.027 C 
HETATM    4  C4  UNL     1     -23.545  16.670  11.957  1.00 20.00     0.056 A 
HETATM    5  C5  UNL     1     -22.735  17.772  11.317  1.00 20.00     0.133 A 
HETATM    6  C6  UNL     1     -24.231  17.855  11.349  1.00 20.00     0.108 A 
HETATM    7  C7  UNL     1     -25.861  19.263   8.414  1.00 20.00     0.068 C 
HETATM    8  C8  UNL     1     -21.405  17.385   7.823  1.00 20.00     0.070 C 
HETATM    9  N9  UNL     1     -21.986  17.395  10.128  1.00 20.00    -0.287 NA
HETATM   10  N10 UNL     1     -25.056  17.764  10.152  1.00 20.00    -0.387 N 
HETATM   11  H22 UNL     1     -26.048  17.570  10.257  1.00 20.00     0.159 HD
ENDROOT
TORSDOF 0
ENDMDL
MODEL 3
REMARK VINA RESULT:      -4.0     15.899     18.215
REMARK  0 active torsions:
REMARK  status: ('A' for Active; 'I' for Inactive)
ROOT
HETATM    1  C1  UNL     1     -33.645  15.309  -4.923  1.00 20.00     0.050 C 
HETATM    2  C2  UNL     1     -34.170  15.837  -3.803  1.00 20.00     0.003 C 
HETATM    3  C3  UNL     1     -34.473  14.864  -6.084  1.00 20.00     0.027 C 
HETATM    4  C4  UNL     1     -37.510  14.583  -4.498  1.00 20.00     0.056 A 
HETATM    5  C5  UNL     1     -36.261  13.821  -4.868  1.00 20.00     0.133 A 
HETATM    6  C6  UNL     1     -36.293  14.661  -3.627  1.00 20.00     0.108 A 
HETATM    7  C7  UNL     1     -33.250  16.477  -2.792  1.00 20.00     0.068 C 
HETATM    8  C8  UNL     1     -33.886  15.180  -7.444  1.00 20.00     0.070 C 
HETATM    9  N9  UNL     1     -35.606  14.244  -6.095  1.00 20.00    -0.287 NA
HETATM   10  N10 UNL     1     -35.507  15.877  -3.472  1.00 20.00    -0.387 N 
HETATM   11  H22 UNL     1     -35.759  16.530  -2.735  1.00 20.00     0.159 HD
ENDROOT
TORSDOF 0
ENDMDL
MODEL 4
REMARK VINA RESULT:      -3.9     12.707     14.972
REMARK  0 active torsions:
REMARK  status: ('A' for Active; 'I' for Inactive)
ROOT
HETATM    1  C1  UNL     1     -33.190  17.198  -2.209  1.00 20.00     0.050 C 
HETATM    2  C2  UNL     1     -34.208  16.322  -2.276  1.00 20.00     0.003 C 
HETATM    3  C3  UNL     1     -32.951  18.087  -1.032  1.00 20.00     0.027 C 
HETATM    4  C4  UNL     1     -36.072  17.925   0.402  1.00 20.00     0.056 A 
HETATM    5  C5  UNL     1     -35.227  18.701  -0.581  1.00 20.00     0.133 A 
HETATM    6  C6  UNL     1     -35.951  17.464  -1.019  1.00 20.00     0.108 A 
HETATM    7  C7  UNL     1     -34.227  15.303  -3.389  1.00 20.00     0.068 C 
HETATM    8  C8  UNL     1     -31.495  18.267  -0.653  1.00 20.00     0.070 C 
HETATM    9  N9  UNL     1     -33.801  18.728  -0.301  1.00 20.00    -0.287 NA
HETATM   10  N10 UNL     1     -35.265  16.236  -1.396  1.00 20.00    -0.387 N 
HETATM   11  H22 UNL     1     -35.798  15.371  -1.433  1.00 20.00     0.159 HD
ENDROOT
TORSDOF 0
ENDMDL
MODEL 5
REMARK VINA RESULT:      -3.9     15.880     18.001
REMARK  0 active torsions:
REMARK  status: ('A' for Active; 'I' for Inactive)
ROOT
HETATM    1  C1  UNL     1     -35.618  14.838  -5.676  1.00 20.00     0.050 C 
HETATM    2  C2  UNL     1     -34.434  15.384  -6.007  1.00 20.00     0.003 C 
HETATM    3  C3  UNL     1     -36.367  15.196  -4.434  1.00 20.00     0.027 C 
HETATM    4  C4  UNL     1     -33.788  16.594  -2.640  1.00 20.00     0.056 A 
HETATM    5  C5  UNL     1     -34.511  15.297  -2.915  1.00 20.00     0.133 A 
HETATM    6  C6  UNL     1     -33.416  15.760  -3.828  1.00 20.00     0.108 A 
HETATM    7  C7  UNL     1     -33.875  15.145  -7.387  1.00 20.00     0.068 C 
HETATM    8  C8  UNL     1     -37.869  15.300  -4.602  1.00 20.00     0.070 C 
HETATM    9  N9  UNL     1     -35.922  15.420  -3.242  1.00 20.00    -0.287 NA
HETATM   10  N10 UNL     1     -33.656  16.187  -5.200  1.00 20.00    -0.387 N 
HETATM   11  H22 UNL     1     -32.936  16.723  -5.677  1.00 20.00     0.159 HD
ENDROOT
TORSDOF 0
ENDMDL
MODEL 6
REMARK VINA RESULT:      -3.9      1.560      1.999
REMARK  0 active torsions:
REMARK  status: ('A' for Active; 'I' for Inactive)
ROOT
HETATM    1  C1  UNL     1     -25.255  19.204   9.949  1.00 20.00     0.050 C 
HETATM    2  C2  UNL     1     -25.791  18.728  11.086  1.00 20.00     0.003 C 
HETATM    3  C3  UNL     1     -24.023  18.637   9.323  1.00 20.00     0.027 C 
HETATM    4  C4  UNL     1     -22.759  16.969  12.051  1.00 20.00     0.056 A 
HETATM    5  C5  UNL     1     -22.737  18.291  11.320  1.00 20.00     0.133 A 
HETATM    6  C6  UNL     1     -23.821  17.994  12.313  1.00 20.00     0.108 A 
HETATM    7  C7  UNL     1     -27.161  19.201  11.508  1.00 20.00     0.068 C 
HETATM    8  C8  UNL     1     -24.055  18.556   7.811  1.00 20.00     0.070 C 
HETATM    9  N9  UNL     1     -22.937  18.218   9.882  1.00 20.00    -0.287 NA
HETATM   10  N10 UNL     1     -25.214  17.805  11.932  1.00 20.00    -0.387 N 
HETATM   11  H22 UNL     1     -25.844  17.360  12.594  1.00 20.00     0.159 HD
ENDROOT
TORSDOF 0
ENDMDL
MODEL 7
REMARK VINA RESULT:      -3.8     12.616     14.211
REMARK  0 active torsions:
REMARK  status: ('A' for Active; 'I' for Inactive)
ROOT
HETATM    1  C1  UNL     1     -35.155  17.014  -1.383  1.00 20.00     0.050 C 
HETATM    2  C2  UNL     1     -34.985  17.509  -0.145  1.00 20.00     0.003 C 
HETATM    3  C3  UNL     1     -34.020  16.602  -2.264  1.00 20.00     0.027 C 
HETATM    4  C4  UNL     1     -31.481  18.307  -0.693  1.00 20.00     0.056 A 
HETATM    5  C5  UNL     1     -32.521  18.414  -1.783  1.00 20.00     0.133 A 
HETATM    6  C6  UNL     1     -32.883  18.717  -0.360  1.00 20.00     0.108 A 
HETATM    7  C7  UNL     1     -36.187  17.667   0.754  1.00 20.00     0.068 C 
HETATM    8  C8  UNL     1     -34.262  15.343  -3.071  1.00 20.00     0.070 C 
HETATM    9  N9  UNL     1     -32.873  17.167  -2.442  1.00 20.00    -0.287 NA
HETATM   10  N10 UNL     1     -33.787  17.885   0.423  1.00 20.00    -0.387 N 
HETATM   11  H22 UNL     1     -33.792  17.989   1.434  1.00 20.00     0.159 HD
ENDROOT
TORSDOF 0
ENDMDL
MODEL 8
REMARK VINA RESULT:      -3.8     14.475     15.397
REMARK  0 active torsions:
REMARK  status: ('A' for Active; 'I' for Inactive)
ROOT
HETATM    1  C1  UNL     1     -33.694  17.740  -1.129  1.00 20.00     0.050 C 
HETATM    2  C2  UNL     1     -34.866  17.114  -0.924  1.00 20.00     0.003 C 
HETATM    3  C3  UNL     1     -33.085  17.918  -2.482  1.00 20.00     0.027 C 
HETATM    4  C4  UNL     1     -34.833  15.489  -4.176  1.00 20.00     0.056 A 
HETATM    5  C5  UNL     1     -33.575  15.746  -3.380  1.00 20.00     0.133 A 
HETATM    6  C6  UNL     1     -34.861  15.428  -2.679  1.00 20.00     0.108 A 
HETATM    7  C7  UNL     1     -35.515  17.197   0.435  1.00 20.00     0.068 C 
HETATM    8  C8  UNL     1     -32.422  19.260  -2.712  1.00 20.00     0.070 C 
HETATM    9  N9  UNL     1     -33.036  17.093  -3.474  1.00 20.00    -0.287 NA
HETATM   10  N10 UNL     1     -35.578  16.396  -1.861  1.00 20.00    -0.387 N 
HETATM   11  H22 UNL     1     -36.551  16.212  -1.628  1.00 20.00     0.159 HD
ENDROOT
TORSDOF 0
ENDMDL
MODEL 9
REMARK VINA RESULT:      -3.7     16.060     18.406
REMARK  0 active torsions:
REMARK  status: ('A' for Active; 'I' for Inactive)
ROOT
HETATM    1  C1  UNL     1     -35.926  15.014  -3.532  1.00 20.00     0.050 C 
HETATM    2  C2  UNL     1     -36.813  15.069  -4.542  1.00 20.00     0.003 C 
HETATM    3  C3  UNL     1     -34.539  15.559  -3.629  1.00 20.00     0.027 C 
HETATM    4  C4  UNL     1     -34.263  15.709  -7.053  1.00 20.00     0.056 A 
HETATM    5  C5  UNL     1     -34.022  14.822  -5.855  1.00 20.00     0.133 A 
HETATM    6  C6  UNL     1     -35.376  14.874  -6.497  1.00 20.00     0.108 A 
HETATM    7  C7  UNL     1     -38.255  14.717  -4.273  1.00 20.00     0.068 C 
HETATM    8  C8  UNL     1     -34.039  16.258  -2.382  1.00 20.00     0.070 C 
HETATM    9  N9  UNL     1     -33.706  15.513  -4.615  1.00 20.00    -0.287 NA
HETATM   10  N10 UNL     1     -36.543  15.446  -5.840  1.00 20.00    -0.387 N 
HETATM   11  H22 UNL     1     -37.353  15.684  -6.406  1.00 20.00     0.159 HD
ENDROOT
TORSDOF 0
ENDMDL
