MODEL 1
REMARK VINA RESULT:      -5.3      0.000      0.000
REMARK  1 active torsions:
REMARK  status: ('A' for Active; 'I' for Inactive)
REMARK    1  A    between atoms: C10_10  and  O11_11 
ROOT
HETATM    1  C1  UNL     1     -25.939  18.566  11.544  1.00 20.00    -0.021 C 
HETATM    2  C2  UNL     1     -23.519  17.964  12.332  1.00 20.00    -0.021 C 
HETATM    3  C3  UNL     1     -25.876  19.206  10.355  1.00 20.00    -0.025 C 
HETATM    4  C4  UNL     1     -22.485  17.785  11.484  1.00 20.00    -0.022 C 
HETATM    5  C5  UNL     1     -23.948  18.722   8.391  1.00 20.00     0.041 C 
HETATM    6  C6  UNL     1     -24.830  17.549  11.722  1.00 20.00     0.035 C 
HETATM    7  C7  UNL     1     -24.557  18.905   9.758  1.00 20.00     0.016 C 
HETATM    8  C8  UNL     1     -22.912  17.229  10.140  1.00 20.00     0.042 C 
HETATM    9  C9  UNL     1     -24.397  17.461  10.279  1.00 20.00     0.015 C 
HETATM   10  C10 UNL     1     -22.628  17.972   8.794  1.00 20.00     0.127 C 
ENDROOT
BRANCH  10  11
HETATM   11  O11 UNL     1     -21.564  18.900   8.935  1.00 20.00    -0.395 OA
HETATM   12  H23 UNL     1     -20.970  18.764   8.180  1.00 20.00     0.210 HD
ENDBRANCH  10  11
TORSDOF 1
ENDMDL
MODEL 2
REMARK VINA RESULT:      -5.2     17.371     18.582
REMARK  1 active torsions:
REMARK  status: ('A' for Active; 'I' for Inactive)
REMARK    1  A    between atoms: C10_10  and  O11_11 
ROOT
HETATM    1  C1  UNL     1     -35.103  17.140  -2.408  1.00 20.00    -0.021 C 
HETATM    2  C2  UNL     1     -33.323  15.752  -3.727  1.00 20.00    -0.021 C 
HETATM    3  C3  UNL     1     -36.306  17.016  -3.012  1.00 20.00    -0.025 C 
HETATM    4  C4  UNL     1     -33.630  14.675  -4.480  1.00 20.00    -0.022 C 
HETATM    5  C5  UNL     1     -37.174  14.729  -4.361  1.00 20.00     0.041 C 
HETATM    6  C6  UNL     1     -34.245  15.900  -2.548  1.00 20.00     0.035 C 
HETATM    7  C7  UNL     1     -36.249  15.812  -3.868  1.00 20.00     0.016 C 
HETATM    8  C8  UNL     1     -34.825  13.907  -3.954  1.00 20.00     0.042 C 
HETATM    9  C9  UNL     1     -35.330  14.946  -2.981  1.00 20.00     0.015 C 
HETATM   10  C10 UNL     1     -36.111  13.663  -4.808  1.00 20.00     0.127 C 
ENDROOT
BRANCH  10  11
HETATM   11  O11 UNL     1     -35.838  13.798  -6.195  1.00 20.00    -0.395 OA
HETATM   12  H23 UNL     1     -35.325  13.016  -6.457  1.00 20.00     0.210 HD
ENDBRANCH  10  11
TORSDOF 1
ENDMDL
MODEL 3
REMARK VINA RESULT:      -5.0     23.241     24.049
REMARK  1 active torsions:
REMARK  status: ('A' for Active; 'I' for Inactive)
REMARK    1  A    between atoms: C10_10  and  O11_11 
ROOT
HETATM    1  C1  UNL     1     -42.317   9.163  -0.212  1.00 20.00    -0.021 C 
HETATM    2  C2  UNL     1     -41.174   7.224  -1.540  1.00 20.00    -0.021 C 
HETATM    3  C3  UNL     1     -43.349   8.667   0.507  1.00 20.00    -0.025 C 
HETATM    4  C4  UNL     1     -41.206   5.933  -1.146  1.00 20.00    -0.022 C 
HETATM    5  C5  UNL     1     -43.417   6.105   1.622  1.00 20.00     0.041 C 
HETATM    6  C6  UNL     1     -41.183   8.172  -0.373  1.00 20.00     0.035 C 
HETATM    7  C7  UNL     1     -43.140   7.208   0.632  1.00 20.00     0.016 C 
HETATM    8  C8  UNL     1     -41.259   5.776   0.360  1.00 20.00     0.042 C 
HETATM    9  C9  UNL     1     -41.598   7.206   0.708  1.00 20.00     0.015 C 
HETATM   10  C10 UNL     1     -42.418   5.019   1.087  1.00 20.00     0.127 C 
ENDROOT
BRANCH  10  11
HETATM   11  O11 UNL     1     -43.087   4.134   0.201  1.00 20.00    -0.395 OA
HETATM   12  H23 UNL     1     -44.022   4.130   0.461  1.00 20.00     0.210 HD
ENDBRANCH  10  11
TORSDOF 1
ENDMDL
MODEL 4
REMARK VINA RESULT:      -4.9      1.263      2.437
REMARK  1 active torsions:
REMARK  status: ('A' for Active; 'I' for Inactive)
REMARK    1  A    between atoms: C10_10  and  O11_11 
ROOT
HETATM    1  C1  UNL     1     -25.069  16.718  11.706  1.00 20.00    -0.021 C 
HETATM    2  C2  UNL     1     -25.687  18.809  10.263  1.00 20.00    -0.021 C 
HETATM    3  C3  UNL     1     -24.288  15.888  10.981  1.00 20.00    -0.025 C 
HETATM    4  C4  UNL     1     -24.922  19.263   9.247  1.00 20.00    -0.022 C 
HETATM    5  C5  UNL     1     -22.454  16.723   9.045  1.00 20.00     0.041 C 
HETATM    6  C6  UNL     1     -24.865  18.177  11.352  1.00 20.00     0.035 C 
HETATM    7  C7  UNL     1     -23.716  16.677   9.869  1.00 20.00     0.016 C 
HETATM    8  C8  UNL     1     -23.444  19.005   9.460  1.00 20.00     0.042 C 
HETATM    9  C9  UNL     1     -23.564  18.026  10.603  1.00 20.00     0.015 C 
HETATM   10  C10 UNL     1     -22.583  18.173   8.455  1.00 20.00     0.127 C 
ENDROOT
BRANCH  10  11
HETATM   11  O11 UNL     1     -23.191  18.127   7.174  1.00 20.00    -0.395 OA
HETATM   12  H23 UNL     1     -23.173  19.031   6.821  1.00 20.00     0.210 HD
ENDBRANCH  10  11
TORSDOF 1
ENDMDL
MODEL 5
REMARK VINA RESULT:      -4.8     16.212     16.911
REMARK  1 active torsions:
REMARK  status: ('A' for Active; 'I' for Inactive)
REMARK    1  A    between atoms: C10_10  and  O11_11 
ROOT
HETATM    1  C1  UNL     1     -35.037   5.121   5.846  1.00 20.00    -0.021 C 
HETATM    2  C2  UNL     1     -34.046   4.101   3.651  1.00 20.00    -0.021 C 
HETATM    3  C3  UNL     1     -34.250   6.138   6.263  1.00 20.00    -0.025 C 
HETATM    4  C4  UNL     1     -33.273   4.798   2.791  1.00 20.00    -0.022 C 
HETATM    5  C5  UNL     1     -32.820   7.836   4.565  1.00 20.00     0.041 C 
HETATM    6  C6  UNL     1     -35.059   4.976   4.338  1.00 20.00     0.035 C 
HETATM    7  C7  UNL     1     -33.436   6.571   5.106  1.00 20.00     0.016 C 
HETATM    8  C8  UNL     1     -33.615   6.273   2.752  1.00 20.00     0.042 C 
HETATM    9  C9  UNL     1     -34.475   6.323   3.992  1.00 20.00     0.015 C 
HETATM   10  C10 UNL     1     -32.569   7.388   3.081  1.00 20.00     0.127 C 
ENDROOT
BRANCH  10  11
HETATM   11  O11 UNL     1     -31.242   6.905   2.935  1.00 20.00    -0.395 OA
HETATM   12  H23 UNL     1     -31.187   6.079   3.441  1.00 20.00     0.210 HD
ENDBRANCH  10  11
TORSDOF 1
ENDMDL
MODEL 6
REMARK VINA RESULT:      -4.8     16.778     17.967
REMARK  1 active torsions:
REMARK  status: ('A' for Active; 'I' for Inactive)
REMARK    1  A    between atoms: C10_10  and  O11_11 
ROOT
HETATM    1  C1  UNL     1     -35.954  17.210  -2.003  1.00 20.00    -0.021 C 
HETATM    2  C2  UNL     1     -33.417  16.712  -2.397  1.00 20.00    -0.021 C 
HETATM    3  C3  UNL     1     -36.614  17.132  -3.180  1.00 20.00    -0.025 C 
HETATM    4  C4  UNL     1     -32.958  15.958  -3.418  1.00 20.00    -0.022 C 
HETATM    5  C5  UNL     1     -35.933  15.404  -5.268  1.00 20.00     0.041 C 
HETATM    6  C6  UNL     1     -34.774  16.263  -1.927  1.00 20.00     0.035 C 
HETATM    7  C7  UNL     1     -35.766  16.357  -4.112  1.00 20.00     0.016 C 
HETATM    8  C8  UNL     1     -33.929  14.871  -3.833  1.00 20.00     0.042 C 
HETATM    9  C9  UNL     1     -35.143  15.380  -3.093  1.00 20.00     0.015 C 
HETATM   10  C10 UNL     1     -34.500  14.763  -5.284  1.00 20.00     0.127 C 
ENDROOT
BRANCH  10  11
HETATM   11  O11 UNL     1     -33.671  15.445  -6.213  1.00 20.00    -0.395 OA
HETATM   12  H23 UNL     1     -33.194  16.129  -5.716  1.00 20.00     0.210 HD
ENDBRANCH  10  11
TORSDOF 1
ENDMDL
MODEL 7
REMARK VINA RESULT:      -4.7      1.632      3.070
REMARK  1 active torsions:
REMARK  status: ('A' for Active; 'I' for Inactive)
REMARK    1  A    between atoms: C10_10  and  O11_11 
ROOT
HETATM    1  C1  UNL     1     -24.504  18.901   7.823  1.00 20.00    -0.021 C 
HETATM    2  C2  UNL     1     -22.441  17.325   8.137  1.00 20.00    -0.021 C 
HETATM    3  C3  UNL     1     -25.349  18.747   8.866  1.00 20.00    -0.025 C 
HETATM    4  C4  UNL     1     -22.009  16.900   9.343  1.00 20.00    -0.022 C 
HETATM    5  C5  UNL     1     -24.554  18.145  11.476  1.00 20.00     0.041 C 
HETATM    6  C6  UNL     1     -23.053  18.697   8.207  1.00 20.00     0.035 C 
HETATM    7  C7  UNL     1     -24.583  18.129   9.969  1.00 20.00     0.016 C 
HETATM    8  C8  UNL     1     -22.263  17.903  10.450  1.00 20.00     0.042 C 
HETATM    9  C9  UNL     1     -23.220  18.801   9.703  1.00 20.00     0.015 C 
HETATM   10  C10 UNL     1     -23.116  17.562  11.715  1.00 20.00     0.127 C 
ENDROOT
BRANCH  10  11
HETATM   11  O11 UNL     1     -23.187  16.159  11.922  1.00 20.00    -0.395 OA
HETATM   12  H23 UNL     1     -22.278  15.821  11.872  1.00 20.00     0.210 HD
ENDBRANCH  10  11
TORSDOF 1
ENDMDL
MODEL 8
REMARK VINA RESULT:      -4.6     17.071     18.353
REMARK  1 active torsions:
REMARK  status: ('A' for Active; 'I' for Inactive)
REMARK    1  A    between atoms: C10_10  and  O11_11 
ROOT
HETATM    1  C1  UNL     1     -36.390  16.609  -2.488  1.00 20.00    -0.021 C 
HETATM    2  C2  UNL     1     -36.790  14.545  -4.042  1.00 20.00    -0.021 C 
HETATM    3  C3  UNL     1     -35.107  16.606  -2.061  1.00 20.00    -0.025 C 
HETATM    4  C4  UNL     1     -35.809  13.946  -4.750  1.00 20.00    -0.022 C 
HETATM    5  C5  UNL     1     -32.942  15.657  -3.551  1.00 20.00     0.041 C 
HETATM    6  C6  UNL     1     -36.549  16.019  -3.874  1.00 20.00     0.035 C 
HETATM    7  C7  UNL     1     -34.336  15.745  -2.983  1.00 20.00     0.016 C 
HETATM    8  C8  UNL     1     -34.718  14.908  -5.177  1.00 20.00     0.042 C 
HETATM    9  C9  UNL     1     -35.098  16.066  -4.285  1.00 20.00     0.015 C 
HETATM   10  C10 UNL     1     -33.220  14.713  -4.775  1.00 20.00     0.127 C 
ENDROOT
BRANCH  10  11
HETATM   11  O11 UNL     1     -32.956  13.364  -4.421  1.00 20.00    -0.395 OA
HETATM   12  H23 UNL     1     -32.068  13.155  -4.754  1.00 20.00     0.210 HD
ENDBRANCH  10  11
TORSDOF 1
ENDMDL
MODEL 9
REMARK VINA RESULT:      -4.6     17.242     18.602
REMARK  1 active torsions:
REMARK  status: ('A' for Active; 'I' for Inactive)
REMARK    1  A    between atoms: C10_10  and  O11_11 
ROOT
HETATM    1  C1  UNL     1     -32.744  15.341  -3.793  1.00 20.00    -0.021 C 
HETATM    2  C2  UNL     1     -34.492  16.346  -2.128  1.00 20.00    -0.021 C 
HETATM    3  C3  UNL     1     -33.322  14.346  -4.502  1.00 20.00    -0.025 C 
HETATM    4  C4  UNL     1     -35.826  16.305  -2.336  1.00 20.00    -0.022 C 
HETATM    5  C5  UNL     1     -36.015  14.282  -5.244  1.00 20.00     0.041 C 
HETATM    6  C6  UNL     1     -33.721  16.436  -3.415  1.00 20.00     0.035 C 
HETATM    7  C7  UNL     1     -34.786  14.524  -4.404  1.00 20.00     0.016 C 
HETATM    8  C8  UNL     1     -36.195  16.345  -3.805  1.00 20.00     0.042 C 
HETATM    9  C9  UNL     1     -34.825  16.067  -4.375  1.00 20.00     0.015 C 
HETATM   10  C10 UNL     1     -37.029  15.217  -4.494  1.00 20.00     0.127 C 
ENDROOT
BRANCH  10  11
HETATM   11  O11 UNL     1     -37.767  14.470  -3.539  1.00 20.00    -0.395 OA
HETATM   12  H23 UNL     1     -37.518  14.807  -2.664  1.00 20.00     0.210 HD
ENDBRANCH  10  11
TORSDOF 1
ENDMDL
