MODEL 1
REMARK VINA RESULT:      -4.4      0.000      0.000
REMARK  1 active torsions:
REMARK  status: ('A' for Active; 'I' for Inactive)
REMARK    1  A    between atoms: C10_10  and  O12_12 
ROOT
HETATM    1  C1  UNL     1     -36.005  18.029  -3.458  1.00 20.00     0.011 A 
HETATM    2  C2  UNL     1     -37.270  15.893  -5.672  1.00 20.00     0.013 A 
HETATM    3  C3  UNL     1     -33.293  16.149  -3.043  1.00 20.00     0.013 A 
HETATM    4  C4  UNL     1     -37.001  16.927  -3.223  1.00 20.00    -0.005 A 
HETATM    5  C5  UNL     1     -35.737  17.008  -2.387  1.00 20.00    -0.005 A 
HETATM    6  C6  UNL     1     -37.299  15.768  -4.169  1.00 20.00    -0.003 A 
HETATM    7  C7  UNL     1     -34.649  15.938  -2.417  1.00 20.00    -0.003 A 
HETATM    8  C8  UNL     1     -36.288  14.987  -4.984  1.00 20.00     0.020 A 
HETATM    9  C9  UNL     1     -34.226  15.119  -3.618  1.00 20.00     0.020 A 
HETATM   10  C10 UNL     1     -34.828  15.322  -4.975  1.00 20.00     0.129 C 
ENDROOT
BRANCH  10  11
HETATM   11  O12 UNL     1     -34.166  14.467  -5.910  1.00 20.00    -0.390 OA
HETATM   12  C11 UNL     1     -33.923  15.138  -7.135  1.00 20.00     0.202 C 
ENDBRANCH  10  11
TORSDOF 1
ENDMDL
MODEL 2
REMARK VINA RESULT:      -4.4      1.458      3.107
REMARK  1 active torsions:
REMARK  status: ('A' for Active; 'I' for Inactive)
REMARK    1  A    between atoms: C10_10  and  O12_12 
ROOT
HETATM    1  C1  UNL     1     -33.157  17.306  -3.552  1.00 20.00     0.011 A 
HETATM    2  C2  UNL     1     -36.246  17.342  -2.318  1.00 20.00     0.013 A 
HETATM    3  C3  UNL     1     -33.951  14.933  -5.742  1.00 20.00     0.013 A 
HETATM    4  C4  UNL     1     -33.683  16.587  -2.339  1.00 20.00    -0.005 A 
HETATM    5  C5  UNL     1     -32.953  15.821  -3.428  1.00 20.00    -0.005 A 
HETATM    6  C6  UNL     1     -35.151  16.354  -2.000  1.00 20.00    -0.003 A 
HETATM    7  C7  UNL     1     -33.622  14.748  -4.281  1.00 20.00    -0.003 A 
HETATM    8  C8  UNL     1     -36.254  15.989  -2.973  1.00 20.00     0.020 A 
HETATM    9  C9  UNL     1     -35.063  14.738  -4.748  1.00 20.00     0.020 A 
HETATM   10  C10 UNL     1     -36.008  15.861  -4.445  1.00 20.00     0.129 C 
ENDROOT
BRANCH  10  11
HETATM   11  O12 UNL     1     -37.259  15.603  -5.088  1.00 20.00    -0.390 OA
HETATM   12  C11 UNL     1     -38.054  14.713  -4.323  1.00 20.00     0.202 C 
ENDBRANCH  10  11
TORSDOF 1
ENDMDL
MODEL 3
REMARK VINA RESULT:      -4.3      1.756      3.666
REMARK  1 active torsions:
REMARK  status: ('A' for Active; 'I' for Inactive)
REMARK    1  A    between atoms: C10_10  and  O12_12 
ROOT
HETATM    1  C1  UNL     1     -34.588  17.471  -5.155  1.00 20.00     0.011 A 
HETATM    2  C2  UNL     1     -35.337  15.868  -2.339  1.00 20.00     0.013 A 
HETATM    3  C3  UNL     1     -36.081  15.140  -6.999  1.00 20.00     0.013 A 
HETATM    4  C4  UNL     1     -33.726  16.524  -4.366  1.00 20.00    -0.005 A 
HETATM    5  C5  UNL     1     -33.962  16.292  -5.848  1.00 20.00    -0.005 A 
HETATM    6  C6  UNL     1     -34.206  15.559  -3.287  1.00 20.00    -0.003 A 
HETATM    7  C7  UNL     1     -34.701  15.073  -6.392  1.00 20.00    -0.003 A 
HETATM    8  C8  UNL     1     -35.477  14.734  -3.316  1.00 20.00     0.020 A 
HETATM    9  C9  UNL     1     -35.860  14.356  -5.734  1.00 20.00     0.020 A 
HETATM   10  C10 UNL     1     -36.460  14.825  -4.443  1.00 20.00     0.129 C 
ENDROOT
BRANCH  10  11
HETATM   11  O12 UNL     1     -37.584  14.000  -4.125  1.00 20.00    -0.390 OA
HETATM   12  C11 UNL     1     -38.796  14.732  -4.205  1.00 20.00     0.202 C 
ENDBRANCH  10  11
TORSDOF 1
ENDMDL
MODEL 4
REMARK VINA RESULT:      -4.3      1.131      2.899
REMARK  1 active torsions:
REMARK  status: ('A' for Active; 'I' for Inactive)
REMARK    1  A    between atoms: C10_10  and  O12_12 
ROOT
HETATM    1  C1  UNL     1     -35.025  15.912  -2.016  1.00 20.00     0.011 A 
HETATM    2  C2  UNL     1     -33.115  14.418  -4.292  1.00 20.00     0.013 A 
HETATM    3  C3  UNL     1     -37.465  16.385  -4.225  1.00 20.00     0.013 A 
HETATM    4  C4  UNL     1     -33.931  16.516  -2.853  1.00 20.00    -0.005 A 
HETATM    5  C5  UNL     1     -35.314  17.142  -2.831  1.00 20.00    -0.005 A 
HETATM    6  C6  UNL     1     -33.315  15.902  -4.106  1.00 20.00    -0.003 A 
HETATM    7  C7  UNL     1     -36.214  17.213  -4.061  1.00 20.00    -0.003 A 
HETATM    8  C8  UNL     1     -34.054  15.160  -5.202  1.00 20.00     0.020 A 
HETATM    9  C9  UNL     1     -36.310  16.183  -5.167  1.00 20.00     0.020 A 
HETATM   10  C10 UNL     1     -35.528  14.904  -5.137  1.00 20.00     0.129 C 
ENDROOT
BRANCH  10  11
HETATM   11  O12 UNL     1     -35.895  14.108  -6.267  1.00 20.00    -0.390 OA
HETATM   12  C11 UNL     1     -35.717  14.824  -7.477  1.00 20.00     0.202 C 
ENDBRANCH  10  11
TORSDOF 1
ENDMDL
MODEL 5
REMARK VINA RESULT:      -4.2      1.896      3.026
REMARK  1 active torsions:
REMARK  status: ('A' for Active; 'I' for Inactive)
REMARK    1  A    between atoms: C10_10  and  O12_12 
ROOT
HETATM    1  C1  UNL     1     -36.895  14.455  -4.502  1.00 20.00     0.011 A 
HETATM    2  C2  UNL     1     -35.972  16.515  -6.945  1.00 20.00     0.013 A 
HETATM    3  C3  UNL     1     -34.792  15.887  -2.361  1.00 20.00     0.013 A 
HETATM    4  C4  UNL     1     -35.882  14.215  -5.588  1.00 20.00    -0.005 A 
HETATM    5  C5  UNL     1     -35.506  14.016  -4.130  1.00 20.00    -0.005 A 
HETATM    6  C6  UNL     1     -35.243  15.281  -6.472  1.00 20.00    -0.003 A 
HETATM    7  C7  UNL     1     -34.457  14.863  -3.418  1.00 20.00    -0.003 A 
HETATM    8  C8  UNL     1     -34.784  16.658  -6.035  1.00 20.00     0.020 A 
HETATM    9  C9  UNL     1     -34.170  16.330  -3.657  1.00 20.00     0.020 A 
HETATM   10  C10 UNL     1     -34.963  17.149  -4.631  1.00 20.00     0.129 C 
ENDROOT
BRANCH  10  11
HETATM   11  O12 UNL     1     -34.515  18.506  -4.571  1.00 20.00    -0.390 OA
HETATM   12  C11 UNL     1     -33.157  18.580  -4.168  1.00 20.00     0.202 C 
ENDBRANCH  10  11
TORSDOF 1
ENDMDL
MODEL 6
REMARK VINA RESULT:      -4.2      1.723      4.177
REMARK  1 active torsions:
REMARK  status: ('A' for Active; 'I' for Inactive)
REMARK    1  A    between atoms: C10_10  and  O12_12 
ROOT
HETATM    1  C1  UNL     1     -34.466  15.991  -6.315  1.00 20.00     0.011 A 
HETATM    2  C2  UNL     1     -33.074  16.219  -3.303  1.00 20.00     0.013 A 
HETATM    3  C3  UNL     1     -37.520  15.845  -5.005  1.00 20.00     0.013 A 
HETATM    4  C4  UNL     1     -33.879  14.889  -5.476  1.00 20.00    -0.005 A 
HETATM    5  C5  UNL     1     -35.292  14.770  -6.017  1.00 20.00    -0.005 A 
HETATM    6  C6  UNL     1     -33.563  14.966  -3.986  1.00 20.00    -0.003 A 
HETATM    7  C7  UNL     1     -36.525  14.716  -5.120  1.00 20.00    -0.003 A 
HETATM    8  C8  UNL     1     -34.405  15.636  -2.920  1.00 20.00     0.020 A 
HETATM    9  C9  UNL     1     -36.711  15.439  -3.803  1.00 20.00     0.020 A 
HETATM   10  C10 UNL     1     -35.672  16.365  -3.247  1.00 20.00     0.129 C 
ENDROOT
BRANCH  10  11
HETATM   11  O12 UNL     1     -36.172  16.957  -2.045  1.00 20.00    -0.390 OA
HETATM   12  C11 UNL     1     -36.497  18.323  -2.242  1.00 20.00     0.202 C 
ENDBRANCH  10  11
TORSDOF 1
ENDMDL
MODEL 7
REMARK VINA RESULT:      -4.2      1.344      2.008
REMARK  1 active torsions:
REMARK  status: ('A' for Active; 'I' for Inactive)
REMARK    1  A    between atoms: C10_10  and  O12_12 
ROOT
HETATM    1  C1  UNL     1     -34.031  16.926  -2.329  1.00 20.00     0.011 A 
HETATM    2  C2  UNL     1     -35.874  18.426  -4.656  1.00 20.00     0.013 A 
HETATM    3  C3  UNL     1     -33.151  14.509  -4.436  1.00 20.00     0.013 A 
HETATM    4  C4  UNL     1     -35.513  16.809  -2.560  1.00 20.00    -0.005 A 
HETATM    5  C5  UNL     1     -34.648  15.564  -2.490  1.00 20.00    -0.005 A 
HETATM    6  C6  UNL     1     -36.262  17.232  -3.820  1.00 20.00    -0.003 A 
HETATM    7  C7  UNL     1     -34.448  14.622  -3.673  1.00 20.00    -0.003 A 
HETATM    8  C8  UNL     1     -35.795  17.047  -5.250  1.00 20.00     0.020 A 
HETATM    9  C9  UNL     1     -34.385  15.014  -5.134  1.00 20.00     0.020 A 
HETATM   10  C10 UNL     1     -34.466  16.442  -5.582  1.00 20.00     0.129 C 
ENDROOT
BRANCH  10  11
HETATM   11  O12 UNL     1     -34.291  16.495  -7.001  1.00 20.00    -0.390 OA
HETATM   12  C11 UNL     1     -34.926  15.399  -7.637  1.00 20.00     0.202 C 
ENDBRANCH  10  11
TORSDOF 1
ENDMDL
MODEL 8
REMARK VINA RESULT:      -4.1      1.597      2.526
REMARK  1 active torsions:
REMARK  status: ('A' for Active; 'I' for Inactive)
REMARK    1  A    between atoms: C10_10  and  O12_12 
ROOT
HETATM    1  C1  UNL     1     -33.055  16.806  -2.619  1.00 20.00     0.011 A 
HETATM    2  C2  UNL     1     -33.954  18.568  -5.293  1.00 20.00     0.013 A 
HETATM    3  C3  UNL     1     -34.398  14.032  -3.869  1.00 20.00     0.013 A 
HETATM    4  C4  UNL     1     -34.274  17.669  -2.798  1.00 20.00    -0.005 A 
HETATM    5  C5  UNL     1     -34.416  16.227  -2.345  1.00 20.00    -0.005 A 
HETATM    6  C6  UNL     1     -34.826  18.182  -4.124  1.00 20.00    -0.003 A 
HETATM    7  C7  UNL     1     -35.122  15.159  -3.175  1.00 20.00    -0.003 A 
HETATM    8  C8  UNL     1     -34.904  17.410  -5.426  1.00 20.00     0.020 A 
HETATM    9  C9  UNL     1     -35.136  15.058  -4.686  1.00 20.00     0.020 A 
HETATM   10  C10 UNL     1     -34.378  16.014  -5.557  1.00 20.00     0.129 C 
ENDROOT
BRANCH  10  11
HETATM   11  O12 UNL     1     -34.517  15.609  -6.922  1.00 20.00    -0.390 OA
HETATM   12  C11 UNL     1     -35.838  15.172  -7.195  1.00 20.00     0.202 C 
ENDBRANCH  10  11
TORSDOF 1
ENDMDL
MODEL 9
REMARK VINA RESULT:      -4.1      1.728      3.631
REMARK  1 active torsions:
REMARK  status: ('A' for Active; 'I' for Inactive)
REMARK    1  A    between atoms: C10_10  and  O12_12 
ROOT
HETATM    1  C1  UNL     1     -36.111  14.805  -5.854  1.00 20.00     0.011 A 
HETATM    2  C2  UNL     1     -33.132  14.508  -4.404  1.00 20.00     0.013 A 
HETATM    3  C3  UNL     1     -36.670  17.714  -4.343  1.00 20.00     0.013 A 
HETATM    4  C4  UNL     1     -35.755  14.042  -4.607  1.00 20.00    -0.005 A 
HETATM    5  C5  UNL     1     -36.880  15.061  -4.587  1.00 20.00    -0.005 A 
HETATM    6  C6  UNL     1     -34.476  14.200  -3.791  1.00 20.00    -0.003 A 
HETATM    7  C7  UNL     1     -36.834  16.336  -3.751  1.00 20.00    -0.003 A 
HETATM    8  C8  UNL     1     -33.767  15.500  -3.470  1.00 20.00     0.020 A 
HETATM    9  C9  UNL     1     -35.604  17.162  -3.437  1.00 20.00     0.020 A 
HETATM   10  C10 UNL     1     -34.252  16.821  -3.986  1.00 20.00     0.129 C 
ENDROOT
BRANCH  10  11
HETATM   11  O12 UNL     1     -33.319  17.828  -3.585  1.00 20.00    -0.390 OA
HETATM   12  C11 UNL     1     -32.840  17.590  -2.272  1.00 20.00     0.202 C 
ENDBRANCH  10  11
TORSDOF 1
ENDMDL
