MODEL 1
REMARK VINA RESULT:      -5.5      0.000      0.000
REMARK  3 active torsions:
REMARK  status: ('A' for Active; 'I' for Inactive)
REMARK    1  A    between atoms: C6_6  and  C7_7 
REMARK    2  A    between atoms: C8_8  and  C10_10 
REMARK    3  A    between atoms: C9_9  and  C11_11 
ROOT
HETATM    1  C1  UNL     1     -33.878  16.282  -2.279  1.00 20.00    -0.021 C 
HETATM    2  C2  UNL     1     -35.223  16.385  -2.196  1.00 20.00    -0.020 C 
HETATM    3  C5  UNL     1     -34.114  14.608  -4.076  1.00 20.00    -0.003 C 
HETATM    4  C6  UNL     1     -35.452  14.721  -3.990  1.00 20.00     0.024 C 
HETATM    5  C8  UNL     1     -33.365  15.875  -3.663  1.00 20.00     0.039 C 
HETATM    6  C9  UNL     1     -35.956  16.072  -3.504  1.00 20.00     0.056 C 
ENDROOT
BRANCH   4   7
HETATM    7  C7  UNL     1     -36.373  13.591  -4.363  1.00 20.00     0.205 C 
HETATM    8  O12 UNL     1     -37.593  13.904  -4.495  1.00 20.00    -0.644 OA
HETATM    9  O13 UNL     1     -35.819  12.460  -4.501  1.00 20.00    -0.644 OA
ENDBRANCH   4   7
BRANCH   6  10
HETATM   10  C11 UNL     1     -35.415  17.160  -4.488  1.00 20.00     0.029 A 
HETATM   11  C4  UNL     1     -35.908  18.594  -4.390  1.00 20.00    -0.024 A 
HETATM   12  C3  UNL     1     -36.610  18.538  -5.539  1.00 20.00    -0.024 A 
HETATM   13  C10 UNL     1     -36.232  17.095  -5.832  1.00 20.00     0.028 A 
ENDBRANCH   6  10
TORSDOF 3
ENDMDL
MODEL 2
REMARK VINA RESULT:      -5.4      1.216      3.186
REMARK  3 active torsions:
REMARK  status: ('A' for Active; 'I' for Inactive)
REMARK    1  A    between atoms: C6_6  and  C7_7 
REMARK    2  A    between atoms: C8_8  and  C10_10 
REMARK    3  A    between atoms: C9_9  and  C11_11 
ROOT
HETATM    1  C1  UNL     1     -34.412  16.331  -6.936  1.00 20.00    -0.021 C 
HETATM    2  C2  UNL     1     -33.777  15.387  -6.206  1.00 20.00    -0.020 C 
HETATM    3  C5  UNL     1     -36.546  15.742  -5.848  1.00 20.00    -0.003 C 
HETATM    4  C6  UNL     1     -35.906  14.807  -5.122  1.00 20.00     0.024 C 
HETATM    5  C8  UNL     1     -35.656  16.914  -6.260  1.00 20.00     0.039 C 
HETATM    6  C9  UNL     1     -34.435  15.094  -4.854  1.00 20.00     0.056 C 
ENDROOT
BRANCH   4   7
HETATM    7  C7  UNL     1     -36.607  13.579  -4.607  1.00 20.00     0.205 C 
HETATM    8  O12 UNL     1     -35.872  12.559  -4.449  1.00 20.00    -0.644 OA
HETATM    9  O13 UNL     1     -37.848  13.710  -4.394  1.00 20.00    -0.644 OA
ENDBRANCH   4   7
BRANCH   6  10
HETATM   10  C11 UNL     1     -34.349  16.465  -4.109  1.00 20.00     0.029 A 
HETATM   11  C4  UNL     1     -33.050  16.899  -3.452  1.00 20.00    -0.024 A 
HETATM   12  C3  UNL     1     -33.517  16.749  -2.196  1.00 20.00    -0.024 A 
HETATM   13  C10 UNL     1     -34.896  16.293  -2.642  1.00 20.00     0.028 A 
ENDBRANCH   6  10
TORSDOF 3
ENDMDL
MODEL 3
REMARK VINA RESULT:      -5.3      1.343      1.752
REMARK  3 active torsions:
REMARK  status: ('A' for Active; 'I' for Inactive)
REMARK    1  A    between atoms: C6_6  and  C7_7 
REMARK    2  A    between atoms: C8_8  and  C10_10 
REMARK    3  A    between atoms: C9_9  and  C11_11 
ROOT
HETATM    1  C1  UNL     1     -33.359  16.446  -3.603  1.00 20.00    -0.021 C 
HETATM    2  C2  UNL     1     -34.071  15.887  -2.599  1.00 20.00    -0.020 C 
HETATM    3  C5  UNL     1     -34.920  15.481  -5.252  1.00 20.00    -0.003 C 
HETATM    4  C6  UNL     1     -35.626  14.932  -4.246  1.00 20.00     0.024 C 
HETATM    5  C8  UNL     1     -34.183  16.760  -4.856  1.00 20.00     0.039 C 
HETATM    6  C9  UNL     1     -35.553  15.681  -2.923  1.00 20.00     0.056 C 
ENDROOT
BRANCH   4   7
HETATM    7  C7  UNL     1     -36.434  13.676  -4.432  1.00 20.00     0.205 C 
HETATM    8  O12 UNL     1     -37.689  13.839  -4.482  1.00 20.00    -0.644 OA
HETATM    9  O13 UNL     1     -35.763  12.605  -4.515  1.00 20.00    -0.644 OA
ENDBRANCH   4   7
BRANCH   6  10
HETATM   10  C11 UNL     1     -36.072  17.134  -3.174  1.00 20.00     0.029 A 
HETATM   11  C4  UNL     1     -36.303  18.077  -2.006  1.00 20.00    -0.024 A 
HETATM   12  C3  UNL     1     -37.646  18.054  -2.122  1.00 20.00    -0.024 A 
HETATM   13  C10 UNL     1     -37.640  17.110  -3.312  1.00 20.00     0.028 A 
ENDBRANCH   6  10
TORSDOF 3
ENDMDL
MODEL 4
REMARK VINA RESULT:      -4.9      1.296      1.805
REMARK  3 active torsions:
REMARK  status: ('A' for Active; 'I' for Inactive)
REMARK    1  A    between atoms: C6_6  and  C7_7 
REMARK    2  A    between atoms: C8_8  and  C10_10 
REMARK    3  A    between atoms: C9_9  and  C11_11 
ROOT
HETATM    1  C1  UNL     1     -34.008  17.181  -1.468  1.00 20.00    -0.021 C 
HETATM    2  C2  UNL     1     -35.127  16.423  -1.500  1.00 20.00    -0.020 C 
HETATM    3  C5  UNL     1     -33.139  15.989  -3.445  1.00 20.00    -0.003 C 
HETATM    4  C6  UNL     1     -34.258  15.241  -3.473  1.00 20.00     0.024 C 
HETATM    5  C8  UNL     1     -33.343  17.374  -2.834  1.00 20.00     0.039 C 
HETATM    6  C9  UNL     1     -35.496  15.912  -2.896  1.00 20.00     0.056 C 
ENDROOT
BRANCH   4   7
HETATM    7  C7  UNL     1     -34.273  13.850  -4.047  1.00 20.00     0.205 C 
HETATM    8  O12 UNL     1     -33.138  13.363  -4.325  1.00 20.00    -0.644 OA
HETATM    9  O13 UNL     1     -35.421  13.332  -4.185  1.00 20.00    -0.644 OA
ENDBRANCH   4   7
BRANCH   6  10
HETATM   10  C11 UNL     1     -35.741  17.227  -3.706  1.00 20.00     0.029 A 
HETATM   11  C4  UNL     1     -37.019  18.023  -3.504  1.00 20.00    -0.024 A 
HETATM   12  C3  UNL     1     -37.526  17.710  -4.713  1.00 20.00    -0.024 A 
HETATM   13  C10 UNL     1     -36.331  16.863  -5.119  1.00 20.00     0.028 A 
ENDBRANCH   6  10
TORSDOF 3
ENDMDL
MODEL 5
REMARK VINA RESULT:      -4.8      1.596      2.399
REMARK  3 active torsions:
REMARK  status: ('A' for Active; 'I' for Inactive)
REMARK    1  A    between atoms: C6_6  and  C7_7 
REMARK    2  A    between atoms: C8_8  and  C10_10 
REMARK    3  A    between atoms: C9_9  and  C11_11 
ROOT
HETATM    1  C1  UNL     1     -35.812  17.785  -3.829  1.00 20.00    -0.021 C 
HETATM    2  C2  UNL     1     -36.572  17.387  -4.874  1.00 20.00    -0.020 C 
HETATM    3  C5  UNL     1     -35.264  15.432  -3.328  1.00 20.00    -0.003 C 
HETATM    4  C6  UNL     1     -36.018  15.045  -4.373  1.00 20.00     0.024 C 
HETATM    5  C8  UNL     1     -34.665  16.829  -3.489  1.00 20.00     0.039 C 
HETATM    6  C9  UNL     1     -36.129  16.062  -5.501  1.00 20.00     0.056 C 
ENDROOT
BRANCH   4   7
HETATM    7  C7  UNL     1     -36.688  13.698  -4.418  1.00 20.00     0.205 C 
HETATM    8  O12 UNL     1     -37.951  13.721  -4.517  1.00 20.00    -0.644 OA
HETATM    9  O13 UNL     1     -35.910  12.701  -4.350  1.00 20.00    -0.644 OA
ENDBRANCH   4   7
BRANCH   6  10
HETATM   10  C11 UNL     1     -34.681  16.368  -6.004  1.00 20.00     0.029 A 
HETATM   11  C4  UNL     1     -34.463  16.996  -7.370  1.00 20.00    -0.024 A 
HETATM   12  C3  UNL     1     -33.937  15.880  -7.912  1.00 20.00    -0.024 A 
HETATM   13  C10 UNL     1     -34.065  15.064  -6.636  1.00 20.00     0.028 A 
ENDBRANCH   6  10
TORSDOF 3
ENDMDL
MODEL 6
REMARK VINA RESULT:      -4.6      1.382      2.624
REMARK  3 active torsions:
REMARK  status: ('A' for Active; 'I' for Inactive)
REMARK    1  A    between atoms: C6_6  and  C7_7 
REMARK    2  A    between atoms: C8_8  and  C10_10 
REMARK    3  A    between atoms: C9_9  and  C11_11 
ROOT
HETATM    1  C1  UNL     1     -33.060  16.099  -5.025  1.00 20.00    -0.021 C 
HETATM    2  C2  UNL     1     -33.108  15.230  -3.991  1.00 20.00    -0.020 C 
HETATM    3  C5  UNL     1     -35.435  15.648  -5.519  1.00 20.00    -0.003 C 
HETATM    4  C6  UNL     1     -35.476  14.789  -4.484  1.00 20.00     0.024 C 
HETATM    5  C8  UNL     1     -34.402  16.762  -5.350  1.00 20.00     0.039 C 
HETATM    6  C9  UNL     1     -34.496  15.088  -3.358  1.00 20.00     0.056 C 
ENDROOT
BRANCH   4   7
HETATM    7  C7  UNL     1     -36.434  13.629  -4.448  1.00 20.00     0.205 C 
HETATM    8  O12 UNL     1     -37.662  13.938  -4.406  1.00 20.00    -0.644 OA
HETATM    9  O13 UNL     1     -35.899  12.481  -4.464  1.00 20.00    -0.644 OA
ENDBRANCH   4   7
BRANCH   6  10
HETATM   10  C11 UNL     1     -34.802  16.529  -2.836  1.00 20.00     0.029 A 
HETATM   11  C4  UNL     1     -34.076  17.071  -1.616  1.00 20.00    -0.024 A 
HETATM   12  C3  UNL     1     -35.166  17.032  -0.824  1.00 20.00    -0.024 A 
HETATM   13  C10 UNL     1     -36.076  16.486  -1.912  1.00 20.00     0.028 A 
ENDBRANCH   6  10
TORSDOF 3
ENDMDL
MODEL 7
REMARK VINA RESULT:      -4.6      1.143      3.224
REMARK  3 active torsions:
REMARK  status: ('A' for Active; 'I' for Inactive)
REMARK    1  A    between atoms: C6_6  and  C7_7 
REMARK    2  A    between atoms: C8_8  and  C10_10 
REMARK    3  A    between atoms: C9_9  and  C11_11 
ROOT
HETATM    1  C1  UNL     1     -36.432  18.130  -5.597  1.00 20.00    -0.021 C 
HETATM    2  C2  UNL     1     -35.458  17.242  -5.898  1.00 20.00    -0.020 C 
HETATM    3  C5  UNL     1     -37.554  16.432  -4.203  1.00 20.00    -0.003 C 
HETATM    4  C6  UNL     1     -36.577  15.556  -4.503  1.00 20.00     0.024 C 
HETATM    5  C8  UNL     1     -37.100  17.891  -4.240  1.00 20.00     0.039 C 
HETATM    6  C9  UNL     1     -35.225  16.179  -4.820  1.00 20.00     0.056 C 
ENDROOT
BRANCH   4   7
HETATM    7  C7  UNL     1     -36.814  14.069  -4.510  1.00 20.00     0.205 C 
HETATM    8  O12 UNL     1     -35.774  13.353  -4.612  1.00 20.00    -0.644 OA
HETATM    9  O13 UNL     1     -38.025  13.711  -4.414  1.00 20.00    -0.644 OA
ENDBRANCH   4   7
BRANCH   6  10
HETATM   10  C11 UNL     1     -34.790  17.020  -3.575  1.00 20.00     0.029 A 
HETATM   11  C4  UNL     1     -33.385  17.591  -3.491  1.00 20.00    -0.024 A 
HETATM   12  C3  UNL     1     -32.995  16.755  -2.507  1.00 20.00    -0.024 A 
HETATM   13  C10 UNL     1     -34.337  16.046  -2.424  1.00 20.00     0.028 A 
ENDBRANCH   6  10
TORSDOF 3
ENDMDL
MODEL 8
REMARK VINA RESULT:      -4.5      3.440      4.401
REMARK  3 active torsions:
REMARK  status: ('A' for Active; 'I' for Inactive)
REMARK    1  A    between atoms: C6_6  and  C7_7 
REMARK    2  A    between atoms: C8_8  and  C10_10 
REMARK    3  A    between atoms: C9_9  and  C11_11 
ROOT
HETATM    1  C1  UNL     1     -34.380  15.050  -3.232  1.00 20.00    -0.021 C 
HETATM    2  C2  UNL     1     -33.236  15.620  -3.672  1.00 20.00    -0.020 C 
HETATM    3  C5  UNL     1     -34.591  16.800  -1.505  1.00 20.00    -0.003 C 
HETATM    4  C6  UNL     1     -33.454  17.364  -1.953  1.00 20.00     0.024 C 
HETATM    5  C8  UNL     1     -35.359  16.032  -2.581  1.00 20.00     0.039 C 
HETATM    6  C9  UNL     1     -33.155  17.130  -3.427  1.00 20.00     0.056 C 
ENDROOT
BRANCH   4   7
HETATM    7  C7  UNL     1     -32.559  18.175  -1.056  1.00 20.00     0.205 C 
HETATM    8  O12 UNL     1     -31.548  18.691  -1.618  1.00 20.00    -0.644 OA
HETATM    9  O13 UNL     1     -32.923  18.246   0.155  1.00 20.00    -0.644 OA
ENDBRANCH   4   7
BRANCH   6  10
HETATM   10  C11 UNL     1     -34.360  17.692  -4.249  1.00 20.00     0.029 A 
HETATM   11  C4  UNL     1     -34.294  17.746  -5.766  1.00 20.00    -0.024 A 
HETATM   12  C3  UNL     1     -34.207  19.090  -5.815  1.00 20.00    -0.024 A 
HETATM   13  C10 UNL     1     -34.262  19.262  -4.306  1.00 20.00     0.028 A 
ENDBRANCH   6  10
TORSDOF 3
ENDMDL
MODEL 9
REMARK VINA RESULT:      -4.5      2.320      3.670
REMARK  3 active torsions:
REMARK  status: ('A' for Active; 'I' for Inactive)
REMARK    1  A    between atoms: C6_6  and  C7_7 
REMARK    2  A    between atoms: C8_8  and  C10_10 
REMARK    3  A    between atoms: C9_9  and  C11_11 
ROOT
HETATM    1  C1  UNL     1     -37.503  14.751  -4.406  1.00 20.00    -0.021 C 
HETATM    2  C2  UNL     1     -37.146  16.054  -4.453  1.00 20.00    -0.020 C 
HETATM    3  C5  UNL     1     -35.552  14.162  -5.796  1.00 20.00    -0.003 C 
HETATM    4  C6  UNL     1     -35.201  15.461  -5.834  1.00 20.00     0.024 C 
HETATM    5  C8  UNL     1     -36.330  13.775  -4.540  1.00 20.00     0.039 C 
HETATM    6  C9  UNL     1     -35.642  16.284  -4.633  1.00 20.00     0.056 C 
ENDROOT
BRANCH   4   7
HETATM    7  C7  UNL     1     -34.417  16.042  -6.981  1.00 20.00     0.205 C 
HETATM    8  O12 UNL     1     -34.423  17.306  -7.059  1.00 20.00    -0.644 OA
HETATM    9  O13 UNL     1     -33.846  15.198  -7.732  1.00 20.00    -0.644 OA
ENDBRANCH   4   7
BRANCH   6  10
HETATM   10  C11 UNL     1     -35.023  15.627  -3.357  1.00 20.00     0.029 A 
HETATM   11  C4  UNL     1     -35.168  16.300  -2.002  1.00 20.00    -0.024 A 
HETATM   12  C3  UNL     1     -33.866  16.638  -1.918  1.00 20.00    -0.024 A 
HETATM   13  C10 UNL     1     -33.502  16.018  -3.258  1.00 20.00     0.028 A 
ENDBRANCH   6  10
TORSDOF 3
ENDMDL
