MODEL 1
REMARK VINA RESULT:      -5.3      0.000      0.000
REMARK  0 active torsions:
REMARK  status: ('A' for Active; 'I' for Inactive)
ROOT
HETATM    1  C1  UNL     1     -33.639   7.259   5.846  1.00 20.00    -0.021 C 
HETATM    2  C2  UNL     1     -32.397   8.069   3.492  1.00 20.00    -0.021 C 
HETATM    3  C3  UNL     1     -34.416   6.147   5.892  1.00 20.00    -0.018 C 
HETATM    4  C4  UNL     1     -32.401   7.287   2.369  1.00 20.00    -0.024 C 
HETATM    5  C5  UNL     1     -34.145   4.270   3.746  1.00 20.00     0.135 C 
HETATM    6  C6  UNL     1     -33.688   4.721   2.325  1.00 20.00     0.087 C 
HETATM    7  C7  UNL     1     -32.782   7.195   4.648  1.00 20.00     0.036 C 
HETATM    8  C8  UNL     1     -34.600   5.481   4.562  1.00 20.00     0.083 C 
HETATM    9  C9  UNL     1     -32.834   5.890   2.762  1.00 20.00     0.021 C 
HETATM   10  C10 UNL     1     -33.784   6.468   3.787  1.00 20.00     0.020 C 
HETATM   11  O11 UNL     1     -34.208   3.110   4.125  1.00 20.00    -0.297 OA
ENDROOT
TORSDOF 0
ENDMDL
MODEL 2
REMARK VINA RESULT:      -5.2     16.531     17.142
REMARK  0 active torsions:
REMARK  status: ('A' for Active; 'I' for Inactive)
ROOT
HETATM    1  C1  UNL     1     -25.596  18.968  10.157  1.00 20.00    -0.021 C 
HETATM    2  C2  UNL     1     -24.061  17.881  12.207  1.00 20.00    -0.021 C 
HETATM    3  C3  UNL     1     -25.057  19.263   8.947  1.00 20.00    -0.018 C 
HETATM    4  C4  UNL     1     -22.773  17.466  12.000  1.00 20.00    -0.024 C 
HETATM    5  C5  UNL     1     -22.533  18.069   8.310  1.00 20.00     0.135 C 
HETATM    6  C6  UNL     1     -21.519  17.667   9.426  1.00 20.00     0.087 C 
HETATM    7  C7  UNL     1     -24.705  18.027  10.861  1.00 20.00     0.036 C 
HETATM    8  C8  UNL     1     -23.577  19.035   8.870  1.00 20.00     0.083 C 
HETATM    9  C9  UNL     1     -22.535  17.374  10.507  1.00 20.00     0.021 C 
HETATM   10  C10 UNL     1     -23.424  18.577  10.287  1.00 20.00     0.020 C 
HETATM   11  O11 UNL     1     -22.456  17.726   7.140  1.00 20.00    -0.297 OA
ENDROOT
TORSDOF 0
ENDMDL
MODEL 3
REMARK VINA RESULT:      -5.1     11.891     12.454
REMARK  0 active torsions:
REMARK  status: ('A' for Active; 'I' for Inactive)
ROOT
HETATM    1  C1  UNL     1     -35.588  17.207  -2.494  1.00 20.00    -0.021 C 
HETATM    2  C2  UNL     1     -33.356  15.763  -3.313  1.00 20.00    -0.021 C 
HETATM    3  C3  UNL     1     -36.817  16.972  -3.020  1.00 20.00    -0.018 C 
HETATM    4  C4  UNL     1     -33.464  14.676  -4.139  1.00 20.00    -0.024 C 
HETATM    5  C5  UNL     1     -37.196  14.499  -4.412  1.00 20.00     0.135 C 
HETATM    6  C6  UNL     1     -36.009  13.768  -5.110  1.00 20.00     0.087 C 
HETATM    7  C7  UNL     1     -34.722  16.044  -2.764  1.00 20.00     0.036 C 
HETATM    8  C8  UNL     1     -36.823  15.952  -4.117  1.00 20.00     0.083 C 
HETATM    9  C9  UNL     1     -34.917  14.251  -4.181  1.00 20.00     0.021 C 
HETATM   10  C10 UNL     1     -35.347  15.698  -4.092  1.00 20.00     0.020 C 
HETATM   11  O11 UNL     1     -38.295  14.005  -4.203  1.00 20.00    -0.297 OA
ENDROOT
TORSDOF 0
ENDMDL
MODEL 4
REMARK VINA RESULT:      -5.1     11.827     12.371
REMARK  0 active torsions:
REMARK  status: ('A' for Active; 'I' for Inactive)
ROOT
HETATM    1  C1  UNL     1     -32.598  15.437  -3.651  1.00 20.00    -0.021 C 
HETATM    2  C2  UNL     1     -34.357  16.830  -2.007  1.00 20.00    -0.021 C 
HETATM    3  C3  UNL     1     -33.021  14.416  -4.439  1.00 20.00    -0.018 C 
HETATM    4  C4  UNL     1     -35.710  16.635  -2.070  1.00 20.00    -0.024 C 
HETATM    5  C5  UNL     1     -35.834  14.220  -4.932  1.00 20.00     0.135 C 
HETATM    6  C6  UNL     1     -36.879  14.768  -3.911  1.00 20.00     0.087 C 
HETATM    7  C7  UNL     1     -33.763  16.250  -3.255  1.00 20.00     0.036 C 
HETATM    8  C8  UNL     1     -34.468  14.072  -4.261  1.00 20.00     0.083 C 
HETATM    9  C9  UNL     1     -36.025  15.879  -3.345  1.00 20.00     0.021 C 
HETATM   10  C10 UNL     1     -34.736  15.100  -3.206  1.00 20.00     0.020 C 
HETATM   11  O11 UNL     1     -36.089  13.881  -6.078  1.00 20.00    -0.297 OA
ENDROOT
TORSDOF 0
ENDMDL
MODEL 5
REMARK VINA RESULT:      -4.8      1.134      2.078
REMARK  0 active torsions:
REMARK  status: ('A' for Active; 'I' for Inactive)
ROOT
HETATM    1  C1  UNL     1     -34.971   5.264   5.956  1.00 20.00    -0.021 C 
HETATM    2  C2  UNL     1     -33.421   7.569   6.090  1.00 20.00    -0.021 C 
HETATM    3  C3  UNL     1     -35.174   4.611   4.783  1.00 20.00    -0.018 C 
HETATM    4  C4  UNL     1     -32.693   8.011   5.018  1.00 20.00    -0.024 C 
HETATM    5  C5  UNL     1     -33.393   5.215   2.624  1.00 20.00     0.135 C 
HETATM    6  C6  UNL     1     -32.685   6.601   2.518  1.00 20.00     0.087 C 
HETATM    7  C7  UNL     1     -33.797   6.144   5.818  1.00 20.00     0.036 C 
HETATM    8  C8  UNL     1     -34.570   5.298   3.596  1.00 20.00     0.083 C 
HETATM    9  C9  UNL     1     -32.616   6.893   4.000  1.00 20.00     0.021 C 
HETATM   10  C10 UNL     1     -34.019   6.461   4.361  1.00 20.00     0.020 C 
HETATM   11  O11 UNL     1     -33.100   4.228   1.966  1.00 20.00    -0.297 OA
ENDROOT
TORSDOF 0
ENDMDL
MODEL 6
REMARK VINA RESULT:      -4.8     11.806     12.672
REMARK  0 active torsions:
REMARK  status: ('A' for Active; 'I' for Inactive)
ROOT
HETATM    1  C1  UNL     1     -36.927  17.795  -2.547  1.00 20.00    -0.021 C 
HETATM    2  C2  UNL     1     -34.266  17.052  -2.226  1.00 20.00    -0.021 C 
HETATM    3  C3  UNL     1     -37.752  17.132  -3.398  1.00 20.00    -0.018 C 
HETATM    4  C4  UNL     1     -33.765  15.908  -2.786  1.00 20.00    -0.024 C 
HETATM    5  C5  UNL     1     -36.919  14.535  -4.271  1.00 20.00     0.135 C 
HETATM    6  C6  UNL     1     -35.410  14.148  -4.348  1.00 20.00     0.087 C 
HETATM    7  C7  UNL     1     -35.761  16.944  -2.250  1.00 20.00     0.036 C 
HETATM    8  C8  UNL     1     -37.071  16.054  -4.185  1.00 20.00     0.083 C 
HETATM    9  C9  UNL     1     -34.928  15.044  -3.229  1.00 20.00     0.021 C 
HETATM   10  C10 UNL     1     -35.711  16.283  -3.604  1.00 20.00     0.020 C 
HETATM   11  O11 UNL     1     -37.848  13.744  -4.349  1.00 20.00    -0.297 OA
ENDROOT
TORSDOF 0
ENDMDL
MODEL 7
REMARK VINA RESULT:      -4.8     12.343     13.307
REMARK  0 active torsions:
REMARK  status: ('A' for Active; 'I' for Inactive)
ROOT
HETATM    1  C1  UNL     1     -34.125  16.366  -2.640  1.00 20.00    -0.021 C 
HETATM    2  C2  UNL     1     -35.774  17.362  -0.634  1.00 20.00    -0.021 C 
HETATM    3  C3  UNL     1     -32.872  16.851  -2.835  1.00 20.00    -0.018 C 
HETATM    4  C4  UNL     1     -35.313  18.244   0.307  1.00 20.00    -0.024 C 
HETATM    5  C5  UNL     1     -31.707  18.366  -0.703  1.00 20.00     0.135 C 
HETATM    6  C6  UNL     1     -32.591  19.156   0.311  1.00 20.00     0.087 C 
HETATM    7  C7  UNL     1     -34.578  16.739  -1.287  1.00 20.00     0.036 C 
HETATM    8  C8  UNL     1     -32.523  18.004  -1.944  1.00 20.00     0.083 C 
HETATM    9  C9  UNL     1     -33.800  18.248   0.255  1.00 20.00     0.021 C 
HETATM   10  C10 UNL     1     -33.845  18.056  -1.244  1.00 20.00     0.020 C 
HETATM   11  O11 UNL     1     -30.514  18.139  -0.562  1.00 20.00    -0.297 OA
ENDROOT
TORSDOF 0
ENDMDL
MODEL 8
REMARK VINA RESULT:      -4.8      1.805      3.804
REMARK  0 active torsions:
REMARK  status: ('A' for Active; 'I' for Inactive)
ROOT
HETATM    1  C1  UNL     1     -34.116   4.113   3.145  1.00 20.00    -0.021 C 
HETATM    2  C2  UNL     1     -35.111   4.821   5.644  1.00 20.00    -0.021 C 
HETATM    3  C3  UNL     1     -33.401   4.987   2.392  1.00 20.00    -0.018 C 
HETATM    4  C4  UNL     1     -34.769   6.002   6.248  1.00 20.00    -0.024 C 
HETATM    5  C5  UNL     1     -32.313   7.277   3.723  1.00 20.00     0.135 C 
HETATM    6  C6  UNL     1     -32.984   7.871   4.999  1.00 20.00     0.087 C 
HETATM    7  C7  UNL     1     -34.122   4.579   4.544  1.00 20.00     0.036 C 
HETATM    8  C8  UNL     1     -33.290   6.355   2.993  1.00 20.00     0.083 C 
HETATM    9  C9  UNL     1     -33.572   6.580   5.522  1.00 20.00     0.021 C 
HETATM   10  C10 UNL     1     -34.106   6.050   4.210  1.00 20.00     0.020 C 
HETATM   11  O11 UNL     1     -31.196   7.569   3.320  1.00 20.00    -0.297 OA
ENDROOT
TORSDOF 0
ENDMDL
MODEL 9
REMARK VINA RESULT:      -4.7      1.843      3.026
REMARK  0 active torsions:
REMARK  status: ('A' for Active; 'I' for Inactive)
ROOT
HETATM    1  C1  UNL     1     -33.582   7.377   5.975  1.00 20.00    -0.021 C 
HETATM    2  C2  UNL     1     -34.846   4.943   5.510  1.00 20.00    -0.021 C 
HETATM    3  C3  UNL     1     -32.708   7.905   5.081  1.00 20.00    -0.018 C 
HETATM    4  C4  UNL     1     -34.747   4.298   4.306  1.00 20.00    -0.024 C 
HETATM    5  C5  UNL     1     -32.762   6.854   2.418  1.00 20.00     0.135 C 
HETATM    6  C6  UNL     1     -33.230   5.394   2.129  1.00 20.00     0.087 C 
HETATM    7  C7  UNL     1     -34.405   6.360   5.296  1.00 20.00     0.036 C 
HETATM    8  C8  UNL     1     -32.437   7.020   3.903  1.00 20.00     0.083 C 
HETATM    9  C9  UNL     1     -34.196   5.273   3.286  1.00 20.00     0.021 C 
HETATM   10  C10 UNL     1     -33.324   5.900   4.351  1.00 20.00     0.020 C 
HETATM   11  O11 UNL     1     -32.601   7.717   1.568  1.00 20.00    -0.297 OA
ENDROOT
TORSDOF 0
ENDMDL
