MODEL 1
REMARK VINA RESULT:      -5.6      0.000      0.000
REMARK  3 active torsions:
REMARK  status: ('A' for Active; 'I' for Inactive)
REMARK    1  A    between atoms: C6_6  and  C7_7 
REMARK    2  A    between atoms: C8_8  and  C10_10 
REMARK    3  A    between atoms: C9_9  and  C11_11 
ROOT
HETATM    1  C1  UNL     1     -34.784  16.838  -6.361  1.00 20.00    -0.021 C 
HETATM    2  C2  UNL     1     -34.034  15.779  -5.968  1.00 20.00    -0.020 C 
HETATM    3  C5  UNL     1     -36.674  16.115  -4.992  1.00 20.00    -0.003 C 
HETATM    4  C6  UNL     1     -35.998  14.962  -4.783  1.00 20.00     0.024 C 
HETATM    5  C8  UNL     1     -35.775  17.325  -5.264  1.00 20.00     0.039 C 
HETATM    6  C9  UNL     1     -34.465  15.150  -4.640  1.00 20.00     0.056 C 
ENDROOT
BRANCH   4   7
HETATM    7  C7  UNL     1     -36.683  13.637  -4.573  1.00 20.00     0.205 C 
HETATM    8  O12 UNL     1     -37.942  13.689  -4.452  1.00 20.00    -0.644 OA
HETATM    9  O13 UNL     1     -35.917  12.629  -4.543  1.00 20.00    -0.644 OA
ENDBRANCH   4   7
BRANCH   6  10
HETATM   10  C11 UNL     1     -34.495  16.162  -3.474  1.00 20.00     0.029 C 
HETATM   11  C4  UNL     1     -34.655  16.263  -1.980  1.00 20.00    -0.024 C 
HETATM   12  C3  UNL     1     -33.658  17.230  -2.024  1.00 20.00    -0.024 C 
HETATM   13  C10 UNL     1     -32.980  16.353  -3.043  1.00 20.00     0.028 C 
ENDBRANCH   6  10
TORSDOF 3
ENDMDL
MODEL 2
REMARK VINA RESULT:      -5.6      0.947      3.008
REMARK  3 active torsions:
REMARK  status: ('A' for Active; 'I' for Inactive)
REMARK    1  A    between atoms: C6_6  and  C7_7 
REMARK    2  A    between atoms: C8_8  and  C10_10 
REMARK    3  A    between atoms: C9_9  and  C11_11 
ROOT
HETATM    1  C1  UNL     1     -34.043  16.300  -2.286  1.00 20.00    -0.021 C 
HETATM    2  C2  UNL     1     -35.341  16.604  -2.533  1.00 20.00    -0.020 C 
HETATM    3  C5  UNL     1     -34.048  14.533  -3.973  1.00 20.00    -0.003 C 
HETATM    4  C6  UNL     1     -35.388  14.701  -4.052  1.00 20.00     0.024 C 
HETATM    5  C8  UNL     1     -33.285  15.790  -3.547  1.00 20.00     0.039 C 
HETATM    6  C9  UNL     1     -35.844  16.178  -3.915  1.00 20.00     0.056 C 
ENDROOT
BRANCH   4   7
HETATM    7  C7  UNL     1     -36.338  13.579  -4.379  1.00 20.00     0.205 C 
HETATM    8  O12 UNL     1     -37.553  13.912  -4.501  1.00 20.00    -0.644 OA
HETATM    9  O13 UNL     1     -35.808  12.434  -4.493  1.00 20.00    -0.644 OA
ENDBRANCH   4   7
BRANCH   6  10
HETATM   10  C11 UNL     1     -34.999  16.756  -5.071  1.00 20.00     0.029 C 
HETATM   11  C4  UNL     1     -34.972  16.925  -6.567  1.00 20.00    -0.024 C 
HETATM   12  C3  UNL     1     -34.454  18.193  -6.329  1.00 20.00    -0.024 C 
HETATM   13  C10 UNL     1     -35.433  18.278  -5.188  1.00 20.00     0.028 C 
ENDBRANCH   6  10
TORSDOF 3
ENDMDL
MODEL 3
REMARK VINA RESULT:      -5.2      1.253      2.878
REMARK  3 active torsions:
REMARK  status: ('A' for Active; 'I' for Inactive)
REMARK    1  A    between atoms: C6_6  and  C7_7 
REMARK    2  A    between atoms: C8_8  and  C10_10 
REMARK    3  A    between atoms: C9_9  and  C11_11 
ROOT
HETATM    1  C1  UNL     1     -33.419  16.138  -3.050  1.00 20.00    -0.021 C 
HETATM    2  C2  UNL     1     -34.521  15.974  -2.278  1.00 20.00    -0.020 C 
HETATM    3  C5  UNL     1     -34.551  15.217  -5.009  1.00 20.00    -0.003 C 
HETATM    4  C6  UNL     1     -35.559  14.862  -4.180  1.00 20.00     0.024 C 
HETATM    5  C8  UNL     1     -33.757  16.439  -4.540  1.00 20.00     0.039 C 
HETATM    6  C9  UNL     1     -35.838  15.894  -3.055  1.00 20.00     0.056 C 
ENDROOT
BRANCH   4   7
HETATM    7  C7  UNL     1     -36.419  13.647  -4.408  1.00 20.00     0.205 C 
HETATM    8  O12 UNL     1     -35.797  12.548  -4.490  1.00 20.00    -0.644 OA
HETATM    9  O13 UNL     1     -37.663  13.870  -4.489  1.00 20.00    -0.644 OA
ENDBRANCH   4   7
BRANCH   6  10
HETATM   10  C11 UNL     1     -36.080  17.119  -3.962  1.00 20.00     0.029 C 
HETATM   11  C4  UNL     1     -37.126  17.794  -4.810  1.00 20.00    -0.024 C 
HETATM   12  C3  UNL     1     -36.637  18.994  -4.307  1.00 20.00    -0.024 C 
HETATM   13  C10 UNL     1     -36.523  18.287  -2.983  1.00 20.00     0.028 C 
ENDBRANCH   6  10
TORSDOF 3
ENDMDL
MODEL 4
REMARK VINA RESULT:      -5.0      1.004      3.326
REMARK  3 active torsions:
REMARK  status: ('A' for Active; 'I' for Inactive)
REMARK    1  A    between atoms: C6_6  and  C7_7 
REMARK    2  A    between atoms: C8_8  and  C10_10 
REMARK    3  A    between atoms: C9_9  and  C11_11 
ROOT
HETATM    1  C1  UNL     1     -34.810  17.275  -3.481  1.00 20.00    -0.021 C 
HETATM    2  C2  UNL     1     -35.943  17.245  -4.225  1.00 20.00    -0.020 C 
HETATM    3  C5  UNL     1     -34.347  14.920  -3.939  1.00 20.00    -0.003 C 
HETATM    4  C6  UNL     1     -35.580  14.851  -4.491  1.00 20.00     0.024 C 
HETATM    5  C8  UNL     1     -33.707  16.310  -4.009  1.00 20.00     0.039 C 
HETATM    6  C9  UNL     1     -35.989  16.128  -5.272  1.00 20.00     0.056 C 
ENDROOT
BRANCH   4   7
HETATM    7  C7  UNL     1     -36.421  13.603  -4.466  1.00 20.00     0.205 C 
HETATM    8  O12 UNL     1     -35.778  12.512  -4.475  1.00 20.00    -0.644 OA
HETATM    9  O13 UNL     1     -37.673  13.792  -4.437  1.00 20.00    -0.644 OA
ENDBRANCH   4   7
BRANCH   6  10
HETATM   10  C11 UNL     1     -34.791  16.161  -6.245  1.00 20.00     0.029 C 
HETATM   11  C4  UNL     1     -34.238  15.513  -7.487  1.00 20.00    -0.024 C 
HETATM   12  C3  UNL     1     -33.837  16.787  -7.871  1.00 20.00    -0.024 C 
HETATM   13  C10 UNL     1     -35.155  17.267  -7.323  1.00 20.00     0.028 C 
ENDBRANCH   6  10
TORSDOF 3
ENDMDL
MODEL 5
REMARK VINA RESULT:      -4.8      0.956      1.123
REMARK  3 active torsions:
REMARK  status: ('A' for Active; 'I' for Inactive)
REMARK    1  A    between atoms: C6_6  and  C7_7 
REMARK    2  A    between atoms: C8_8  and  C10_10 
REMARK    3  A    between atoms: C9_9  and  C11_11 
ROOT
HETATM    1  C1  UNL     1     -34.462  16.286  -6.849  1.00 20.00    -0.021 C 
HETATM    2  C2  UNL     1     -34.355  15.051  -6.298  1.00 20.00    -0.020 C 
HETATM    3  C5  UNL     1     -36.448  16.797  -5.521  1.00 20.00    -0.003 C 
HETATM    4  C6  UNL     1     -36.454  15.497  -5.147  1.00 20.00     0.024 C 
HETATM    5  C8  UNL     1     -35.060  17.340  -5.871  1.00 20.00     0.039 C 
HETATM    6  C9  UNL     1     -35.039  14.898  -4.936  1.00 20.00     0.056 C 
ENDROOT
BRANCH   4   7
HETATM    7  C7  UNL     1     -37.718  14.740  -4.834  1.00 20.00     0.205 C 
HETATM    8  O12 UNL     1     -38.796  15.362  -5.064  1.00 20.00    -0.644 OA
HETATM    9  O13 UNL     1     -37.552  13.571  -4.377  1.00 20.00    -0.644 OA
ENDBRANCH   4   7
BRANCH   6  10
HETATM   10  C11 UNL     1     -34.542  15.921  -3.892  1.00 20.00     0.029 C 
HETATM   11  C4  UNL     1     -34.469  16.181  -2.411  1.00 20.00    -0.024 C 
HETATM   12  C3  UNL     1     -33.193  16.680  -2.648  1.00 20.00    -0.024 C 
HETATM   13  C10 UNL     1     -33.027  15.539  -3.617  1.00 20.00     0.028 C 
ENDBRANCH   6  10
TORSDOF 3
ENDMDL
MODEL 6
REMARK VINA RESULT:      -4.7      1.060      1.526
REMARK  3 active torsions:
REMARK  status: ('A' for Active; 'I' for Inactive)
REMARK    1  A    between atoms: C6_6  and  C7_7 
REMARK    2  A    between atoms: C8_8  and  C10_10 
REMARK    3  A    between atoms: C9_9  and  C11_11 
ROOT
HETATM    1  C1  UNL     1     -35.548  17.411  -5.485  1.00 20.00    -0.021 C 
HETATM    2  C2  UNL     1     -34.317  16.889  -5.258  1.00 20.00    -0.020 C 
HETATM    3  C5  UNL     1     -36.633  15.613  -4.237  1.00 20.00    -0.003 C 
HETATM    4  C6  UNL     1     -35.430  14.995  -4.206  1.00 20.00     0.024 C 
HETATM    5  C8  UNL     1     -36.549  17.140  -4.324  1.00 20.00     0.039 C 
HETATM    6  C9  UNL     1     -34.231  15.966  -4.039  1.00 20.00     0.056 C 
ENDROOT
BRANCH   4   7
HETATM    7  C7  UNL     1     -35.277  13.497  -4.198  1.00 20.00     0.205 C 
HETATM    8  O12 UNL     1     -34.112  13.070  -3.944  1.00 20.00    -0.644 OA
HETATM    9  O13 UNL     1     -36.332  12.842  -4.445  1.00 20.00    -0.644 OA
ENDBRANCH   4   7
BRANCH   6  10
HETATM   10  C11 UNL     1     -34.700  16.642  -2.734  1.00 20.00     0.029 C 
HETATM   11  C4  UNL     1     -34.976  16.374  -1.277  1.00 20.00    -0.024 C 
HETATM   12  C3  UNL     1     -34.403  17.616  -1.028  1.00 20.00    -0.024 C 
HETATM   13  C10 UNL     1     -33.390  17.258  -2.084  1.00 20.00     0.028 C 
ENDBRANCH   6  10
TORSDOF 3
ENDMDL
MODEL 7
REMARK VINA RESULT:      -4.6      1.263      1.971
REMARK  3 active torsions:
REMARK  status: ('A' for Active; 'I' for Inactive)
REMARK    1  A    between atoms: C6_6  and  C7_7 
REMARK    2  A    between atoms: C8_8  and  C10_10 
REMARK    3  A    between atoms: C9_9  and  C11_11 
ROOT
HETATM    1  C1  UNL     1     -33.834  14.785  -5.129  1.00 20.00    -0.021 C 
HETATM    2  C2  UNL     1     -34.243  14.372  -3.904  1.00 20.00    -0.020 C 
HETATM    3  C5  UNL     1     -35.936  15.967  -5.523  1.00 20.00    -0.003 C 
HETATM    4  C6  UNL     1     -36.407  15.371  -4.403  1.00 20.00     0.024 C 
HETATM    5  C8  UNL     1     -34.418  16.171  -5.531  1.00 20.00     0.039 C 
HETATM    6  C9  UNL     1     -35.348  15.226  -3.278  1.00 20.00     0.056 C 
ENDROOT
BRANCH   4   7
HETATM    7  C7  UNL     1     -37.855  15.006  -4.216  1.00 20.00     0.205 C 
HETATM    8  O12 UNL     1     -38.139  13.788  -4.414  1.00 20.00    -0.644 OA
HETATM    9  O13 UNL     1     -38.617  15.960  -3.881  1.00 20.00    -0.644 OA
ENDBRANCH   4   7
BRANCH   6  10
HETATM   10  C11 UNL     1     -34.969  16.719  -3.166  1.00 20.00     0.029 C 
HETATM   11  C4  UNL     1     -35.393  18.018  -2.534  1.00 20.00    -0.024 C 
HETATM   12  C3  UNL     1     -34.040  18.260  -2.325  1.00 20.00    -0.024 C 
HETATM   13  C10 UNL     1     -33.929  16.800  -1.971  1.00 20.00     0.028 C 
ENDBRANCH   6  10
TORSDOF 3
ENDMDL
MODEL 8
REMARK VINA RESULT:      -4.4      3.630      4.932
REMARK  3 active torsions:
REMARK  status: ('A' for Active; 'I' for Inactive)
REMARK    1  A    between atoms: C6_6  and  C7_7 
REMARK    2  A    between atoms: C8_8  and  C10_10 
REMARK    3  A    between atoms: C9_9  and  C11_11 
ROOT
HETATM    1  C1  UNL     1     -36.088  18.170  -2.731  1.00 20.00    -0.021 C 
HETATM    2  C2  UNL     1     -35.816  17.222  -1.801  1.00 20.00    -0.020 C 
HETATM    3  C5  UNL     1     -33.734  18.801  -2.898  1.00 20.00    -0.003 C 
HETATM    4  C6  UNL     1     -33.512  18.010  -1.823  1.00 20.00     0.024 C 
HETATM    5  C8  UNL     1     -34.930  18.372  -3.752  1.00 20.00     0.039 C 
HETATM    6  C9  UNL     1     -34.369  16.718  -1.807  1.00 20.00     0.056 C 
ENDROOT
BRANCH   4   7
HETATM    7  C7  UNL     1     -32.437  18.291  -0.806  1.00 20.00     0.205 C 
HETATM    8  O12 UNL     1     -32.800  18.220   0.404  1.00 20.00    -0.644 OA
HETATM    9  O13 UNL     1     -31.296  18.564  -1.284  1.00 20.00    -0.644 OA
ENDBRANCH   4   7
BRANCH   6  10
HETATM   10  C11 UNL     1     -33.927  16.167  -3.180  1.00 20.00     0.029 C 
HETATM   11  C4  UNL     1     -32.886  15.307  -3.846  1.00 20.00    -0.024 C 
HETATM   12  C3  UNL     1     -33.920  14.816  -4.636  1.00 20.00    -0.024 C 
HETATM   13  C10 UNL     1     -34.759  14.831  -3.385  1.00 20.00     0.028 C 
ENDBRANCH   6  10
TORSDOF 3
ENDMDL
MODEL 9
REMARK VINA RESULT:      -4.4      1.249      1.784
REMARK  3 active torsions:
REMARK  status: ('A' for Active; 'I' for Inactive)
REMARK    1  A    between atoms: C6_6  and  C7_7 
REMARK    2  A    between atoms: C8_8  and  C10_10 
REMARK    3  A    between atoms: C9_9  and  C11_11 
ROOT
HETATM    1  C1  UNL     1     -37.082  17.877  -4.734  1.00 20.00    -0.021 C 
HETATM    2  C2  UNL     1     -36.012  17.618  -5.525  1.00 20.00    -0.020 C 
HETATM    3  C5  UNL     1     -37.082  15.601  -3.846  1.00 20.00    -0.003 C 
HETATM    4  C6  UNL     1     -36.162  15.301  -4.791  1.00 20.00     0.024 C 
HETATM    5  C8  UNL     1     -37.068  17.067  -3.404  1.00 20.00     0.039 C 
HETATM    6  C9  UNL     1     -35.147  16.442  -5.063  1.00 20.00     0.056 C 
ENDROOT
BRANCH   4   7
HETATM    7  C7  UNL     1     -36.050  13.939  -5.423  1.00 20.00     0.205 C 
HETATM    8  O12 UNL     1     -36.082  12.961  -4.619  1.00 20.00    -0.644 OA
HETATM    9  O13 UNL     1     -35.940  13.932  -6.685  1.00 20.00    -0.644 OA
ENDBRANCH   4   7
BRANCH   6  10
HETATM   10  C11 UNL     1     -34.632  16.601  -3.617  1.00 20.00     0.029 C 
HETATM   11  C4  UNL     1     -33.701  15.991  -2.602  1.00 20.00    -0.024 C 
HETATM   12  C3  UNL     1     -33.377  17.294  -2.241  1.00 20.00    -0.024 C 
HETATM   13  C10 UNL     1     -33.413  17.612  -3.713  1.00 20.00     0.028 C 
ENDBRANCH   6  10
TORSDOF 3
ENDMDL
