MODEL 1
REMARK VINA RESULT:      -4.6      0.000      0.000
REMARK  2 active torsions:
REMARK  status: ('A' for Active; 'I' for Inactive)
REMARK    1  A    between atoms: C6_6  and  C10_10 
REMARK    2  A    between atoms: C10_10  and  O11_11 
ROOT
HETATM    1  C1  UNL     1     -32.943  16.615  -2.820  1.00 20.00    -0.024 C 
HETATM    2  C2  UNL     1     -33.637  15.620  -3.403  1.00 20.00    -0.081 C 
HETATM    3  C3  UNL     1     -33.497  17.517  -1.759  1.00 20.00     0.027 C 
HETATM    4  C4  UNL     1     -34.789  16.988  -1.144  1.00 20.00     0.004 C 
HETATM    5  C5  UNL     1     -35.732  16.482  -2.227  1.00 20.00     0.012 C 
HETATM    6  C6  UNL     1     -35.094  15.346  -3.053  1.00 20.00     0.042 C 
HETATM    7  C7  UNL     1     -32.971  14.706  -4.393  1.00 20.00     0.043 C 
ENDROOT
BRANCH   6   8
HETATM    8  C10 UNL     1     -35.970  15.082  -4.284  1.00 20.00     0.124 C 
HETATM    9  C8  UNL     1     -36.215  13.599  -4.484  1.00 20.00     0.040 C 
BRANCH   8  10
HETATM   10  O11 UNL     1     -37.210  15.755  -4.115  1.00 20.00    -0.390 OA
HETATM   11  C9  UNL     1     -38.310  14.870  -4.282  1.00 20.00     0.202 C 
ENDBRANCH   8  10
ENDBRANCH   6   8
TORSDOF 2
ENDMDL
MODEL 2
REMARK VINA RESULT:      -4.6      1.105      1.388
REMARK  2 active torsions:
REMARK  status: ('A' for Active; 'I' for Inactive)
REMARK    1  A    between atoms: C6_6  and  C10_10 
REMARK    2  A    between atoms: C10_10  and  O11_11 
ROOT
HETATM    1  C1  UNL     1     -32.944  16.388  -3.037  1.00 20.00    -0.024 C 
HETATM    2  C2  UNL     1     -33.573  15.348  -3.616  1.00 20.00    -0.081 C 
HETATM    3  C3  UNL     1     -33.587  17.318  -2.054  1.00 20.00     0.027 C 
HETATM    4  C4  UNL     1     -34.900  16.776  -1.495  1.00 20.00     0.004 C 
HETATM    5  C5  UNL     1     -35.759  16.196  -2.610  1.00 20.00     0.012 C 
HETATM    6  C6  UNL     1     -35.040  15.044  -3.343  1.00 20.00     0.042 C 
HETATM    7  C7  UNL     1     -32.821  14.413  -4.521  1.00 20.00     0.043 C 
ENDROOT
BRANCH   6   8
HETATM    8  C10 UNL     1     -35.830  14.701  -4.612  1.00 20.00     0.124 C 
HETATM    9  C8  UNL     1     -37.276  14.374  -4.293  1.00 20.00     0.040 C 
BRANCH   8  10
HETATM   10  O11 UNL     1     -35.774  15.810  -5.498  1.00 20.00    -0.390 OA
HETATM   11  C9  UNL     1     -35.617  15.391  -6.848  1.00 20.00     0.202 C 
ENDBRANCH   8  10
ENDBRANCH   6   8
TORSDOF 2
ENDMDL
MODEL 3
REMARK VINA RESULT:      -4.3      2.091      4.535
REMARK  2 active torsions:
REMARK  status: ('A' for Active; 'I' for Inactive)
REMARK    1  A    between atoms: C6_6  and  C10_10 
REMARK    2  A    between atoms: C10_10  and  O11_11 
ROOT
HETATM    1  C1  UNL     1     -35.571  15.525  -2.764  1.00 20.00    -0.024 C 
HETATM    2  C2  UNL     1     -34.817  16.349  -2.012  1.00 20.00    -0.081 C 
HETATM    3  C3  UNL     1     -35.055  14.753  -3.940  1.00 20.00     0.027 C 
HETATM    4  C4  UNL     1     -33.530  14.702  -3.995  1.00 20.00     0.004 C 
HETATM    5  C5  UNL     1     -32.937  16.077  -3.716  1.00 20.00     0.012 C 
HETATM    6  C6  UNL     1     -33.349  16.603  -2.325  1.00 20.00     0.042 C 
HETATM    7  C7  UNL     1     -35.399  17.011  -0.794  1.00 20.00     0.043 C 
ENDROOT
BRANCH   6   8
HETATM    8  C10 UNL     1     -32.959  18.083  -2.225  1.00 20.00     0.124 C 
HETATM    9  C8  UNL     1     -31.818  18.292  -1.247  1.00 20.00     0.040 C 
BRANCH   8  10
HETATM   10  O11 UNL     1     -32.576  18.542  -3.513  1.00 20.00    -0.390 OA
HETATM   11  C9  UNL     1     -33.626  19.263  -4.144  1.00 20.00     0.202 C 
ENDBRANCH   8  10
ENDBRANCH   6   8
TORSDOF 2
ENDMDL
MODEL 4
REMARK VINA RESULT:      -4.1      1.740      2.760
REMARK  2 active torsions:
REMARK  status: ('A' for Active; 'I' for Inactive)
REMARK    1  A    between atoms: C6_6  and  C10_10 
REMARK    2  A    between atoms: C10_10  and  O11_11 
ROOT
HETATM    1  C1  UNL     1     -35.451  17.321  -2.635  1.00 20.00    -0.024 C 
HETATM    2  C2  UNL     1     -35.521  17.034  -3.949  1.00 20.00    -0.081 C 
HETATM    3  C3  UNL     1     -34.264  17.019  -1.771  1.00 20.00     0.027 C 
HETATM    4  C4  UNL     1     -33.012  16.686  -2.576  1.00 20.00     0.004 C 
HETATM    5  C5  UNL     1     -33.342  15.726  -3.712  1.00 20.00     0.012 C 
HETATM    6  C6  UNL     1     -34.387  16.325  -4.677  1.00 20.00     0.042 C 
HETATM    7  C7  UNL     1     -36.715  17.458  -4.757  1.00 20.00     0.043 C 
ENDROOT
BRANCH   6   8
HETATM    8  C10 UNL     1     -34.876  15.217  -5.618  1.00 20.00     0.124 C 
HETATM    9  C8  UNL     1     -33.965  15.069  -6.821  1.00 20.00     0.040 C 
BRANCH   8  10
HETATM   10  O11 UNL     1     -34.922  13.993  -4.898  1.00 20.00    -0.390 OA
HETATM   11  C9  UNL     1     -36.260  13.574  -4.667  1.00 20.00     0.202 C 
ENDBRANCH   8  10
ENDBRANCH   6   8
TORSDOF 2
ENDMDL
MODEL 5
REMARK VINA RESULT:      -4.0      1.330      3.588
REMARK  2 active torsions:
REMARK  status: ('A' for Active; 'I' for Inactive)
REMARK    1  A    between atoms: C6_6  and  C10_10 
REMARK    2  A    between atoms: C10_10  and  O11_11 
ROOT
HETATM    1  C1  UNL     1     -35.196  14.683  -5.400  1.00 20.00    -0.024 C 
HETATM    2  C2  UNL     1     -35.832  14.976  -4.251  1.00 20.00    -0.081 C 
HETATM    3  C3  UNL     1     -33.709  14.746  -5.577  1.00 20.00     0.027 C 
HETATM    4  C4  UNL     1     -32.955  14.823  -4.253  1.00 20.00     0.004 C 
HETATM    5  C5  UNL     1     -33.615  15.828  -3.317  1.00 20.00     0.012 C 
HETATM    6  C6  UNL     1     -35.079  15.447  -3.013  1.00 20.00     0.042 C 
HETATM    7  C7  UNL     1     -37.320  14.796  -4.138  1.00 20.00     0.043 C 
ENDROOT
BRANCH   6   8
HETATM    8  C10 UNL     1     -35.757  16.629  -2.309  1.00 20.00     0.124 C 
HETATM    9  C8  UNL     1     -35.175  16.859  -0.927  1.00 20.00     0.040 C 
BRANCH   8  10
HETATM   10  O11 UNL     1     -35.583  17.794  -3.102  1.00 20.00    -0.390 OA
HETATM   11  C9  UNL     1     -36.803  18.506  -3.259  1.00 20.00     0.202 C 
ENDBRANCH   8  10
ENDBRANCH   6   8
TORSDOF 2
ENDMDL
MODEL 6
REMARK VINA RESULT:      -4.0      1.925      3.747
REMARK  2 active torsions:
REMARK  status: ('A' for Active; 'I' for Inactive)
REMARK    1  A    between atoms: C6_6  and  C10_10 
REMARK    2  A    between atoms: C10_10  and  O11_11 
ROOT
HETATM    1  C1  UNL     1     -33.508  18.145   0.783  1.00 20.00    -0.024 C 
HETATM    2  C2  UNL     1     -34.502  17.730  -0.025  1.00 20.00    -0.081 C 
HETATM    3  C3  UNL     1     -32.136  18.513   0.308  1.00 20.00     0.027 C 
HETATM    4  C4  UNL     1     -32.065  18.720  -1.202  1.00 20.00     0.004 C 
HETATM    5  C5  UNL     1     -32.810  17.610  -1.932  1.00 20.00     0.012 C 
HETATM    6  C6  UNL     1     -34.297  17.558  -1.524  1.00 20.00     0.042 C 
HETATM    7  C7  UNL     1     -35.875  17.471   0.528  1.00 20.00     0.043 C 
ENDROOT
BRANCH   6   8
HETATM    8  C10 UNL     1     -34.910  16.263  -2.071  1.00 20.00     0.124 C 
HETATM    9  C8  UNL     1     -36.040  16.550  -3.041  1.00 20.00     0.040 C 
BRANCH   8  10
HETATM   10  O11 UNL     1     -33.894  15.518  -2.727  1.00 20.00    -0.390 OA
HETATM   11  C9  UNL     1     -34.423  14.741  -3.793  1.00 20.00     0.202 C 
ENDBRANCH   8  10
ENDBRANCH   6   8
TORSDOF 2
ENDMDL
MODEL 7
REMARK VINA RESULT:      -3.9      1.522      2.428
REMARK  2 active torsions:
REMARK  status: ('A' for Active; 'I' for Inactive)
REMARK    1  A    between atoms: C6_6  and  C10_10 
REMARK    2  A    between atoms: C10_10  and  O11_11 
ROOT
HETATM    1  C1  UNL     1     -33.915  14.755  -4.030  1.00 20.00    -0.024 C 
HETATM    2  C2  UNL     1     -35.255  14.781  -3.908  1.00 20.00    -0.081 C 
HETATM    3  C3  UNL     1     -32.996  15.777  -3.435  1.00 20.00     0.027 C 
HETATM    4  C4  UNL     1     -33.677  16.648  -2.383  1.00 20.00     0.004 C 
HETATM    5  C5  UNL     1     -35.047  17.103  -2.868  1.00 20.00     0.012 C 
HETATM    6  C6  UNL     1     -35.971  15.904  -3.169  1.00 20.00     0.042 C 
HETATM    7  C7  UNL     1     -36.092  13.662  -4.461  1.00 20.00     0.043 C 
ENDROOT
BRANCH   6   8
HETATM    8  C10 UNL     1     -37.213  16.416  -3.909  1.00 20.00     0.124 C 
HETATM    9  C8  UNL     1     -37.981  17.423  -3.074  1.00 20.00     0.040 C 
BRANCH   8  10
HETATM   10  O11 UNL     1     -36.802  17.019  -5.128  1.00 20.00    -0.390 OA
HETATM   11  C9  UNL     1     -37.637  16.630  -6.210  1.00 20.00     0.202 C 
ENDBRANCH   8  10
ENDBRANCH   6   8
TORSDOF 2
ENDMDL
MODEL 8
REMARK VINA RESULT:      -3.9      1.632      3.874
REMARK  2 active torsions:
REMARK  status: ('A' for Active; 'I' for Inactive)
REMARK    1  A    between atoms: C6_6  and  C10_10 
REMARK    2  A    between atoms: C10_10  and  O11_11 
ROOT
HETATM    1  C1  UNL     1     -35.445  14.007  -4.349  1.00 20.00    -0.024 C 
HETATM    2  C2  UNL     1     -34.436  14.849  -4.056  1.00 20.00    -0.081 C 
HETATM    3  C3  UNL     1     -36.896  14.350  -4.201  1.00 20.00     0.027 C 
HETATM    4  C4  UNL     1     -37.139  15.848  -4.032  1.00 20.00     0.004 C 
HETATM    5  C5  UNL     1     -36.150  16.443  -3.038  1.00 20.00     0.012 C 
HETATM    6  C6  UNL     1     -34.691  16.243  -3.498  1.00 20.00     0.042 C 
HETATM    7  C7  UNL     1     -33.012  14.451  -4.323  1.00 20.00     0.043 C 
ENDROOT
BRANCH   6   8
HETATM    8  C10 UNL     1     -33.757  16.606  -2.337  1.00 20.00     0.124 C 
HETATM    9  C8  UNL     1     -32.867  17.784  -2.688  1.00 20.00     0.040 C 
BRANCH   8  10
HETATM   10  O11 UNL     1     -34.546  16.924  -1.199  1.00 20.00    -0.390 OA
HETATM   11  C9  UNL     1     -33.964  17.975  -0.439  1.00 20.00     0.202 C 
ENDBRANCH   8  10
ENDBRANCH   6   8
TORSDOF 2
ENDMDL
MODEL 9
REMARK VINA RESULT:      -3.9      1.879      4.263
REMARK  2 active torsions:
REMARK  status: ('A' for Active; 'I' for Inactive)
REMARK    1  A    between atoms: C6_6  and  C10_10 
REMARK    2  A    between atoms: C10_10  and  O11_11 
ROOT
HETATM    1  C1  UNL     1     -35.350  15.512  -5.252  1.00 20.00    -0.024 C 
HETATM    2  C2  UNL     1     -35.680  15.929  -4.015  1.00 20.00    -0.081 C 
HETATM    3  C3  UNL     1     -34.002  14.974  -5.626  1.00 20.00     0.027 C 
HETATM    4  C4  UNL     1     -33.151  14.607  -4.414  1.00 20.00     0.004 C 
HETATM    5  C5  UNL     1     -33.225  15.699  -3.355  1.00 20.00     0.012 C 
HETATM    6  C6  UNL     1     -34.673  15.927  -2.872  1.00 20.00     0.042 C 
HETATM    7  C7  UNL     1     -37.085  16.366  -3.709  1.00 20.00     0.043 C 
ENDROOT
BRANCH   6   8
HETATM    8  C10 UNL     1     -34.714  17.209  -2.032  1.00 20.00     0.124 C 
HETATM    9  C8  UNL     1     -35.261  16.944  -0.642  1.00 20.00     0.040 C 
BRANCH   8  10
HETATM   10  O11 UNL     1     -33.397  17.734  -1.935  1.00 20.00    -0.390 OA
HETATM   11  C9  UNL     1     -33.140  18.262  -0.641  1.00 20.00     0.202 C 
ENDBRANCH   8  10
ENDBRANCH   6   8
TORSDOF 2
ENDMDL
