MODEL 1
REMARK VINA RESULT:      -4.7      0.000      0.000
REMARK  0 active torsions:
REMARK  status: ('A' for Active; 'I' for Inactive)
ROOT
HETATM    1  C1  UNL     1     -35.487  16.565  -2.568  1.00 20.00    -0.029 C 
HETATM    2  C2  UNL     1     -36.529  16.351  -3.387  1.00 20.00    -0.014 C 
HETATM    3  C3  UNL     1     -35.553  14.363  -4.670  1.00 20.00     0.143 C 
HETATM    4  C4  UNL     1     -34.147  15.893  -2.583  1.00 20.00     0.032 C 
HETATM    5  C5  UNL     1     -32.972  14.393  -4.344  1.00 20.00     0.018 A 
HETATM    6  C6  UNL     1     -34.220  14.927  -4.998  1.00 20.00     0.061 A 
HETATM    7  C7  UNL     1     -33.518  15.731  -3.934  1.00 20.00     0.001 A 
HETATM    8  C8  UNL     1     -36.707  15.374  -4.534  1.00 20.00     0.031 C 
HETATM    9  C9  UNL     1     -38.011  14.587  -4.288  1.00 20.00     0.027 C 
HETATM   10  C10 UNL     1     -36.854  16.157  -5.848  1.00 20.00     0.027 C 
HETATM   11  O11 UNL     1     -35.681  13.151  -4.528  1.00 20.00    -0.296 OA
ENDROOT
TORSDOF 0
ENDMDL
MODEL 2
REMARK VINA RESULT:      -4.7      1.621      2.986
REMARK  0 active torsions:
REMARK  status: ('A' for Active; 'I' for Inactive)
ROOT
HETATM    1  C1  UNL     1     -32.945  15.216  -3.962  1.00 20.00    -0.029 C 
HETATM    2  C2  UNL     1     -33.816  14.585  -4.766  1.00 20.00    -0.014 C 
HETATM    3  C3  UNL     1     -35.846  16.074  -4.307  1.00 20.00     0.143 C 
HETATM    4  C4  UNL     1     -33.215  16.342  -3.011  1.00 20.00     0.032 C 
HETATM    5  C5  UNL     1     -35.420  17.336  -2.071  1.00 20.00     0.018 A 
HETATM    6  C6  UNL     1     -35.797  16.086  -2.823  1.00 20.00     0.061 A 
HETATM    7  C7  UNL     1     -34.445  16.197  -2.167  1.00 20.00     0.001 A 
HETATM    8  C8  UNL     1     -35.298  14.812  -4.998  1.00 20.00     0.031 C 
HETATM    9  C9  UNL     1     -35.524  14.957  -6.517  1.00 20.00     0.027 C 
HETATM   10  C10 UNL     1     -36.081  13.584  -4.507  1.00 20.00     0.027 C 
HETATM   11  O11 UNL     1     -36.309  17.040  -4.906  1.00 20.00    -0.296 OA
ENDROOT
TORSDOF 0
ENDMDL
MODEL 3
REMARK VINA RESULT:      -4.5     17.667     18.837
REMARK  0 active torsions:
REMARK  status: ('A' for Active; 'I' for Inactive)
ROOT
HETATM    1  C1  UNL     1     -24.766  19.007   8.803  1.00 20.00    -0.029 C 
HETATM    2  C2  UNL     1     -25.051  18.419   9.975  1.00 20.00    -0.014 C 
HETATM    3  C3  UNL     1     -22.684  17.628  10.546  1.00 20.00     0.143 C 
HETATM    4  C4  UNL     1     -23.461  19.011   8.064  1.00 20.00     0.032 C 
HETATM    5  C5  UNL     1     -21.299  17.603   8.342  1.00 20.00     0.018 A 
HETATM    6  C6  UNL     1     -22.333  16.990   9.252  1.00 20.00     0.061 A 
HETATM    7  C7  UNL     1     -22.757  17.690   7.987  1.00 20.00     0.001 A 
HETATM    8  C8  UNL     1     -24.176  17.622  10.926  1.00 20.00     0.031 C 
HETATM    9  C9  UNL     1     -24.318  18.240  12.332  1.00 20.00     0.027 C 
HETATM   10  C10 UNL     1     -24.681  16.171  10.982  1.00 20.00     0.027 C 
HETATM   11  O11 UNL     1     -21.800  18.117  11.241  1.00 20.00    -0.296 OA
ENDROOT
TORSDOF 0
ENDMDL
MODEL 4
REMARK VINA RESULT:      -4.4      0.868      3.544
REMARK  0 active torsions:
REMARK  status: ('A' for Active; 'I' for Inactive)
ROOT
HETATM    1  C1  UNL     1     -35.165  16.564  -6.056  1.00 20.00    -0.029 C 
HETATM    2  C2  UNL     1     -34.149  16.273  -5.228  1.00 20.00    -0.014 C 
HETATM    3  C3  UNL     1     -35.250  14.305  -4.016  1.00 20.00     0.143 C 
HETATM    4  C4  UNL     1     -36.538  15.965  -6.081  1.00 20.00     0.032 C 
HETATM    5  C5  UNL     1     -37.821  14.482  -4.381  1.00 20.00     0.018 A 
HETATM    6  C6  UNL     1     -36.557  14.931  -3.694  1.00 20.00     0.061 A 
HETATM    7  C7  UNL     1     -37.198  15.800  -4.745  1.00 20.00     0.001 A 
HETATM    8  C8  UNL     1     -34.043  15.256  -4.106  1.00 20.00     0.031 C 
HETATM    9  C9  UNL     1     -32.778  14.407  -4.354  1.00 20.00     0.027 C 
HETATM   10  C10 UNL     1     -33.876  15.994  -2.768  1.00 20.00     0.027 C 
HETATM   11  O11 UNL     1     -35.185  13.093  -4.191  1.00 20.00    -0.296 OA
ENDROOT
TORSDOF 0
ENDMDL
MODEL 5
REMARK VINA RESULT:      -4.4     17.585     18.882
REMARK  0 active torsions:
REMARK  status: ('A' for Active; 'I' for Inactive)
ROOT
HETATM    1  C1  UNL     1     -24.922  19.262   9.143  1.00 20.00    -0.029 C 
HETATM    2  C2  UNL     1     -23.714  18.675   9.131  1.00 20.00    -0.014 C 
HETATM    3  C3  UNL     1     -24.166  16.927  10.946  1.00 20.00     0.143 C 
HETATM    4  C4  UNL     1     -26.066  19.004  10.077  1.00 20.00     0.032 C 
HETATM    5  C5  UNL     1     -26.219  17.729  12.331  1.00 20.00     0.018 A 
HETATM    6  C6  UNL     1     -24.755  17.813  11.982  1.00 20.00     0.061 A 
HETATM    7  C7  UNL     1     -25.705  18.890  11.527  1.00 20.00     0.001 A 
HETATM    8  C8  UNL     1     -23.137  17.574  10.001  1.00 20.00     0.031 C 
HETATM    9  C9  UNL     1     -22.581  16.476   9.071  1.00 20.00     0.027 C 
HETATM   10  C10 UNL     1     -21.973  18.141  10.830  1.00 20.00     0.027 C 
HETATM   11  O11 UNL     1     -24.511  15.752  10.886  1.00 20.00    -0.296 OA
ENDROOT
TORSDOF 0
ENDMDL
MODEL 6
REMARK VINA RESULT:      -4.4      2.071      3.305
REMARK  0 active torsions:
REMARK  status: ('A' for Active; 'I' for Inactive)
ROOT
HETATM    1  C1  UNL     1     -34.418  17.542  -5.360  1.00 20.00    -0.029 C 
HETATM    2  C2  UNL     1     -34.470  16.202  -5.304  1.00 20.00    -0.014 C 
HETATM    3  C3  UNL     1     -34.190  15.955  -2.771  1.00 20.00     0.143 C 
HETATM    4  C4  UNL     1     -34.127  18.503  -4.247  1.00 20.00     0.032 C 
HETATM    5  C5  UNL     1     -33.158  18.165  -1.864  1.00 20.00     0.018 A 
HETATM    6  C6  UNL     1     -33.018  16.845  -2.577  1.00 20.00     0.061 A 
HETATM    7  C7  UNL     1     -32.980  18.135  -3.356  1.00 20.00     0.001 A 
HETATM    8  C8  UNL     1     -34.292  15.249  -4.136  1.00 20.00     0.031 C 
HETATM    9  C9  UNL     1     -35.514  14.308  -4.101  1.00 20.00     0.027 C 
HETATM   10  C10 UNL     1     -33.033  14.398  -4.363  1.00 20.00     0.027 C 
HETATM   11  O11 UNL     1     -35.005  15.819  -1.864  1.00 20.00    -0.296 OA
ENDROOT
TORSDOF 0
ENDMDL
MODEL 7
REMARK VINA RESULT:      -4.3      1.097      1.203
REMARK  0 active torsions:
REMARK  status: ('A' for Active; 'I' for Inactive)
ROOT
HETATM    1  C1  UNL     1     -35.945  16.951  -2.458  1.00 20.00    -0.029 C 
HETATM    2  C2  UNL     1     -36.974  17.070  -3.312  1.00 20.00    -0.014 C 
HETATM    3  C3  UNL     1     -36.776  14.767  -4.411  1.00 20.00     0.143 C 
HETATM    4  C4  UNL     1     -34.949  15.835  -2.362  1.00 20.00     0.032 C 
HETATM    5  C5  UNL     1     -34.373  13.874  -3.961  1.00 20.00     0.018 A 
HETATM    6  C6  UNL     1     -35.321  14.775  -4.709  1.00 20.00     0.061 A 
HETATM    7  C7  UNL     1     -34.395  15.347  -3.667  1.00 20.00     0.001 A 
HETATM    8  C8  UNL     1     -37.476  16.138  -4.399  1.00 20.00     0.031 C 
HETATM    9  C9  UNL     1     -38.984  15.907  -4.167  1.00 20.00     0.027 C 
HETATM   10  C10 UNL     1     -37.296  16.813  -5.768  1.00 20.00     0.027 C 
HETATM   11  O11 UNL     1     -37.345  13.702  -4.195  1.00 20.00    -0.296 OA
ENDROOT
TORSDOF 0
ENDMDL
MODEL 8
REMARK VINA RESULT:      -4.3      1.912      3.674
REMARK  0 active torsions:
REMARK  status: ('A' for Active; 'I' for Inactive)
ROOT
HETATM    1  C1  UNL     1     -36.146  14.329  -4.022  1.00 20.00    -0.029 C 
HETATM    2  C2  UNL     1     -34.941  14.581  -3.485  1.00 20.00    -0.014 C 
HETATM    3  C3  UNL     1     -34.170  16.333  -5.185  1.00 20.00     0.143 C 
HETATM    4  C4  UNL     1     -36.712  14.849  -5.308  1.00 20.00     0.032 C 
HETATM    5  C5  UNL     1     -35.618  16.054  -7.330  1.00 20.00     0.018 A 
HETATM    6  C6  UNL     1     -34.492  15.602  -6.437  1.00 20.00     0.061 A 
HETATM    7  C7  UNL     1     -35.781  14.824  -6.483  1.00 20.00     0.001 A 
HETATM    8  C8  UNL     1     -33.806  15.468  -3.965  1.00 20.00     0.031 C 
HETATM    9  C9  UNL     1     -33.418  16.409  -2.805  1.00 20.00     0.027 C 
HETATM   10  C10 UNL     1     -32.590  14.593  -4.306  1.00 20.00     0.027 C 
HETATM   11  O11 UNL     1     -34.204  17.559  -5.173  1.00 20.00    -0.296 OA
ENDROOT
TORSDOF 0
ENDMDL
MODEL 9
REMARK VINA RESULT:      -4.3      2.003      3.540
REMARK  0 active torsions:
REMARK  status: ('A' for Active; 'I' for Inactive)
ROOT
HETATM    1  C1  UNL     1     -35.592  13.804  -4.444  1.00 20.00    -0.029 C 
HETATM    2  C2  UNL     1     -34.938  14.430  -3.452  1.00 20.00    -0.014 C 
HETATM    3  C3  UNL     1     -35.196  16.822  -4.327  1.00 20.00     0.143 C 
HETATM    4  C4  UNL     1     -36.135  14.396  -5.710  1.00 20.00     0.032 C 
HETATM    5  C5  UNL     1     -35.747  16.686  -6.867  1.00 20.00     0.018 A 
HETATM    6  C6  UNL     1     -34.761  16.605  -5.730  1.00 20.00     0.061 A 
HETATM    7  C7  UNL     1     -35.224  15.349  -6.423  1.00 20.00     0.001 A 
HETATM    8  C8  UNL     1     -34.573  15.892  -3.270  1.00 20.00     0.031 C 
HETATM    9  C9  UNL     1     -35.077  16.336  -1.881  1.00 20.00     0.027 C 
HETATM   10  C10 UNL     1     -33.044  16.039  -3.300  1.00 20.00     0.027 C 
HETATM   11  O11 UNL     1     -36.007  17.706  -4.073  1.00 20.00    -0.296 OA
ENDROOT
TORSDOF 0
ENDMDL
