MODEL 1
REMARK VINA RESULT:      -5.2      0.000      0.000
REMARK  0 active torsions:
REMARK  status: ('A' for Active; 'I' for Inactive)
ROOT
HETATM    1  C1  UNL     1     -32.758  16.974  -2.663  1.00 20.00     0.052 A 
HETATM    2  C2  UNL     1     -35.245  16.644  -1.446  1.00 20.00     0.126 A 
HETATM    3  C3  UNL     1     -33.693  16.114  -3.187  1.00 20.00    -0.043 A 
HETATM    4  C4  UNL     1     -34.944  15.944  -2.583  1.00 20.00    -0.028 A 
HETATM    5  C5  UNL     1     -33.144  17.637  -1.506  1.00 20.00     0.126 A 
HETATM    6  C6  UNL     1     -34.540  14.079  -3.863  1.00 20.00     0.020 C 
HETATM    7  C7  UNL     1     -34.657  15.870  -5.440  1.00 20.00     0.030 C 
HETATM    8  C8  UNL     1     -33.686  15.240  -4.416  1.00 20.00     0.021 C 
HETATM    9  C9  UNL     1     -35.724  14.976  -3.433  1.00 20.00     0.040 C 
HETATM   10  C10 UNL     1     -36.056  15.623  -4.800  1.00 20.00     0.091 C 
HETATM   11  N11 UNL     1     -34.354  17.496  -0.886  1.00 20.00    -0.248 NA
HETATM   12 CL12 UNL     1     -32.080  18.742  -0.734  1.00 20.00    -0.062 Cl
HETATM   13 CL13 UNL     1     -37.028  17.100  -4.671  1.00 20.00    -0.124 Cl
ENDROOT
TORSDOF 0
ENDMDL
MODEL 2
REMARK VINA RESULT:      -5.1      3.028      4.523
REMARK  0 active torsions:
REMARK  status: ('A' for Active; 'I' for Inactive)
ROOT
HETATM    1  C1  UNL     1     -37.678  16.285  -3.890  1.00 20.00     0.052 A 
HETATM    2  C2  UNL     1     -36.655  13.734  -4.355  1.00 20.00     0.126 A 
HETATM    3  C3  UNL     1     -36.340  16.021  -3.730  1.00 20.00    -0.043 A 
HETATM    4  C4  UNL     1     -35.817  14.743  -3.963  1.00 20.00    -0.028 A 
HETATM    5  C5  UNL     1     -38.454  15.203  -4.282  1.00 20.00     0.126 A 
HETATM    6  C6  UNL     1     -34.349  15.844  -2.580  1.00 20.00     0.020 C 
HETATM    7  C7  UNL     1     -34.309  17.099  -4.613  1.00 20.00     0.030 C 
HETATM    8  C8  UNL     1     -35.175  16.899  -3.348  1.00 20.00     0.021 C 
HETATM    9  C9  UNL     1     -34.331  14.819  -3.738  1.00 20.00     0.040 C 
HETATM   10  C10 UNL     1     -33.675  15.693  -4.835  1.00 20.00     0.091 C 
HETATM   11  N11 UNL     1     -37.982  13.942  -4.517  1.00 20.00    -0.248 NA
HETATM   12 CL12 UNL     1     -40.146  15.379  -4.520  1.00 20.00    -0.062 Cl
HETATM   13 CL13 UNL     1     -33.921  15.077  -6.479  1.00 20.00    -0.124 Cl
ENDROOT
TORSDOF 0
ENDMDL
MODEL 3
REMARK VINA RESULT:      -5.0      2.215      4.315
REMARK  0 active torsions:
REMARK  status: ('A' for Active; 'I' for Inactive)
ROOT
HETATM    1  C1  UNL     1     -35.622  15.591  -2.929  1.00 20.00     0.052 A 
HETATM    2  C2  UNL     1     -32.940  15.535  -3.688  1.00 20.00     0.126 A 
HETATM    3  C3  UNL     1     -34.733  16.524  -2.452  1.00 20.00    -0.043 A 
HETATM    4  C4  UNL     1     -33.385  16.505  -2.829  1.00 20.00    -0.028 A 
HETATM    5  C5  UNL     1     -35.083  14.643  -3.787  1.00 20.00     0.126 A 
HETATM    6  C6  UNL     1     -33.527  17.661  -0.849  1.00 20.00     0.020 C 
HETATM    7  C7  UNL     1     -34.766  18.986  -2.403  1.00 20.00     0.030 C 
HETATM    8  C8  UNL     1     -34.907  17.712  -1.540  1.00 20.00     0.021 C 
HETATM    9  C9  UNL     1     -32.717  17.679  -2.166  1.00 20.00     0.040 C 
HETATM   10  C10 UNL     1     -33.252  19.001  -2.770  1.00 20.00     0.091 C 
HETATM   11  N11 UNL     1     -33.774  14.589  -4.176  1.00 20.00    -0.248 NA
HETATM   12 CL12 UNL     1     -36.072  13.410  -4.461  1.00 20.00    -0.062 Cl
HETATM   13 CL13 UNL     1     -32.964  19.156  -4.512  1.00 20.00    -0.124 Cl
ENDROOT
TORSDOF 0
ENDMDL
MODEL 4
REMARK VINA RESULT:      -4.8      1.847      2.226
REMARK  0 active torsions:
REMARK  status: ('A' for Active; 'I' for Inactive)
ROOT
HETATM    1  C1  UNL     1     -34.842  16.075  -1.935  1.00 20.00     0.052 A 
HETATM    2  C2  UNL     1     -36.926  17.056  -3.507  1.00 20.00     0.126 A 
HETATM    3  C3  UNL     1     -35.185  15.463  -3.116  1.00 20.00    -0.043 A 
HETATM    4  C4  UNL     1     -36.229  15.949  -3.912  1.00 20.00    -0.028 A 
HETATM    5  C5  UNL     1     -35.605  17.185  -1.599  1.00 20.00     0.126 A 
HETATM    6  C6  UNL     1     -35.919  13.739  -4.461  1.00 20.00     0.020 C 
HETATM    7  C7  UNL     1     -33.876  14.803  -5.095  1.00 20.00     0.030 C 
HETATM    8  C8  UNL     1     -34.609  14.273  -3.842  1.00 20.00     0.021 C 
HETATM    9  C9  UNL     1     -36.302  15.076  -5.136  1.00 20.00     0.040 C 
HETATM   10  C10 UNL     1     -35.042  15.285  -6.010  1.00 20.00     0.091 C 
HETATM   11  N11 UNL     1     -36.632  17.688  -2.347  1.00 20.00    -0.248 NA
HETATM   12 CL12 UNL     1     -35.295  18.054  -0.150  1.00 20.00    -0.062 Cl
HETATM   13 CL13 UNL     1     -34.834  16.954  -6.573  1.00 20.00    -0.124 Cl
ENDROOT
TORSDOF 0
ENDMDL
MODEL 5
REMARK VINA RESULT:      -4.8      1.851      2.632
REMARK  0 active torsions:
REMARK  status: ('A' for Active; 'I' for Inactive)
ROOT
HETATM    1  C1  UNL     1     -35.077  16.623  -1.329  1.00 20.00     0.052 A 
HETATM    2  C2  UNL     1     -33.136  17.722  -3.001  1.00 20.00     0.126 A 
HETATM    3  C3  UNL     1     -35.016  16.284  -2.658  1.00 20.00    -0.043 A 
HETATM    4  C4  UNL     1     -34.044  16.830  -3.505  1.00 20.00    -0.028 A 
HETATM    5  C5  UNL     1     -34.124  17.538  -0.905  1.00 20.00     0.126 A 
HETATM    6  C6  UNL     1     -35.779  16.112  -4.828  1.00 20.00     0.020 C 
HETATM    7  C7  UNL     1     -34.929  14.117  -3.825  1.00 20.00     0.030 C 
HETATM    8  C8  UNL     1     -35.829  15.330  -3.497  1.00 20.00     0.021 C 
HETATM    9  C9  UNL     1     -34.237  16.215  -4.865  1.00 20.00     0.040 C 
HETATM   10  C10 UNL     1     -33.884  14.708  -4.819  1.00 20.00     0.091 C 
HETATM   11  N11 UNL     1     -33.161  18.095  -1.700  1.00 20.00    -0.248 NA
HETATM   12 CL12 UNL     1     -34.077  18.060   0.731  1.00 20.00    -0.062 Cl
HETATM   13 CL13 UNL     1     -32.210  14.383  -4.336  1.00 20.00    -0.124 Cl
ENDROOT
TORSDOF 0
ENDMDL
MODEL 6
REMARK VINA RESULT:      -4.8      1.842      2.407
REMARK  0 active torsions:
REMARK  status: ('A' for Active; 'I' for Inactive)
ROOT
HETATM    1  C1  UNL     1     -33.721  16.631  -2.126  1.00 20.00     0.052 A 
HETATM    2  C2  UNL     1     -33.830  18.031  -4.535  1.00 20.00     0.126 A 
HETATM    3  C3  UNL     1     -34.609  16.274  -3.111  1.00 20.00    -0.043 A 
HETATM    4  C4  UNL     1     -34.669  16.970  -4.324  1.00 20.00    -0.028 A 
HETATM    5  C5  UNL     1     -32.914  17.721  -2.422  1.00 20.00     0.126 A 
HETATM    6  C6  UNL     1     -36.684  15.901  -4.045  1.00 20.00     0.020 C 
HETATM    7  C7  UNL     1     -35.090  14.131  -4.225  1.00 20.00     0.030 C 
HETATM    8  C8  UNL     1     -35.622  15.161  -3.203  1.00 20.00     0.021 C 
HETATM    9  C9  UNL     1     -35.708  16.292  -5.178  1.00 20.00     0.040 C 
HETATM   10  C10 UNL     1     -35.218  14.881  -5.585  1.00 20.00     0.091 C 
HETATM   11  N11 UNL     1     -32.945  18.427  -3.591  1.00 20.00    -0.248 NA
HETATM   12 CL12 UNL     1     -31.756  18.287  -1.286  1.00 20.00    -0.062 Cl
HETATM   13 CL13 UNL     1     -33.708  14.891  -6.514  1.00 20.00    -0.124 Cl
ENDROOT
TORSDOF 0
ENDMDL
MODEL 7
REMARK VINA RESULT:      -4.5      2.191      3.360
REMARK  0 active torsions:
REMARK  status: ('A' for Active; 'I' for Inactive)
ROOT
HETATM    1  C1  UNL     1     -33.254  18.130   0.189  1.00 20.00     0.052 A 
HETATM    2  C2  UNL     1     -32.201  18.845  -2.292  1.00 20.00     0.126 A 
HETATM    3  C3  UNL     1     -33.975  17.944  -0.965  1.00 20.00    -0.043 A 
HETATM    4  C4  UNL     1     -33.454  18.298  -2.215  1.00 20.00    -0.028 A 
HETATM    5  C5  UNL     1     -31.998  18.696   0.018  1.00 20.00     0.126 A 
HETATM    6  C6  UNL     1     -35.741  18.238  -2.418  1.00 20.00     0.020 C 
HETATM    7  C7  UNL     1     -35.128  15.985  -1.913  1.00 20.00     0.030 C 
HETATM    8  C8  UNL     1     -35.338  17.350  -1.220  1.00 20.00     0.021 C 
HETATM    9  C9  UNL     1     -34.478  17.921  -3.251  1.00 20.00     0.040 C 
HETATM   10  C10 UNL     1     -34.609  16.380  -3.328  1.00 20.00     0.091 C 
HETATM   11  N11 UNL     1     -31.455  19.057  -1.183  1.00 20.00    -0.248 NA
HETATM   12 CL12 UNL     1     -30.980  18.993   1.370  1.00 20.00    -0.062 Cl
HETATM   13 CL13 UNL     1     -33.101  15.557  -3.766  1.00 20.00    -0.124 Cl
ENDROOT
TORSDOF 0
ENDMDL
MODEL 8
REMARK VINA RESULT:      -4.5      2.679      4.505
REMARK  0 active torsions:
REMARK  status: ('A' for Active; 'I' for Inactive)
ROOT
HETATM    1  C1  UNL     1     -36.831  17.342  -5.020  1.00 20.00     0.052 A 
HETATM    2  C2  UNL     1     -36.721  14.698  -4.141  1.00 20.00     0.126 A 
HETATM    3  C3  UNL     1     -35.966  16.964  -4.023  1.00 20.00    -0.043 A 
HETATM    4  C4  UNL     1     -35.903  15.639  -3.576  1.00 20.00    -0.028 A 
HETATM    5  C5  UNL     1     -37.627  16.326  -5.531  1.00 20.00     0.126 A 
HETATM    6  C6  UNL     1     -35.066  16.968  -1.899  1.00 20.00     0.020 C 
HETATM    7  C7  UNL     1     -33.541  17.267  -3.714  1.00 20.00     0.030 C 
HETATM    8  C8  UNL     1     -34.934  17.733  -3.235  1.00 20.00     0.021 C 
HETATM    9  C9  UNL     1     -34.832  15.572  -2.521  1.00 20.00     0.040 C 
HETATM   10  C10 UNL     1     -33.443  15.813  -3.162  1.00 20.00     0.091 C 
HETATM   11  N11 UNL     1     -37.597  15.023  -5.121  1.00 20.00    -0.248 NA
HETATM   12 CL12 UNL     1     -38.760  16.647  -6.782  1.00 20.00    -0.062 Cl
HETATM   13 CL13 UNL     1     -33.018  14.627  -4.409  1.00 20.00    -0.124 Cl
ENDROOT
TORSDOF 0
ENDMDL
MODEL 9
REMARK VINA RESULT:      -4.5      2.452      4.321
REMARK  0 active torsions:
REMARK  status: ('A' for Active; 'I' for Inactive)
ROOT
HETATM    1  C1  UNL     1     -34.946  16.491  -5.880  1.00 20.00     0.052 A 
HETATM    2  C2  UNL     1     -33.821  14.685  -4.078  1.00 20.00     0.126 A 
HETATM    3  C3  UNL     1     -35.150  16.622  -4.527  1.00 20.00    -0.043 A 
HETATM    4  C4  UNL     1     -34.587  15.721  -3.616  1.00 20.00    -0.028 A 
HETATM    5  C5  UNL     1     -34.164  15.409  -6.260  1.00 20.00     0.126 A 
HETATM    6  C6  UNL     1     -36.381  16.715  -2.580  1.00 20.00     0.020 C 
HETATM    7  C7  UNL     1     -34.850  18.507  -2.971  1.00 20.00     0.030 C 
HETATM    8  C8  UNL     1     -35.898  17.647  -3.713  1.00 20.00     0.021 C 
HETATM    9  C9  UNL     1     -34.972  16.182  -2.235  1.00 20.00     0.040 C 
HETATM   10  C10 UNL     1     -34.269  17.523  -1.912  1.00 20.00     0.091 C 
HETATM   11  N11 UNL     1     -33.600  14.508  -5.402  1.00 20.00    -0.248 NA
HETATM   12 CL12 UNL     1     -33.824  15.114  -7.917  1.00 20.00    -0.062 Cl
HETATM   13 CL13 UNL     1     -32.499  17.428  -1.953  1.00 20.00    -0.124 Cl
ENDROOT
TORSDOF 0
ENDMDL
