MODEL 1
REMARK VINA RESULT:      -4.8      0.000      0.000
REMARK  0 active torsions:
REMARK  status: ('A' for Active; 'I' for Inactive)
ROOT
HETATM    1  C1  UNL     1     -37.174  15.909  -4.011  1.00 20.00    -0.010 C 
HETATM    2  C2  UNL     1     -37.260  14.451  -4.313  1.00 20.00     0.155 C 
HETATM    3  C3  UNL     1     -38.163  16.703  -4.440  1.00 20.00    -0.078 C 
HETATM    4  C4  UNL     1     -35.965  16.393  -3.266  1.00 20.00     0.051 C 
HETATM    5  C5  UNL     1     -35.963  13.738  -4.631  1.00 20.00     0.084 C 
HETATM    6  C6  UNL     1     -34.785  14.241  -3.803  1.00 20.00     0.017 C 
HETATM    7  C7  UNL     1     -34.647  15.780  -3.790  1.00 20.00    -0.043 C 
HETATM    8  C8  UNL     1     -38.163  18.183  -4.183  1.00 20.00     0.043 C 
HETATM    9  C9  UNL     1     -39.339  16.168  -5.204  1.00 20.00     0.043 C 
HETATM   10  C10 UNL     1     -33.500  16.173  -2.842  1.00 20.00     0.015 C 
HETATM   11  C11 UNL     1     -34.312  16.317  -5.195  1.00 20.00     0.015 C 
HETATM   12  O12 UNL     1     -38.341  13.869  -4.377  1.00 20.00    -0.293 OA
ENDROOT
TORSDOF 0
ENDMDL
MODEL 2
REMARK VINA RESULT:      -4.7      2.127      3.252
REMARK  0 active torsions:
REMARK  status: ('A' for Active; 'I' for Inactive)
ROOT
HETATM    1  C1  UNL     1     -35.264  15.190  -3.577  1.00 20.00    -0.010 C 
HETATM    2  C2  UNL     1     -33.839  14.994  -3.973  1.00 20.00     0.155 C 
HETATM    3  C3  UNL     1     -36.217  14.731  -4.399  1.00 20.00    -0.078 C 
HETATM    4  C4  UNL     1     -35.535  15.913  -2.292  1.00 20.00     0.051 C 
HETATM    5  C5  UNL     1     -32.873  16.108  -3.630  1.00 20.00     0.084 C 
HETATM    6  C6  UNL     1     -33.172  16.768  -2.287  1.00 20.00     0.017 C 
HETATM    7  C7  UNL     1     -34.653  17.169  -2.109  1.00 20.00    -0.043 C 
HETATM    8  C8  UNL     1     -37.678  14.881  -4.084  1.00 20.00     0.043 C 
HETATM    9  C9  UNL     1     -35.889  14.034  -5.687  1.00 20.00     0.043 C 
HETATM   10  C10 UNL     1     -34.855  17.720  -0.685  1.00 20.00     0.015 C 
HETATM   11  C11 UNL     1     -35.052  18.271  -3.110  1.00 20.00     0.015 C 
HETATM   12  O12 UNL     1     -33.478  14.011  -4.615  1.00 20.00    -0.293 OA
ENDROOT
TORSDOF 0
ENDMDL
MODEL 3
REMARK VINA RESULT:      -4.6      2.400      3.188
REMARK  0 active torsions:
REMARK  status: ('A' for Active; 'I' for Inactive)
ROOT
HETATM    1  C1  UNL     1     -34.876  16.216  -5.529  1.00 20.00    -0.010 C 
HETATM    2  C2  UNL     1     -35.132  14.779  -5.221  1.00 20.00     0.155 C 
HETATM    3  C3  UNL     1     -34.451  16.532  -6.759  1.00 20.00    -0.078 C 
HETATM    4  C4  UNL     1     -35.089  17.211  -4.428  1.00 20.00     0.051 C 
HETATM    5  C5  UNL     1     -34.778  14.303  -3.828  1.00 20.00     0.084 C 
HETATM    6  C6  UNL     1     -35.067  15.341  -2.748  1.00 20.00     0.017 C 
HETATM    7  C7  UNL     1     -34.509  16.745  -3.073  1.00 20.00    -0.043 C 
HETATM    8  C8  UNL     1     -34.168  17.951  -7.161  1.00 20.00     0.043 C 
HETATM    9  C9  UNL     1     -34.231  15.492  -7.818  1.00 20.00     0.043 C 
HETATM   10  C10 UNL     1     -34.953  17.727  -1.973  1.00 20.00     0.015 C 
HETATM   11  C11 UNL     1     -32.968  16.733  -3.110  1.00 20.00     0.015 C 
HETATM   12  O12 UNL     1     -35.539  13.998  -6.079  1.00 20.00    -0.293 OA
ENDROOT
TORSDOF 0
ENDMDL
MODEL 4
REMARK VINA RESULT:      -4.4      2.506      3.717
REMARK  0 active torsions:
REMARK  status: ('A' for Active; 'I' for Inactive)
ROOT
HETATM    1  C1  UNL     1     -35.053  16.468  -3.555  1.00 20.00    -0.010 C 
HETATM    2  C2  UNL     1     -33.648  15.996  -3.388  1.00 20.00     0.155 C 
HETATM    3  C3  UNL     1     -35.694  16.937  -2.477  1.00 20.00    -0.078 C 
HETATM    4  C4  UNL     1     -35.663  16.360  -4.920  1.00 20.00     0.051 C 
HETATM    5  C5  UNL     1     -33.227  14.791  -4.203  1.00 20.00     0.084 C 
HETATM    6  C6  UNL     1     -33.841  14.769  -5.599  1.00 20.00     0.017 C 
HETATM    7  C7  UNL     1     -35.367  15.009  -5.610  1.00 20.00    -0.043 C 
HETATM    8  C8  UNL     1     -37.109  17.434  -2.548  1.00 20.00     0.043 C 
HETATM    9  C9  UNL     1     -35.042  16.999  -1.127  1.00 20.00     0.043 C 
HETATM   10  C10 UNL     1     -35.855  15.074  -7.069  1.00 20.00     0.015 C 
HETATM   11  C11 UNL     1     -36.114  13.859  -4.907  1.00 20.00     0.015 C 
HETATM   12  O12 UNL     1     -32.888  16.511  -2.571  1.00 20.00    -0.293 OA
ENDROOT
TORSDOF 0
ENDMDL
MODEL 5
REMARK VINA RESULT:      -4.3      2.613      4.551
REMARK  0 active torsions:
REMARK  status: ('A' for Active; 'I' for Inactive)
ROOT
HETATM    1  C1  UNL     1     -33.950  17.119  -1.698  1.00 20.00    -0.010 C 
HETATM    2  C2  UNL     1     -35.414  16.991  -1.441  1.00 20.00     0.155 C 
HETATM    3  C3  UNL     1     -33.274  18.071  -1.042  1.00 20.00    -0.078 C 
HETATM    4  C4  UNL     1     -33.337  16.185  -2.699  1.00 20.00     0.051 C 
HETATM    5  C5  UNL     1     -36.289  16.626  -2.621  1.00 20.00     0.084 C 
HETATM    6  C6  UNL     1     -35.628  15.633  -3.572  1.00 20.00     0.017 C 
HETATM    7  C7  UNL     1     -34.190  16.026  -3.978  1.00 20.00    -0.043 C 
HETATM    8  C8  UNL     1     -31.799  18.274  -1.236  1.00 20.00     0.043 C 
HETATM    9  C9  UNL     1     -33.944  18.996  -0.069  1.00 20.00     0.043 C 
HETATM   10  C10 UNL     1     -33.589  14.904  -4.844  1.00 20.00     0.015 C 
HETATM   11  C11 UNL     1     -34.184  17.325  -4.807  1.00 20.00     0.015 C 
HETATM   12  O12 UNL     1     -35.899  17.245  -0.340  1.00 20.00    -0.293 OA
ENDROOT
TORSDOF 0
ENDMDL
MODEL 6
REMARK VINA RESULT:      -4.1      1.822      3.557
REMARK  0 active torsions:
REMARK  status: ('A' for Active; 'I' for Inactive)
ROOT
HETATM    1  C1  UNL     1     -34.784  15.450  -4.237  1.00 20.00    -0.010 C 
HETATM    2  C2  UNL     1     -36.220  15.072  -4.382  1.00 20.00     0.155 C 
HETATM    3  C3  UNL     1     -34.384  15.981  -3.075  1.00 20.00    -0.078 C 
HETATM    4  C4  UNL     1     -33.887  15.233  -5.420  1.00 20.00     0.051 C 
HETATM    5  C5  UNL     1     -36.855  15.293  -5.738  1.00 20.00     0.084 C 
HETATM    6  C6  UNL     1     -35.907  15.005  -6.898  1.00 20.00     0.017 C 
HETATM    7  C7  UNL     1     -34.526  15.683  -6.753  1.00 20.00    -0.043 C 
HETATM    8  C8  UNL     1     -32.959  16.392  -2.838  1.00 20.00     0.043 C 
HETATM    9  C9  UNL     1     -35.331  16.199  -1.931  1.00 20.00     0.043 C 
HETATM   10  C10 UNL     1     -33.624  15.235  -7.917  1.00 20.00     0.015 C 
HETATM   11  C11 UNL     1     -34.655  17.218  -6.810  1.00 20.00     0.015 C 
HETATM   12  O12 UNL     1     -36.879  14.671  -3.425  1.00 20.00    -0.293 OA
ENDROOT
TORSDOF 0
ENDMDL
MODEL 7
REMARK VINA RESULT:      -4.1      4.496      6.701
REMARK  0 active torsions:
REMARK  status: ('A' for Active; 'I' for Inactive)
ROOT
HETATM    1  C1  UNL     1     -33.041  18.625   0.002  1.00 20.00    -0.010 C 
HETATM    2  C2  UNL     1     -32.006  18.298  -1.021  1.00 20.00     0.155 C 
HETATM    3  C3  UNL     1     -32.701  18.540   1.295  1.00 20.00    -0.078 C 
HETATM    4  C4  UNL     1     -34.406  19.004  -0.489  1.00 20.00     0.051 C 
HETATM    5  C5  UNL     1     -32.477  17.583  -2.270  1.00 20.00     0.084 C 
HETATM    6  C6  UNL     1     -33.849  18.051  -2.746  1.00 20.00     0.017 C 
HETATM    7  C7  UNL     1     -34.914  18.091  -1.628  1.00 20.00    -0.043 C 
HETATM    8  C8  UNL     1     -33.675  18.851   2.394  1.00 20.00     0.043 C 
HETATM    9  C9  UNL     1     -31.324  18.131   1.730  1.00 20.00     0.043 C 
HETATM   10  C10 UNL     1     -36.218  18.679  -2.198  1.00 20.00     0.015 C 
HETATM   11  C11 UNL     1     -35.217  16.675  -1.101  1.00 20.00     0.015 C 
HETATM   12  O12 UNL     1     -30.814  18.527  -0.828  1.00 20.00    -0.293 OA
ENDROOT
TORSDOF 0
ENDMDL
MODEL 8
REMARK VINA RESULT:      -4.1      2.259      4.302
REMARK  0 active torsions:
REMARK  status: ('A' for Active; 'I' for Inactive)
ROOT
HETATM    1  C1  UNL     1     -34.610  15.889  -5.058  1.00 20.00    -0.010 C 
HETATM    2  C2  UNL     1     -34.562  15.189  -6.374  1.00 20.00     0.155 C 
HETATM    3  C3  UNL     1     -33.770  15.486  -4.097  1.00 20.00    -0.078 C 
HETATM    4  C4  UNL     1     -35.621  16.985  -4.891  1.00 20.00     0.051 C 
HETATM    5  C5  UNL     1     -35.879  14.982  -7.091  1.00 20.00     0.084 C 
HETATM    6  C6  UNL     1     -36.842  16.155  -6.925  1.00 20.00     0.017 C 
HETATM    7  C7  UNL     1     -37.010  16.617  -5.461  1.00 20.00    -0.043 C 
HETATM    8  C8  UNL     1     -33.746  16.131  -2.741  1.00 20.00     0.043 C 
HETATM    9  C9  UNL     1     -32.794  14.366  -4.310  1.00 20.00     0.043 C 
HETATM   10  C10 UNL     1     -37.911  17.865  -5.429  1.00 20.00     0.015 C 
HETATM   11  C11 UNL     1     -37.680  15.522  -4.608  1.00 20.00     0.015 C 
HETATM   12  O12 UNL     1     -33.512  14.732  -6.822  1.00 20.00    -0.293 OA
ENDROOT
TORSDOF 0
ENDMDL
MODEL 9
REMARK VINA RESULT:      -4.1      1.870      2.012
REMARK  0 active torsions:
REMARK  status: ('A' for Active; 'I' for Inactive)
ROOT
HETATM    1  C1  UNL     1     -36.362  15.993  -5.124  1.00 20.00    -0.010 C 
HETATM    2  C2  UNL     1     -35.563  14.796  -5.514  1.00 20.00     0.155 C 
HETATM    3  C3  UNL     1     -37.014  16.659  -6.085  1.00 20.00    -0.078 C 
HETATM    4  C4  UNL     1     -36.361  16.387  -3.677  1.00 20.00     0.051 C 
HETATM    5  C5  UNL     1     -34.263  14.567  -4.772  1.00 20.00     0.084 C 
HETATM    6  C6  UNL     1     -34.344  14.938  -3.294  1.00 20.00     0.017 C 
HETATM    7  C7  UNL     1     -34.955  16.334  -3.037  1.00 20.00    -0.043 C 
HETATM    8  C8  UNL     1     -37.844  17.874  -5.788  1.00 20.00     0.043 C 
HETATM    9  C9  UNL     1     -36.961  16.234  -7.524  1.00 20.00     0.043 C 
HETATM   10  C10 UNL     1     -35.086  16.552  -1.519  1.00 20.00     0.015 C 
HETATM   11  C11 UNL     1     -34.051  17.446  -3.605  1.00 20.00     0.015 C 
HETATM   12  O12 UNL     1     -35.902  14.071  -6.446  1.00 20.00    -0.293 OA
ENDROOT
TORSDOF 0
ENDMDL
