MODEL 1
REMARK VINA RESULT:      -4.1      0.000      0.000
REMARK  3 active torsions:
REMARK  status: ('A' for Active; 'I' for Inactive)
REMARK    1  A    between atoms: C3_3  and  C7_7 
REMARK    2  A    between atoms: C6_6  and  N9_9 
REMARK    3  A    between atoms: C7_7  and  N9_9 
ROOT
HETATM    1  C1  UNL     1     -36.908  14.177  -4.637  1.00 20.00     0.089 C 
HETATM    2  C6  UNL     1     -35.542  14.428  -5.091  1.00 20.00     0.395 C 
HETATM    3  N8  UNL     1     -37.995  13.978  -4.281  1.00 20.00    -0.195 NA
ENDROOT
BRANCH   2   4
HETATM    4  N9  UNL     1     -34.600  14.400  -3.960  1.00 20.00     0.100 N 
HETATM    5  C5  UNL     1     -33.224  14.522  -4.466  1.00 20.00     0.311 C 
BRANCH   4   6
HETATM    6  C7  UNL     1     -34.900  15.427  -3.003  1.00 20.00     0.300 C 
BRANCH   6   7
HETATM    7  C3  UNL     1     -33.656  16.200  -2.704  1.00 20.00    -0.002 C 
HETATM    8  C2  UNL     1     -33.609  17.232  -1.849  1.00 20.00    -0.033 C 
HETATM    9  C4  UNL     1     -32.369  18.003  -1.542  1.00 20.00     0.036 C 
ENDBRANCH   6   7
ENDBRANCH   4   6
ENDBRANCH   2   4
TORSDOF 3
ENDMDL
MODEL 2
REMARK VINA RESULT:      -4.0     10.849     11.378
REMARK  3 active torsions:
REMARK  status: ('A' for Active; 'I' for Inactive)
REMARK    1  A    between atoms: C3_3  and  C7_7 
REMARK    2  A    between atoms: C6_6  and  N9_9 
REMARK    3  A    between atoms: C7_7  and  N9_9 
ROOT
HETATM    1  C1  UNL     1     -34.519   5.745   5.342  1.00 20.00     0.089 C 
HETATM    2  C6  UNL     1     -34.141   6.650   4.259  1.00 20.00     0.395 C 
HETATM    3  N8  UNL     1     -34.823   5.028   6.203  1.00 20.00    -0.195 NA
ENDROOT
BRANCH   2   4
HETATM    4  N9  UNL     1     -32.946   6.157   3.556  1.00 20.00     0.100 N 
HETATM    5  C5  UNL     1     -33.352   5.201   2.513  1.00 20.00     0.311 C 
BRANCH   4   6
HETATM    6  C7  UNL     1     -32.177   7.238   3.006  1.00 20.00     0.300 C 
BRANCH   6   7
HETATM    7  C3  UNL     1     -32.562   7.438   1.576  1.00 20.00    -0.002 C 
HETATM    8  C2  UNL     1     -32.896   8.628   1.056  1.00 20.00    -0.033 C 
HETATM    9  C4  UNL     1     -33.275   8.835  -0.372  1.00 20.00     0.036 C 
ENDBRANCH   6   7
ENDBRANCH   4   6
ENDBRANCH   2   4
TORSDOF 3
ENDMDL
MODEL 3
REMARK VINA RESULT:      -3.9      1.133      1.279
REMARK  3 active torsions:
REMARK  status: ('A' for Active; 'I' for Inactive)
REMARK    1  A    between atoms: C3_3  and  C7_7 
REMARK    2  A    between atoms: C6_6  and  N9_9 
REMARK    3  A    between atoms: C7_7  and  N9_9 
ROOT
HETATM    1  C1  UNL     1     -37.334  14.639  -4.675  1.00 20.00     0.089 C 
HETATM    2  C6  UNL     1     -36.187  15.386  -5.186  1.00 20.00     0.395 C 
HETATM    3  N8  UNL     1     -38.247  14.049  -4.268  1.00 20.00    -0.195 NA
ENDROOT
BRANCH   2   4
HETATM    4  N9  UNL     1     -35.005  14.518  -5.302  1.00 20.00     0.100 N 
HETATM    5  C5  UNL     1     -34.046  15.120  -6.243  1.00 20.00     0.311 C 
BRANCH   4   6
HETATM    6  C7  UNL     1     -34.402  14.280  -4.020  1.00 20.00     0.300 C 
BRANCH   6   7
HETATM    7  C3  UNL     1     -33.556  15.454  -3.647  1.00 20.00    -0.002 C 
HETATM    8  C2  UNL     1     -33.789  16.227  -2.578  1.00 20.00    -0.033 C 
HETATM    9  C4  UNL     1     -32.944  17.397  -2.197  1.00 20.00     0.036 C 
ENDBRANCH   6   7
ENDBRANCH   4   6
ENDBRANCH   2   4
TORSDOF 3
ENDMDL
MODEL 4
REMARK VINA RESULT:      -3.8     17.537     18.243
REMARK  3 active torsions:
REMARK  status: ('A' for Active; 'I' for Inactive)
REMARK    1  A    between atoms: C3_3  and  C7_7 
REMARK    2  A    between atoms: C6_6  and  N9_9 
REMARK    3  A    between atoms: C7_7  and  N9_9 
ROOT
HETATM    1  C1  UNL     1     -21.793  17.479   8.181  1.00 20.00     0.089 C 
HETATM    2  C6  UNL     1     -21.962  18.150   9.469  1.00 20.00     0.395 C 
HETATM    3  N8  UNL     1     -21.657  16.950   7.157  1.00 20.00    -0.195 NA
ENDROOT
BRANCH   2   4
HETATM    4  N9  UNL     1     -22.480  17.217  10.482  1.00 20.00     0.100 N 
HETATM    5  C5  UNL     1     -22.288  17.793  11.822  1.00 20.00     0.311 C 
BRANCH   4   6
HETATM    6  C7  UNL     1     -23.860  16.897  10.242  1.00 20.00     0.300 C 
BRANCH   6   7
HETATM    7  C3  UNL     1     -24.705  18.086  10.568  1.00 20.00    -0.002 C 
HETATM    8  C2  UNL     1     -25.673  18.077  11.496  1.00 20.00    -0.033 C 
HETATM    9  C4  UNL     1     -26.516  19.263  11.830  1.00 20.00     0.036 C 
ENDBRANCH   6   7
ENDBRANCH   4   6
ENDBRANCH   2   4
TORSDOF 3
ENDMDL
MODEL 5
REMARK VINA RESULT:      -3.8     14.345     16.762
REMARK  3 active torsions:
REMARK  status: ('A' for Active; 'I' for Inactive)
REMARK    1  A    between atoms: C3_3  and  C7_7 
REMARK    2  A    between atoms: C6_6  and  N9_9 
REMARK    3  A    between atoms: C7_7  and  N9_9 
ROOT
HETATM    1  C1  UNL     1     -21.984  17.249   8.157  1.00 20.00     0.089 C 
HETATM    2  C6  UNL     1     -22.488  17.575   9.490  1.00 20.00     0.395 C 
HETATM    3  N8  UNL     1     -21.581  16.989   7.100  1.00 20.00    -0.195 NA
ENDROOT
BRANCH   2   4
HETATM    4  N9  UNL     1     -23.906  17.962   9.434  1.00 20.00     0.100 N 
HETATM    5  C5  UNL     1     -24.483  17.905  10.787  1.00 20.00     0.311 C 
BRANCH   4   6
HETATM    6  C7  UNL     1     -24.072  19.263   8.848  1.00 20.00     0.300 C 
BRANCH   6   7
HETATM    7  C3  UNL     1     -25.145  19.203   7.810  1.00 20.00    -0.002 C 
HETATM    8  C2  UNL     1     -24.907  19.263   6.492  1.00 20.00    -0.033 C 
HETATM    9  C4  UNL     1     -25.975  19.197   5.450  1.00 20.00     0.036 C 
ENDBRANCH   6   7
ENDBRANCH   4   6
ENDBRANCH   2   4
TORSDOF 3
ENDMDL
MODEL 6
REMARK VINA RESULT:      -3.7      1.195      1.432
REMARK  3 active torsions:
REMARK  status: ('A' for Active; 'I' for Inactive)
REMARK    1  A    between atoms: C3_3  and  C7_7 
REMARK    2  A    between atoms: C6_6  and  N9_9 
REMARK    3  A    between atoms: C7_7  and  N9_9 
ROOT
HETATM    1  C1  UNL     1     -36.754  14.137  -4.702  1.00 20.00     0.089 C 
HETATM    2  C6  UNL     1     -35.410  14.465  -5.173  1.00 20.00     0.395 C 
HETATM    3  N8  UNL     1     -37.822  13.875  -4.331  1.00 20.00    -0.195 NA
ENDROOT
BRANCH   2   4
HETATM    4  N9  UNL     1     -34.529  14.811  -4.047  1.00 20.00     0.100 N 
HETATM    5  C5  UNL     1     -33.134  14.505  -4.404  1.00 20.00     0.311 C 
BRANCH   4   6
HETATM    6  C7  UNL     1     -34.682  16.186  -3.664  1.00 20.00     0.300 C 
BRANCH   6   7
HETATM    7  C3  UNL     1     -34.563  16.301  -2.178  1.00 20.00    -0.002 C 
HETATM    8  C2  UNL     1     -35.450  16.947  -1.409  1.00 20.00    -0.033 C 
HETATM    9  C4  UNL     1     -35.339  17.059   0.075  1.00 20.00     0.036 C 
ENDBRANCH   6   7
ENDBRANCH   4   6
ENDBRANCH   2   4
TORSDOF 3
ENDMDL
MODEL 7
REMARK VINA RESULT:      -3.7      1.078      1.434
REMARK  3 active torsions:
REMARK  status: ('A' for Active; 'I' for Inactive)
REMARK    1  A    between atoms: C3_3  and  C7_7 
REMARK    2  A    between atoms: C6_6  and  N9_9 
REMARK    3  A    between atoms: C7_7  and  N9_9 
ROOT
HETATM    1  C1  UNL     1     -36.429  14.149  -4.634  1.00 20.00     0.089 C 
HETATM    2  C6  UNL     1     -35.127  14.744  -4.928  1.00 20.00     0.395 C 
HETATM    3  N8  UNL     1     -37.462  13.673  -4.403  1.00 20.00    -0.195 NA
ENDROOT
BRANCH   2   4
HETATM    4  N9  UNL     1     -34.906  15.949  -4.114  1.00 20.00     0.100 N 
HETATM    5  C5  UNL     1     -35.894  16.976  -4.481  1.00 20.00     0.311 C 
BRANCH   4   6
HETATM    6  C7  UNL     1     -34.957  15.651  -2.710  1.00 20.00     0.300 C 
BRANCH   6   7
HETATM    7  C3  UNL     1     -34.203  16.698  -1.956  1.00 20.00    -0.002 C 
HETATM    8  C2  UNL     1     -32.969  17.106  -2.284  1.00 20.00    -0.033 C 
HETATM    9  C4  UNL     1     -32.214  18.155  -1.538  1.00 20.00     0.036 C 
ENDBRANCH   6   7
ENDBRANCH   4   6
ENDBRANCH   2   4
TORSDOF 3
ENDMDL
MODEL 8
REMARK VINA RESULT:      -3.7     16.987     18.110
REMARK  3 active torsions:
REMARK  status: ('A' for Active; 'I' for Inactive)
REMARK    1  A    between atoms: C3_3  and  C7_7 
REMARK    2  A    between atoms: C6_6  and  N9_9 
REMARK    3  A    between atoms: C7_7  and  N9_9 
ROOT
HETATM    1  C1  UNL     1     -22.555  17.102   9.410  1.00 20.00     0.089 C 
HETATM    2  C6  UNL     1     -22.883  17.701  10.703  1.00 20.00     0.395 C 
HETATM    3  N8  UNL     1     -22.291  16.628   8.385  1.00 20.00    -0.195 NA
ENDROOT
BRANCH   2   4
HETATM    4  N9  UNL     1     -24.263  17.377  11.096  1.00 20.00     0.100 N 
HETATM    5  C5  UNL     1     -24.370  15.933  11.361  1.00 20.00     0.311 C 
BRANCH   4   6
HETATM    6  C7  UNL     1     -24.681  18.150  12.232  1.00 20.00     0.300 C 
BRANCH   6   7
HETATM    7  C3  UNL     1     -26.166  18.315  12.196  1.00 20.00    -0.002 C 
HETATM    8  C2  UNL     1     -26.805  19.098  11.315  1.00 20.00    -0.033 C 
HETATM    9  C4  UNL     1     -28.288  19.262  11.271  1.00 20.00     0.036 C 
ENDBRANCH   6   7
ENDBRANCH   4   6
ENDBRANCH   2   4
TORSDOF 3
ENDMDL
MODEL 9
REMARK VINA RESULT:      -3.6      3.028      5.633
REMARK  3 active torsions:
REMARK  status: ('A' for Active; 'I' for Inactive)
REMARK    1  A    between atoms: C3_3  and  C7_7 
REMARK    2  A    between atoms: C6_6  and  N9_9 
REMARK    3  A    between atoms: C7_7  and  N9_9 
ROOT
HETATM    1  C1  UNL     1     -31.525  18.254  -0.867  1.00 20.00     0.089 C 
HETATM    2  C6  UNL     1     -32.723  17.912  -1.632  1.00 20.00     0.395 C 
HETATM    3  N8  UNL     1     -30.572  18.526  -0.264  1.00 20.00    -0.195 NA
ENDROOT
BRANCH   2   4
HETATM    4  N9  UNL     1     -33.898  17.821  -0.751  1.00 20.00     0.100 N 
HETATM    5  C5  UNL     1     -34.293  19.173  -0.322  1.00 20.00     0.311 C 
BRANCH   4   6
HETATM    6  C7  UNL     1     -34.985  17.137  -1.395  1.00 20.00     0.300 C 
BRANCH   6   7
HETATM    7  C3  UNL     1     -34.438  16.039  -2.249  1.00 20.00    -0.002 C 
HETATM    8  C2  UNL     1     -35.181  15.327  -3.109  1.00 20.00    -0.033 C 
HETATM    9  C4  UNL     1     -34.640  14.234  -3.968  1.00 20.00     0.036 C 
ENDBRANCH   6   7
ENDBRANCH   4   6
ENDBRANCH   2   4
TORSDOF 3
ENDMDL
