MODEL 1
REMARK VINA RESULT:      -4.1      0.000      0.000
REMARK  3 active torsions:
REMARK  status: ('A' for Active; 'I' for Inactive)
REMARK    1  A    between atoms: C6_6  and  N10_10 
REMARK    2  A    between atoms: C7_7  and  C8_8 
REMARK    3  A    between atoms: C7_7  and  N10_10 
ROOT
HETATM    1  C1  UNL     1     -36.646  13.930  -4.351  1.00 20.00     0.086 C 
HETATM    2  C6  UNL     1     -35.200  13.826  -4.184  1.00 20.00     0.357 C 
HETATM    3  N9  UNL     1     -37.797  14.009  -4.484  1.00 20.00    -0.196 NA
ENDROOT
BRANCH   2   4
HETATM    4  N10 UNL     1     -34.546  15.122  -4.596  1.00 20.00    -0.062 N 
HETATM    5  C5  UNL     1     -34.018  15.042  -6.008  1.00 20.00     0.270 C 
HETATM    6  H27 UNL     1     -35.299  15.831  -4.612  1.00 20.00     0.280 HD
BRANCH   4   7
HETATM    7  C7  UNL     1     -33.518  15.575  -3.626  1.00 20.00     0.243 C 
BRANCH   7   8
HETATM    8  C8  UNL     1     -33.999  16.765  -2.769  1.00 20.00    -0.027 C 
HETATM    9  C2  UNL     1     -32.819  17.478  -2.087  1.00 20.00     0.016 C 
HETATM   10  C3  UNL     1     -34.701  17.767  -3.704  1.00 20.00     0.016 C 
HETATM   11  C4  UNL     1     -35.005  16.312  -1.695  1.00 20.00     0.016 C 
ENDBRANCH   7   8
ENDBRANCH   4   7
ENDBRANCH   2   4
TORSDOF 3
ENDMDL
MODEL 2
REMARK VINA RESULT:      -4.1      0.057      1.364
REMARK  3 active torsions:
REMARK  status: ('A' for Active; 'I' for Inactive)
REMARK    1  A    between atoms: C6_6  and  N10_10 
REMARK    2  A    between atoms: C7_7  and  C8_8 
REMARK    3  A    between atoms: C7_7  and  N10_10 
ROOT
HETATM    1  C1  UNL     1     -36.684  13.935  -4.351  1.00 20.00     0.086 C 
HETATM    2  C6  UNL     1     -35.236  13.824  -4.202  1.00 20.00     0.357 C 
HETATM    3  N9  UNL     1     -37.835  14.020  -4.470  1.00 20.00    -0.196 NA
ENDROOT
BRANCH   2   4
HETATM    4  N10 UNL     1     -34.582  15.125  -4.599  1.00 20.00    -0.062 N 
HETATM    5  C5  UNL     1     -34.029  15.051  -6.001  1.00 20.00     0.270 C 
HETATM    6  H27 UNL     1     -35.339  15.829  -4.626  1.00 20.00     0.280 HD
BRANCH   4   7
HETATM    7  C7  UNL     1     -33.574  15.581  -3.610  1.00 20.00     0.243 C 
BRANCH   7   8
HETATM    8  C8  UNL     1     -34.068  16.780  -2.773  1.00 20.00    -0.027 C 
HETATM    9  C2  UNL     1     -35.020  16.327  -1.652  1.00 20.00     0.016 C 
HETATM   10  C3  UNL     1     -32.836  17.444  -2.129  1.00 20.00     0.016 C 
HETATM   11  C4  UNL     1     -34.781  17.823  -3.652  1.00 20.00     0.016 C 
ENDBRANCH   7   8
ENDBRANCH   4   7
ENDBRANCH   2   4
TORSDOF 3
ENDMDL
MODEL 3
REMARK VINA RESULT:      -4.1      1.546      2.441
REMARK  3 active torsions:
REMARK  status: ('A' for Active; 'I' for Inactive)
REMARK    1  A    between atoms: C6_6  and  N10_10 
REMARK    2  A    between atoms: C7_7  and  C8_8 
REMARK    3  A    between atoms: C7_7  and  N10_10 
ROOT
HETATM    1  C1  UNL     1     -36.162  13.903  -5.037  1.00 20.00     0.086 C 
HETATM    2  C6  UNL     1     -36.398  15.223  -5.612  1.00 20.00     0.357 C 
HETATM    3  N9  UNL     1     -35.975  12.852  -4.582  1.00 20.00    -0.196 NA
ENDROOT
BRANCH   2   4
HETATM    4  N10 UNL     1     -36.145  16.286  -4.571  1.00 20.00    -0.062 N 
HETATM    5  C5  UNL     1     -37.195  17.368  -4.629  1.00 20.00     0.270 C 
HETATM    6  H27 UNL     1     -36.263  15.822  -3.654  1.00 20.00     0.280 HD
BRANCH   4   7
HETATM    7  C7  UNL     1     -34.764  16.826  -4.632  1.00 20.00     0.243 C 
BRANCH   7   8
HETATM    8  C8  UNL     1     -33.906  16.393  -3.424  1.00 20.00    -0.027 C 
HETATM    9  C2  UNL     1     -34.785  15.913  -2.255  1.00 20.00     0.016 C 
HETATM   10  C3  UNL     1     -33.012  15.222  -3.876  1.00 20.00     0.016 C 
HETATM   11  C4  UNL     1     -33.001  17.539  -2.938  1.00 20.00     0.016 C 
ENDBRANCH   7   8
ENDBRANCH   4   7
ENDBRANCH   2   4
TORSDOF 3
ENDMDL
MODEL 4
REMARK VINA RESULT:      -4.0      1.557      2.233
REMARK  3 active torsions:
REMARK  status: ('A' for Active; 'I' for Inactive)
REMARK    1  A    between atoms: C6_6  and  N10_10 
REMARK    2  A    between atoms: C7_7  and  C8_8 
REMARK    3  A    between atoms: C7_7  and  N10_10 
ROOT
HETATM    1  C1  UNL     1     -36.169  13.908  -5.023  1.00 20.00     0.086 C 
HETATM    2  C6  UNL     1     -36.418  15.232  -5.586  1.00 20.00     0.357 C 
HETATM    3  N9  UNL     1     -35.972  12.854  -4.578  1.00 20.00    -0.196 NA
ENDROOT
BRANCH   2   4
HETATM    4  N10 UNL     1     -36.180  16.286  -4.533  1.00 20.00    -0.062 N 
HETATM    5  C5  UNL     1     -37.256  17.343  -4.567  1.00 20.00     0.270 C 
HETATM    6  H27 UNL     1     -36.279  15.807  -3.621  1.00 20.00     0.280 HD
BRANCH   4   7
HETATM    7  C7  UNL     1     -34.813  16.859  -4.598  1.00 20.00     0.243 C 
BRANCH   7   8
HETATM    8  C8  UNL     1     -33.911  16.371  -3.445  1.00 20.00    -0.027 C 
HETATM    9  C2  UNL     1     -33.006  15.211  -3.894  1.00 20.00     0.016 C 
HETATM   10  C3  UNL     1     -33.018  17.549  -3.014  1.00 20.00     0.016 C 
HETATM   11  C4  UNL     1     -34.746  15.921  -2.232  1.00 20.00     0.016 C 
ENDBRANCH   7   8
ENDBRANCH   4   7
ENDBRANCH   2   4
TORSDOF 3
ENDMDL
MODEL 5
REMARK VINA RESULT:      -4.0      1.543      2.319
REMARK  3 active torsions:
REMARK  status: ('A' for Active; 'I' for Inactive)
REMARK    1  A    between atoms: C6_6  and  N10_10 
REMARK    2  A    between atoms: C7_7  and  C8_8 
REMARK    3  A    between atoms: C7_7  and  N10_10 
ROOT
HETATM    1  C1  UNL     1     -36.163  13.907  -5.013  1.00 20.00     0.086 C 
HETATM    2  C6  UNL     1     -36.391  15.242  -5.557  1.00 20.00     0.357 C 
HETATM    3  N9  UNL     1     -35.984  12.844  -4.583  1.00 20.00    -0.196 NA
ENDROOT
BRANCH   2   4
HETATM    4  N10 UNL     1     -36.189  16.274  -4.476  1.00 20.00    -0.062 N 
HETATM    5  C5  UNL     1     -37.308  17.287  -4.473  1.00 20.00     0.270 C 
HETATM    6  H27 UNL     1     -36.261  15.766  -3.578  1.00 20.00     0.280 HD
BRANCH   4   7
HETATM    7  C7  UNL     1     -34.847  16.906  -4.532  1.00 20.00     0.243 C 
BRANCH   7   8
HETATM    8  C8  UNL     1     -33.915  16.414  -3.405  1.00 20.00    -0.027 C 
HETATM    9  C2  UNL     1     -33.011  17.548  -2.891  1.00 20.00     0.016 C 
HETATM   10  C3  UNL     1     -34.798  15.927  -2.241  1.00 20.00     0.016 C 
HETATM   11  C4  UNL     1     -33.037  15.241  -3.875  1.00 20.00     0.016 C 
ENDBRANCH   7   8
ENDBRANCH   4   7
ENDBRANCH   2   4
TORSDOF 3
ENDMDL
MODEL 6
REMARK VINA RESULT:      -3.9      1.693      2.739
REMARK  3 active torsions:
REMARK  status: ('A' for Active; 'I' for Inactive)
REMARK    1  A    between atoms: C6_6  and  N10_10 
REMARK    2  A    between atoms: C7_7  and  C8_8 
REMARK    3  A    between atoms: C7_7  and  N10_10 
ROOT
HETATM    1  C1  UNL     1     -37.877  15.121  -4.601  1.00 20.00     0.086 C 
HETATM    2  C6  UNL     1     -37.598  16.500  -4.989  1.00 20.00     0.357 C 
HETATM    3  N9  UNL     1     -38.101  14.025  -4.294  1.00 20.00    -0.196 NA
ENDROOT
BRANCH   2   4
HETATM    4  N10 UNL     1     -36.511  17.067  -4.110  1.00 20.00    -0.062 N 
HETATM    5  C5  UNL     1     -36.623  18.568  -4.002  1.00 20.00     0.270 C 
HETATM    6  H27 UNL     1     -36.689  16.698  -3.161  1.00 20.00     0.280 HD
BRANCH   4   7
HETATM    7  C7  UNL     1     -35.156  16.624  -4.523  1.00 20.00     0.243 C 
BRANCH   7   8
HETATM    8  C8  UNL     1     -34.449  15.791  -3.432  1.00 20.00    -0.027 C 
HETATM    9  C2  UNL     1     -34.408  14.299  -3.805  1.00 20.00     0.016 C 
HETATM   10  C3  UNL     1     -33.002  16.305  -3.310  1.00 20.00     0.016 C 
HETATM   11  C4  UNL     1     -35.141  15.952  -2.067  1.00 20.00     0.016 C 
ENDBRANCH   7   8
ENDBRANCH   4   7
ENDBRANCH   2   4
TORSDOF 3
ENDMDL
MODEL 7
REMARK VINA RESULT:      -3.5      1.773      3.249
REMARK  3 active torsions:
REMARK  status: ('A' for Active; 'I' for Inactive)
REMARK    1  A    between atoms: C6_6  and  N10_10 
REMARK    2  A    between atoms: C7_7  and  C8_8 
REMARK    3  A    between atoms: C7_7  and  N10_10 
ROOT
HETATM    1  C1  UNL     1     -34.823  15.374  -7.176  1.00 20.00     0.086 C 
HETATM    2  C6  UNL     1     -36.189  15.699  -6.779  1.00 20.00     0.357 C 
HETATM    3  N9  UNL     1     -33.738  15.115  -7.495  1.00 20.00    -0.196 NA
ENDROOT
BRANCH   2   4
HETATM    4  N10 UNL     1     -36.310  15.640  -5.276  1.00 20.00    -0.062 N 
HETATM    5  C5  UNL     1     -37.713  15.970  -4.829  1.00 20.00     0.270 C 
HETATM    6  H27 UNL     1     -36.151  14.652  -5.015  1.00 20.00     0.280 HD
BRANCH   4   7
HETATM    7  C7  UNL     1     -35.283  16.462  -4.589  1.00 20.00     0.243 C 
BRANCH   7   8
HETATM    8  C8  UNL     1     -34.544  15.680  -3.482  1.00 20.00    -0.027 C 
HETATM    9  C2  UNL     1     -35.127  15.990  -2.092  1.00 20.00     0.016 C 
HETATM   10  C3  UNL     1     -34.727  14.177  -3.765  1.00 20.00     0.016 C 
HETATM   11  C4  UNL     1     -33.038  15.997  -3.482  1.00 20.00     0.016 C 
ENDBRANCH   7   8
ENDBRANCH   4   7
ENDBRANCH   2   4
TORSDOF 3
ENDMDL
MODEL 8
REMARK VINA RESULT:      -3.5      2.772      5.026
REMARK  3 active torsions:
REMARK  status: ('A' for Active; 'I' for Inactive)
REMARK    1  A    between atoms: C6_6  and  N10_10 
REMARK    2  A    between atoms: C7_7  and  C8_8 
REMARK    3  A    between atoms: C7_7  and  N10_10 
ROOT
HETATM    1  C1  UNL     1     -31.615  18.328  -0.772  1.00 20.00     0.086 C 
HETATM    2  C6  UNL     1     -33.006  18.281  -1.210  1.00 20.00     0.357 C 
HETATM    3  N9  UNL     1     -30.509  18.366  -0.421  1.00 20.00    -0.196 NA
ENDROOT
BRANCH   2   4
HETATM    4  N10 UNL     1     -33.064  18.041  -2.699  1.00 20.00    -0.062 N 
HETATM    5  C5  UNL     1     -32.541  19.232  -3.464  1.00 20.00     0.270 C 
HETATM    6  H27 UNL     1     -32.405  17.267  -2.889  1.00 20.00     0.280 HD
BRANCH   4   7
HETATM    7  C7  UNL     1     -34.409  17.614  -3.156  1.00 20.00     0.243 C 
BRANCH   7   8
HETATM    8  C8  UNL     1     -34.396  16.213  -3.803  1.00 20.00    -0.027 C 
HETATM    9  C2  UNL     1     -35.467  15.298  -3.184  1.00 20.00     0.016 C 
HETATM   10  C3  UNL     1     -34.706  16.383  -5.302  1.00 20.00     0.016 C 
HETATM   11  C4  UNL     1     -33.017  15.543  -3.664  1.00 20.00     0.016 C 
ENDBRANCH   7   8
ENDBRANCH   4   7
ENDBRANCH   2   4
TORSDOF 3
ENDMDL
MODEL 9
REMARK VINA RESULT:      -3.4      1.716      3.458
REMARK  3 active torsions:
REMARK  status: ('A' for Active; 'I' for Inactive)
REMARK    1  A    between atoms: C6_6  and  N10_10 
REMARK    2  A    between atoms: C7_7  and  C8_8 
REMARK    3  A    between atoms: C7_7  and  N10_10 
ROOT
HETATM    1  C1  UNL     1     -35.579  13.855  -4.043  1.00 20.00     0.086 C 
HETATM    2  C6  UNL     1     -35.151  15.099  -3.412  1.00 20.00     0.357 C 
HETATM    3  N9  UNL     1     -35.920  12.864  -4.542  1.00 20.00    -0.196 NA
ENDROOT
BRANCH   2   4
HETATM    4  N10 UNL     1     -34.101  15.768  -4.265  1.00 20.00    -0.062 N 
HETATM    5  C5  UNL     1     -32.981  16.321  -3.418  1.00 20.00     0.270 C 
HETATM    6  H27 UNL     1     -33.681  15.019  -4.842  1.00 20.00     0.280 HD
BRANCH   4   7
HETATM    7  C7  UNL     1     -34.675  16.781  -5.186  1.00 20.00     0.243 C 
BRANCH   7   8
HETATM    8  C8  UNL     1     -34.647  16.323  -6.659  1.00 20.00    -0.027 C 
HETATM    9  C2  UNL     1     -34.155  17.448  -7.587  1.00 20.00     0.016 C 
HETATM   10  C3  UNL     1     -33.669  15.138  -6.766  1.00 20.00     0.016 C 
HETATM   11  C4  UNL     1     -36.036  15.853  -7.127  1.00 20.00     0.016 C 
ENDBRANCH   7   8
ENDBRANCH   4   7
ENDBRANCH   2   4
TORSDOF 3
ENDMDL
