MODEL 1
REMARK VINA RESULT:      -4.0      0.000      0.000
REMARK  0 active torsions:
REMARK  status: ('A' for Active; 'I' for Inactive)
ROOT
HETATM    1  C1  UNL     1     -35.323  15.460  -5.643  1.00 20.00     0.005 A 
HETATM    2  C2  UNL     1     -35.995  14.358  -6.032  1.00 20.00     0.107 A 
HETATM    3  C3  UNL     1     -35.535  15.326  -4.127  1.00 20.00     0.132 A 
HETATM    4  C4  UNL     1     -34.261  15.226  -3.302  1.00 20.00     0.031 C 
HETATM    5  O5  UNL     1     -35.662  12.604  -4.414  1.00 20.00    -0.223 OA
HETATM    6  O6  UNL     1     -37.856  13.953  -4.555  1.00 20.00    -0.223 OA
HETATM    7  S7  UNL     1     -36.428  13.828  -4.385  1.00 20.00     0.172 S 
ENDROOT
TORSDOF 0
ENDMDL
MODEL 2
REMARK VINA RESULT:      -3.9     18.686     19.624
REMARK  0 active torsions:
REMARK  status: ('A' for Active; 'I' for Inactive)
ROOT
HETATM    1  C1  UNL     1     -24.339  17.846   9.724  1.00 20.00     0.005 A 
HETATM    2  C2  UNL     1     -23.790  18.326   8.590  1.00 20.00     0.107 A 
HETATM    3  C3  UNL     1     -23.096  17.144  10.292  1.00 20.00     0.132 A 
HETATM    4  C4  UNL     1     -22.644  17.634  11.659  1.00 20.00     0.031 C 
HETATM    5  O5  UNL     1     -21.511  18.979   9.016  1.00 20.00    -0.223 OA
HETATM    6  O6  UNL     1     -22.113  16.804   7.766  1.00 20.00    -0.223 OA
HETATM    7  S7  UNL     1     -22.154  17.691   8.905  1.00 20.00     0.172 S 
ENDROOT
TORSDOF 0
ENDMDL
MODEL 3
REMARK VINA RESULT:      -3.7      1.280      1.592
REMARK  0 active torsions:
REMARK  status: ('A' for Active; 'I' for Inactive)
ROOT
HETATM    1  C1  UNL     1     -35.692  15.912  -4.743  1.00 20.00     0.005 A 
HETATM    2  C2  UNL     1     -35.276  14.889  -5.517  1.00 20.00     0.107 A 
HETATM    3  C3  UNL     1     -35.522  15.237  -3.373  1.00 20.00     0.132 A 
HETATM    4  C4  UNL     1     -34.573  15.943  -2.417  1.00 20.00     0.031 C 
HETATM    5  O5  UNL     1     -33.489  13.718  -4.404  1.00 20.00    -0.223 OA
HETATM    6  O6  UNL     1     -35.891  12.784  -4.517  1.00 20.00    -0.223 OA
HETATM    7  S7  UNL     1     -34.911  13.785  -4.165  1.00 20.00     0.172 S 
ENDROOT
TORSDOF 0
ENDMDL
MODEL 4
REMARK VINA RESULT:      -3.6      1.382      1.428
REMARK  0 active torsions:
REMARK  status: ('A' for Active; 'I' for Inactive)
ROOT
HETATM    1  C1  UNL     1     -35.703  16.120  -4.136  1.00 20.00     0.005 A 
HETATM    2  C2  UNL     1     -36.675  15.773  -5.004  1.00 20.00     0.107 A 
HETATM    3  C3  UNL     1     -35.186  14.711  -3.806  1.00 20.00     0.132 A 
HETATM    4  C4  UNL     1     -33.719  14.469  -4.124  1.00 20.00     0.031 C 
HETATM    5  O5  UNL     1     -35.952  13.877  -6.301  1.00 20.00    -0.223 OA
HETATM    6  O6  UNL     1     -37.644  13.660  -4.367  1.00 20.00    -0.223 OA
HETATM    7  S7  UNL     1     -36.361  14.019  -4.924  1.00 20.00     0.172 S 
ENDROOT
TORSDOF 0
ENDMDL
MODEL 5
REMARK VINA RESULT:      -3.6      0.727      2.386
REMARK  0 active torsions:
REMARK  status: ('A' for Active; 'I' for Inactive)
ROOT
HETATM    1  C1  UNL     1     -35.008  15.534  -4.382  1.00 20.00     0.005 A 
HETATM    2  C2  UNL     1     -35.617  14.725  -3.492  1.00 20.00     0.107 A 
HETATM    3  C3  UNL     1     -35.449  14.821  -5.669  1.00 20.00     0.132 A 
HETATM    4  C4  UNL     1     -36.251  15.674  -6.640  1.00 20.00     0.031 C 
HETATM    5  O5  UNL     1     -37.725  13.985  -4.393  1.00 20.00    -0.223 OA
HETATM    6  O6  UNL     1     -35.647  12.459  -4.313  1.00 20.00    -0.223 OA
HETATM    7  S7  UNL     1     -36.356  13.652  -4.710  1.00 20.00     0.172 S 
ENDROOT
TORSDOF 0
ENDMDL
MODEL 6
REMARK VINA RESULT:      -3.5     10.207     10.511
REMARK  0 active torsions:
REMARK  status: ('A' for Active; 'I' for Inactive)
ROOT
HETATM    1  C1  UNL     1     -42.527   7.005   1.016  1.00 20.00     0.005 A 
HETATM    2  C2  UNL     1     -42.814   6.285  -0.087  1.00 20.00     0.107 A 
HETATM    3  C3  UNL     1     -41.323   7.785   0.465  1.00 20.00     0.132 A 
HETATM    4  C4  UNL     1     -41.470   9.299   0.482  1.00 20.00     0.031 C 
HETATM    5  O5  UNL     1     -42.404   7.624  -2.048  1.00 20.00    -0.223 OA
HETATM    6  O6  UNL     1     -40.792   5.760  -1.288  1.00 20.00    -0.223 OA
HETATM    7  S7  UNL     1     -41.523   6.990  -1.095  1.00 20.00     0.172 S 
ENDROOT
TORSDOF 0
ENDMDL
MODEL 7
REMARK VINA RESULT:      -3.5      1.503      1.907
REMARK  0 active torsions:
REMARK  status: ('A' for Active; 'I' for Inactive)
ROOT
HETATM    1  C1  UNL     1     -35.839  15.614  -3.230  1.00 20.00     0.005 A 
HETATM    2  C2  UNL     1     -36.618  15.034  -4.166  1.00 20.00     0.107 A 
HETATM    3  C3  UNL     1     -34.577  14.761  -3.432  1.00 20.00     0.132 A 
HETATM    4  C4  UNL     1     -33.326  15.537  -3.813  1.00 20.00     0.031 C 
HETATM    5  O5  UNL     1     -35.266  14.414  -6.061  1.00 20.00    -0.223 OA
HETATM    6  O6  UNL     1     -36.104  12.686  -4.339  1.00 20.00    -0.223 OA
HETATM    7  S7  UNL     1     -35.383  13.876  -4.726  1.00 20.00     0.172 S 
ENDROOT
TORSDOF 0
ENDMDL
MODEL 8
REMARK VINA RESULT:      -3.4      2.123      2.431
REMARK  0 active torsions:
REMARK  status: ('A' for Active; 'I' for Inactive)
ROOT
HETATM    1  C1  UNL     1     -33.051  15.716  -3.657  1.00 20.00     0.005 A 
HETATM    2  C2  UNL     1     -32.987  14.600  -4.411  1.00 20.00     0.107 A 
HETATM    3  C3  UNL     1     -34.579  15.880  -3.634  1.00 20.00     0.132 A 
HETATM    4  C4  UNL     1     -35.210  15.865  -2.251  1.00 20.00     0.031 C 
HETATM    5  O5  UNL     1     -34.847  13.164  -3.879  1.00 20.00    -0.223 OA
HETATM    6  O6  UNL     1     -34.771  14.585  -6.031  1.00 20.00    -0.223 OA
HETATM    7  S7  UNL     1     -34.750  14.414  -4.597  1.00 20.00     0.172 S 
ENDROOT
TORSDOF 0
ENDMDL
MODEL 9
REMARK VINA RESULT:      -3.4     18.849     19.417
REMARK  0 active torsions:
REMARK  status: ('A' for Active; 'I' for Inactive)
ROOT
HETATM    1  C1  UNL     1     -23.403  16.813  10.443  1.00 20.00     0.005 A 
HETATM    2  C2  UNL     1     -22.861  16.955   9.217  1.00 20.00     0.107 A 
HETATM    3  C3  UNL     1     -23.831  18.272  10.666  1.00 20.00     0.132 A 
HETATM    4  C4  UNL     1     -25.318  18.482  10.902  1.00 20.00     0.031 C 
HETATM    5  O5  UNL     1     -24.133  18.568   7.959  1.00 20.00    -0.223 OA
HETATM    6  O6  UNL     1     -21.841  19.128   9.002  1.00 20.00    -0.223 OA
HETATM    7  S7  UNL     1     -23.217  18.696   9.068  1.00 20.00     0.172 S 
ENDROOT
TORSDOF 0
ENDMDL
