MODEL 1
REMARK VINA RESULT:      -5.5      0.000      0.000
REMARK  0 active torsions:
REMARK  status: ('A' for Active; 'I' for Inactive)
ROOT
HETATM    1  C1  UNL     1     -37.603  14.485  -4.165  1.00 20.00     0.064 C 
HETATM    2  C2  UNL     1     -34.939  14.875  -7.041  1.00 20.00    -0.030 C 
HETATM    3  C3  UNL     1     -36.102  15.530  -6.952  1.00 20.00    -0.030 C 
HETATM    4  C4  UNL     1     -33.823  15.089  -6.069  1.00 20.00     0.037 C 
HETATM    5  C5  UNL     1     -36.366  16.554  -5.894  1.00 20.00     0.038 C 
HETATM    6  C6  UNL     1     -33.673  16.323  -2.385  1.00 20.00     0.001 C 
HETATM    7  C7  UNL     1     -34.813  17.339  -2.396  1.00 20.00     0.001 C 
HETATM    8  C8  UNL     1     -33.206  15.911  -3.774  1.00 20.00     0.011 C 
HETATM    9  C9  UNL     1     -35.521  17.509  -3.738  1.00 20.00     0.012 C 
HETATM   10  C10 UNL     1     -35.106  14.136  -4.054  1.00 20.00     0.030 C 
HETATM   11  C11 UNL     1     -36.329  15.013  -3.719  1.00 20.00     0.103 C 
HETATM   12  C12 UNL     1     -34.356  15.370  -4.648  1.00 20.00    -0.027 C 
HETATM   13  C13 UNL     1     -35.694  16.202  -4.543  1.00 20.00    -0.013 C 
HETATM   14  N14 UNL     1     -38.623  14.062  -4.522  1.00 20.00    -0.197 NA
ENDROOT
TORSDOF 0
ENDMDL
MODEL 2
REMARK VINA RESULT:      -5.5      1.500      1.872
REMARK  0 active torsions:
REMARK  status: ('A' for Active; 'I' for Inactive)
ROOT
HETATM    1  C1  UNL     1     -35.337  13.709  -4.068  1.00 20.00     0.064 C 
HETATM    2  C2  UNL     1     -35.313  16.810  -6.498  1.00 20.00    -0.030 C 
HETATM    3  C3  UNL     1     -36.398  16.233  -5.970  1.00 20.00    -0.030 C 
HETATM    4  C4  UNL     1     -34.308  17.539  -5.663  1.00 20.00     0.037 C 
HETATM    5  C5  UNL     1     -36.711  16.301  -4.509  1.00 20.00     0.038 C 
HETATM    6  C6  UNL     1     -33.264  17.328  -1.924  1.00 20.00     0.001 C 
HETATM    7  C7  UNL     1     -34.612  16.996  -1.288  1.00 20.00     0.001 C 
HETATM    8  C8  UNL     1     -33.372  17.849  -3.351  1.00 20.00     0.011 C 
HETATM    9  C9  UNL     1     -35.785  16.902  -2.260  1.00 20.00     0.012 C 
HETATM   10  C10 UNL     1     -33.537  15.450  -4.378  1.00 20.00     0.030 C 
HETATM   11  C11 UNL     1     -34.684  14.881  -3.520  1.00 20.00     0.103 C 
HETATM   12  C12 UNL     1     -34.142  16.885  -4.276  1.00 20.00    -0.027 C 
HETATM   13  C13 UNL     1     -35.440  16.264  -3.624  1.00 20.00    -0.013 C 
HETATM   14  N14 UNL     1     -35.860  12.770  -4.507  1.00 20.00    -0.197 NA
ENDROOT
TORSDOF 0
ENDMDL
MODEL 3
REMARK VINA RESULT:      -5.3      1.243      2.215
REMARK  0 active torsions:
REMARK  status: ('A' for Active; 'I' for Inactive)
ROOT
HETATM    1  C1  UNL     1     -36.958  14.763  -4.072  1.00 20.00     0.064 C 
HETATM    2  C2  UNL     1     -33.024  14.826  -4.274  1.00 20.00    -0.030 C 
HETATM    3  C3  UNL     1     -33.865  14.785  -5.313  1.00 20.00    -0.030 C 
HETATM    4  C4  UNL     1     -32.931  16.011  -3.366  1.00 20.00     0.037 C 
HETATM    5  C5  UNL     1     -34.752  15.934  -5.672  1.00 20.00     0.038 C 
HETATM    6  C6  UNL     1     -35.397  18.861  -2.411  1.00 20.00     0.001 C 
HETATM    7  C7  UNL     1     -36.131  19.037  -3.739  1.00 20.00     0.001 C 
HETATM    8  C8  UNL     1     -34.099  18.074  -2.529  1.00 20.00     0.011 C 
HETATM    9  C9  UNL     1     -35.655  18.129  -4.871  1.00 20.00     0.012 C 
HETATM   10  C10 UNL     1     -35.315  15.760  -2.437  1.00 20.00     0.030 C 
HETATM   11  C11 UNL     1     -36.362  15.976  -3.548  1.00 20.00     0.103 C 
HETATM   12  C12 UNL     1     -34.304  16.690  -3.178  1.00 20.00    -0.027 C 
HETATM   13  C13 UNL     1     -35.268  16.700  -4.428  1.00 20.00    -0.013 C 
HETATM   14  N14 UNL     1     -37.436  13.792  -4.491  1.00 20.00    -0.197 NA
ENDROOT
TORSDOF 0
ENDMDL
MODEL 4
REMARK VINA RESULT:      -5.2      1.322      3.541
REMARK  0 active torsions:
REMARK  status: ('A' for Active; 'I' for Inactive)
ROOT
HETATM    1  C1  UNL     1     -37.219  14.618  -4.854  1.00 20.00     0.064 C 
HETATM    2  C2  UNL     1     -34.744  16.772  -2.674  1.00 20.00    -0.030 C 
HETATM    3  C3  UNL     1     -34.754  15.438  -2.765  1.00 20.00    -0.030 C 
HETATM    4  C4  UNL     1     -34.385  17.650  -3.831  1.00 20.00     0.037 C 
HETATM    5  C5  UNL     1     -34.374  14.717  -4.018  1.00 20.00     0.038 C 
HETATM    6  C6  UNL     1     -34.511  17.191  -7.690  1.00 20.00     0.001 C 
HETATM    7  C7  UNL     1     -34.179  15.704  -7.794  1.00 20.00     0.001 C 
HETATM    8  C8  UNL     1     -34.183  17.798  -6.333  1.00 20.00     0.011 C 
HETATM    9  C9  UNL     1     -33.913  15.002  -6.465  1.00 20.00     0.012 C 
HETATM   10  C10 UNL     1     -36.419  16.977  -5.253  1.00 20.00     0.030 C 
HETATM   11  C11 UNL     1     -36.354  15.484  -5.630  1.00 20.00     0.103 C 
HETATM   12  C12 UNL     1     -34.862  17.047  -5.169  1.00 20.00    -0.027 C 
HETATM   13  C13 UNL     1     -34.810  15.475  -5.298  1.00 20.00    -0.013 C 
HETATM   14  N14 UNL     1     -37.912  13.923  -4.234  1.00 20.00    -0.197 NA
ENDROOT
TORSDOF 0
ENDMDL
MODEL 5
REMARK VINA RESULT:      -5.0      2.180      3.971
REMARK  0 active torsions:
REMARK  status: ('A' for Active; 'I' for Inactive)
ROOT
HETATM    1  C1  UNL     1     -35.290  16.778  -1.156  1.00 20.00     0.064 C 
HETATM    2  C2  UNL     1     -33.478  18.514  -4.192  1.00 20.00    -0.030 C 
HETATM    3  C3  UNL     1     -32.884  17.830  -3.208  1.00 20.00    -0.030 C 
HETATM    4  C4  UNL     1     -34.380  17.860  -5.190  1.00 20.00     0.037 C 
HETATM    5  C5  UNL     1     -33.046  16.352  -3.048  1.00 20.00     0.038 C 
HETATM    6  C6  UNL     1     -36.560  14.641  -5.132  1.00 20.00     0.001 C 
HETATM    7  C7  UNL     1     -35.684  13.739  -4.265  1.00 20.00     0.001 C 
HETATM    8  C8  UNL     1     -35.834  15.866  -5.671  1.00 20.00     0.011 C 
HETATM    9  C9  UNL     1     -34.371  14.362  -3.798  1.00 20.00     0.012 C 
HETATM   10  C10 UNL     1     -36.186  17.234  -3.470  1.00 20.00     0.030 C 
HETATM   11  C11 UNL     1     -35.639  16.219  -2.446  1.00 20.00     0.103 C 
HETATM   12  C12 UNL     1     -35.191  16.712  -4.553  1.00 20.00    -0.027 C 
HETATM   13  C13 UNL     1     -34.463  15.862  -3.438  1.00 20.00    -0.013 C 
HETATM   14  N14 UNL     1     -35.011  17.225  -0.121  1.00 20.00    -0.197 NA
ENDROOT
TORSDOF 0
ENDMDL
MODEL 6
REMARK VINA RESULT:      -5.0      2.023      3.163
REMARK  0 active torsions:
REMARK  status: ('A' for Active; 'I' for Inactive)
ROOT
HETATM    1  C1  UNL     1     -34.646  17.804  -6.226  1.00 20.00     0.064 C 
HETATM    2  C2  UNL     1     -36.355  14.391  -5.250  1.00 20.00    -0.030 C 
HETATM    3  C3  UNL     1     -35.257  14.535  -6.000  1.00 20.00    -0.030 C 
HETATM    4  C4  UNL     1     -36.383  14.746  -3.797  1.00 20.00     0.037 C 
HETATM    5  C5  UNL     1     -33.962  15.027  -5.439  1.00 20.00     0.038 C 
HETATM    6  C6  UNL     1     -34.315  17.188  -1.589  1.00 20.00     0.001 C 
HETATM    7  C7  UNL     1     -32.952  17.075  -2.269  1.00 20.00     0.001 C 
HETATM    8  C8  UNL     1     -35.283  16.076  -1.969  1.00 20.00     0.011 C 
HETATM    9  C9  UNL     1     -32.891  16.109  -3.449  1.00 20.00     0.012 C 
HETATM   10  C10 UNL     1     -36.020  17.262  -4.180  1.00 20.00     0.030 C 
HETATM   11  C11 UNL     1     -34.635  17.527  -4.804  1.00 20.00     0.103 C 
HETATM   12  C12 UNL     1     -35.488  15.965  -3.494  1.00 20.00    -0.027 C 
HETATM   13  C13 UNL     1     -34.158  16.096  -4.335  1.00 20.00    -0.013 C 
HETATM   14  N14 UNL     1     -34.655  18.027  -7.366  1.00 20.00    -0.197 NA
ENDROOT
TORSDOF 0
ENDMDL
MODEL 7
REMARK VINA RESULT:      -5.0      1.579      2.141
REMARK  0 active torsions:
REMARK  status: ('A' for Active; 'I' for Inactive)
ROOT
HETATM    1  C1  UNL     1     -37.551  17.093  -3.329  1.00 20.00     0.064 C 
HETATM    2  C2  UNL     1     -35.819  13.714  -4.378  1.00 20.00    -0.030 C 
HETATM    3  C3  UNL     1     -36.554  14.500  -5.172  1.00 20.00    -0.030 C 
HETATM    4  C4  UNL     1     -34.496  14.144  -3.828  1.00 20.00     0.037 C 
HETATM    5  C5  UNL     1     -36.097  15.858  -5.600  1.00 20.00     0.038 C 
HETATM    6  C6  UNL     1     -32.896  17.610  -3.089  1.00 20.00     0.001 C 
HETATM    7  C7  UNL     1     -33.495  18.430  -4.231  1.00 20.00     0.001 C 
HETATM    8  C8  UNL     1     -33.019  16.105  -3.287  1.00 20.00     0.011 C 
HETATM    9  C9  UNL     1     -34.403  17.656  -5.182  1.00 20.00     0.012 C 
HETATM   10  C10 UNL     1     -35.470  16.031  -2.377  1.00 20.00     0.030 C 
HETATM   11  C11 UNL     1     -36.104  17.126  -3.256  1.00 20.00     0.103 C 
HETATM   12  C12 UNL     1     -34.476  15.657  -3.521  1.00 20.00    -0.027 C 
HETATM   13  C13 UNL     1     -35.290  16.590  -4.499  1.00 20.00    -0.013 C 
HETATM   14  N14 UNL     1     -38.710  17.066  -3.387  1.00 20.00    -0.197 NA
ENDROOT
TORSDOF 0
ENDMDL
MODEL 8
REMARK VINA RESULT:      -4.9      1.596      3.712
REMARK  0 active torsions:
REMARK  status: ('A' for Active; 'I' for Inactive)
ROOT
HETATM    1  C1  UNL     1     -36.110  13.814  -4.759  1.00 20.00     0.064 C 
HETATM    2  C2  UNL     1     -35.154  16.409  -1.953  1.00 20.00    -0.030 C 
HETATM    3  C3  UNL     1     -34.298  15.662  -2.659  1.00 20.00    -0.030 C 
HETATM    4  C4  UNL     1     -35.978  17.488  -2.579  1.00 20.00     0.037 C 
HETATM    5  C5  UNL     1     -34.070  15.871  -4.122  1.00 20.00     0.038 C 
HETATM    6  C6  UNL     1     -37.273  18.125  -6.190  1.00 20.00     0.001 C 
HETATM    7  C7  UNL     1     -36.104  17.562  -6.997  1.00 20.00     0.001 C 
HETATM    8  C8  UNL     1     -36.940  18.377  -4.726  1.00 20.00     0.011 C 
HETATM    9  C9  UNL     1     -34.940  17.025  -6.168  1.00 20.00     0.012 C 
HETATM   10  C10 UNL     1     -37.357  15.887  -4.044  1.00 20.00     0.030 C 
HETATM   11  C11 UNL     1     -36.460  15.183  -5.081  1.00 20.00     0.103 C 
HETATM   12  C12 UNL     1     -36.399  17.118  -4.017  1.00 20.00    -0.027 C 
HETATM   13  C13 UNL     1     -35.358  16.295  -4.872  1.00 20.00    -0.013 C 
HETATM   14  N14 UNL     1     -35.830  12.717  -4.502  1.00 20.00    -0.197 NA
ENDROOT
TORSDOF 0
ENDMDL
MODEL 9
REMARK VINA RESULT:      -4.9      3.068      4.807
REMARK  0 active torsions:
REMARK  status: ('A' for Active; 'I' for Inactive)
ROOT
HETATM    1  C1  UNL     1     -33.659  19.112  -4.268  1.00 20.00     0.064 C 
HETATM    2  C2  UNL     1     -34.967  15.685  -2.832  1.00 20.00    -0.030 C 
HETATM    3  C3  UNL     1     -33.852  15.863  -3.549  1.00 20.00    -0.030 C 
HETATM    4  C4  UNL     1     -35.133  16.249  -1.457  1.00 20.00     0.037 C 
HETATM    5  C5  UNL     1     -32.670  16.609  -3.019  1.00 20.00     0.038 C 
HETATM    6  C6  UNL     1     -33.545  19.262   0.418  1.00 20.00     0.001 C 
HETATM    7  C7  UNL     1     -32.139  19.237  -0.177  1.00 20.00     0.001 C 
HETATM    8  C8  UNL     1     -34.333  17.982   0.180  1.00 20.00     0.011 C 
HETATM    9  C9  UNL     1     -31.878  18.120  -1.184  1.00 20.00     0.012 C 
HETATM   10  C10 UNL     1     -35.077  18.703  -2.221  1.00 20.00     0.030 C 
HETATM   11  C11 UNL     1     -33.701  19.059  -2.820  1.00 20.00     0.103 C 
HETATM   12  C12 UNL     1     -34.425  17.613  -1.315  1.00 20.00    -0.027 C 
HETATM   13  C13 UNL     1     -33.073  17.797  -2.109  1.00 20.00    -0.013 C 
HETATM   14  N14 UNL     1     -33.624  19.155  -5.427  1.00 20.00    -0.197 NA
ENDROOT
TORSDOF 0
ENDMDL
