MODEL 1
REMARK VINA RESULT:      -4.5      0.000      0.000
REMARK  0 active torsions:
REMARK  status: ('A' for Active; 'I' for Inactive)
ROOT
HETATM    1  C1  UNL     1     -35.771  16.726  -2.720  1.00 20.00    -0.029 C 
HETATM    2  C2  UNL     1     -36.779  16.534  -3.596  1.00 20.00    -0.014 C 
HETATM    3  C3  UNL     1     -35.805  14.828  -5.402  1.00 20.00     0.143 C 
HETATM    4  C4  UNL     1     -34.449  16.005  -2.579  1.00 20.00     0.032 C 
HETATM    5  C5  UNL     1     -33.314  14.424  -4.474  1.00 20.00     0.018 A 
HETATM    6  C6  UNL     1     -34.485  15.236  -4.911  1.00 20.00     0.061 A 
HETATM    7  C7  UNL     1     -34.343  14.819  -3.460  1.00 20.00     0.001 A 
HETATM    8  C8  UNL     1     -37.012  15.570  -4.769  1.00 20.00     0.031 C 
HETATM    9  C9  UNL     1     -38.016  14.504  -4.299  1.00 20.00     0.027 C 
HETATM   10  C10 UNL     1     -37.640  16.383  -5.920  1.00 20.00     0.027 C 
HETATM   11  O11 UNL     1     -35.903  13.972  -6.274  1.00 20.00    -0.296 OA
ENDROOT
TORSDOF 0
ENDMDL
MODEL 2
REMARK VINA RESULT:      -4.5      1.315      2.064
REMARK  0 active torsions:
REMARK  status: ('A' for Active; 'I' for Inactive)
ROOT
HETATM    1  C1  UNL     1     -36.777  16.611  -3.514  1.00 20.00    -0.029 C 
HETATM    2  C2  UNL     1     -36.711  15.682  -4.491  1.00 20.00    -0.014 C 
HETATM    3  C3  UNL     1     -34.142  14.963  -4.583  1.00 20.00     0.143 C 
HETATM    4  C4  UNL     1     -35.741  17.034  -2.498  1.00 20.00     0.032 C 
HETATM    5  C5  UNL     1     -33.081  16.507  -2.655  1.00 20.00     0.018 A 
HETATM    6  C6  UNL     1     -33.880  16.222  -3.880  1.00 20.00     0.061 A 
HETATM    7  C7  UNL     1     -34.534  16.175  -2.513  1.00 20.00     0.001 A 
HETATM    8  C8  UNL     1     -35.623  14.714  -4.979  1.00 20.00     0.031 C 
HETATM    9  C9  UNL     1     -36.002  13.306  -4.489  1.00 20.00     0.027 C 
HETATM   10  C10 UNL     1     -35.640  14.734  -6.521  1.00 20.00     0.027 C 
HETATM   11  O11 UNL     1     -33.222  14.196  -4.844  1.00 20.00    -0.296 OA
ENDROOT
TORSDOF 0
ENDMDL
MODEL 3
REMARK VINA RESULT:      -4.3      1.657      3.023
REMARK  0 active torsions:
REMARK  status: ('A' for Active; 'I' for Inactive)
ROOT
HETATM    1  C1  UNL     1     -33.002  15.216  -3.982  1.00 20.00    -0.029 C 
HETATM    2  C2  UNL     1     -34.050  14.694  -4.653  1.00 20.00    -0.014 C 
HETATM    3  C3  UNL     1     -36.206  15.769  -3.506  1.00 20.00     0.143 C 
HETATM    4  C4  UNL     1     -32.954  16.334  -2.966  1.00 20.00     0.032 C 
HETATM    5  C5  UNL     1     -35.094  17.322  -1.615  1.00 20.00     0.018 A 
HETATM    6  C6  UNL     1     -35.321  16.060  -2.374  1.00 20.00     0.061 A 
HETATM    7  C7  UNL     1     -34.250  17.037  -2.819  1.00 20.00     0.001 A 
HETATM    8  C8  UNL     1     -35.560  14.976  -4.673  1.00 20.00     0.031 C 
HETATM    9  C9  UNL     1     -35.872  15.734  -5.975  1.00 20.00     0.027 C 
HETATM   10  C10 UNL     1     -36.286  13.616  -4.694  1.00 20.00     0.027 C 
HETATM   11  O11 UNL     1     -37.379  16.123  -3.481  1.00 20.00    -0.296 OA
ENDROOT
TORSDOF 0
ENDMDL
MODEL 4
REMARK VINA RESULT:      -4.3      1.804      3.257
REMARK  0 active torsions:
REMARK  status: ('A' for Active; 'I' for Inactive)
ROOT
HETATM    1  C1  UNL     1     -32.956  15.510  -3.683  1.00 20.00    -0.029 C 
HETATM    2  C2  UNL     1     -33.502  16.570  -3.052  1.00 20.00    -0.014 C 
HETATM    3  C3  UNL     1     -36.124  16.365  -3.503  1.00 20.00     0.143 C 
HETATM    4  C4  UNL     1     -33.615  14.307  -4.319  1.00 20.00     0.032 C 
HETATM    5  C5  UNL     1     -36.242  14.128  -4.990  1.00 20.00     0.018 A 
HETATM    6  C6  UNL     1     -35.750  15.484  -4.614  1.00 20.00     0.061 A 
HETATM    7  C7  UNL     1     -35.073  14.246  -4.061  1.00 20.00     0.001 A 
HETATM    8  C8  UNL     1     -34.939  17.004  -2.729  1.00 20.00     0.031 C 
HETATM    9  C9  UNL     1     -35.174  16.749  -1.231  1.00 20.00     0.027 C 
HETATM   10  C10 UNL     1     -35.041  18.518  -3.007  1.00 20.00     0.027 C 
HETATM   11  O11 UNL     1     -37.304  16.576  -3.250  1.00 20.00    -0.296 OA
ENDROOT
TORSDOF 0
ENDMDL
MODEL 5
REMARK VINA RESULT:      -4.2      1.780      2.753
REMARK  0 active torsions:
REMARK  status: ('A' for Active; 'I' for Inactive)
ROOT
HETATM    1  C1  UNL     1     -35.999  13.614  -4.425  1.00 20.00    -0.029 C 
HETATM    2  C2  UNL     1     -37.035  14.447  -4.656  1.00 20.00    -0.014 C 
HETATM    3  C3  UNL     1     -36.337  16.749  -3.499  1.00 20.00     0.143 C 
HETATM    4  C4  UNL     1     -34.625  13.898  -3.861  1.00 20.00     0.032 C 
HETATM    5  C5  UNL     1     -33.921  16.136  -2.492  1.00 20.00     0.018 A 
HETATM    6  C6  UNL     1     -35.380  15.945  -2.734  1.00 20.00     0.061 A 
HETATM    7  C7  UNL     1     -34.362  15.345  -3.685  1.00 20.00     0.001 A 
HETATM    8  C8  UNL     1     -37.268  15.952  -4.452  1.00 20.00     0.031 C 
HETATM    9  C9  UNL     1     -37.197  16.622  -5.835  1.00 20.00     0.027 C 
HETATM   10  C10 UNL     1     -38.688  16.128  -3.877  1.00 20.00     0.027 C 
HETATM   11  O11 UNL     1     -36.386  17.964  -3.348  1.00 20.00    -0.296 OA
ENDROOT
TORSDOF 0
ENDMDL
MODEL 6
REMARK VINA RESULT:      -4.2      1.827      3.765
REMARK  0 active torsions:
REMARK  status: ('A' for Active; 'I' for Inactive)
ROOT
HETATM    1  C1  UNL     1     -35.081  13.834  -4.088  1.00 20.00    -0.029 C 
HETATM    2  C2  UNL     1     -34.380  14.768  -3.412  1.00 20.00    -0.014 C 
HETATM    3  C3  UNL     1     -35.607  17.075  -3.952  1.00 20.00     0.143 C 
HETATM    4  C4  UNL     1     -36.403  13.943  -4.813  1.00 20.00     0.032 C 
HETATM    5  C5  UNL     1     -37.593  16.264  -5.572  1.00 20.00     0.018 A 
HETATM    6  C6  UNL     1     -36.183  16.371  -5.102  1.00 20.00     0.061 A 
HETATM    7  C7  UNL     1     -37.071  15.248  -4.603  1.00 20.00     0.001 A 
HETATM    8  C8  UNL     1     -34.593  16.258  -3.107  1.00 20.00     0.031 C 
HETATM    9  C9  UNL     1     -35.020  16.373  -1.634  1.00 20.00     0.027 C 
HETATM   10  C10 UNL     1     -33.237  16.969  -3.298  1.00 20.00     0.027 C 
HETATM   11  O11 UNL     1     -35.912  18.240  -3.723  1.00 20.00    -0.296 OA
ENDROOT
TORSDOF 0
ENDMDL
MODEL 7
REMARK VINA RESULT:      -4.1      2.473      4.202
REMARK  0 active torsions:
REMARK  status: ('A' for Active; 'I' for Inactive)
ROOT
HETATM    1  C1  UNL     1     -32.488  17.808  -1.555  1.00 20.00    -0.029 C 
HETATM    2  C2  UNL     1     -32.713  17.097  -2.680  1.00 20.00    -0.014 C 
HETATM    3  C3  UNL     1     -35.290  16.414  -2.560  1.00 20.00     0.143 C 
HETATM    4  C4  UNL     1     -33.461  18.343  -0.529  1.00 20.00     0.032 C 
HETATM    5  C5  UNL     1     -36.035  17.529  -0.230  1.00 20.00     0.018 A 
HETATM    6  C6  UNL     1     -35.182  16.697  -1.125  1.00 20.00     0.061 A 
HETATM    7  C7  UNL     1     -34.876  18.169  -0.930  1.00 20.00     0.001 A 
HETATM    8  C8  UNL     1     -33.970  16.544  -3.367  1.00 20.00     0.031 C 
HETATM    9  C9  UNL     1     -34.261  17.435  -4.587  1.00 20.00     0.027 C 
HETATM   10  C10 UNL     1     -33.646  15.116  -3.850  1.00 20.00     0.027 C 
HETATM   11  O11 UNL     1     -36.362  16.075  -3.045  1.00 20.00    -0.296 OA
ENDROOT
TORSDOF 0
ENDMDL
MODEL 8
REMARK VINA RESULT:      -4.1      2.013      3.154
REMARK  0 active torsions:
REMARK  status: ('A' for Active; 'I' for Inactive)
ROOT
HETATM    1  C1  UNL     1     -34.146  16.810  -1.951  1.00 20.00    -0.029 C 
HETATM    2  C2  UNL     1     -34.398  15.666  -2.621  1.00 20.00    -0.014 C 
HETATM    3  C3  UNL     1     -34.446  16.371  -5.195  1.00 20.00     0.143 C 
HETATM    4  C4  UNL     1     -33.737  18.171  -2.466  1.00 20.00     0.032 C 
HETATM    5  C5  UNL     1     -33.961  19.010  -5.040  1.00 20.00     0.018 A 
HETATM    6  C6  UNL     1     -34.655  17.735  -4.701  1.00 20.00     0.061 A 
HETATM    7  C7  UNL     1     -33.434  18.173  -3.916  1.00 20.00     0.001 A 
HETATM    8  C8  UNL     1     -34.393  15.267  -4.104  1.00 20.00     0.031 C 
HETATM    9  C9  UNL     1     -33.126  14.431  -4.354  1.00 20.00     0.027 C 
HETATM   10  C10 UNL     1     -35.636  14.388  -4.354  1.00 20.00     0.027 C 
HETATM   11  O11 UNL     1     -34.350  16.155  -6.397  1.00 20.00    -0.296 OA
ENDROOT
TORSDOF 0
ENDMDL
MODEL 9
REMARK VINA RESULT:      -4.1      1.284      3.334
REMARK  0 active torsions:
REMARK  status: ('A' for Active; 'I' for Inactive)
ROOT
HETATM    1  C1  UNL     1     -35.782  17.397  -4.578  1.00 20.00    -0.029 C 
HETATM    2  C2  UNL     1     -34.758  16.542  -4.784  1.00 20.00    -0.014 C 
HETATM    3  C3  UNL     1     -35.861  14.114  -4.698  1.00 20.00     0.143 C 
HETATM    4  C4  UNL     1     -37.272  17.143  -4.537  1.00 20.00     0.032 C 
HETATM    5  C5  UNL     1     -38.442  14.709  -4.240  1.00 20.00     0.018 A 
HETATM    6  C6  UNL     1     -36.972  14.766  -3.999  1.00 20.00     0.061 A 
HETATM    7  C7  UNL     1     -37.632  15.761  -4.933  1.00 20.00     0.001 A 
HETATM    8  C8  UNL     1     -34.656  15.031  -5.041  1.00 20.00     0.031 C 
HETATM    9  C9  UNL     1     -34.335  14.835  -6.532  1.00 20.00     0.027 C 
HETATM   10  C10 UNL     1     -33.483  14.495  -4.195  1.00 20.00     0.027 C 
HETATM   11  O11 UNL     1     -35.908  12.916  -4.955  1.00 20.00    -0.296 OA
ENDROOT
TORSDOF 0
ENDMDL
