MODEL 1
REMARK VINA RESULT:      -4.5      0.000      0.000
REMARK  0 active torsions:
REMARK  status: ('A' for Active; 'I' for Inactive)
ROOT
HETATM    1  C1  UNL     1     -36.101  16.552  -5.252  1.00 20.00    -0.002 C 
HETATM    2  C2  UNL     1     -36.527  14.300  -4.231  1.00 20.00    -0.002 C 
HETATM    3  C3  UNL     1     -34.761  16.621  -5.271  1.00 20.00    -0.022 C 
HETATM    4  C4  UNL     1     -35.289  13.832  -4.008  1.00 20.00    -0.022 C 
HETATM    5  C5  UNL     1     -35.398  16.381  -2.249  1.00 20.00     0.079 C 
HETATM    6  C6  UNL     1     -36.858  15.762  -4.227  1.00 20.00     0.128 C 
HETATM    7  C7  UNL     1     -33.827  15.979  -4.337  1.00 20.00     0.028 A 
HETATM    8  C8  UNL     1     -34.084  14.622  -3.722  1.00 20.00     0.028 A 
HETATM    9  C9  UNL     1     -34.137  15.865  -2.861  1.00 20.00     0.063 A 
HETATM   10  N10 UNL     1     -36.611  16.317  -2.900  1.00 20.00    -0.373 N 
HETATM   11  S11 UNL     1     -35.264  17.048  -0.722  1.00 20.00    -0.065 SA
HETATM   12  H20 UNL     1     -37.414  16.694  -2.405  1.00 20.00     0.161 HD
ENDROOT
TORSDOF 0
ENDMDL
MODEL 2
REMARK VINA RESULT:      -4.4      2.164      3.274
REMARK  0 active torsions:
REMARK  status: ('A' for Active; 'I' for Inactive)
ROOT
HETATM    1  C1  UNL     1     -33.425  16.282  -2.648  1.00 20.00    -0.002 C 
HETATM    2  C2  UNL     1     -33.727  14.307  -4.167  1.00 20.00    -0.002 C 
HETATM    3  C3  UNL     1     -34.658  16.469  -2.153  1.00 20.00    -0.022 C 
HETATM    4  C4  UNL     1     -35.032  14.023  -4.032  1.00 20.00    -0.022 C 
HETATM    5  C5  UNL     1     -35.063  16.895  -5.194  1.00 20.00     0.079 C 
HETATM    6  C6  UNL     1     -33.176  15.692  -4.004  1.00 20.00     0.128 C 
HETATM    7  C7  UNL     1     -35.934  16.156  -2.810  1.00 20.00     0.028 A 
HETATM    8  C8  UNL     1     -36.116  14.966  -3.724  1.00 20.00     0.028 A 
HETATM    9  C9  UNL     1     -36.132  16.368  -4.295  1.00 20.00     0.063 A 
HETATM   10  N10 UNL     1     -33.734  16.567  -5.029  1.00 20.00    -0.373 N 
HETATM   11  S11 UNL     1     -35.561  17.915  -6.421  1.00 20.00    -0.065 SA
HETATM   12  H20 UNL     1     -33.079  16.974  -5.690  1.00 20.00     0.161 HD
ENDROOT
TORSDOF 0
ENDMDL
MODEL 3
REMARK VINA RESULT:      -4.3      2.110      2.697
REMARK  0 active torsions:
REMARK  status: ('A' for Active; 'I' for Inactive)
ROOT
HETATM    1  C1  UNL     1     -34.361  14.633  -4.976  1.00 20.00    -0.002 C 
HETATM    2  C2  UNL     1     -36.028  15.588  -3.361  1.00 20.00    -0.002 C 
HETATM    3  C3  UNL     1     -33.195  14.800  -4.335  1.00 20.00    -0.022 C 
HETATM    4  C4  UNL     1     -35.258  15.982  -2.335  1.00 20.00    -0.022 C 
HETATM    5  C5  UNL     1     -34.213  17.704  -4.688  1.00 20.00     0.079 C 
HETATM    6  C6  UNL     1     -35.535  15.543  -4.777  1.00 20.00     0.128 C 
HETATM    7  C7  UNL     1     -32.857  15.856  -3.371  1.00 20.00     0.028 A 
HETATM    8  C8  UNL     1     -33.861  16.431  -2.399  1.00 20.00     0.028 A 
HETATM    9  C9  UNL     1     -33.352  17.275  -3.547  1.00 20.00     0.063 A 
HETATM   10  N10 UNL     1     -35.191  16.891  -5.219  1.00 20.00    -0.373 N 
HETATM   11  S11 UNL     1     -33.929  19.234  -5.300  1.00 20.00    -0.065 SA
HETATM   12  H20 UNL     1     -35.727  17.268  -5.995  1.00 20.00     0.161 HD
ENDROOT
TORSDOF 0
ENDMDL
MODEL 4
REMARK VINA RESULT:      -4.3      2.005      2.894
REMARK  0 active torsions:
REMARK  status: ('A' for Active; 'I' for Inactive)
ROOT
HETATM    1  C1  UNL     1     -36.430  14.644  -3.817  1.00 20.00    -0.002 C 
HETATM    2  C2  UNL     1     -35.548  16.470  -2.338  1.00 20.00    -0.002 C 
HETATM    3  C3  UNL     1     -35.318  13.979  -4.165  1.00 20.00    -0.022 C 
HETATM    4  C4  UNL     1     -34.226  16.239  -2.334  1.00 20.00    -0.022 C 
HETATM    5  C5  UNL     1     -34.821  16.810  -5.320  1.00 20.00     0.079 C 
HETATM    6  C6  UNL     1     -36.433  16.107  -3.494  1.00 20.00     0.128 C 
HETATM    7  C7  UNL     1     -33.962  14.528  -4.298  1.00 20.00     0.028 A 
HETATM    8  C8  UNL     1     -33.431  15.628  -3.408  1.00 20.00     0.028 A 
HETATM    9  C9  UNL     1     -33.721  15.910  -4.866  1.00 20.00     0.063 A 
HETATM   10  N10 UNL     1     -36.037  16.870  -4.673  1.00 20.00    -0.373 N 
HETATM   11  S11 UNL     1     -34.506  17.748  -6.668  1.00 20.00    -0.065 SA
HETATM   12  H20 UNL     1     -36.725  17.512  -5.055  1.00 20.00     0.161 HD
ENDROOT
TORSDOF 0
ENDMDL
MODEL 5
REMARK VINA RESULT:      -4.1      2.283      3.352
REMARK  0 active torsions:
REMARK  status: ('A' for Active; 'I' for Inactive)
ROOT
HETATM    1  C1  UNL     1     -34.432  15.955  -2.489  1.00 20.00    -0.002 C 
HETATM    2  C2  UNL     1     -32.913  14.905  -4.188  1.00 20.00    -0.002 C 
HETATM    3  C3  UNL     1     -35.653  15.696  -2.981  1.00 20.00    -0.022 C 
HETATM    4  C4  UNL     1     -33.772  14.396  -5.085  1.00 20.00    -0.022 C 
HETATM    5  C5  UNL     1     -34.367  17.434  -5.200  1.00 20.00     0.079 C 
HETATM    6  C6  UNL     1     -33.223  16.116  -3.361  1.00 20.00     0.128 C 
HETATM    7  C7  UNL     1     -36.024  15.539  -4.394  1.00 20.00     0.028 A 
HETATM    8  C8  UNL     1     -35.109  14.906  -5.417  1.00 20.00     0.028 A 
HETATM    9  C9  UNL     1     -35.398  16.391  -5.476  1.00 20.00     0.063 A 
HETATM   10  N10 UNL     1     -33.399  17.274  -4.232  1.00 20.00    -0.373 N 
HETATM   11  S11 UNL     1     -34.447  18.822  -6.128  1.00 20.00    -0.065 SA
HETATM   12  H20 UNL     1     -32.739  18.038  -4.115  1.00 20.00     0.161 HD
ENDROOT
TORSDOF 0
ENDMDL
MODEL 6
REMARK VINA RESULT:      -4.1      2.098      3.178
REMARK  0 active torsions:
REMARK  status: ('A' for Active; 'I' for Inactive)
ROOT
HETATM    1  C1  UNL     1     -36.102  18.198  -2.942  1.00 20.00    -0.002 C 
HETATM    2  C2  UNL     1     -34.043  17.982  -4.360  1.00 20.00    -0.002 C 
HETATM    3  C3  UNL     1     -35.794  17.473  -1.856  1.00 20.00    -0.022 C 
HETATM    4  C4  UNL     1     -33.244  17.205  -3.612  1.00 20.00    -0.022 C 
HETATM    5  C5  UNL     1     -35.691  15.380  -4.138  1.00 20.00     0.079 C 
HETATM    6  C6  UNL     1     -35.540  17.905  -4.300  1.00 20.00     0.128 C 
HETATM    7  C7  UNL     1     -34.900  16.309  -1.793  1.00 20.00     0.028 A 
HETATM    8  C8  UNL     1     -33.660  16.179  -2.647  1.00 20.00     0.028 A 
HETATM    9  C9  UNL     1     -34.854  15.285  -2.906  1.00 20.00     0.063 A 
HETATM   10  N10 UNL     1     -35.981  16.586  -4.740  1.00 20.00    -0.373 N 
HETATM   11  S11 UNL     1     -36.270  13.938  -4.756  1.00 20.00    -0.065 SA
HETATM   12  H20 UNL     1     -36.560  16.552  -5.575  1.00 20.00     0.161 HD
ENDROOT
TORSDOF 0
ENDMDL
MODEL 7
REMARK VINA RESULT:      -4.1      2.654      3.499
REMARK  0 active torsions:
REMARK  status: ('A' for Active; 'I' for Inactive)
ROOT
HETATM    1  C1  UNL     1     -36.152  16.529  -3.587  1.00 20.00    -0.002 C 
HETATM    2  C2  UNL     1     -33.899  17.632  -3.519  1.00 20.00    -0.002 C 
HETATM    3  C3  UNL     1     -35.854  15.232  -3.415  1.00 20.00    -0.022 C 
HETATM    4  C4  UNL     1     -33.065  16.598  -3.329  1.00 20.00    -0.022 C 
HETATM    5  C5  UNL     1     -34.386  15.935  -6.051  1.00 20.00     0.079 C 
HETATM    6  C6  UNL     1     -35.210  17.499  -4.234  1.00 20.00     0.128 C 
HETATM    7  C7  UNL     1     -34.617  14.547  -3.813  1.00 20.00     0.028 A 
HETATM    8  C8  UNL     1     -33.260  15.211  -3.771  1.00 20.00     0.028 A 
HETATM    9  C9  UNL     1     -33.904  14.888  -5.103  1.00 20.00     0.063 A 
HETATM   10  N10 UNL     1     -34.974  17.104  -5.619  1.00 20.00    -0.373 N 
HETATM   11  S11 UNL     1     -34.180  15.614  -7.679  1.00 20.00    -0.065 SA
HETATM   12  H20 UNL     1     -35.272  17.757  -6.338  1.00 20.00     0.161 HD
ENDROOT
TORSDOF 0
ENDMDL
MODEL 8
REMARK VINA RESULT:      -4.0      2.671      3.538
REMARK  0 active torsions:
REMARK  status: ('A' for Active; 'I' for Inactive)
ROOT
HETATM    1  C1  UNL     1     -35.606  18.122  -3.831  1.00 20.00    -0.002 C 
HETATM    2  C2  UNL     1     -33.263  17.501  -3.184  1.00 20.00    -0.002 C 
HETATM    3  C3  UNL     1     -36.311  17.037  -3.476  1.00 20.00    -0.022 C 
HETATM    4  C4  UNL     1     -33.410  16.268  -2.673  1.00 20.00    -0.022 C 
HETATM    5  C5  UNL     1     -34.354  15.925  -5.604  1.00 20.00     0.079 C 
HETATM    6  C6  UNL     1     -34.167  18.055  -4.244  1.00 20.00     0.128 C 
HETATM    7  C7  UNL     1     -35.837  15.647  -3.433  1.00 20.00     0.028 A 
HETATM    8  C8  UNL     1     -34.426  15.274  -3.043  1.00 20.00     0.028 A 
HETATM    9  C9  UNL     1     -34.885  15.104  -4.476  1.00 20.00     0.063 A 
HETATM   10  N10 UNL     1     -34.042  17.259  -5.461  1.00 20.00    -0.373 N 
HETATM   11  S11 UNL     1     -34.159  15.138  -7.067  1.00 20.00    -0.065 SA
HETATM   12  H20 UNL     1     -33.688  17.736  -6.285  1.00 20.00     0.161 HD
ENDROOT
TORSDOF 0
ENDMDL
MODEL 9
REMARK VINA RESULT:      -4.0      2.620      3.819
REMARK  0 active torsions:
REMARK  status: ('A' for Active; 'I' for Inactive)
ROOT
HETATM    1  C1  UNL     1     -34.530  18.842  -3.815  1.00 20.00    -0.002 C 
HETATM    2  C2  UNL     1     -32.934  18.324  -1.950  1.00 20.00    -0.002 C 
HETATM    3  C3  UNL     1     -35.653  18.217  -3.429  1.00 20.00    -0.022 C 
HETATM    4  C4  UNL     1     -33.676  17.576  -1.119  1.00 20.00    -0.022 C 
HETATM    5  C5  UNL     1     -33.629  15.889  -3.717  1.00 20.00     0.079 C 
HETATM    6  C6  UNL     1     -33.162  18.364  -3.431  1.00 20.00     0.128 C 
HETATM    7  C7  UNL     1     -35.754  17.004  -2.606  1.00 20.00     0.028 A 
HETATM    8  C8  UNL     1     -34.792  16.692  -1.483  1.00 20.00     0.028 A 
HETATM    9  C9  UNL     1     -34.767  15.866  -2.751  1.00 20.00     0.063 A 
HETATM   10  N10 UNL     1     -32.928  17.041  -4.000  1.00 20.00    -0.373 N 
HETATM   11  S11 UNL     1     -33.246  14.436  -4.449  1.00 20.00    -0.065 SA
HETATM   12  H20 UNL     1     -32.169  16.960  -4.672  1.00 20.00     0.161 HD
ENDROOT
TORSDOF 0
ENDMDL
