MODEL 1
REMARK VINA RESULT:      -5.0      0.000      0.000
REMARK  1 active torsions:
REMARK  status: ('A' for Active; 'I' for Inactive)
REMARK    1  A    between atoms: C3_3  and  C7_7 
ROOT
HETATM    1  C1  UNL     1     -34.120   6.554   5.669  1.00 20.00     0.259 C 
HETATM    2  C4  UNL     1     -34.640   5.142   5.592  1.00 20.00     0.111 C 
HETATM    3  C5  UNL     1     -34.986   4.675   4.194  1.00 20.00     0.013 C 
HETATM    4  C6  UNL     1     -33.838   4.992   3.257  1.00 20.00     0.037 C 
HETATM    5  C7  UNL     1     -33.619   6.496   3.263  1.00 20.00     0.154 C 
HETATM    6  O8  UNL     1     -34.208   7.209   6.706  1.00 20.00    -0.265 OA
HETATM    7  O9  UNL     1     -33.441   7.026   4.596  1.00 20.00    -0.312 OA
ENDROOT
BRANCH   5   8
HETATM    8  C3  UNL     1     -32.419   6.867   2.458  1.00 20.00    -0.005 C 
HETATM    9  C2  UNL     1     -32.417   7.808   1.508  1.00 20.00     0.009 C 
ENDBRANCH   5   8
TORSDOF 1
ENDMDL
MODEL 2
REMARK VINA RESULT:      -4.3      1.557      2.356
REMARK  1 active torsions:
REMARK  status: ('A' for Active; 'I' for Inactive)
REMARK    1  A    between atoms: C3_3  and  C7_7 
ROOT
HETATM    1  C1  UNL     1     -34.268   4.745   4.078  1.00 20.00     0.259 C 
HETATM    2  C4  UNL     1     -34.885   5.274   5.346  1.00 20.00     0.111 C 
HETATM    3  C5  UNL     1     -34.084   6.363   6.028  1.00 20.00     0.013 C 
HETATM    4  C6  UNL     1     -33.696   7.417   5.011  1.00 20.00     0.037 C 
HETATM    5  C7  UNL     1     -32.857   6.753   3.933  1.00 20.00     0.154 C 
HETATM    6  O8  UNL     1     -34.537   3.621   3.660  1.00 20.00    -0.265 OA
HETATM    7  O9  UNL     1     -33.509   5.601   3.352  1.00 20.00    -0.312 OA
ENDROOT
BRANCH   5   8
HETATM    8  C3  UNL     1     -32.547   7.709   2.829  1.00 20.00    -0.005 C 
HETATM    9  C2  UNL     1     -32.527   7.376   1.534  1.00 20.00     0.009 C 
ENDBRANCH   5   8
TORSDOF 1
ENDMDL
MODEL 3
REMARK VINA RESULT:      -4.2     11.636     12.589
REMARK  1 active torsions:
REMARK  status: ('A' for Active; 'I' for Inactive)
REMARK    1  A    between atoms: C3_3  and  C7_7 
ROOT
HETATM    1  C1  UNL     1     -35.707  13.794  -4.497  1.00 20.00     0.259 C 
HETATM    2  C4  UNL     1     -35.951  14.613  -5.738  1.00 20.00     0.111 C 
HETATM    3  C5  UNL     1     -36.294  16.064  -5.477  1.00 20.00     0.013 C 
HETATM    4  C6  UNL     1     -35.294  16.652  -4.502  1.00 20.00     0.037 C 
HETATM    5  C7  UNL     1     -35.367  15.859  -3.208  1.00 20.00     0.154 C 
HETATM    6  O8  UNL     1     -35.849  12.573  -4.502  1.00 20.00    -0.265 OA
HETATM    7  O9  UNL     1     -35.205  14.438  -3.416  1.00 20.00    -0.312 OA
ENDROOT
BRANCH   5   8
HETATM    8  C3  UNL     1     -34.316  16.304  -2.246  1.00 20.00    -0.005 C 
HETATM    9  C2  UNL     1     -33.129  16.800  -2.611  1.00 20.00     0.009 C 
ENDBRANCH   5   8
TORSDOF 1
ENDMDL
MODEL 4
REMARK VINA RESULT:      -4.2     11.553     12.264
REMARK  1 active torsions:
REMARK  status: ('A' for Active; 'I' for Inactive)
REMARK    1  A    between atoms: C3_3  and  C7_7 
ROOT
HETATM    1  C1  UNL     1     -36.593  14.326  -4.090  1.00 20.00     0.259 C 
HETATM    2  C4  UNL     1     -35.257  13.634  -4.165  1.00 20.00     0.111 C 
HETATM    3  C5  UNL     1     -34.064  14.565  -4.120  1.00 20.00     0.013 C 
HETATM    4  C6  UNL     1     -34.223  15.537  -2.968  1.00 20.00     0.037 C 
HETATM    5  C7  UNL     1     -35.497  16.334  -3.191  1.00 20.00     0.154 C 
HETATM    6  O8  UNL     1     -37.609  13.797  -4.535  1.00 20.00    -0.265 OA
HETATM    7  O9  UNL     1     -36.652  15.491  -3.401  1.00 20.00    -0.312 OA
ENDROOT
BRANCH   5   8
HETATM    8  C3  UNL     1     -35.784  17.223  -2.027  1.00 20.00    -0.005 C 
HETATM    9  C2  UNL     1     -35.338  16.999  -0.786  1.00 20.00     0.009 C 
ENDBRANCH   5   8
TORSDOF 1
ENDMDL
MODEL 5
REMARK VINA RESULT:      -4.2     11.950     12.880
REMARK  1 active torsions:
REMARK  status: ('A' for Active; 'I' for Inactive)
REMARK    1  A    between atoms: C3_3  and  C7_7 
ROOT
HETATM    1  C1  UNL     1     -36.293  14.185  -4.534  1.00 20.00     0.259 C 
HETATM    2  C4  UNL     1     -35.902  15.074  -3.382  1.00 20.00     0.111 C 
HETATM    3  C5  UNL     1     -34.417  15.350  -3.278  1.00 20.00     0.013 C 
HETATM    4  C6  UNL     1     -33.886  15.776  -4.632  1.00 20.00     0.037 C 
HETATM    5  C7  UNL     1     -34.137  14.648  -5.619  1.00 20.00     0.154 C 
HETATM    6  O8  UNL     1     -37.336  13.534  -4.509  1.00 20.00    -0.265 OA
HETATM    7  O9  UNL     1     -35.521  14.231  -5.645  1.00 20.00    -0.312 OA
ENDROOT
BRANCH   5   8
HETATM    8  C3  UNL     1     -33.753  15.051  -7.003  1.00 20.00    -0.005 C 
HETATM    9  C2  UNL     1     -34.226  16.136  -7.625  1.00 20.00     0.009 C 
ENDBRANCH   5   8
TORSDOF 1
ENDMDL
MODEL 6
REMARK VINA RESULT:      -4.0     12.020     12.762
REMARK  1 active torsions:
REMARK  status: ('A' for Active; 'I' for Inactive)
REMARK    1  A    between atoms: C3_3  and  C7_7 
ROOT
HETATM    1  C1  UNL     1     -34.349  14.798  -5.842  1.00 20.00     0.259 C 
HETATM    2  C4  UNL     1     -35.807  14.441  -5.972  1.00 20.00     0.111 C 
HETATM    3  C5  UNL     1     -36.464  14.003  -4.681  1.00 20.00     0.013 C 
HETATM    4  C6  UNL     1     -36.139  14.998  -3.585  1.00 20.00     0.037 C 
HETATM    5  C7  UNL     1     -34.630  15.040  -3.412  1.00 20.00     0.154 C 
HETATM    6  O8  UNL     1     -33.593  14.747  -6.810  1.00 20.00    -0.265 OA
HETATM    7  O9  UNL     1     -33.935  15.298  -4.653  1.00 20.00    -0.312 OA
ENDROOT
BRANCH   5   8
HETATM    8  C3  UNL     1     -34.231  16.096  -2.436  1.00 20.00    -0.005 C 
HETATM    9  C2  UNL     1     -33.123  16.836  -2.545  1.00 20.00     0.009 C 
ENDBRANCH   5   8
TORSDOF 1
ENDMDL
MODEL 7
REMARK VINA RESULT:      -4.0      9.288      9.949
REMARK  1 active torsions:
REMARK  status: ('A' for Active; 'I' for Inactive)
REMARK    1  A    between atoms: C3_3  and  C7_7 
ROOT
HETATM    1  C1  UNL     1     -42.477   5.061  -1.168  1.00 20.00     0.259 C 
HETATM    2  C4  UNL     1     -43.417   4.856  -0.008  1.00 20.00     0.111 C 
HETATM    3  C5  UNL     1     -42.990   5.537   1.275  1.00 20.00     0.013 C 
HETATM    4  C6  UNL     1     -42.629   6.980   0.985  1.00 20.00     0.037 C 
HETATM    5  C7  UNL     1     -41.485   6.992  -0.016  1.00 20.00     0.154 C 
HETATM    6  O8  UNL     1     -42.437   4.263  -2.102  1.00 20.00    -0.265 OA
HETATM    7  O9  UNL     1     -41.776   6.219  -1.202  1.00 20.00    -0.312 OA
ENDROOT
BRANCH   5   8
HETATM    8  C3  UNL     1     -41.163   8.385  -0.445  1.00 20.00    -0.005 C 
HETATM    9  C2  UNL     1     -41.459   9.476   0.270  1.00 20.00     0.009 C 
ENDBRANCH   5   8
TORSDOF 1
ENDMDL
MODEL 8
REMARK VINA RESULT:      -4.0     11.645     12.996
REMARK  1 active torsions:
REMARK  status: ('A' for Active; 'I' for Inactive)
REMARK    1  A    between atoms: C3_3  and  C7_7 
ROOT
HETATM    1  C1  UNL     1     -36.308  13.715  -4.370  1.00 20.00     0.259 C 
HETATM    2  C4  UNL     1     -35.463  14.877  -3.914  1.00 20.00     0.111 C 
HETATM    3  C5  UNL     1     -36.040  16.238  -4.239  1.00 20.00     0.013 C 
HETATM    4  C6  UNL     1     -37.492  16.288  -3.810  1.00 20.00     0.037 C 
HETATM    5  C7  UNL     1     -38.250  15.209  -4.564  1.00 20.00     0.154 C 
HETATM    6  O8  UNL     1     -35.810  12.610  -4.576  1.00 20.00    -0.265 OA
HETATM    7  O9  UNL     1     -37.648  13.902  -4.420  1.00 20.00    -0.312 OA
ENDROOT
BRANCH   5   8
HETATM    8  C3  UNL     1     -39.664  15.116  -4.094  1.00 20.00    -0.005 C 
HETATM    9  C2  UNL     1     -40.268  16.050  -3.351  1.00 20.00     0.009 C 
ENDBRANCH   5   8
TORSDOF 1
ENDMDL
MODEL 9
REMARK VINA RESULT:      -4.0     11.475     12.053
REMARK  1 active torsions:
REMARK  status: ('A' for Active; 'I' for Inactive)
REMARK    1  A    between atoms: C3_3  and  C7_7 
ROOT
HETATM    1  C1  UNL     1     -34.595  16.093  -2.237  1.00 20.00     0.259 C 
HETATM    2  C4  UNL     1     -33.325  16.411  -2.982  1.00 20.00     0.111 C 
HETATM    3  C5  UNL     1     -32.824  15.296  -3.875  1.00 20.00     0.013 C 
HETATM    4  C6  UNL     1     -33.964  14.785  -4.733  1.00 20.00     0.037 C 
HETATM    5  C7  UNL     1     -35.056  14.264  -3.813  1.00 20.00     0.154 C 
HETATM    6  O8  UNL     1     -34.883  16.674  -1.192  1.00 20.00    -0.265 OA
HETATM    7  O9  UNL     1     -35.465  15.239  -2.828  1.00 20.00    -0.312 OA
ENDROOT
BRANCH   5   8
HETATM    8  C3  UNL     1     -36.266  13.862  -4.590  1.00 20.00    -0.005 C 
HETATM    9  C2  UNL     1     -37.479  14.397  -4.416  1.00 20.00     0.009 C 
ENDBRANCH   5   8
TORSDOF 1
ENDMDL
