MODEL 1
REMARK VINA RESULT:      -5.7      0.000      0.000
REMARK  2 active torsions:
REMARK  status: ('A' for Active; 'I' for Inactive)
REMARK    1  A    between atoms: C7_7  and  C9_9 
REMARK    2  A    between atoms: C8_8  and  C9_9 
ROOT
HETATM    1  C1  UNL     1     -33.242   8.822   0.000  1.00 20.00     0.012 C 
HETATM    2  C2  UNL     1     -32.766   8.261   0.948  1.00 20.00    -0.117 C 
HETATM    3  C8  UNL     1     -32.182   7.578   2.110  1.00 20.00     0.093 C 
ENDROOT
BRANCH   3   4
HETATM    4  C9  UNL     1     -32.959   6.312   2.429  1.00 20.00     0.017 C 
BRANCH   4   5
HETATM    5  C7  UNL     1     -33.853   6.510   3.642  1.00 20.00    -0.006 C 
HETATM    6  C5  UNL     1     -34.395   5.194   4.203  1.00 20.00     0.082 C 
HETATM    7  C3  UNL     1     -34.644   5.554   5.645  1.00 20.00     0.127 C 
HETATM    8  C4  UNL     1     -34.024   6.875   6.020  1.00 20.00     0.079 C 
HETATM    9  O10 UNL     1     -35.281   4.856   6.423  1.00 20.00    -0.298 OA
HETATM   10  C6  UNL     1     -33.117   7.141   4.824  1.00 20.00     0.012 C 
ENDBRANCH   4   5
ENDBRANCH   3   4
TORSDOF 2
ENDMDL
MODEL 2
REMARK VINA RESULT:      -4.9     10.918     11.774
REMARK  2 active torsions:
REMARK  status: ('A' for Active; 'I' for Inactive)
REMARK    1  A    between atoms: C7_7  and  C9_9 
REMARK    2  A    between atoms: C8_8  and  C9_9 
ROOT
HETATM    1  C1  UNL     1     -31.589  18.414  -0.764  1.00 20.00     0.012 C 
HETATM    2  C2  UNL     1     -32.503  17.867  -1.316  1.00 20.00    -0.117 C 
HETATM    3  C8  UNL     1     -33.625  17.200  -1.990  1.00 20.00     0.093 C 
ENDROOT
BRANCH   3   4
HETATM    4  C9  UNL     1     -33.125  16.366  -3.158  1.00 20.00     0.017 C 
BRANCH   4   5
HETATM    5  C7  UNL     1     -34.280  15.717  -3.900  1.00 20.00    -0.006 C 
HETATM    6  C5  UNL     1     -34.099  14.208  -4.079  1.00 20.00     0.082 C 
HETATM    7  C3  UNL     1     -35.526  13.740  -4.201  1.00 20.00     0.127 C 
HETATM    8  C4  UNL     1     -36.514  14.812  -3.820  1.00 20.00     0.079 C 
HETATM    9  O10 UNL     1     -35.847  12.617  -4.569  1.00 20.00    -0.298 OA
HETATM   10  C6  UNL     1     -35.610  15.844  -3.158  1.00 20.00     0.012 C 
ENDBRANCH   4   5
ENDBRANCH   3   4
TORSDOF 2
ENDMDL
MODEL 3
REMARK VINA RESULT:      -4.9     11.053     12.062
REMARK  2 active torsions:
REMARK  status: ('A' for Active; 'I' for Inactive)
REMARK    1  A    between atoms: C7_7  and  C9_9 
REMARK    2  A    between atoms: C8_8  and  C9_9 
ROOT
HETATM    1  C1  UNL     1     -32.173  18.166  -1.384  1.00 20.00     0.012 C 
HETATM    2  C2  UNL     1     -32.929  17.414  -1.934  1.00 20.00    -0.117 C 
HETATM    3  C8  UNL     1     -33.859  16.497  -2.606  1.00 20.00     0.093 C 
ENDROOT
BRANCH   3   4
HETATM    4  C9  UNL     1     -33.120  15.638  -3.619  1.00 20.00     0.017 C 
BRANCH   4   5
HETATM    5  C7  UNL     1     -34.073  14.701  -4.340  1.00 20.00    -0.006 C 
HETATM    6  C5  UNL     1     -35.369  14.456  -3.564  1.00 20.00     0.082 C 
HETATM    7  C3  UNL     1     -36.329  14.105  -4.671  1.00 20.00     0.127 C 
HETATM    8  C4  UNL     1     -35.765  14.409  -6.034  1.00 20.00     0.079 C 
HETATM    9  O10 UNL     1     -37.440  13.626  -4.485  1.00 20.00    -0.298 OA
HETATM   10  C6  UNL     1     -34.547  15.255  -5.684  1.00 20.00     0.012 C 
ENDBRANCH   4   5
ENDBRANCH   3   4
TORSDOF 2
ENDMDL
MODEL 4
REMARK VINA RESULT:      -4.8     11.276     12.182
REMARK  2 active torsions:
REMARK  status: ('A' for Active; 'I' for Inactive)
REMARK    1  A    between atoms: C7_7  and  C9_9 
REMARK    2  A    between atoms: C8_8  and  C9_9 
ROOT
HETATM    1  C1  UNL     1     -30.798  18.504   0.564  1.00 20.00     0.012 C 
HETATM    2  C2  UNL     1     -31.421  18.390  -0.456  1.00 20.00    -0.117 C 
HETATM    3  C8  UNL     1     -32.180  18.252  -1.706  1.00 20.00     0.093 C 
ENDROOT
BRANCH   3   4
HETATM    4  C9  UNL     1     -33.559  17.676  -1.430  1.00 20.00     0.017 C 
BRANCH   4   5
HETATM    5  C7  UNL     1     -34.070  16.887  -2.623  1.00 20.00    -0.006 C 
HETATM    6  C5  UNL     1     -32.982  16.044  -3.290  1.00 20.00     0.082 C 
HETATM    7  C3  UNL     1     -33.792  14.945  -3.928  1.00 20.00     0.127 C 
HETATM    8  C4  UNL     1     -35.218  14.931  -3.443  1.00 20.00     0.079 C 
HETATM    9  O10 UNL     1     -33.344  14.156  -4.750  1.00 20.00    -0.298 OA
HETATM   10  C6  UNL     1     -35.146  15.869  -2.244  1.00 20.00     0.012 C 
ENDBRANCH   4   5
ENDBRANCH   3   4
TORSDOF 2
ENDMDL
MODEL 5
REMARK VINA RESULT:      -4.7     11.235     12.037
REMARK  2 active torsions:
REMARK  status: ('A' for Active; 'I' for Inactive)
REMARK    1  A    between atoms: C7_7  and  C9_9 
REMARK    2  A    between atoms: C8_8  and  C9_9 
ROOT
HETATM    1  C1  UNL     1     -31.344  18.422  -0.392  1.00 20.00     0.012 C 
HETATM    2  C2  UNL     1     -32.112  18.257  -1.299  1.00 20.00    -0.117 C 
HETATM    3  C8  UNL     1     -33.048  18.057  -2.413  1.00 20.00     0.093 C 
ENDROOT
BRANCH   3   4
HETATM    4  C9  UNL     1     -34.243  17.233  -1.962  1.00 20.00     0.017 C 
BRANCH   4   5
HETATM    5  C7  UNL     1     -34.192  15.832  -2.546  1.00 20.00    -0.006 C 
HETATM    6  C5  UNL     1     -35.496  15.429  -3.239  1.00 20.00     0.082 C 
HETATM    7  C3  UNL     1     -35.012  14.401  -4.230  1.00 20.00     0.127 C 
HETATM    8  C4  UNL     1     -33.511  14.393  -4.358  1.00 20.00     0.079 C 
HETATM    9  O10 UNL     1     -35.754  13.655  -4.857  1.00 20.00    -0.298 OA
HETATM   10  C6  UNL     1     -33.132  15.681  -3.637  1.00 20.00     0.012 C 
ENDBRANCH   4   5
ENDBRANCH   3   4
TORSDOF 2
ENDMDL
MODEL 6
REMARK VINA RESULT:      -4.6     11.200     12.314
REMARK  2 active torsions:
REMARK  status: ('A' for Active; 'I' for Inactive)
REMARK    1  A    between atoms: C7_7  and  C9_9 
REMARK    2  A    between atoms: C8_8  and  C9_9 
ROOT
HETATM    1  C1  UNL     1     -35.099  16.853  -0.934  1.00 20.00     0.012 C 
HETATM    2  C2  UNL     1     -34.220  16.864  -1.751  1.00 20.00    -0.117 C 
HETATM    3  C8  UNL     1     -33.143  16.880  -2.749  1.00 20.00     0.093 C 
ENDROOT
BRANCH   3   4
HETATM    4  C9  UNL     1     -33.146  15.592  -3.556  1.00 20.00     0.017 C 
BRANCH   4   5
HETATM    5  C7  UNL     1     -34.517  15.323  -4.151  1.00 20.00    -0.006 C 
HETATM    6  C5  UNL     1     -34.532  15.421  -5.678  1.00 20.00     0.082 C 
HETATM    7  C3  UNL     1     -35.694  14.528  -6.031  1.00 20.00     0.127 C 
HETATM    8  C4  UNL     1     -36.160  13.705  -4.858  1.00 20.00     0.079 C 
HETATM    9  O10 UNL     1     -36.203  14.477  -7.144  1.00 20.00    -0.298 OA
HETATM   10  C6  UNL     1     -35.021  13.908  -3.866  1.00 20.00     0.012 C 
ENDBRANCH   4   5
ENDBRANCH   3   4
TORSDOF 2
ENDMDL
MODEL 7
REMARK VINA RESULT:      -4.6     10.870     11.776
REMARK  2 active torsions:
REMARK  status: ('A' for Active; 'I' for Inactive)
REMARK    1  A    between atoms: C7_7  and  C9_9 
REMARK    2  A    between atoms: C8_8  and  C9_9 
ROOT
HETATM    1  C1  UNL     1     -35.671  17.366  -0.000  1.00 20.00     0.012 C 
HETATM    2  C2  UNL     1     -34.781  17.253  -0.796  1.00 20.00    -0.117 C 
HETATM    3  C8  UNL     1     -33.688  17.115  -1.768  1.00 20.00     0.093 C 
ENDROOT
BRANCH   3   4
HETATM    4  C9  UNL     1     -34.239  16.800  -3.148  1.00 20.00     0.017 C 
BRANCH   4   5
HETATM    5  C7  UNL     1     -35.009  15.490  -3.143  1.00 20.00    -0.006 C 
HETATM    6  C5  UNL     1     -36.431  15.632  -3.689  1.00 20.00     0.082 C 
HETATM    7  C3  UNL     1     -36.712  14.236  -4.181  1.00 20.00     0.127 C 
HETATM    8  C4  UNL     1     -35.471  13.384  -4.224  1.00 20.00     0.079 C 
HETATM    9  O10 UNL     1     -37.823  13.838  -4.507  1.00 20.00    -0.298 OA
HETATM   10  C6  UNL     1     -34.374  14.425  -4.038  1.00 20.00     0.012 C 
ENDBRANCH   4   5
ENDBRANCH   3   4
TORSDOF 2
ENDMDL
MODEL 8
REMARK VINA RESULT:      -4.5      9.392     10.084
REMARK  2 active torsions:
REMARK  status: ('A' for Active; 'I' for Inactive)
REMARK    1  A    between atoms: C7_7  and  C9_9 
REMARK    2  A    between atoms: C8_8  and  C9_9 
ROOT
HETATM    1  C1  UNL     1     -42.483   3.559  -2.594  1.00 20.00     0.012 C 
HETATM    2  C2  UNL     1     -41.924   4.369  -1.908  1.00 20.00    -0.117 C 
HETATM    3  C8  UNL     1     -41.237   5.362  -1.072  1.00 20.00     0.093 C 
ENDROOT
BRANCH   3   4
HETATM    4  C9  UNL     1     -41.897   5.455   0.294  1.00 20.00     0.017 C 
BRANCH   4   5
HETATM    5  C7  UNL     1     -42.350   6.876   0.586  1.00 20.00    -0.006 C 
HETATM    6  C5  UNL     1     -41.194   7.878   0.602  1.00 20.00     0.082 C 
HETATM    7  C3  UNL     1     -41.897   9.164   0.252  1.00 20.00     0.127 C 
HETATM    8  C4  UNL     1     -43.301   8.932  -0.242  1.00 20.00     0.079 C 
HETATM    9  O10 UNL     1     -41.388  10.272   0.359  1.00 20.00    -0.298 OA
HETATM   10  C6  UNL     1     -43.301   7.426  -0.477  1.00 20.00     0.012 C 
ENDBRANCH   4   5
ENDBRANCH   3   4
TORSDOF 2
ENDMDL
MODEL 9
REMARK VINA RESULT:      -4.4     11.546     12.263
REMARK  2 active torsions:
REMARK  status: ('A' for Active; 'I' for Inactive)
REMARK    1  A    between atoms: C7_7  and  C9_9 
REMARK    2  A    between atoms: C8_8  and  C9_9 
ROOT
HETATM    1  C1  UNL     1     -34.070  15.090  -6.731  1.00 20.00     0.012 C 
HETATM    2  C2  UNL     1     -34.132  14.787  -5.572  1.00 20.00    -0.117 C 
HETATM    3  C8  UNL     1     -34.205  14.414  -4.153  1.00 20.00     0.093 C 
ENDROOT
BRANCH   3   4
HETATM    4  C9  UNL     1     -34.945  15.478  -3.360  1.00 20.00     0.017 C 
BRANCH   4   5
HETATM    5  C7  UNL     1     -34.030  16.135  -2.341  1.00 20.00    -0.006 C 
HETATM    6  C5  UNL     1     -32.991  17.057  -2.981  1.00 20.00     0.082 C 
HETATM    7  C3  UNL     1     -32.700  18.019  -1.857  1.00 20.00     0.127 C 
HETATM    8  C4  UNL     1     -33.693  17.898  -0.731  1.00 20.00     0.079 C 
HETATM    9  O10 UNL     1     -31.762  18.806  -1.858  1.00 20.00    -0.298 OA
HETATM   10  C6  UNL     1     -34.782  17.044  -1.368  1.00 20.00     0.012 C 
ENDBRANCH   4   5
ENDBRANCH   3   4
TORSDOF 2
ENDMDL
