MODEL 1
REMARK VINA RESULT:      -5.8      0.000      0.000
REMARK  1 active torsions:
REMARK  status: ('A' for Active; 'I' for Inactive)
REMARK    1  A    between atoms: C4_4  and  C11_11 
ROOT
HETATM    1  C1  UNL     1     -35.875  14.372  -3.815  1.00 20.00     0.027 A 
HETATM    2  C2  UNL     1     -34.162  15.508  -5.065  1.00 20.00     0.034 A 
HETATM    3  C3  UNL     1     -36.341  13.866  -5.018  1.00 20.00     0.117 A 
HETATM    4  C4  UNL     1     -34.763  15.208  -3.848  1.00 20.00    -0.047 A 
HETATM    5  C5  UNL     1     -34.706  14.950  -6.211  1.00 20.00     0.030 A 
HETATM    6  C12 UNL     1     -34.085  15.251  -7.535  1.00 20.00     0.070 C 
HETATM    7  N13 UNL     1     -35.784  14.134  -6.219  1.00 20.00    -0.266 NA
ENDROOT
BRANCH   4   8
HETATM    8  C11 UNL     1     -34.211  15.792  -2.559  1.00 20.00     0.041 C 
HETATM    9  C7  UNL     1     -32.986  16.647  -2.787  1.00 20.00    -0.021 C 
HETATM   10  C6  UNL     1     -32.777  17.812  -2.158  1.00 20.00    -0.030 C 
HETATM   11  C8  UNL     1     -33.713  18.372  -1.130  1.00 20.00     0.027 C 
HETATM   12  C9  UNL     1     -34.730  17.347  -0.625  1.00 20.00     0.005 C 
HETATM   13  C10 UNL     1     -35.318  16.537  -1.779  1.00 20.00     0.013 C 
ENDBRANCH   4   8
TORSDOF 1
ENDMDL
MODEL 2
REMARK VINA RESULT:      -5.8      1.574      2.798
REMARK  1 active torsions:
REMARK  status: ('A' for Active; 'I' for Inactive)
REMARK    1  A    between atoms: C4_4  and  C11_11 
ROOT
HETATM    1  C1  UNL     1     -33.015  15.898  -3.360  1.00 20.00     0.027 A 
HETATM    2  C2  UNL     1     -35.364  15.407  -3.198  1.00 20.00     0.034 A 
HETATM    3  C3  UNL     1     -32.913  14.847  -4.258  1.00 20.00     0.117 A 
HETATM    4  C4  UNL     1     -34.268  16.177  -2.825  1.00 20.00    -0.047 A 
HETATM    5  C5  UNL     1     -35.156  14.379  -4.104  1.00 20.00     0.030 A 
HETATM    6  C12 UNL     1     -36.311  13.533  -4.527  1.00 20.00     0.070 C 
HETATM    7  N13 UNL     1     -33.954  14.078  -4.645  1.00 20.00    -0.266 NA
ENDROOT
BRANCH   4   8
HETATM    8  C11 UNL     1     -34.436  17.317  -1.835  1.00 20.00     0.041 C 
HETATM    9  C7  UNL     1     -35.425  16.992  -0.739  1.00 20.00    -0.021 C 
HETATM   10  C6  UNL     1     -35.227  17.313   0.547  1.00 20.00    -0.030 C 
HETATM   11  C8  UNL     1     -34.025  18.066   1.031  1.00 20.00     0.027 C 
HETATM   12  C9  UNL     1     -33.232  18.721  -0.102  1.00 20.00     0.005 C 
HETATM   13  C10 UNL     1     -33.065  17.767  -1.282  1.00 20.00     0.013 C 
ENDBRANCH   4   8
TORSDOF 1
ENDMDL
MODEL 3
REMARK VINA RESULT:      -5.5      2.106      5.113
REMARK  1 active torsions:
REMARK  status: ('A' for Active; 'I' for Inactive)
REMARK    1  A    between atoms: C4_4  and  C11_11 
ROOT
HETATM    1  C1  UNL     1     -35.192  16.246  -1.805  1.00 20.00     0.027 A 
HETATM    2  C2  UNL     1     -32.982  16.966  -2.425  1.00 20.00     0.034 A 
HETATM    3  C3  UNL     1     -35.115  17.116  -0.729  1.00 20.00     0.117 A 
HETATM    4  C4  UNL     1     -34.101  16.175  -2.665  1.00 20.00    -0.047 A 
HETATM    5  C5  UNL     1     -33.006  17.805  -1.322  1.00 20.00     0.030 A 
HETATM    6  C12 UNL     1     -31.822  18.668  -1.035  1.00 20.00     0.070 C 
HETATM    7  N13 UNL     1     -34.047  17.900  -0.464  1.00 20.00    -0.266 NA
ENDROOT
BRANCH   4   8
HETATM    8  C11 UNL     1     -34.131  15.236  -3.859  1.00 20.00     0.041 C 
HETATM    9  C7  UNL     1     -35.223  14.197  -3.752  1.00 20.00    -0.021 C 
HETATM   10  C6  UNL     1     -35.989  13.829  -4.789  1.00 20.00    -0.030 C 
HETATM   11  C8  UNL     1     -35.817  14.376  -6.174  1.00 20.00     0.027 C 
HETATM   12  C9  UNL     1     -34.492  15.118  -6.364  1.00 20.00     0.005 C 
HETATM   13  C10 UNL     1     -34.198  16.035  -5.179  1.00 20.00     0.013 C 
ENDBRANCH   4   8
TORSDOF 1
ENDMDL
MODEL 4
REMARK VINA RESULT:      -5.5      3.184      6.118
REMARK  1 active torsions:
REMARK  status: ('A' for Active; 'I' for Inactive)
REMARK    1  A    between atoms: C4_4  and  C11_11 
ROOT
HETATM    1  C1  UNL     1     -31.940  18.138  -0.893  1.00 20.00     0.027 A 
HETATM    2  C2  UNL     1     -34.040  17.935   0.261  1.00 20.00     0.034 A 
HETATM    3  C3  UNL     1     -31.401  18.629   0.285  1.00 20.00     0.117 A 
HETATM    4  C4  UNL     1     -33.286  17.787  -0.898  1.00 20.00    -0.047 A 
HETATM    5  C5  UNL     1     -33.406  18.433   1.388  1.00 20.00     0.030 A 
HETATM    6  C12 UNL     1     -34.186  18.605   2.649  1.00 20.00     0.070 C 
HETATM    7  N13 UNL     1     -32.102  18.786   1.430  1.00 20.00    -0.266 NA
ENDROOT
BRANCH   4   8
HETATM    8  C11 UNL     1     -33.928  17.245  -2.163  1.00 20.00     0.041 C 
HETATM    9  C7  UNL     1     -32.918  16.651  -3.118  1.00 20.00    -0.021 C 
HETATM   10  C6  UNL     1     -33.129  15.512  -3.793  1.00 20.00    -0.030 C 
HETATM   11  C8  UNL     1     -34.404  14.729  -3.707  1.00 20.00     0.027 C 
HETATM   12  C9  UNL     1     -35.547  15.515  -3.062  1.00 20.00     0.005 C 
HETATM   13  C10 UNL     1     -35.069  16.263  -1.819  1.00 20.00     0.013 C 
ENDBRANCH   4   8
TORSDOF 1
ENDMDL
MODEL 5
REMARK VINA RESULT:      -5.4      3.372      6.125
REMARK  1 active torsions:
REMARK  status: ('A' for Active; 'I' for Inactive)
REMARK    1  A    between atoms: C4_4  and  C11_11 
ROOT
HETATM    1  C1  UNL     1     -34.431  17.941   0.795  1.00 20.00     0.027 A 
HETATM    2  C2  UNL     1     -32.254  18.342  -0.147  1.00 20.00     0.034 A 
HETATM    3  C3  UNL     1     -33.919  18.352   2.015  1.00 20.00     0.117 A 
HETATM    4  C4  UNL     1     -33.576  17.938  -0.302  1.00 20.00    -0.047 A 
HETATM    5  C5  UNL     1     -31.841  18.736   1.116  1.00 20.00     0.030 A 
HETATM    6  C12 UNL     1     -30.429  19.176   1.318  1.00 20.00     0.070 C 
HETATM    7  N13 UNL     1     -32.642  18.752   2.205  1.00 20.00    -0.266 NA
ENDROOT
BRANCH   4   8
HETATM    8  C11 UNL     1     -34.084  17.494  -1.663  1.00 20.00     0.041 C 
HETATM    9  C7  UNL     1     -32.968  17.067  -2.588  1.00 20.00    -0.021 C 
HETATM   10  C6  UNL     1     -33.048  15.995  -3.388  1.00 20.00    -0.030 C 
HETATM   11  C8  UNL     1     -34.269  15.130  -3.484  1.00 20.00     0.027 C 
HETATM   12  C9  UNL     1     -35.508  15.771  -2.857  1.00 20.00     0.005 C 
HETATM   13  C10 UNL     1     -35.176  16.413  -1.512  1.00 20.00     0.013 C 
ENDBRANCH   4   8
TORSDOF 1
ENDMDL
MODEL 6
REMARK VINA RESULT:      -5.4      2.090      5.356
REMARK  1 active torsions:
REMARK  status: ('A' for Active; 'I' for Inactive)
REMARK    1  A    between atoms: C4_4  and  C11_11 
ROOT
HETATM    1  C1  UNL     1     -32.872  17.007  -2.619  1.00 20.00     0.027 A 
HETATM    2  C2  UNL     1     -34.990  16.290  -1.734  1.00 20.00     0.034 A 
HETATM    3  C3  UNL     1     -32.799  17.907  -1.568  1.00 20.00     0.117 A 
HETATM    4  C4  UNL     1     -33.992  16.186  -2.696  1.00 20.00    -0.047 A 
HETATM    5  C5  UNL     1     -34.821  17.222  -0.722  1.00 20.00     0.030 A 
HETATM    6  C12 UNL     1     -35.872  17.359   0.329  1.00 20.00     0.070 C 
HETATM    7  N13 UNL     1     -33.747  18.036  -0.614  1.00 20.00    -0.266 NA
ENDROOT
BRANCH   4   8
HETATM    8  C11 UNL     1     -34.125  15.182  -3.829  1.00 20.00     0.041 C 
HETATM    9  C7  UNL     1     -35.341  14.297  -3.681  1.00 20.00    -0.021 C 
HETATM   10  C6  UNL     1     -36.133  13.962  -4.708  1.00 20.00    -0.030 C 
HETATM   11  C8  UNL     1     -35.875  14.391  -6.121  1.00 20.00     0.027 C 
HETATM   12  C9  UNL     1     -34.465  14.947  -6.329  1.00 20.00     0.005 C 
HETATM   13  C10 UNL     1     -34.073  15.895  -5.198  1.00 20.00     0.013 C 
ENDBRANCH   4   8
TORSDOF 1
ENDMDL
MODEL 7
REMARK VINA RESULT:      -5.2      1.944      3.318
REMARK  1 active torsions:
REMARK  status: ('A' for Active; 'I' for Inactive)
REMARK    1  A    between atoms: C4_4  and  C11_11 
ROOT
HETATM    1  C1  UNL     1     -35.311  16.896  -1.827  1.00 20.00     0.027 A 
HETATM    2  C2  UNL     1     -33.147  16.385  -2.742  1.00 20.00     0.034 A 
HETATM    3  C3  UNL     1     -35.834  15.919  -2.659  1.00 20.00     0.117 A 
HETATM    4  C4  UNL     1     -33.941  17.127  -1.875  1.00 20.00    -0.047 A 
HETATM    5  C5  UNL     1     -33.767  15.430  -3.533  1.00 20.00     0.030 A 
HETATM    6  C12 UNL     1     -32.945  14.615  -4.475  1.00 20.00     0.070 C 
HETATM    7  N13 UNL     1     -35.095  15.178  -3.514  1.00 20.00    -0.266 NA
ENDROOT
BRANCH   4   8
HETATM    8  C11 UNL     1     -33.315  18.188  -0.985  1.00 20.00     0.041 C 
HETATM    9  C7  UNL     1     -33.886  18.182   0.414  1.00 20.00    -0.021 C 
HETATM   10  C6  UNL     1     -33.135  18.330   1.513  1.00 20.00    -0.030 C 
HETATM   11  C8  UNL     1     -31.654  18.561   1.473  1.00 20.00     0.027 C 
HETATM   12  C9  UNL     1     -31.146  18.948   0.083  1.00 20.00     0.005 C 
HETATM   13  C10 UNL     1     -31.775  18.071  -0.998  1.00 20.00     0.013 C 
ENDBRANCH   4   8
TORSDOF 1
ENDMDL
MODEL 8
REMARK VINA RESULT:      -5.1     12.977     15.393
REMARK  1 active torsions:
REMARK  status: ('A' for Active; 'I' for Inactive)
REMARK    1  A    between atoms: C4_4  and  C11_11 
ROOT
HETATM    1  C1  UNL     1     -24.888  19.244   5.960  1.00 20.00     0.027 A 
HETATM    2  C2  UNL     1     -26.714  19.254   7.526  1.00 20.00     0.034 A 
HETATM    3  C3  UNL     1     -25.831  19.237   4.944  1.00 20.00     0.117 A 
HETATM    4  C4  UNL     1     -25.347  19.253   7.273  1.00 20.00    -0.047 A 
HETATM    5  C5  UNL     1     -27.574  19.248   6.438  1.00 20.00     0.030 A 
HETATM    6  C12 UNL     1     -29.048  19.249   6.673  1.00 20.00     0.070 C 
HETATM    7  N13 UNL     1     -27.166  19.239   5.149  1.00 20.00    -0.266 NA
ENDROOT
BRANCH   4   8
HETATM    8  C11 UNL     1     -24.357  19.259   8.426  1.00 20.00     0.041 C 
HETATM    9  C7  UNL     1     -24.993  18.865   9.739  1.00 20.00    -0.021 C 
HETATM   10  C6  UNL     1     -24.401  18.056  10.627  1.00 20.00    -0.030 C 
HETATM   11  C8  UNL     1     -23.026  17.489  10.435  1.00 20.00     0.027 C 
HETATM   12  C9  UNL     1     -22.244  18.182   9.318  1.00 20.00     0.005 C 
HETATM   13  C10 UNL     1     -23.118  18.402   8.086  1.00 20.00     0.013 C 
ENDBRANCH   4   8
TORSDOF 1
ENDMDL
MODEL 9
REMARK VINA RESULT:      -5.1      1.641      2.715
REMARK  1 active torsions:
REMARK  status: ('A' for Active; 'I' for Inactive)
REMARK    1  A    between atoms: C4_4  and  C11_11 
ROOT
HETATM    1  C1  UNL     1     -35.062  14.582  -3.841  1.00 20.00     0.027 A 
HETATM    2  C2  UNL     1     -37.060  15.915  -3.711  1.00 20.00     0.034 A 
HETATM    3  C3  UNL     1     -35.848  13.549  -4.328  1.00 20.00     0.117 A 
HETATM    4  C4  UNL     1     -35.688  15.785  -3.530  1.00 20.00    -0.047 A 
HETATM    5  C5  UNL     1     -37.755  14.822  -4.205  1.00 20.00     0.030 A 
HETATM    6  C12 UNL     1     -39.230  14.927  -4.413  1.00 20.00     0.070 C 
HETATM    7  N13 UNL     1     -37.182  13.638  -4.518  1.00 20.00    -0.266 NA
ENDROOT
BRANCH   4   8
HETATM    8  C11 UNL     1     -34.875  16.949  -2.991  1.00 20.00     0.041 C 
HETATM    9  C7  UNL     1     -35.526  17.608  -1.797  1.00 20.00    -0.021 C 
HETATM   10  C6  UNL     1     -34.841  18.009  -0.717  1.00 20.00    -0.030 C 
HETATM   11  C8  UNL     1     -33.351  17.888  -0.596  1.00 20.00     0.027 C 
HETATM   12  C9  UNL     1     -32.665  17.588  -1.929  1.00 20.00     0.005 C 
HETATM   13  C10 UNL     1     -33.420  16.515  -2.710  1.00 20.00     0.013 C 
ENDBRANCH   4   8
TORSDOF 1
ENDMDL
