MODEL 1
REMARK VINA RESULT:      -5.4      0.000      0.000
REMARK  0 active torsions:
REMARK  status: ('A' for Active; 'I' for Inactive)
ROOT
HETATM    1  C1  UNL     1     -36.023  15.211  -7.572  1.00 20.00    -0.017 C 
HETATM    2  C2  UNL     1     -34.748  15.714  -7.634  1.00 20.00    -0.019 C 
HETATM    3  C3  UNL     1     -36.415  14.131  -5.102  1.00 20.00     0.136 C 
HETATM    4  C4  UNL     1     -35.467  13.660  -3.985  1.00 20.00     0.083 C 
HETATM    5  C5  UNL     1     -33.766  17.974  -3.557  1.00 20.00     0.000 C 
HETATM    6  C6  UNL     1     -33.237  16.708  -2.876  1.00 20.00     0.000 C 
HETATM    7  C7  UNL     1     -34.045  17.902  -5.061  1.00 20.00     0.001 C 
HETATM    8  C8  UNL     1     -34.236  15.553  -2.821  1.00 20.00     0.005 C 
HETATM    9  C9  UNL     1     -35.177  16.947  -5.449  1.00 20.00     0.014 C 
HETATM   10  C10 UNL     1     -33.560  14.929  -5.303  1.00 20.00     0.019 C 
HETATM   11  C11 UNL     1     -35.616  14.416  -6.364  1.00 20.00     0.090 C 
HETATM   12  C12 UNL     1     -34.119  14.462  -3.916  1.00 20.00    -0.007 C 
HETATM   13  C13 UNL     1     -34.656  15.634  -6.096  1.00 20.00    -0.009 C 
HETATM   14  O14 UNL     1     -37.632  14.192  -4.960  1.00 20.00    -0.297 OA
ENDROOT
TORSDOF 0
ENDMDL
MODEL 2
REMARK VINA RESULT:      -5.2      1.175      1.215
REMARK  0 active torsions:
REMARK  status: ('A' for Active; 'I' for Inactive)
ROOT
HETATM    1  C1  UNL     1     -36.673  15.704  -6.929  1.00 20.00    -0.017 C 
HETATM    2  C2  UNL     1     -35.719  16.689  -6.919  1.00 20.00    -0.019 C 
HETATM    3  C3  UNL     1     -36.306  14.112  -4.749  1.00 20.00     0.136 C 
HETATM    4  C4  UNL     1     -35.122  13.871  -3.796  1.00 20.00     0.083 C 
HETATM    5  C5  UNL     1     -35.228  18.336  -2.476  1.00 20.00     0.000 C 
HETATM    6  C6  UNL     1     -34.163  17.297  -2.110  1.00 20.00     0.000 C 
HETATM    7  C7  UNL     1     -35.634  18.442  -3.949  1.00 20.00     0.001 C 
HETATM    8  C8  UNL     1     -34.610  15.846  -2.281  1.00 20.00     0.005 C 
HETATM    9  C9  UNL     1     -36.334  17.197  -4.502  1.00 20.00     0.014 C 
HETATM   10  C10 UNL     1     -34.046  16.037  -4.861  1.00 20.00     0.019 C 
HETATM   11  C11 UNL     1     -35.843  14.934  -5.941  1.00 20.00     0.090 C 
HETATM   12  C12 UNL     1     -34.203  15.129  -3.594  1.00 20.00    -0.007 C 
HETATM   13  C13 UNL     1     -35.418  16.364  -5.441  1.00 20.00    -0.009 C 
HETATM   14  O14 UNL     1     -37.421  13.638  -4.558  1.00 20.00    -0.297 OA
ENDROOT
TORSDOF 0
ENDMDL
MODEL 3
REMARK VINA RESULT:      -5.1      1.614      3.181
REMARK  0 active torsions:
REMARK  status: ('A' for Active; 'I' for Inactive)
ROOT
HETATM    1  C1  UNL     1     -36.302  13.802  -5.003  1.00 20.00    -0.017 C 
HETATM    2  C2  UNL     1     -36.994  14.522  -4.063  1.00 20.00    -0.019 C 
HETATM    3  C3  UNL     1     -34.508  15.450  -6.220  1.00 20.00     0.136 C 
HETATM    4  C4  UNL     1     -34.380  16.979  -6.339  1.00 20.00     0.083 C 
HETATM    5  C5  UNL     1     -33.953  17.340  -1.716  1.00 20.00     0.000 C 
HETATM    6  C6  UNL     1     -34.105  18.491  -2.714  1.00 20.00     0.000 C 
HETATM    7  C7  UNL     1     -34.924  16.162  -1.843  1.00 20.00     0.001 C 
HETATM    8  C8  UNL     1     -33.761  18.127  -4.158  1.00 20.00     0.005 C 
HETATM    9  C9  UNL     1     -34.775  15.358  -3.138  1.00 20.00     0.014 C 
HETATM   10  C10 UNL     1     -36.191  17.109  -4.419  1.00 20.00     0.019 C 
HETATM   11  C11 UNL     1     -35.861  15.096  -5.625  1.00 20.00     0.090 C 
HETATM   12  C12 UNL     1     -34.939  17.762  -5.097  1.00 20.00    -0.007 C 
HETATM   13  C13 UNL     1     -35.925  15.631  -4.146  1.00 20.00    -0.009 C 
HETATM   14  O14 UNL     1     -33.642  14.677  -6.618  1.00 20.00    -0.297 OA
ENDROOT
TORSDOF 0
ENDMDL
MODEL 4
REMARK VINA RESULT:      -5.1      1.690      2.689
REMARK  0 active torsions:
REMARK  status: ('A' for Active; 'I' for Inactive)
ROOT
HETATM    1  C1  UNL     1     -38.157  15.190  -4.218  1.00 20.00    -0.017 C 
HETATM    2  C2  UNL     1     -37.925  16.532  -4.052  1.00 20.00    -0.019 C 
HETATM    3  C3  UNL     1     -35.806  13.970  -4.851  1.00 20.00     0.136 C 
HETATM    4  C4  UNL     1     -34.458  14.476  -5.395  1.00 20.00     0.083 C 
HETATM    5  C5  UNL     1     -33.879  17.122  -1.607  1.00 20.00     0.000 C 
HETATM    6  C6  UNL     1     -33.010  17.124  -2.867  1.00 20.00     0.000 C 
HETATM    7  C7  UNL     1     -35.398  17.186  -1.797  1.00 20.00     0.001 C 
HETATM    8  C8  UNL     1     -33.139  15.868  -3.728  1.00 20.00     0.005 C 
HETATM    9  C9  UNL     1     -36.000  15.960  -2.488  1.00 20.00     0.014 C 
HETATM   10  C10 UNL     1     -35.325  16.902  -4.805  1.00 20.00     0.019 C 
HETATM   11  C11 UNL     1     -36.838  15.083  -4.930  1.00 20.00     0.090 C 
HETATM   12  C12 UNL     1     -34.099  15.937  -4.943  1.00 20.00    -0.007 C 
HETATM   13  C13 UNL     1     -36.412  16.245  -3.959  1.00 20.00    -0.009 C 
HETATM   14  O14 UNL     1     -35.981  12.814  -4.479  1.00 20.00    -0.297 OA
ENDROOT
TORSDOF 0
ENDMDL
MODEL 5
REMARK VINA RESULT:      -5.1      1.720      2.522
REMARK  0 active torsions:
REMARK  status: ('A' for Active; 'I' for Inactive)
ROOT
HETATM    1  C1  UNL     1     -38.545  17.052  -4.712  1.00 20.00    -0.017 C 
HETATM    2  C2  UNL     1     -37.591  18.034  -4.785  1.00 20.00    -0.019 C 
HETATM    3  C3  UNL     1     -37.314  14.626  -4.838  1.00 20.00     0.136 C 
HETATM    4  C4  UNL     1     -35.928  14.161  -5.319  1.00 20.00     0.083 C 
HETATM    5  C5  UNL     1     -33.874  16.795  -2.074  1.00 20.00     0.000 C 
HETATM    6  C6  UNL     1     -33.182  16.034  -3.209  1.00 20.00     0.000 C 
HETATM    7  C7  UNL     1     -35.092  17.649  -2.437  1.00 20.00     0.001 C 
HETATM    8  C8  UNL     1     -34.019  14.910  -3.820  1.00 20.00     0.005 C 
HETATM    9  C9  UNL     1     -36.297  16.850  -2.940  1.00 20.00     0.014 C 
HETATM   10  C10 UNL     1     -35.255  16.717  -5.307  1.00 20.00     0.019 C 
HETATM   11  C11 UNL     1     -37.535  16.075  -5.242  1.00 20.00     0.090 C 
HETATM   12  C12 UNL     1     -34.795  15.231  -5.122  1.00 20.00    -0.007 C 
HETATM   13  C13 UNL     1     -36.505  16.983  -4.473  1.00 20.00    -0.009 C 
HETATM   14  O14 UNL     1     -38.106  13.880  -4.270  1.00 20.00    -0.297 OA
ENDROOT
TORSDOF 0
ENDMDL
MODEL 6
REMARK VINA RESULT:      -5.0      1.668      3.421
REMARK  0 active torsions:
REMARK  status: ('A' for Active; 'I' for Inactive)
ROOT
HETATM    1  C1  UNL     1     -33.448  14.605  -3.833  1.00 20.00    -0.017 C 
HETATM    2  C2  UNL     1     -33.369  15.973  -3.900  1.00 20.00    -0.019 C 
HETATM    3  C3  UNL     1     -36.023  13.856  -4.307  1.00 20.00     0.136 C 
HETATM    4  C4  UNL     1     -37.372  14.595  -4.258  1.00 20.00     0.083 C 
HETATM    5  C5  UNL     1     -35.944  17.502  -7.604  1.00 20.00     0.000 C 
HETATM    6  C6  UNL     1     -37.231  17.614  -6.782  1.00 20.00     0.000 C 
HETATM    7  C7  UNL     1     -34.639  17.246  -6.843  1.00 20.00     0.001 C 
HETATM    8  C8  UNL     1     -37.666  16.313  -6.107  1.00 20.00     0.005 C 
HETATM    9  C9  UNL     1     -34.575  15.888  -6.139  1.00 20.00     0.014 C 
HETATM   10  C10 UNL     1     -35.952  16.822  -4.154  1.00 20.00     0.019 C 
HETATM   11  C11 UNL     1     -34.939  14.730  -3.698  1.00 20.00     0.090 C 
HETATM   12  C12 UNL     1     -37.273  16.121  -4.620  1.00 20.00    -0.007 C 
HETATM   13  C13 UNL     1     -34.743  16.005  -4.599  1.00 20.00    -0.009 C 
HETATM   14  O14 UNL     1     -35.908  12.710  -4.731  1.00 20.00    -0.297 OA
ENDROOT
TORSDOF 0
ENDMDL
MODEL 7
REMARK VINA RESULT:      -4.9      2.384      4.423
REMARK  0 active torsions:
REMARK  status: ('A' for Active; 'I' for Inactive)
ROOT
HETATM    1  C1  UNL     1     -36.654  18.922  -2.957  1.00 20.00    -0.017 C 
HETATM    2  C2  UNL     1     -37.178  17.852  -2.279  1.00 20.00    -0.019 C 
HETATM    3  C3  UNL     1     -34.153  18.271  -3.816  1.00 20.00     0.136 C 
HETATM    4  C4  UNL     1     -33.136  17.191  -3.408  1.00 20.00     0.083 C 
HETATM    5  C5  UNL     1     -36.135  13.849  -4.642  1.00 20.00     0.000 C 
HETATM    6  C6  UNL     1     -34.800  13.659  -3.916  1.00 20.00     0.000 C 
HETATM    7  C7  UNL     1     -37.081  14.929  -4.108  1.00 20.00     0.001 C 
HETATM    8  C8  UNL     1     -33.832  14.834  -4.054  1.00 20.00     0.005 C 
HETATM    9  C9  UNL     1     -36.548  16.358  -4.240  1.00 20.00     0.014 C 
HETATM   10  C10 UNL     1     -35.128  16.055  -2.095  1.00 20.00     0.019 C 
HETATM   11  C11 UNL     1     -35.291  18.308  -2.809  1.00 20.00     0.090 C 
HETATM   12  C12 UNL     1     -33.795  15.861  -2.893  1.00 20.00    -0.007 C 
HETATM   13  C13 UNL     1     -36.081  16.950  -2.882  1.00 20.00    -0.009 C 
HETATM   14  O14 UNL     1     -33.989  19.006  -4.785  1.00 20.00    -0.297 OA
ENDROOT
TORSDOF 0
ENDMDL
MODEL 8
REMARK VINA RESULT:      -4.8      1.953      2.584
REMARK  0 active torsions:
REMARK  status: ('A' for Active; 'I' for Inactive)
ROOT
HETATM    1  C1  UNL     1     -35.862  14.838  -6.225  1.00 20.00    -0.017 C 
HETATM    2  C2  UNL     1     -36.197  16.168  -6.220  1.00 20.00    -0.019 C 
HETATM    3  C3  UNL     1     -33.895  14.428  -4.386  1.00 20.00     0.136 C 
HETATM    4  C4  UNL     1     -32.894  15.355  -3.674  1.00 20.00     0.083 C 
HETATM    5  C5  UNL     1     -36.406  17.706  -1.716  1.00 20.00     0.000 C 
HETATM    6  C6  UNL     1     -34.920  18.077  -1.677  1.00 20.00     0.000 C 
HETATM    7  C7  UNL     1     -37.005  17.335  -3.076  1.00 20.00     0.001 C 
HETATM    8  C8  UNL     1     -33.970  16.920  -1.986  1.00 20.00     0.005 C 
HETATM    9  C9  UNL     1     -36.436  16.053  -3.689  1.00 20.00     0.014 C 
HETATM   10  C10 UNL     1     -34.375  17.354  -4.566  1.00 20.00     0.019 C 
HETATM   11  C11 UNL     1     -34.592  15.188  -5.502  1.00 20.00     0.090 C 
HETATM   12  C12 UNL     1     -33.436  16.811  -3.437  1.00 20.00    -0.007 C 
HETATM   13  C13 UNL     1     -35.468  16.333  -4.871  1.00 20.00    -0.009 C 
HETATM   14  O14 UNL     1     -34.027  13.243  -4.094  1.00 20.00    -0.297 OA
ENDROOT
TORSDOF 0
ENDMDL
MODEL 9
REMARK VINA RESULT:      -4.8      1.726      2.986
REMARK  0 active torsions:
REMARK  status: ('A' for Active; 'I' for Inactive)
ROOT
HETATM    1  C1  UNL     1     -33.260  14.491  -4.467  1.00 20.00    -0.017 C 
HETATM    2  C2  UNL     1     -33.075  15.536  -3.599  1.00 20.00    -0.019 C 
HETATM    3  C3  UNL     1     -35.924  14.235  -4.969  1.00 20.00     0.136 C 
HETATM    4  C4  UNL     1     -37.194  14.724  -4.250  1.00 20.00     0.083 C 
HETATM    5  C5  UNL     1     -35.896  19.151  -4.889  1.00 20.00     0.000 C 
HETATM    6  C6  UNL     1     -37.074  18.654  -4.046  1.00 20.00     0.000 C 
HETATM    7  C7  UNL     1     -34.544  18.460  -4.690  1.00 20.00     0.001 C 
HETATM    8  C8  UNL     1     -37.540  17.238  -4.381  1.00 20.00     0.005 C 
HETATM    9  C9  UNL     1     -34.518  16.988  -5.111  1.00 20.00     0.014 C 
HETATM   10  C10 UNL     1     -35.591  16.297  -2.857  1.00 20.00     0.019 C 
HETATM   11  C11 UNL     1     -34.712  14.471  -4.083  1.00 20.00     0.090 C 
HETATM   12  C12 UNL     1     -37.008  16.086  -3.490  1.00 20.00    -0.007 C 
HETATM   13  C13 UNL     1     -34.509  16.020  -3.896  1.00 20.00    -0.009 C 
HETATM   14  O14 UNL     1     -35.951  13.689  -6.068  1.00 20.00    -0.297 OA
ENDROOT
TORSDOF 0
ENDMDL
