MODEL 1
REMARK VINA RESULT:      -5.9      0.000      0.000
REMARK  2 active torsions:
REMARK  status: ('A' for Active; 'I' for Inactive)
REMARK    1  A    between atoms: C7_7  and  C9_9 
REMARK    2  A    between atoms: C8_8  and  C9_9 
ROOT
HETATM    1  C1  UNL     1     -33.171   9.446   0.522  1.00 20.00     0.012 C 
HETATM    2  C2  UNL     1     -32.739   8.444   1.024  1.00 20.00    -0.117 C 
HETATM    3  C8  UNL     1     -32.209   7.217   1.633  1.00 20.00     0.093 C 
ENDROOT
BRANCH   3   4
HETATM    4  C9  UNL     1     -32.293   7.297   3.148  1.00 20.00     0.017 C 
BRANCH   4   5
HETATM    5  C7  UNL     1     -33.597   6.705   3.655  1.00 20.00    -0.006 C 
HETATM    6  C5  UNL     1     -33.697   6.708   5.182  1.00 20.00     0.082 C 
HETATM    7  C3  UNL     1     -34.653   5.569   5.428  1.00 20.00     0.127 C 
HETATM    8  C4  UNL     1     -34.877   4.734   4.194  1.00 20.00     0.079 C 
HETATM    9  O10 UNL     1     -35.186   5.348   6.507  1.00 20.00    -0.298 OA
HETATM   10  C6  UNL     1     -33.768   5.234   3.277  1.00 20.00     0.012 C 
ENDBRANCH   4   5
ENDBRANCH   3   4
TORSDOF 2
ENDMDL
MODEL 2
REMARK VINA RESULT:      -4.9     10.779     11.693
REMARK  2 active torsions:
REMARK  status: ('A' for Active; 'I' for Inactive)
REMARK    1  A    between atoms: C7_7  and  C9_9 
REMARK    2  A    between atoms: C8_8  and  C9_9 
ROOT
HETATM    1  C1  UNL     1     -31.480  18.331  -0.680  1.00 20.00     0.012 C 
HETATM    2  C2  UNL     1     -32.460  17.990  -1.285  1.00 20.00    -0.117 C 
HETATM    3  C8  UNL     1     -33.661  17.577  -2.023  1.00 20.00     0.093 C 
ENDROOT
BRANCH   3   4
HETATM    4  C9  UNL     1     -33.363  16.363  -2.886  1.00 20.00     0.017 C 
BRANCH   4   5
HETATM    5  C7  UNL     1     -34.559  15.428  -2.947  1.00 20.00    -0.006 C 
HETATM    6  C5  UNL     1     -34.307  14.194  -3.815  1.00 20.00     0.082 C 
HETATM    7  C3  UNL     1     -35.705  13.824  -4.237  1.00 20.00     0.127 C 
HETATM    8  C4  UNL     1     -36.702  14.909  -3.923  1.00 20.00     0.079 C 
HETATM    9  O10 UNL     1     -35.998  12.763  -4.772  1.00 20.00    -0.298 OA
HETATM   10  C6  UNL     1     -35.789  16.079  -3.581  1.00 20.00     0.012 C 
ENDBRANCH   4   5
ENDBRANCH   3   4
TORSDOF 2
ENDMDL
MODEL 3
REMARK VINA RESULT:      -4.8     10.861     11.820
REMARK  2 active torsions:
REMARK  status: ('A' for Active; 'I' for Inactive)
REMARK    1  A    between atoms: C7_7  and  C9_9 
REMARK    2  A    between atoms: C8_8  and  C9_9 
ROOT
HETATM    1  C1  UNL     1     -31.077  18.416   0.009  1.00 20.00     0.012 C 
HETATM    2  C2  UNL     1     -31.769  18.295  -0.966  1.00 20.00    -0.117 C 
HETATM    3  C8  UNL     1     -32.611  18.149  -2.160  1.00 20.00     0.093 C 
ENDROOT
BRANCH   3   4
HETATM    4  C9  UNL     1     -33.750  17.181  -1.892  1.00 20.00     0.017 C 
BRANCH   4   5
HETATM    5  C7  UNL     1     -34.062  16.348  -3.124  1.00 20.00    -0.006 C 
HETATM    6  C5  UNL     1     -35.062  15.223  -2.845  1.00 20.00     0.082 C 
HETATM    7  C3  UNL     1     -34.711  14.227  -3.920  1.00 20.00     0.127 C 
HETATM    8  C4  UNL     1     -33.409  14.558  -4.603  1.00 20.00     0.079 C 
HETATM    9  O10 UNL     1     -35.405  13.261  -4.206  1.00 20.00    -0.298 OA
HETATM   10  C6  UNL     1     -32.835  15.621  -3.675  1.00 20.00     0.012 C 
ENDBRANCH   4   5
ENDBRANCH   3   4
TORSDOF 2
ENDMDL
MODEL 4
REMARK VINA RESULT:      -4.6     11.497     12.123
REMARK  2 active torsions:
REMARK  status: ('A' for Active; 'I' for Inactive)
REMARK    1  A    between atoms: C7_7  and  C9_9 
REMARK    2  A    between atoms: C8_8  and  C9_9 
ROOT
HETATM    1  C1  UNL     1     -31.799  18.472  -0.985  1.00 20.00     0.012 C 
HETATM    2  C2  UNL     1     -32.631  17.780  -1.506  1.00 20.00    -0.117 C 
HETATM    3  C8  UNL     1     -33.652  16.935  -2.140  1.00 20.00     0.093 C 
ENDROOT
BRANCH   3   4
HETATM    4  C9  UNL     1     -33.062  16.185  -3.321  1.00 20.00     0.017 C 
BRANCH   4   5
HETATM    5  C7  UNL     1     -33.998  15.084  -3.791  1.00 20.00    -0.006 C 
HETATM    6  C5  UNL     1     -34.159  15.048  -5.313  1.00 20.00     0.082 C 
HETATM    7  C3  UNL     1     -35.514  14.407  -5.463  1.00 20.00     0.127 C 
HETATM    8  C4  UNL     1     -36.263  14.340  -4.158  1.00 20.00     0.079 C 
HETATM    9  O10 UNL     1     -35.955  13.986  -6.525  1.00 20.00    -0.298 OA
HETATM   10  C6  UNL     1     -35.427  15.257  -3.274  1.00 20.00     0.012 C 
ENDBRANCH   4   5
ENDBRANCH   3   4
TORSDOF 2
ENDMDL
MODEL 5
REMARK VINA RESULT:      -4.6     10.800     11.629
REMARK  2 active torsions:
REMARK  status: ('A' for Active; 'I' for Inactive)
REMARK    1  A    between atoms: C7_7  and  C9_9 
REMARK    2  A    between atoms: C8_8  and  C9_9 
ROOT
HETATM    1  C1  UNL     1     -35.088  17.440  -0.500  1.00 20.00     0.012 C 
HETATM    2  C2  UNL     1     -34.160  17.336  -1.255  1.00 20.00    -0.117 C 
HETATM    3  C8  UNL     1     -33.023  17.210  -2.176  1.00 20.00     0.093 C 
ENDROOT
BRANCH   3   4
HETATM    4  C9  UNL     1     -33.480  16.649  -3.511  1.00 20.00     0.017 C 
BRANCH   4   5
HETATM    5  C7  UNL     1     -34.579  15.617  -3.324  1.00 20.00    -0.006 C 
HETATM    6  C5  UNL     1     -34.244  14.267  -3.960  1.00 20.00     0.082 C 
HETATM    7  C3  UNL     1     -35.616  13.700  -4.219  1.00 20.00     0.127 C 
HETATM    8  C4  UNL     1     -36.701  14.732  -4.053  1.00 20.00     0.079 C 
HETATM    9  O10 UNL     1     -35.825  12.535  -4.528  1.00 20.00    -0.298 OA
HETATM   10  C6  UNL     1     -35.894  16.023  -3.991  1.00 20.00     0.012 C 
ENDBRANCH   4   5
ENDBRANCH   3   4
TORSDOF 2
ENDMDL
MODEL 6
REMARK VINA RESULT:      -4.5     11.126     11.955
REMARK  2 active torsions:
REMARK  status: ('A' for Active; 'I' for Inactive)
REMARK    1  A    between atoms: C7_7  and  C9_9 
REMARK    2  A    between atoms: C8_8  and  C9_9 
ROOT
HETATM    1  C1  UNL     1     -34.057  17.737  -0.640  1.00 20.00     0.012 C 
HETATM    2  C2  UNL     1     -33.577  17.497  -1.714  1.00 20.00    -0.117 C 
HETATM    3  C8  UNL     1     -32.987  17.208  -3.028  1.00 20.00     0.093 C 
ENDROOT
BRANCH   3   4
HETATM    4  C9  UNL     1     -33.237  15.761  -3.417  1.00 20.00     0.017 C 
BRANCH   4   5
HETATM    5  C7  UNL     1     -34.543  15.619  -4.181  1.00 20.00    -0.006 C 
HETATM    6  C5  UNL     1     -35.557  14.726  -3.464  1.00 20.00     0.082 C 
HETATM    7  C3  UNL     1     -36.397  14.231  -4.614  1.00 20.00     0.127 C 
HETATM    8  C4  UNL     1     -35.770  14.533  -5.951  1.00 20.00     0.079 C 
HETATM    9  O10 UNL     1     -37.466  13.652  -4.478  1.00 20.00    -0.298 OA
HETATM   10  C6  UNL     1     -34.362  14.951  -5.545  1.00 20.00     0.012 C 
ENDBRANCH   4   5
ENDBRANCH   3   4
TORSDOF 2
ENDMDL
MODEL 7
REMARK VINA RESULT:      -4.5     11.268     12.171
REMARK  2 active torsions:
REMARK  status: ('A' for Active; 'I' for Inactive)
REMARK    1  A    between atoms: C7_7  and  C9_9 
REMARK    2  A    between atoms: C8_8  and  C9_9 
ROOT
HETATM    1  C1  UNL     1     -35.639  13.884  -4.174  1.00 20.00     0.012 C 
HETATM    2  C2  UNL     1     -34.928  14.690  -3.637  1.00 20.00    -0.117 C 
HETATM    3  C8  UNL     1     -34.056  15.674  -2.984  1.00 20.00     0.093 C 
ENDROOT
BRANCH   3   4
HETATM    4  C9  UNL     1     -34.856  16.540  -2.025  1.00 20.00     0.017 C 
BRANCH   4   5
HETATM    5  C7  UNL     1     -34.014  17.685  -1.490  1.00 20.00    -0.006 C 
HETATM    6  C5  UNL     1     -32.525  17.529  -1.809  1.00 20.00     0.082 C 
HETATM    7  C3  UNL     1     -31.888  18.328  -0.702  1.00 20.00     0.127 C 
HETATM    8  C4  UNL     1     -32.870  18.683   0.384  1.00 20.00     0.079 C 
HETATM    9  O10 UNL     1     -30.708  18.654  -0.688  1.00 20.00    -0.298 OA
HETATM   10  C6  UNL     1     -34.054  17.790   0.035  1.00 20.00     0.012 C 
ENDBRANCH   4   5
ENDBRANCH   3   4
TORSDOF 2
ENDMDL
MODEL 8
REMARK VINA RESULT:      -4.3     11.037     12.071
REMARK  2 active torsions:
REMARK  status: ('A' for Active; 'I' for Inactive)
REMARK    1  A    between atoms: C7_7  and  C9_9 
REMARK    2  A    between atoms: C8_8  and  C9_9 
ROOT
HETATM    1  C1  UNL     1     -35.625  15.117  -7.024  1.00 20.00     0.012 C 
HETATM    2  C2  UNL     1     -35.757  14.578  -5.959  1.00 20.00    -0.117 C 
HETATM    3  C8  UNL     1     -35.923  13.916  -4.658  1.00 20.00     0.093 C 
ENDROOT
BRANCH   3   4
HETATM    4  C9  UNL     1     -34.694  14.132  -3.792  1.00 20.00     0.017 C 
BRANCH   4   5
HETATM    5  C7  UNL     1     -34.534  15.597  -3.425  1.00 20.00    -0.006 C 
HETATM    6  C5  UNL     1     -33.070  16.024  -3.303  1.00 20.00     0.082 C 
HETATM    7  C3  UNL     1     -33.169  17.194  -2.358  1.00 20.00     0.127 C 
HETATM    8  C4  UNL     1     -34.523  17.288  -1.705  1.00 20.00     0.079 C 
HETATM    9  O10 UNL     1     -32.254  17.979  -2.147  1.00 20.00    -0.298 OA
HETATM   10  C6  UNL     1     -35.132  15.937  -2.059  1.00 20.00     0.012 C 
ENDBRANCH   4   5
ENDBRANCH   3   4
TORSDOF 2
ENDMDL
MODEL 9
REMARK VINA RESULT:      -4.3      9.653     10.564
REMARK  2 active torsions:
REMARK  status: ('A' for Active; 'I' for Inactive)
REMARK    1  A    between atoms: C7_7  and  C9_9 
REMARK    2  A    between atoms: C8_8  and  C9_9 
ROOT
HETATM    1  C1  UNL     1     -42.018   2.711  -3.410  1.00 20.00     0.012 C 
HETATM    2  C2  UNL     1     -42.438   3.534  -2.643  1.00 20.00    -0.117 C 
HETATM    3  C8  UNL     1     -42.956   4.537  -1.704  1.00 20.00     0.093 C 
ENDROOT
BRANCH   3   4
HETATM    4  C9  UNL     1     -41.847   5.478  -1.266  1.00 20.00     0.017 C 
BRANCH   4   5
HETATM    5  C7  UNL     1     -42.372   6.891  -1.075  1.00 20.00    -0.006 C 
HETATM    6  C5  UNL     1     -41.267   7.897  -0.747  1.00 20.00     0.082 C 
HETATM    7  C3  UNL     1     -42.031   8.960  -0.000  1.00 20.00     0.127 C 
HETATM    8  C4  UNL     1     -43.417   8.507   0.378  1.00 20.00     0.079 C 
HETATM    9  O10 UNL     1     -41.577  10.065   0.267  1.00 20.00    -0.298 OA
HETATM   10  C6  UNL     1     -43.340   7.011   0.103  1.00 20.00     0.012 C 
ENDBRANCH   4   5
ENDBRANCH   3   4
TORSDOF 2
ENDMDL
