MODEL 1
REMARK VINA RESULT:      -5.0      0.000      0.000
REMARK  0 active torsions:
REMARK  status: ('A' for Active; 'I' for Inactive)
ROOT
HETATM    1  C1  UNL     1     -32.780  15.646  -3.871  1.00 20.00    -0.023 C 
HETATM    2  C2  UNL     1     -32.858  14.354  -4.348  1.00 20.00    -0.013 C 
HETATM    3  C3  UNL     1     -35.625  13.911  -4.349  1.00 20.00     0.140 C 
HETATM    4  C4  UNL     1     -36.505  14.982  -3.652  1.00 20.00     0.088 C 
HETATM    5  C5  UNL     1     -34.176  15.471  -3.362  1.00 20.00     0.035 C 
HETATM    6  C6  UNL     1     -34.313  14.637  -4.739  1.00 20.00     0.042 C 
HETATM    7  C7  UNL     1     -35.520  16.178  -3.317  1.00 20.00    -0.033 C 
HETATM    8  C8  UNL     1     -34.390  15.097  -6.204  1.00 20.00     0.029 C 
HETATM    9  C9  UNL     1     -35.639  17.380  -4.253  1.00 20.00     0.016 C 
HETATM   10  C10 UNL     1     -35.779  16.679  -1.884  1.00 20.00     0.016 C 
HETATM   11  O11 UNL     1     -35.974  12.756  -4.548  1.00 20.00    -0.297 OA
ENDROOT
TORSDOF 0
ENDMDL
MODEL 2
REMARK VINA RESULT:      -4.8      1.288      2.400
REMARK  0 active torsions:
REMARK  status: ('A' for Active; 'I' for Inactive)
ROOT
HETATM    1  C1  UNL     1     -34.738  16.757  -3.232  1.00 20.00    -0.023 C 
HETATM    2  C2  UNL     1     -34.796  15.534  -2.595  1.00 20.00    -0.013 C 
HETATM    3  C3  UNL     1     -35.660  13.852  -4.663  1.00 20.00     0.140 C 
HETATM    4  C4  UNL     1     -36.122  14.538  -5.976  1.00 20.00     0.088 C 
HETATM    5  C5  UNL     1     -35.613  16.169  -4.293  1.00 20.00     0.035 C 
HETATM    6  C6  UNL     1     -34.713  14.866  -3.972  1.00 20.00     0.042 C 
HETATM    7  C7  UNL     1     -35.740  16.067  -5.804  1.00 20.00    -0.033 C 
HETATM    8  C8  UNL     1     -33.253  14.529  -4.312  1.00 20.00     0.029 C 
HETATM    9  C9  UNL     1     -34.497  16.501  -6.579  1.00 20.00     0.016 C 
HETATM   10  C10 UNL     1     -36.911  16.951  -6.273  1.00 20.00     0.016 C 
HETATM   11  O11 UNL     1     -35.987  12.724  -4.324  1.00 20.00    -0.297 OA
ENDROOT
TORSDOF 0
ENDMDL
MODEL 3
REMARK VINA RESULT:      -4.7      1.307      2.945
REMARK  0 active torsions:
REMARK  status: ('A' for Active; 'I' for Inactive)
ROOT
HETATM    1  C1  UNL     1     -35.159  17.131  -5.754  1.00 20.00    -0.023 C 
HETATM    2  C2  UNL     1     -36.424  16.649  -6.024  1.00 20.00    -0.013 C 
HETATM    3  C3  UNL     1     -36.528  14.373  -4.393  1.00 20.00     0.140 C 
HETATM    4  C4  UNL     1     -35.201  13.934  -3.718  1.00 20.00     0.088 C 
HETATM    5  C5  UNL     1     -34.834  15.777  -5.207  1.00 20.00     0.035 C 
HETATM    6  C6  UNL     1     -36.363  15.883  -4.697  1.00 20.00     0.042 C 
HETATM    7  C7  UNL     1     -34.176  15.108  -4.012  1.00 20.00    -0.033 C 
HETATM    8  C8  UNL     1     -37.007  16.713  -3.575  1.00 20.00     0.029 C 
HETATM    9  C9  UNL     1     -33.915  16.034  -2.825  1.00 20.00     0.016 C 
HETATM   10  C10 UNL     1     -32.822  14.517  -4.446  1.00 20.00     0.016 C 
HETATM   11  O11 UNL     1     -37.483  13.632  -4.581  1.00 20.00    -0.297 OA
ENDROOT
TORSDOF 0
ENDMDL
MODEL 4
REMARK VINA RESULT:      -4.7      1.222      2.168
REMARK  0 active torsions:
REMARK  status: ('A' for Active; 'I' for Inactive)
ROOT
HETATM    1  C1  UNL     1     -34.492  16.301  -6.642  1.00 20.00    -0.023 C 
HETATM    2  C2  UNL     1     -35.066  15.100  -7.008  1.00 20.00    -0.013 C 
HETATM    3  C3  UNL     1     -35.660  13.967  -4.515  1.00 20.00     0.140 C 
HETATM    4  C4  UNL     1     -35.083  14.684  -3.265  1.00 20.00     0.088 C 
HETATM    5  C5  UNL     1     -34.291  15.713  -5.281  1.00 20.00     0.035 C 
HETATM    6  C6  UNL     1     -35.723  15.048  -5.624  1.00 20.00     0.042 C 
HETATM    7  C7  UNL     1     -34.471  16.042  -3.809  1.00 20.00    -0.033 C 
HETATM    8  C8  UNL     1     -37.136  15.649  -5.685  1.00 20.00     0.029 C 
HETATM    9  C9  UNL     1     -35.323  17.278  -3.531  1.00 20.00     0.016 C 
HETATM   10  C10 UNL     1     -33.088  16.279  -3.173  1.00 20.00     0.016 C 
HETATM   11  O11 UNL     1     -36.008  12.795  -4.537  1.00 20.00    -0.297 OA
ENDROOT
TORSDOF 0
ENDMDL
MODEL 5
REMARK VINA RESULT:      -4.4      1.203      2.779
REMARK  0 active torsions:
REMARK  status: ('A' for Active; 'I' for Inactive)
ROOT
HETATM    1  C1  UNL     1     -35.910  17.489  -5.160  1.00 20.00    -0.023 C 
HETATM    2  C2  UNL     1     -36.581  16.614  -5.989  1.00 20.00    -0.013 C 
HETATM    3  C3  UNL     1     -35.911  14.135  -4.867  1.00 20.00     0.140 C 
HETATM    4  C4  UNL     1     -34.812  14.137  -3.771  1.00 20.00     0.088 C 
HETATM    5  C5  UNL     1     -35.082  16.325  -4.714  1.00 20.00     0.035 C 
HETATM    6  C6  UNL     1     -36.501  15.568  -4.871  1.00 20.00     0.042 C 
HETATM    7  C7  UNL     1     -34.541  15.667  -3.456  1.00 20.00    -0.033 C 
HETATM    8  C8  UNL     1     -37.776  15.607  -4.014  1.00 20.00     0.029 C 
HETATM    9  C9  UNL     1     -35.166  16.167  -2.155  1.00 20.00     0.016 C 
HETATM   10  C10 UNL     1     -33.024  15.917  -3.368  1.00 20.00     0.016 C 
HETATM   11  O11 UNL     1     -36.220  13.155  -5.530  1.00 20.00    -0.297 OA
ENDROOT
TORSDOF 0
ENDMDL
MODEL 6
REMARK VINA RESULT:      -4.4      1.747      2.620
REMARK  0 active torsions:
REMARK  status: ('A' for Active; 'I' for Inactive)
ROOT
HETATM    1  C1  UNL     1     -35.335  13.605  -4.047  1.00 20.00    -0.023 C 
HETATM    2  C2  UNL     1     -36.130  13.915  -5.131  1.00 20.00    -0.013 C 
HETATM    3  C3  UNL     1     -35.971  16.713  -5.175  1.00 20.00     0.140 C 
HETATM    4  C4  UNL     1     -35.294  17.394  -3.956  1.00 20.00     0.088 C 
HETATM    5  C5  UNL     1     -35.487  15.029  -3.614  1.00 20.00     0.035 C 
HETATM    6  C6  UNL     1     -35.412  15.268  -5.210  1.00 20.00     0.042 C 
HETATM    7  C7  UNL     1     -34.674  16.208  -3.107  1.00 20.00    -0.033 C 
HETATM    8  C8  UNL     1     -34.237  15.189  -6.197  1.00 20.00     0.029 C 
HETATM    9  C9  UNL     1     -33.162  16.048  -3.250  1.00 20.00     0.016 C 
HETATM   10  C10 UNL     1     -34.978  16.425  -1.612  1.00 20.00     0.016 C 
HETATM   11  O11 UNL     1     -36.750  17.274  -5.933  1.00 20.00    -0.297 OA
ENDROOT
TORSDOF 0
ENDMDL
MODEL 7
REMARK VINA RESULT:      -4.4      1.615      2.455
REMARK  0 active torsions:
REMARK  status: ('A' for Active; 'I' for Inactive)
ROOT
HETATM    1  C1  UNL     1     -34.899  15.935  -2.431  1.00 20.00    -0.023 C 
HETATM    2  C2  UNL     1     -33.691  15.661  -3.040  1.00 20.00    -0.013 C 
HETATM    3  C3  UNL     1     -34.487  15.127  -5.673  1.00 20.00     0.140 C 
HETATM    4  C4  UNL     1     -36.012  14.994  -5.931  1.00 20.00     0.088 C 
HETATM    5  C5  UNL     1     -35.560  15.259  -3.590  1.00 20.00     0.035 C 
HETATM    6  C6  UNL     1     -34.353  15.979  -4.386  1.00 20.00     0.042 C 
HETATM    7  C7  UNL     1     -36.703  15.439  -4.575  1.00 20.00    -0.033 C 
HETATM    8  C8  UNL     1     -34.115  17.451  -4.760  1.00 20.00     0.029 C 
HETATM    9  C9  UNL     1     -37.307  16.843  -4.601  1.00 20.00     0.016 C 
HETATM   10  C10 UNL     1     -37.834  14.455  -4.221  1.00 20.00     0.016 C 
HETATM   11  O11 UNL     1     -33.623  14.658  -6.401  1.00 20.00    -0.297 OA
ENDROOT
TORSDOF 0
ENDMDL
MODEL 8
REMARK VINA RESULT:      -4.3      1.494      2.940
REMARK  0 active torsions:
REMARK  status: ('A' for Active; 'I' for Inactive)
ROOT
HETATM    1  C1  UNL     1     -36.221  17.785  -4.448  1.00 20.00    -0.023 C 
HETATM    2  C2  UNL     1     -36.211  17.057  -5.621  1.00 20.00    -0.013 C 
HETATM    3  C3  UNL     1     -34.235  15.142  -5.088  1.00 20.00     0.140 C 
HETATM    4  C4  UNL     1     -33.392  15.346  -3.801  1.00 20.00     0.088 C 
HETATM    5  C5  UNL     1     -34.879  17.195  -4.150  1.00 20.00     0.035 C 
HETATM    6  C6  UNL     1     -35.562  15.906  -4.844  1.00 20.00     0.042 C 
HETATM    7  C7  UNL     1     -34.096  16.537  -3.026  1.00 20.00    -0.033 C 
HETATM    8  C8  UNL     1     -36.638  14.930  -4.342  1.00 20.00     0.029 C 
HETATM    9  C9  UNL     1     -34.940  16.104  -1.829  1.00 20.00     0.016 C 
HETATM   10  C10 UNL     1     -33.030  17.522  -2.510  1.00 20.00     0.016 C 
HETATM   11  O11 UNL     1     -33.877  14.472  -6.046  1.00 20.00    -0.297 OA
ENDROOT
TORSDOF 0
ENDMDL
MODEL 9
REMARK VINA RESULT:      -4.2      3.024      4.071
REMARK  0 active torsions:
REMARK  status: ('A' for Active; 'I' for Inactive)
ROOT
HETATM    1  C1  UNL     1     -33.265  15.975  -3.261  1.00 20.00    -0.023 C 
HETATM    2  C2  UNL     1     -34.508  15.571  -2.817  1.00 20.00    -0.013 C 
HETATM    3  C3  UNL     1     -35.160  17.608  -1.007  1.00 20.00     0.140 C 
HETATM    4  C4  UNL     1     -34.033  18.615  -0.650  1.00 20.00     0.088 C 
HETATM    5  C5  UNL     1     -33.198  16.861  -2.057  1.00 20.00     0.035 C 
HETATM    6  C6  UNL     1     -34.772  17.018  -2.386  1.00 20.00     0.042 C 
HETATM    7  C7  UNL     1     -32.845  18.281  -1.647  1.00 20.00    -0.033 C 
HETATM    8  C8  UNL     1     -35.507  17.778  -3.502  1.00 20.00     0.029 C 
HETATM    9  C9  UNL     1     -32.697  19.261  -2.808  1.00 20.00     0.016 C 
HETATM   10  C10 UNL     1     -31.511  18.266  -0.877  1.00 20.00     0.016 C 
HETATM   11  O11 UNL     1     -36.143  17.401  -0.310  1.00 20.00    -0.297 OA
ENDROOT
TORSDOF 0
ENDMDL
