MODEL 1
REMARK VINA RESULT:      -4.6      0.000      0.000
REMARK  1 active torsions:
REMARK  status: ('A' for Active; 'I' for Inactive)
REMARK    1  A    between atoms: C3_3  and  C8_8 
ROOT
HETATM    1  C1  UNL     1     -34.365  16.554  -4.999  1.00 20.00     0.147 C 
HETATM    2  C4  UNL     1     -36.109  14.583  -3.796  1.00 20.00     0.007 C 
HETATM    3  C5  UNL     1     -35.481  15.737  -2.989  1.00 20.00     0.022 C 
HETATM    4  C6  UNL     1     -33.780  14.489  -4.113  1.00 20.00     0.027 C 
HETATM    5  C7  UNL     1     -35.077  14.335  -4.921  1.00 20.00     0.002 C 
HETATM    6  C8  UNL     1     -34.110  15.906  -3.646  1.00 20.00     0.038 C 
HETATM    7  C9  UNL     1     -35.006  15.528  -5.933  1.00 20.00     0.018 C 
HETATM    8  C10 UNL     1     -34.081  15.228  -7.117  1.00 20.00     0.023 C 
HETATM    9  C11 UNL     1     -36.364  16.007  -6.439  1.00 20.00     0.023 C 
HETATM   10  O12 UNL     1     -34.132  17.718  -5.293  1.00 20.00    -0.296 OA
ENDROOT
BRANCH   6  11
HETATM   11  C3  UNL     1     -33.071  16.594  -2.848  1.00 20.00    -0.020 C 
HETATM   12  C2  UNL     1     -33.335  17.400  -1.814  1.00 20.00     0.008 C 
ENDBRANCH   6  11
TORSDOF 1
ENDMDL
MODEL 2
REMARK VINA RESULT:      -4.5      0.985      3.708
REMARK  1 active torsions:
REMARK  status: ('A' for Active; 'I' for Inactive)
REMARK    1  A    between atoms: C3_3  and  C8_8 
ROOT
HETATM    1  C1  UNL     1     -35.100  16.729  -4.199  1.00 20.00     0.147 C 
HETATM    2  C4  UNL     1     -33.333  14.477  -4.625  1.00 20.00     0.007 C 
HETATM    3  C5  UNL     1     -34.064  15.187  -5.782  1.00 20.00     0.022 C 
HETATM    4  C6  UNL     1     -35.632  14.470  -4.126  1.00 20.00     0.027 C 
HETATM    5  C7  UNL     1     -34.283  14.687  -3.423  1.00 20.00     0.002 C 
HETATM    6  C8  UNL     1     -35.401  15.580  -5.151  1.00 20.00     0.038 C 
HETATM    7  C9  UNL     1     -34.355  16.187  -2.980  1.00 20.00     0.018 C 
HETATM    8  C10 UNL     1     -35.193  16.376  -1.712  1.00 20.00     0.023 C 
HETATM    9  C11 UNL     1     -32.995  16.860  -2.813  1.00 20.00     0.023 C 
HETATM   10  O12 UNL     1     -35.373  17.906  -4.387  1.00 20.00    -0.296 OA
ENDROOT
BRANCH   6  11
HETATM   11  C3  UNL     1     -36.518  15.859  -6.080  1.00 20.00    -0.020 C 
HETATM   12  C2  UNL     1     -36.391  15.899  -7.411  1.00 20.00     0.008 C 
ENDBRANCH   6  11
TORSDOF 1
ENDMDL
MODEL 3
REMARK VINA RESULT:      -4.5     11.332     13.326
REMARK  1 active torsions:
REMARK  status: ('A' for Active; 'I' for Inactive)
REMARK    1  A    between atoms: C3_3  and  C8_8 
ROOT
HETATM    1  C1  UNL     1     -42.819   6.953  -1.151  1.00 20.00     0.147 C 
HETATM    2  C4  UNL     1     -40.431   5.918   0.116  1.00 20.00     0.007 C 
HETATM    3  C5  UNL     1     -41.026   5.296  -1.164  1.00 20.00     0.022 C 
HETATM    4  C6  UNL     1     -42.679   5.389   0.561  1.00 20.00     0.027 C 
HETATM    5  C7  UNL     1     -41.667   6.513   0.829  1.00 20.00     0.002 C 
HETATM    6  C8  UNL     1     -42.533   5.470  -0.958  1.00 20.00     0.038 C 
HETATM    7  C9  UNL     1     -42.274   7.728   0.049  1.00 20.00     0.018 C 
HETATM    8  C10 UNL     1     -43.417   8.397   0.818  1.00 20.00     0.023 C 
HETATM    9  C11 UNL     1     -41.250   8.774  -0.382  1.00 20.00     0.023 C 
HETATM   10  O12 UNL     1     -43.364   7.458  -2.122  1.00 20.00    -0.296 OA
ENDROOT
BRANCH   6  11
HETATM   11  C3  UNL     1     -43.417   4.590  -1.753  1.00 20.00    -0.020 C 
HETATM   12  C2  UNL     1     -42.987   3.777  -2.723  1.00 20.00     0.008 C 
ENDBRANCH   6  11
TORSDOF 1
ENDMDL
MODEL 4
REMARK VINA RESULT:      -4.4      1.581      3.549
REMARK  1 active torsions:
REMARK  status: ('A' for Active; 'I' for Inactive)
REMARK    1  A    between atoms: C3_3  and  C8_8 
ROOT
HETATM    1  C1  UNL     1     -35.107  16.735  -4.395  1.00 20.00     0.147 C 
HETATM    2  C4  UNL     1     -33.061  17.022  -2.367  1.00 20.00     0.007 C 
HETATM    3  C5  UNL     1     -33.021  15.908  -3.433  1.00 20.00     0.022 C 
HETATM    4  C6  UNL     1     -35.096  15.849  -2.248  1.00 20.00     0.027 C 
HETATM    5  C7  UNL     1     -34.574  17.292  -2.194  1.00 20.00     0.002 C 
HETATM    6  C8  UNL     1     -34.501  15.569  -3.627  1.00 20.00     0.038 C 
HETATM    7  C9  UNL     1     -35.209  17.945  -3.467  1.00 20.00     0.018 C 
HETATM    8  C10 UNL     1     -36.676  18.331  -3.250  1.00 20.00     0.023 C 
HETATM    9  C11 UNL     1     -34.431  19.137  -4.018  1.00 20.00     0.023 C 
HETATM   10  O12 UNL     1     -35.429  16.728  -5.574  1.00 20.00    -0.296 OA
ENDROOT
BRANCH   6  11
HETATM   11  C3  UNL     1     -34.807  14.248  -4.220  1.00 20.00    -0.020 C 
HETATM   12  C2  UNL     1     -36.042  13.749  -4.337  1.00 20.00     0.008 C 
ENDBRANCH   6  11
TORSDOF 1
ENDMDL
MODEL 5
REMARK VINA RESULT:      -4.4      1.453      2.323
REMARK  1 active torsions:
REMARK  status: ('A' for Active; 'I' for Inactive)
REMARK    1  A    between atoms: C3_3  and  C8_8 
ROOT
HETATM    1  C1  UNL     1     -34.264  15.025  -4.646  1.00 20.00     0.147 C 
HETATM    2  C4  UNL     1     -35.757  17.386  -5.405  1.00 20.00     0.007 C 
HETATM    3  C5  UNL     1     -34.291  17.449  -4.929  1.00 20.00     0.022 C 
HETATM    4  C6  UNL     1     -35.642  16.329  -3.306  1.00 20.00     0.027 C 
HETATM    5  C7  UNL     1     -36.312  16.141  -4.676  1.00 20.00     0.002 C 
HETATM    6  C8  UNL     1     -34.225  16.339  -3.878  1.00 20.00     0.038 C 
HETATM    7  C9  UNL     1     -35.672  14.812  -5.201  1.00 20.00     0.018 C 
HETATM    8  C10 UNL     1     -36.315  13.571  -4.572  1.00 20.00     0.023 C 
HETATM    9  C11 UNL     1     -35.657  14.678  -6.722  1.00 20.00     0.023 C 
HETATM   10  O12 UNL     1     -33.319  14.271  -4.827  1.00 20.00    -0.296 OA
ENDROOT
BRANCH   6  11
HETATM   11  C3  UNL     1     -33.120  16.417  -2.898  1.00 20.00    -0.020 C 
HETATM   12  C2  UNL     1     -32.972  17.413  -2.017  1.00 20.00     0.008 C 
ENDBRANCH   6  11
TORSDOF 1
ENDMDL
MODEL 6
REMARK VINA RESULT:      -4.3      1.818      2.831
REMARK  1 active torsions:
REMARK  status: ('A' for Active; 'I' for Inactive)
REMARK    1  A    between atoms: C3_3  and  C8_8 
ROOT
HETATM    1  C1  UNL     1     -35.133  17.695  -3.237  1.00 20.00     0.147 C 
HETATM    2  C4  UNL     1     -33.711  15.235  -3.787  1.00 20.00     0.007 C 
HETATM    3  C5  UNL     1     -34.879  15.310  -2.783  1.00 20.00     0.022 C 
HETATM    4  C6  UNL     1     -33.197  16.913  -2.221  1.00 20.00     0.027 C 
HETATM    5  C7  UNL     1     -33.104  16.656  -3.732  1.00 20.00     0.002 C 
HETATM    6  C8  UNL     1     -34.709  16.700  -2.166  1.00 20.00     0.038 C 
HETATM    7  C9  UNL     1     -34.068  17.735  -4.332  1.00 20.00     0.018 C 
HETATM    8  C10 UNL     1     -33.417  19.121  -4.397  1.00 20.00     0.023 C 
HETATM    9  C11 UNL     1     -34.654  17.369  -5.693  1.00 20.00     0.023 C 
HETATM   10  O12 UNL     1     -36.173  18.337  -3.248  1.00 20.00    -0.296 OA
ENDROOT
BRANCH   6  11
HETATM   11  C3  UNL     1     -35.359  16.929  -0.856  1.00 20.00    -0.020 C 
HETATM   12  C2  UNL     1     -34.847  17.704   0.106  1.00 20.00     0.008 C 
ENDBRANCH   6  11
TORSDOF 1
ENDMDL
MODEL 7
REMARK VINA RESULT:      -4.2      1.524      2.657
REMARK  1 active torsions:
REMARK  status: ('A' for Active; 'I' for Inactive)
REMARK    1  A    between atoms: C3_3  and  C8_8 
ROOT
HETATM    1  C1  UNL     1     -34.634  16.304  -4.823  1.00 20.00     0.147 C 
HETATM    2  C4  UNL     1     -35.357  16.407  -2.023  1.00 20.00     0.007 C 
HETATM    3  C5  UNL     1     -35.781  17.496  -3.029  1.00 20.00     0.022 C 
HETATM    4  C6  UNL     1     -33.408  17.206  -3.070  1.00 20.00     0.027 C 
HETATM    5  C7  UNL     1     -34.029  15.878  -2.612  1.00 20.00     0.002 C 
HETATM    6  C8  UNL     1     -34.583  17.569  -3.978  1.00 20.00     0.038 C 
HETATM    7  C9  UNL     1     -34.243  15.107  -3.958  1.00 20.00     0.018 C 
HETATM    8  C10 UNL     1     -32.948  14.472  -4.474  1.00 20.00     0.023 C 
HETATM    9  C11 UNL     1     -35.356  14.063  -3.915  1.00 20.00     0.023 C 
HETATM   10  O12 UNL     1     -34.969  16.239  -5.998  1.00 20.00    -0.296 OA
ENDROOT
BRANCH   6  11
HETATM   11  C3  UNL     1     -34.441  18.807  -4.775  1.00 20.00    -0.020 C 
HETATM   12  C2  UNL     1     -33.275  19.263  -5.246  1.00 20.00     0.008 C 
ENDBRANCH   6  11
TORSDOF 1
ENDMDL
MODEL 8
REMARK VINA RESULT:      -4.2      1.620      2.645
REMARK  1 active torsions:
REMARK  status: ('A' for Active; 'I' for Inactive)
REMARK    1  A    between atoms: C3_3  and  C8_8 
ROOT
HETATM    1  C1  UNL     1     -35.099  15.977  -2.950  1.00 20.00     0.147 C 
HETATM    2  C4  UNL     1     -33.951  14.919  -5.388  1.00 20.00     0.007 C 
HETATM    3  C5  UNL     1     -33.136  15.075  -4.087  1.00 20.00     0.022 C 
HETATM    4  C6  UNL     1     -34.131  17.161  -4.698  1.00 20.00     0.027 C 
HETATM    5  C7  UNL     1     -35.008  16.042  -5.280  1.00 20.00     0.002 C 
HETATM    6  C8  UNL     1     -33.718  16.349  -3.471  1.00 20.00     0.038 C 
HETATM    7  C9  UNL     1     -36.043  15.774  -4.135  1.00 20.00     0.018 C 
HETATM    8  C10 UNL     1     -37.164  16.817  -4.112  1.00 20.00     0.023 C 
HETATM    9  C11 UNL     1     -36.637  14.367  -4.140  1.00 20.00     0.023 C 
HETATM   10  O12 UNL     1     -35.406  15.825  -1.777  1.00 20.00    -0.296 OA
ENDROOT
BRANCH   6  11
HETATM   11  C3  UNL     1     -32.878  17.047  -2.473  1.00 20.00    -0.020 C 
HETATM   12  C2  UNL     1     -32.589  18.352  -2.521  1.00 20.00     0.008 C 
ENDBRANCH   6  11
TORSDOF 1
ENDMDL
MODEL 9
REMARK VINA RESULT:      -4.1      1.519      3.731
REMARK  1 active torsions:
REMARK  status: ('A' for Active; 'I' for Inactive)
REMARK    1  A    between atoms: C3_3  and  C8_8 
ROOT
HETATM    1  C1  UNL     1     -34.487  15.182  -4.433  1.00 20.00     0.147 C 
HETATM    2  C4  UNL     1     -36.545  17.217  -4.398  1.00 20.00     0.007 C 
HETATM    3  C5  UNL     1     -36.598  16.000  -5.344  1.00 20.00     0.022 C 
HETATM    4  C6  UNL     1     -34.536  17.176  -5.621  1.00 20.00     0.027 C 
HETATM    5  C7  UNL     1     -35.029  17.437  -4.190  1.00 20.00     0.002 C 
HETATM    6  C8  UNL     1     -35.125  15.768  -5.684  1.00 20.00     0.038 C 
HETATM    7  C9  UNL     1     -34.367  16.277  -3.373  1.00 20.00     0.018 C 
HETATM    8  C10 UNL     1     -32.895  16.557  -3.055  1.00 20.00     0.023 C 
HETATM    9  C11 UNL     1     -35.115  15.900  -2.096  1.00 20.00     0.023 C 
HETATM   10  O12 UNL     1     -34.153  14.016  -4.275  1.00 20.00    -0.296 OA
ENDROOT
BRANCH   6  11
HETATM   11  C3  UNL     1     -34.841  14.991  -6.911  1.00 20.00    -0.020 C 
HETATM   12  C2  UNL     1     -33.898  15.317  -7.801  1.00 20.00     0.008 C 
ENDBRANCH   6  11
TORSDOF 1
ENDMDL
