MODEL 1
REMARK VINA RESULT:      -4.8      0.000      0.000
REMARK  0 active torsions:
REMARK  status: ('A' for Active; 'I' for Inactive)
ROOT
HETATM    1  C1  UNL     1     -35.635  17.373  -4.873  1.00 20.00    -0.023 C 
HETATM    2  C2  UNL     1     -36.647  16.716  -5.471  1.00 20.00    -0.013 C 
HETATM    3  C3  UNL     1     -36.222  14.395  -4.527  1.00 20.00     0.140 C 
HETATM    4  C4  UNL     1     -35.319  14.619  -3.330  1.00 20.00     0.088 C 
HETATM    5  C5  UNL     1     -34.632  16.252  -5.100  1.00 20.00     0.035 C 
HETATM    6  C6  UNL     1     -35.847  15.438  -5.639  1.00 20.00     0.042 C 
HETATM    7  C7  UNL     1     -34.120  15.430  -3.888  1.00 20.00    -0.033 C 
HETATM    8  C8  UNL     1     -35.743  14.877  -7.042  1.00 20.00     0.029 C 
HETATM    9  C9  UNL     1     -33.523  16.351  -2.821  1.00 20.00     0.016 C 
HETATM   10  C10 UNL     1     -33.025  14.465  -4.382  1.00 20.00     0.016 C 
HETATM   11  O11 UNL     1     -37.115  13.554  -4.539  1.00 20.00    -0.297 OA
ENDROOT
TORSDOF 0
ENDMDL
MODEL 2
REMARK VINA RESULT:      -4.7      1.198      2.283
REMARK  0 active torsions:
REMARK  status: ('A' for Active; 'I' for Inactive)
ROOT
HETATM    1  C1  UNL     1     -34.249  16.080  -2.415  1.00 20.00    -0.023 C 
HETATM    2  C2  UNL     1     -35.577  16.171  -2.213  1.00 20.00    -0.013 C 
HETATM    3  C3  UNL     1     -36.360  14.542  -4.001  1.00 20.00     0.140 C 
HETATM    4  C4  UNL     1     -35.131  13.726  -4.351  1.00 20.00     0.088 C 
HETATM    5  C5  UNL     1     -34.372  16.075  -3.932  1.00 20.00     0.035 C 
HETATM    6  C6  UNL     1     -35.910  16.013  -3.685  1.00 20.00     0.042 C 
HETATM    7  C7  UNL     1     -34.051  14.777  -4.719  1.00 20.00    -0.033 C 
HETATM    8  C8  UNL     1     -36.760  17.098  -4.313  1.00 20.00     0.029 C 
HETATM    9  C9  UNL     1     -32.645  14.274  -4.385  1.00 20.00     0.016 C 
HETATM   10  C10 UNL     1     -34.124  15.091  -6.225  1.00 20.00     0.016 C 
HETATM   11  O11 UNL     1     -37.485  14.059  -3.940  1.00 20.00    -0.297 OA
ENDROOT
TORSDOF 0
ENDMDL
MODEL 3
REMARK VINA RESULT:      -4.7      1.428      2.481
REMARK  0 active torsions:
REMARK  status: ('A' for Active; 'I' for Inactive)
ROOT
HETATM    1  C1  UNL     1     -34.722  16.334  -5.925  1.00 20.00    -0.023 C 
HETATM    2  C2  UNL     1     -34.238  15.106  -6.190  1.00 20.00    -0.013 C 
HETATM    3  C3  UNL     1     -35.167  13.873  -4.171  1.00 20.00     0.140 C 
HETATM    4  C4  UNL     1     -36.265  14.772  -3.635  1.00 20.00     0.088 C 
HETATM    5  C5  UNL     1     -34.411  16.253  -4.437  1.00 20.00     0.035 C 
HETATM    6  C6  UNL     1     -34.009  14.775  -4.726  1.00 20.00     0.042 C 
HETATM    7  C7  UNL     1     -35.578  16.146  -3.420  1.00 20.00    -0.033 C 
HETATM    8  C8  UNL     1     -32.611  14.345  -4.334  1.00 20.00     0.029 C 
HETATM    9  C9  UNL     1     -36.567  17.300  -3.606  1.00 20.00     0.016 C 
HETATM   10  C10 UNL     1     -34.991  16.216  -1.998  1.00 20.00     0.016 C 
HETATM   11  O11 UNL     1     -35.257  12.650  -4.186  1.00 20.00    -0.297 OA
ENDROOT
TORSDOF 0
ENDMDL
MODEL 4
REMARK VINA RESULT:      -4.5      1.583      2.832
REMARK  0 active torsions:
REMARK  status: ('A' for Active; 'I' for Inactive)
ROOT
HETATM    1  C1  UNL     1     -33.151  14.901  -4.364  1.00 20.00    -0.023 C 
HETATM    2  C2  UNL     1     -34.090  14.710  -5.310  1.00 20.00    -0.013 C 
HETATM    3  C3  UNL     1     -35.665  16.606  -4.691  1.00 20.00     0.140 C 
HETATM    4  C4  UNL     1     -34.838  17.533  -3.820  1.00 20.00     0.088 C 
HETATM    5  C5  UNL     1     -34.164  15.185  -3.264  1.00 20.00     0.035 C 
HETATM    6  C6  UNL     1     -35.231  15.127  -4.399  1.00 20.00     0.042 C 
HETATM    7  C7  UNL     1     -34.285  16.623  -2.692  1.00 20.00    -0.033 C 
HETATM    8  C8  UNL     1     -36.368  14.140  -4.235  1.00 20.00     0.029 C 
HETATM    9  C9  UNL     1     -32.929  17.121  -2.187  1.00 20.00     0.016 C 
HETATM   10  C10 UNL     1     -35.277  16.595  -1.513  1.00 20.00     0.016 C 
HETATM   11  O11 UNL     1     -36.484  17.015  -5.506  1.00 20.00    -0.297 OA
ENDROOT
TORSDOF 0
ENDMDL
MODEL 5
REMARK VINA RESULT:      -4.5      1.210      3.178
REMARK  0 active torsions:
REMARK  status: ('A' for Active; 'I' for Inactive)
ROOT
HETATM    1  C1  UNL     1     -33.282  14.548  -4.693  1.00 20.00    -0.023 C 
HETATM    2  C2  UNL     1     -34.088  14.085  -3.719  1.00 20.00    -0.013 C 
HETATM    3  C3  UNL     1     -36.317  14.278  -4.926  1.00 20.00     0.140 C 
HETATM    4  C4  UNL     1     -35.956  14.402  -6.394  1.00 20.00     0.088 C 
HETATM    5  C5  UNL     1     -34.232  15.669  -5.092  1.00 20.00     0.035 C 
HETATM    6  C6  UNL     1     -35.225  15.023  -4.079  1.00 20.00     0.042 C 
HETATM    7  C7  UNL     1     -34.966  15.595  -6.457  1.00 20.00    -0.033 C 
HETATM    8  C8  UNL     1     -35.759  15.905  -2.970  1.00 20.00     0.029 C 
HETATM    9  C9  UNL     1     -33.966  15.430  -7.604  1.00 20.00     0.016 C 
HETATM   10  C10 UNL     1     -35.747  16.907  -6.661  1.00 20.00     0.016 C 
HETATM   11  O11 UNL     1     -37.286  13.641  -4.530  1.00 20.00    -0.297 OA
ENDROOT
TORSDOF 0
ENDMDL
MODEL 6
REMARK VINA RESULT:      -4.5      2.340      3.864
REMARK  0 active torsions:
REMARK  status: ('A' for Active; 'I' for Inactive)
ROOT
HETATM    1  C1  UNL     1     -35.474  16.361  -1.888  1.00 20.00    -0.023 C 
HETATM    2  C2  UNL     1     -35.044  17.637  -1.896  1.00 20.00    -0.013 C 
HETATM    3  C3  UNL     1     -33.946  17.668  -4.188  1.00 20.00     0.140 C 
HETATM    4  C4  UNL     1     -34.516  16.462  -4.910  1.00 20.00     0.088 C 
HETATM    5  C5  UNL     1     -34.198  15.815  -2.512  1.00 20.00     0.035 C 
HETATM    6  C6  UNL     1     -33.780  17.308  -2.669  1.00 20.00     0.042 C 
HETATM    7  C7  UNL     1     -34.234  15.266  -3.963  1.00 20.00    -0.033 C 
HETATM    8  C8  UNL     1     -32.468  17.732  -2.044  1.00 20.00     0.029 C 
HETATM    9  C9  UNL     1     -35.301  14.178  -4.106  1.00 20.00     0.016 C 
HETATM   10  C10 UNL     1     -32.856  14.660  -4.288  1.00 20.00     0.016 C 
HETATM   11  O11 UNL     1     -33.724  18.736  -4.748  1.00 20.00    -0.297 OA
ENDROOT
TORSDOF 0
ENDMDL
MODEL 7
REMARK VINA RESULT:      -4.2      1.756      2.511
REMARK  0 active torsions:
REMARK  status: ('A' for Active; 'I' for Inactive)
ROOT
HETATM    1  C1  UNL     1     -36.992  14.722  -4.054  1.00 20.00    -0.023 C 
HETATM    2  C2  UNL     1     -36.324  13.796  -4.769  1.00 20.00    -0.013 C 
HETATM    3  C3  UNL     1     -33.951  14.587  -4.316  1.00 20.00     0.140 C 
HETATM    4  C4  UNL     1     -34.064  15.489  -3.102  1.00 20.00     0.088 C 
HETATM    5  C5  UNL     1     -36.101  15.870  -4.508  1.00 20.00     0.035 C 
HETATM    6  C6  UNL     1     -35.238  14.768  -5.195  1.00 20.00     0.042 C 
HETATM    7  C7  UNL     1     -35.140  16.537  -3.489  1.00 20.00    -0.033 C 
HETATM    8  C8  UNL     1     -34.991  14.905  -6.683  1.00 20.00     0.029 C 
HETATM    9  C9  UNL     1     -35.908  17.029  -2.260  1.00 20.00     0.016 C 
HETATM   10  C10 UNL     1     -34.467  17.743  -4.173  1.00 20.00     0.016 C 
HETATM   11  O11 UNL     1     -33.006  13.826  -4.494  1.00 20.00    -0.297 OA
ENDROOT
TORSDOF 0
ENDMDL
MODEL 8
REMARK VINA RESULT:      -4.1      1.596      3.323
REMARK  0 active torsions:
REMARK  status: ('A' for Active; 'I' for Inactive)
ROOT
HETATM    1  C1  UNL     1     -33.239  17.524  -4.036  1.00 20.00    -0.023 C 
HETATM    2  C2  UNL     1     -33.027  16.522  -3.163  1.00 20.00    -0.013 C 
HETATM    3  C3  UNL     1     -33.931  14.593  -4.549  1.00 20.00     0.140 C 
HETATM    4  C4  UNL     1     -33.969  15.119  -5.971  1.00 20.00     0.088 C 
HETATM    5  C5  UNL     1     -34.608  17.010  -4.459  1.00 20.00     0.035 C 
HETATM    6  C6  UNL     1     -34.280  15.770  -3.572  1.00 20.00     0.042 C 
HETATM    7  C7  UNL     1     -34.796  16.428  -5.885  1.00 20.00    -0.033 C 
HETATM    8  C8  UNL     1     -35.259  15.426  -2.469  1.00 20.00     0.029 C 
HETATM    9  C9  UNL     1     -34.354  17.439  -6.946  1.00 20.00     0.016 C 
HETATM   10  C10 UNL     1     -36.291  16.113  -6.087  1.00 20.00     0.016 C 
HETATM   11  O11 UNL     1     -33.618  13.440  -4.274  1.00 20.00    -0.297 OA
ENDROOT
TORSDOF 0
ENDMDL
MODEL 9
REMARK VINA RESULT:      -4.1      3.665      5.060
REMARK  0 active torsions:
REMARK  status: ('A' for Active; 'I' for Inactive)
ROOT
HETATM    1  C1  UNL     1     -34.397  15.855  -2.316  1.00 20.00    -0.023 C 
HETATM    2  C2  UNL     1     -33.356  16.269  -3.063  1.00 20.00    -0.013 C 
HETATM    3  C3  UNL     1     -32.716  18.339  -1.736  1.00 20.00     0.140 C 
HETATM    4  C4  UNL     1     -33.382  18.159  -0.385  1.00 20.00     0.088 C 
HETATM    5  C5  UNL     1     -34.950  17.259  -2.118  1.00 20.00     0.035 C 
HETATM    6  C6  UNL     1     -33.655  17.740  -2.841  1.00 20.00     0.042 C 
HETATM    7  C7  UNL     1     -34.879  17.916  -0.714  1.00 20.00    -0.033 C 
HETATM    8  C8  UNL     1     -33.826  18.596  -4.078  1.00 20.00     0.029 C 
HETATM    9  C9  UNL     1     -35.543  17.023   0.337  1.00 20.00     0.016 C 
HETATM   10  C10 UNL     1     -35.624  19.263  -0.769  1.00 20.00     0.016 C 
HETATM   11  O11 UNL     1     -31.601  18.832  -1.867  1.00 20.00    -0.297 OA
ENDROOT
TORSDOF 0
ENDMDL
