MODEL 1
REMARK VINA RESULT:      -4.2      0.000      0.000
REMARK  3 active torsions:
REMARK  status: ('A' for Active; 'I' for Inactive)
REMARK    1  A    between atoms: C2_2  and  N8_8 
REMARK    2  A    between atoms: C6_6  and  C7_7 
REMARK    3  A    between atoms: C6_6  and  N8_8 
ROOT
HETATM    1  N8  UNL     1     -42.837   7.619  -1.578  1.00 20.00     0.097 N 
HETATM    2  H23 UNL     1     -43.367   8.140  -2.272  1.00 20.00     0.316 HD
ENDROOT
BRANCH   1   3
HETATM    3  C2  UNL     1     -43.417   6.277  -1.457  1.00 20.00     0.229 A 
HETATM    4  C1  UNL     1     -43.376   5.557  -0.135  1.00 20.00     0.047 A 
HETATM    5  C3  UNL     1     -42.545   5.046  -1.290  1.00 20.00    -0.015 A 
HETATM    6  C4  UNL     1     -42.994   3.781  -1.975  1.00 20.00     0.017 C 
HETATM    7  C5  UNL     1     -41.049   5.195  -1.196  1.00 20.00     0.017 C 
ENDBRANCH   1   3
BRANCH   1   8
HETATM    8  C6  UNL     1     -42.883   8.313  -0.303  1.00 20.00     0.386 C 
BRANCH   8   9
HETATM    9  C7  UNL     1     -41.501   8.633   0.206  1.00 20.00     0.413 C 
HETATM   10  F9  UNL     1     -40.594   8.528  -0.791  1.00 20.00    -0.169 F 
HETATM   11  F10 UNL     1     -41.432   9.892   0.690  1.00 20.00    -0.169 F 
HETATM   12  F11 UNL     1     -41.128   7.786   1.188  1.00 20.00    -0.169 F 
ENDBRANCH   8   9
ENDBRANCH   1   8
TORSDOF 3
ENDMDL
MODEL 2
REMARK VINA RESULT:      -4.1      9.099     10.018
REMARK  3 active torsions:
REMARK  status: ('A' for Active; 'I' for Inactive)
REMARK    1  A    between atoms: C2_2  and  N8_8 
REMARK    2  A    between atoms: C6_6  and  C7_7 
REMARK    3  A    between atoms: C6_6  and  N8_8 
ROOT
HETATM    1  N8  UNL     1     -32.920   5.387   2.973  1.00 20.00     0.097 N 
HETATM    2  H23 UNL     1     -32.483   4.557   2.581  1.00 20.00     0.316 HD
ENDROOT
BRANCH   1   3
HETATM    3  C2  UNL     1     -34.059   4.973   3.798  1.00 20.00     0.229 A 
HETATM    4  C1  UNL     1     -35.308   5.814   3.833  1.00 20.00     0.047 A 
HETATM    5  C3  UNL     1     -34.436   5.719   5.065  1.00 20.00    -0.015 A 
HETATM    6  C4  UNL     1     -34.943   4.902   6.225  1.00 20.00     0.017 C 
HETATM    7  C5  UNL     1     -33.661   6.945   5.471  1.00 20.00     0.017 C 
ENDBRANCH   1   3
BRANCH   1   8
HETATM    8  C6  UNL     1     -33.357   6.264   1.901  1.00 20.00     0.386 C 
BRANCH   8   9
HETATM    9  C7  UNL     1     -32.522   7.518   1.833  1.00 20.00     0.413 C 
HETATM   10  F9  UNL     1     -31.773   7.648   2.950  1.00 20.00    -0.169 F 
HETATM   11  F10 UNL     1     -31.681   7.495   0.777  1.00 20.00    -0.169 F 
HETATM   12  F11 UNL     1     -33.295   8.620   1.730  1.00 20.00    -0.169 F 
ENDBRANCH   8   9
ENDBRANCH   1   8
TORSDOF 3
ENDMDL
MODEL 3
REMARK VINA RESULT:      -4.1     23.121     24.121
REMARK  3 active torsions:
REMARK  status: ('A' for Active; 'I' for Inactive)
REMARK    1  A    between atoms: C2_2  and  N8_8 
REMARK    2  A    between atoms: C6_6  and  C7_7 
REMARK    3  A    between atoms: C6_6  and  N8_8 
ROOT
HETATM    1  N8  UNL     1     -24.257  16.975   9.712  1.00 20.00     0.097 N 
HETATM    2  H23 UNL     1     -24.753  17.135   8.838  1.00 20.00     0.316 HD
ENDROOT
BRANCH   1   3
HETATM    3  C2  UNL     1     -24.458  18.137  10.584  1.00 20.00     0.229 A 
HETATM    4  C1  UNL     1     -23.816  18.174  11.946  1.00 20.00     0.047 A 
HETATM    5  C3  UNL     1     -25.319  18.055  11.832  1.00 20.00    -0.015 A 
HETATM    6  C4  UNL     1     -26.150  19.263  12.180  1.00 20.00     0.017 C 
HETATM    7  C5  UNL     1     -25.950  16.743  12.222  1.00 20.00     0.017 C 
ENDBRANCH   1   3
BRANCH   1   8
HETATM    8  C6  UNL     1     -22.844  16.774   9.444  1.00 20.00     0.386 C 
BRANCH   8   9
HETATM    9  C7  UNL     1     -22.342  17.712   8.376  1.00 20.00     0.413 C 
HETATM   10  F9  UNL     1     -21.667  18.743   8.931  1.00 20.00    -0.169 F 
HETATM   11  F10 UNL     1     -21.502  17.086   7.524  1.00 20.00    -0.169 F 
HETATM   12  F11 UNL     1     -23.359  18.231   7.656  1.00 20.00    -0.169 F 
ENDBRANCH   8   9
ENDBRANCH   1   8
TORSDOF 3
ENDMDL
MODEL 4
REMARK VINA RESULT:      -4.1      8.769      9.707
REMARK  3 active torsions:
REMARK  status: ('A' for Active; 'I' for Inactive)
REMARK    1  A    between atoms: C2_2  and  N8_8 
REMARK    2  A    between atoms: C6_6  and  C7_7 
REMARK    3  A    between atoms: C6_6  and  N8_8 
ROOT
HETATM    1  N8  UNL     1     -33.381   6.227   2.295  1.00 20.00     0.097 N 
HETATM    2  H23 UNL     1     -34.332   6.495   2.056  1.00 20.00     0.316 HD
ENDROOT
BRANCH   1   3
HETATM    3  C2  UNL     1     -33.392   5.588   3.615  1.00 20.00     0.229 A 
HETATM    4  C1  UNL     1     -33.978   4.211   3.779  1.00 20.00     0.047 A 
HETATM    5  C3  UNL     1     -34.680   5.400   4.396  1.00 20.00    -0.015 A 
HETATM    6  C4  UNL     1     -34.610   5.558   5.893  1.00 20.00     0.017 C 
HETATM    7  C5  UNL     1     -35.991   5.830   3.794  1.00 20.00     0.017 C 
ENDBRANCH   1   3
BRANCH   1   8
HETATM    8  C6  UNL     1     -32.527   7.401   2.302  1.00 20.00     0.386 C 
BRANCH   8   9
HETATM    9  C7  UNL     1     -32.566   8.125   0.980  1.00 20.00     0.413 C 
HETATM   10  F9  UNL     1     -33.642   7.738   0.260  1.00 20.00    -0.169 F 
HETATM   11  F10 UNL     1     -32.648   9.462   1.151  1.00 20.00    -0.169 F 
HETATM   12  F11 UNL     1     -31.466   7.865   0.242  1.00 20.00    -0.169 F 
ENDBRANCH   8   9
ENDBRANCH   1   8
TORSDOF 3
ENDMDL
MODEL 5
REMARK VINA RESULT:      -4.0     22.995     24.026
REMARK  3 active torsions:
REMARK  status: ('A' for Active; 'I' for Inactive)
REMARK    1  A    between atoms: C2_2  and  N8_8 
REMARK    2  A    between atoms: C6_6  and  C7_7 
REMARK    3  A    between atoms: C6_6  and  N8_8 
ROOT
HETATM    1  N8  UNL     1     -24.796  17.885   9.707  1.00 20.00     0.097 N 
HETATM    2  H23 UNL     1     -25.251  17.782   8.803  1.00 20.00     0.316 HD
ENDROOT
BRANCH   1   3
HETATM    3  C2  UNL     1     -25.752  18.479  10.647  1.00 20.00     0.229 A 
HETATM    4  C1  UNL     1     -25.284  18.951  11.998  1.00 20.00     0.047 A 
HETATM    5  C3  UNL     1     -26.193  17.746  11.902  1.00 20.00    -0.015 A 
HETATM    6  C4  UNL     1     -27.628  17.911  12.332  1.00 20.00     0.017 C 
HETATM    7  C5  UNL     1     -25.606  16.398  12.227  1.00 20.00     0.017 C 
ENDBRANCH   1   3
BRANCH   1   8
HETATM    8  C6  UNL     1     -23.622  18.728   9.571  1.00 20.00     0.386 C 
BRANCH   8   9
HETATM    9  C7  UNL     1     -22.354  17.966   9.865  1.00 20.00     0.413 C 
HETATM   10  F9  UNL     1     -22.471  16.681   9.465  1.00 20.00    -0.169 F 
HETATM   11  F10 UNL     1     -21.296  18.500   9.217  1.00 20.00    -0.169 F 
HETATM   12  F11 UNL     1     -22.077  17.960  11.186  1.00 20.00    -0.169 F 
ENDBRANCH   8   9
ENDBRANCH   1   8
TORSDOF 3
ENDMDL
MODEL 6
REMARK VINA RESULT:      -4.0     10.629     12.483
REMARK  3 active torsions:
REMARK  status: ('A' for Active; 'I' for Inactive)
REMARK    1  A    between atoms: C2_2  and  N8_8 
REMARK    2  A    between atoms: C6_6  and  C7_7 
REMARK    3  A    between atoms: C6_6  and  N8_8 
ROOT
HETATM    1  N8  UNL     1     -35.151  16.417  -4.644  1.00 20.00     0.097 N 
HETATM    2  H23 UNL     1     -35.425  17.075  -5.368  1.00 20.00     0.316 HD
ENDROOT
BRANCH   1   3
HETATM    3  C2  UNL     1     -33.908  16.890  -4.026  1.00 20.00     0.229 A 
HETATM    4  C1  UNL     1     -32.992  15.915  -3.335  1.00 20.00     0.047 A 
HETATM    5  C3  UNL     1     -33.740  16.944  -2.518  1.00 20.00    -0.015 A 
HETATM    6  C4  UNL     1     -32.954  18.098  -1.950  1.00 20.00     0.017 C 
HETATM    7  C5  UNL     1     -34.849  16.458  -1.623  1.00 20.00     0.017 C 
ENDBRANCH   1   3
BRANCH   1   8
HETATM    8  C6  UNL     1     -34.963  15.099  -5.225  1.00 20.00     0.386 C 
BRANCH   8   9
HETATM    9  C7  UNL     1     -35.717  14.041  -4.459  1.00 20.00     0.413 C 
HETATM   10  F9  UNL     1     -36.393  13.235  -5.308  1.00 20.00    -0.169 F 
HETATM   11  F10 UNL     1     -34.882  13.265  -3.736  1.00 20.00    -0.169 F 
HETATM   12  F11 UNL     1     -36.616  14.590  -3.615  1.00 20.00    -0.169 F 
ENDBRANCH   8   9
ENDBRANCH   1   8
TORSDOF 3
ENDMDL
MODEL 7
REMARK VINA RESULT:      -3.9     12.055     13.227
REMARK  3 active torsions:
REMARK  status: ('A' for Active; 'I' for Inactive)
REMARK    1  A    between atoms: C2_2  and  N8_8 
REMARK    2  A    between atoms: C6_6  and  C7_7 
REMARK    3  A    between atoms: C6_6  and  N8_8 
ROOT
HETATM    1  N8  UNL     1     -35.205  16.608  -4.886  1.00 20.00     0.097 N 
HETATM    2  H23 UNL     1     -35.795  17.404  -4.656  1.00 20.00     0.316 HD
ENDROOT
BRANCH   1   3
HETATM    3  C2  UNL     1     -33.917  16.766  -4.203  1.00 20.00     0.229 A 
HETATM    4  C1  UNL     1     -33.202  15.557  -3.658  1.00 20.00     0.047 A 
HETATM    5  C3  UNL     1     -33.785  16.574  -2.702  1.00 20.00    -0.015 A 
HETATM    6  C4  UNL     1     -32.829  17.481  -1.971  1.00 20.00     0.017 C 
HETATM    7  C5  UNL     1     -34.986  16.166  -1.890  1.00 20.00     0.017 C 
ENDBRANCH   1   3
BRANCH   1   8
HETATM    8  C6  UNL     1     -35.016  16.537  -6.324  1.00 20.00     0.386 C 
BRANCH   8   9
HETATM    9  C7  UNL     1     -34.942  15.110  -6.805  1.00 20.00     0.413 C 
HETATM   10  F9  UNL     1     -35.407  14.266  -5.857  1.00 20.00    -0.169 F 
HETATM   11  F10 UNL     1     -35.686  14.925  -7.916  1.00 20.00    -0.169 F 
HETATM   12  F11 UNL     1     -33.672  14.748  -7.087  1.00 20.00    -0.169 F 
ENDBRANCH   8   9
ENDBRANCH   1   8
TORSDOF 3
ENDMDL
MODEL 8
REMARK VINA RESULT:      -3.9     11.985     13.214
REMARK  3 active torsions:
REMARK  status: ('A' for Active; 'I' for Inactive)
REMARK    1  A    between atoms: C2_2  and  N8_8 
REMARK    2  A    between atoms: C6_6  and  C7_7 
REMARK    3  A    between atoms: C6_6  and  N8_8 
ROOT
HETATM    1  N8  UNL     1     -33.021  15.953  -4.119  1.00 20.00     0.097 N 
HETATM    2  H23 UNL     1     -32.009  15.994  -4.029  1.00 20.00     0.316 HD
ENDROOT
BRANCH   1   3
HETATM    3  C2  UNL     1     -33.613  15.982  -2.778  1.00 20.00     0.229 A 
HETATM    4  C1  UNL     1     -35.081  15.699  -2.598  1.00 20.00     0.047 A 
HETATM    5  C3  UNL     1     -34.553  17.094  -2.347  1.00 20.00    -0.015 A 
HETATM    6  C4  UNL     1     -34.458  17.565  -0.919  1.00 20.00     0.017 C 
HETATM    7  C5  UNL     1     -34.934  18.174  -3.326  1.00 20.00     0.017 C 
ENDBRANCH   1   3
BRANCH   1   8
HETATM    8  C6  UNL     1     -33.403  14.740  -4.821  1.00 20.00     0.386 C 
BRANCH   8   9
HETATM    9  C7  UNL     1     -34.130  15.046  -6.106  1.00 20.00     0.413 C 
HETATM   10  F9  UNL     1     -35.295  14.364  -6.164  1.00 20.00    -0.169 F 
HETATM   11  F10 UNL     1     -34.419  16.360  -6.208  1.00 20.00    -0.169 F 
HETATM   12  F11 UNL     1     -33.397  14.693  -7.183  1.00 20.00    -0.169 F 
ENDBRANCH   8   9
ENDBRANCH   1   8
TORSDOF 3
ENDMDL
MODEL 9
REMARK VINA RESULT:      -3.8      9.139     10.124
REMARK  3 active torsions:
REMARK  status: ('A' for Active; 'I' for Inactive)
REMARK    1  A    between atoms: C2_2  and  N8_8 
REMARK    2  A    between atoms: C6_6  and  C7_7 
REMARK    3  A    between atoms: C6_6  and  N8_8 
ROOT
HETATM    1  N8  UNL     1     -34.112   6.912   3.217  1.00 20.00     0.097 N 
HETATM    2  H23 UNL     1     -34.849   6.401   2.737  1.00 20.00     0.316 HD
ENDROOT
BRANCH   1   3
HETATM    3  C2  UNL     1     -32.883   6.819   2.423  1.00 20.00     0.229 A 
HETATM    4  C1  UNL     1     -31.690   7.666   2.781  1.00 20.00     0.047 A 
HETATM    5  C3  UNL     1     -32.445   7.943   1.500  1.00 20.00    -0.015 A 
HETATM    6  C4  UNL     1     -31.790   7.554   0.200  1.00 20.00     0.017 C 
HETATM    7  C5  UNL     1     -33.257   9.209   1.424  1.00 20.00     0.017 C 
ENDBRANCH   1   3
BRANCH   1   8
HETATM    8  C6  UNL     1     -33.910   6.353   4.541  1.00 20.00     0.386 C 
BRANCH   8   9
HETATM    9  C7  UNL     1     -34.860   5.215   4.816  1.00 20.00     0.413 C 
HETATM   10  F9  UNL     1     -36.036   5.417   4.180  1.00 20.00    -0.169 F 
HETATM   11  F10 UNL     1     -34.359   4.038   4.385  1.00 20.00    -0.169 F 
HETATM   12  F11 UNL     1     -35.124   5.100   6.135  1.00 20.00    -0.169 F 
ENDBRANCH   8   9
ENDBRANCH   1   8
TORSDOF 3
ENDMDL
