MODEL 1
REMARK VINA RESULT:      -4.3      0.000      0.000
REMARK  1 active torsions:
REMARK  status: ('A' for Active; 'I' for Inactive)
REMARK    1  A    between atoms: C6_6  and  N10_10 
ROOT
HETATM    1  C1  UNL     1     -35.702  13.832  -4.573  1.00 20.00     0.156 C 
HETATM    2  C2  UNL     1     -36.260  14.865  -5.502  1.00 20.00     0.110 C 
HETATM    3  C3  UNL     1     -34.474  14.335  -3.862  1.00 20.00     0.350 C 
HETATM    4  C5  UNL     1     -35.111  15.864  -5.521  1.00 20.00     0.281 C 
HETATM    5  N10 UNL     1     -34.432  15.762  -4.215  1.00 20.00     0.101 N 
HETATM    6  O11 UNL     1     -36.186  12.719  -4.409  1.00 20.00    -0.296 OA
ENDROOT
BRANCH   5   7
HETATM    7  C6  UNL     1     -35.103  16.580  -3.204  1.00 20.00     0.232 A 
HETATM    8  C4  UNL     1     -35.046  16.196  -1.749  1.00 20.00     0.047 A 
HETATM    9  C7  UNL     1     -34.336  17.445  -2.219  1.00 20.00    -0.015 A 
HETATM   10  C8  UNL     1     -32.829  17.440  -2.221  1.00 20.00     0.017 C 
HETATM   11  C9  UNL     1     -34.941  18.778  -1.856  1.00 20.00     0.017 C 
ENDBRANCH   5   7
TORSDOF 1
ENDMDL
MODEL 2
REMARK VINA RESULT:      -4.3      1.600      2.063
REMARK  1 active torsions:
REMARK  status: ('A' for Active; 'I' for Inactive)
REMARK    1  A    between atoms: C6_6  and  N10_10 
ROOT
HETATM    1  C1  UNL     1     -37.716  14.694  -4.673  1.00 20.00     0.156 C 
HETATM    2  C2  UNL     1     -37.889  16.083  -5.206  1.00 20.00     0.110 C 
HETATM    3  C3  UNL     1     -36.276  14.257  -4.728  1.00 20.00     0.350 C 
HETATM    4  C5  UNL     1     -36.530  16.296  -5.858  1.00 20.00     0.281 C 
HETATM    5  N10 UNL     1     -35.558  15.486  -5.099  1.00 20.00     0.101 N 
HETATM    6  O11 UNL     1     -38.630  14.002  -4.242  1.00 20.00    -0.296 OA
ENDROOT
BRANCH   5   7
HETATM    7  C6  UNL     1     -35.082  16.202  -3.914  1.00 20.00     0.232 A 
HETATM    8  C4  UNL     1     -34.860  15.470  -2.617  1.00 20.00     0.047 A 
HETATM    9  C7  UNL     1     -33.675  16.029  -3.371  1.00 20.00    -0.015 A 
HETATM   10  C8  UNL     1     -32.728  15.051  -4.018  1.00 20.00     0.017 C 
HETATM   11  C9  UNL     1     -32.997  17.253  -2.811  1.00 20.00     0.017 C 
ENDBRANCH   5   7
TORSDOF 1
ENDMDL
MODEL 3
REMARK VINA RESULT:      -4.2      1.797      2.291
REMARK  1 active torsions:
REMARK  status: ('A' for Active; 'I' for Inactive)
REMARK    1  A    between atoms: C6_6  and  N10_10 
ROOT
HETATM    1  C1  UNL     1     -35.898  15.319  -7.133  1.00 20.00     0.156 C 
HETATM    2  C2  UNL     1     -36.703  16.531  -6.779  1.00 20.00     0.110 C 
HETATM    3  C3  UNL     1     -34.584  15.295  -6.397  1.00 20.00     0.350 C 
HETATM    4  C5  UNL     1     -35.651  17.354  -6.048  1.00 20.00     0.281 C 
HETATM    5  N10 UNL     1     -34.710  16.399  -5.433  1.00 20.00     0.101 N 
HETATM    6  O11 UNL     1     -36.264  14.454  -7.918  1.00 20.00    -0.296 OA
ENDROOT
BRANCH   5   7
HETATM    7  C6  UNL     1     -35.208  15.922  -4.142  1.00 20.00     0.232 A 
HETATM    8  C4  UNL     1     -34.650  14.668  -3.522  1.00 20.00     0.047 A 
HETATM    9  C7  UNL     1     -34.382  16.005  -2.871  1.00 20.00    -0.015 A 
HETATM   10  C8  UNL     1     -32.974  16.540  -2.917  1.00 20.00     0.017 C 
HETATM   11  C9  UNL     1     -35.114  16.325  -1.592  1.00 20.00     0.017 C 
ENDBRANCH   5   7
TORSDOF 1
ENDMDL
MODEL 4
REMARK VINA RESULT:      -4.2      1.166      1.245
REMARK  1 active torsions:
REMARK  status: ('A' for Active; 'I' for Inactive)
REMARK    1  A    between atoms: C6_6  and  N10_10 
ROOT
HETATM    1  C1  UNL     1     -36.011  13.759  -4.553  1.00 20.00     0.156 C 
HETATM    2  C2  UNL     1     -37.286  14.485  -4.252  1.00 20.00     0.110 C 
HETATM    3  C3  UNL     1     -34.893  14.716  -4.870  1.00 20.00     0.350 C 
HETATM    4  C5  UNL     1     -36.919  15.886  -4.721  1.00 20.00     0.281 C 
HETATM    5  N10 UNL     1     -35.463  16.032  -4.541  1.00 20.00     0.101 N 
HETATM    6  O11 UNL     1     -35.892  12.541  -4.538  1.00 20.00    -0.296 OA
ENDROOT
BRANCH   5   7
HETATM    7  C6  UNL     1     -35.135  16.425  -3.169  1.00 20.00     0.232 A 
HETATM    8  C4  UNL     1     -33.762  16.167  -2.607  1.00 20.00     0.047 A 
HETATM    9  C7  UNL     1     -34.211  17.588  -2.856  1.00 20.00    -0.015 A 
HETATM   10  C8  UNL     1     -33.547  18.350  -3.974  1.00 20.00     0.017 C 
HETATM   11  C9  UNL     1     -34.555  18.438  -1.659  1.00 20.00     0.017 C 
ENDBRANCH   5   7
TORSDOF 1
ENDMDL
MODEL 5
REMARK VINA RESULT:      -4.0      3.207      5.140
REMARK  1 active torsions:
REMARK  status: ('A' for Active; 'I' for Inactive)
REMARK    1  A    between atoms: C6_6  and  N10_10 
ROOT
HETATM    1  C1  UNL     1     -32.914  18.425   0.140  1.00 20.00     0.156 C 
HETATM    2  C2  UNL     1     -31.674  18.431  -0.699  1.00 20.00     0.110 C 
HETATM    3  C3  UNL     1     -34.155  18.328  -0.707  1.00 20.00     0.350 C 
HETATM    4  C5  UNL     1     -32.280  18.649  -2.079  1.00 20.00     0.281 C 
HETATM    5  N10 UNL     1     -33.630  18.055  -2.054  1.00 20.00     0.101 N 
HETATM    6  O11 UNL     1     -32.919  18.488   1.363  1.00 20.00    -0.296 OA
ENDROOT
BRANCH   5   7
HETATM    7  C6  UNL     1     -33.580  16.617  -2.323  1.00 20.00     0.232 A 
HETATM    8  C4  UNL     1     -34.848  15.808  -2.397  1.00 20.00     0.047 A 
HETATM    9  C7  UNL     1     -34.027  16.022  -3.647  1.00 20.00    -0.015 A 
HETATM   10  C8  UNL     1     -34.599  16.910  -4.722  1.00 20.00     0.017 C 
HETATM   11  C9  UNL     1     -33.237  14.854  -4.180  1.00 20.00     0.017 C 
ENDBRANCH   5   7
TORSDOF 1
ENDMDL
MODEL 6
REMARK VINA RESULT:      -3.9      1.545      2.146
REMARK  1 active torsions:
REMARK  status: ('A' for Active; 'I' for Inactive)
REMARK    1  A    between atoms: C6_6  and  N10_10 
ROOT
HETATM    1  C1  UNL     1     -34.544  14.789  -4.952  1.00 20.00     0.156 C 
HETATM    2  C2  UNL     1     -35.590  13.931  -4.310  1.00 20.00     0.110 C 
HETATM    3  C3  UNL     1     -34.726  16.240  -4.596  1.00 20.00     0.350 C 
HETATM    4  C5  UNL     1     -36.562  14.999  -3.828  1.00 20.00     0.281 C 
HETATM    5  N10 UNL     1     -35.766  16.211  -3.556  1.00 20.00     0.101 N 
HETATM    6  O11 UNL     1     -33.650  14.363  -5.673  1.00 20.00    -0.296 OA
ENDROOT
BRANCH   5   7
HETATM    7  C6  UNL     1     -35.176  16.168  -2.217  1.00 20.00     0.232 A 
HETATM    8  C4  UNL     1     -33.904  16.915  -1.917  1.00 20.00     0.047 A 
HETATM    9  C7  UNL     1     -35.200  17.362  -1.279  1.00 20.00    -0.015 A 
HETATM   10  C8  UNL     1     -35.793  18.671  -1.735  1.00 20.00     0.017 C 
HETATM   11  C9  UNL     1     -35.396  17.082   0.189  1.00 20.00     0.017 C 
ENDBRANCH   5   7
TORSDOF 1
ENDMDL
MODEL 7
REMARK VINA RESULT:      -3.8      1.728      2.619
REMARK  1 active torsions:
REMARK  status: ('A' for Active; 'I' for Inactive)
REMARK    1  A    between atoms: C6_6  and  N10_10 
ROOT
HETATM    1  C1  UNL     1     -34.034  15.101  -5.322  1.00 20.00     0.156 C 
HETATM    2  C2  UNL     1     -33.954  14.332  -4.040  1.00 20.00     0.110 C 
HETATM    3  C3  UNL     1     -34.475  16.522  -5.086  1.00 20.00     0.350 C 
HETATM    4  C5  UNL     1     -34.672  15.291  -3.100  1.00 20.00     0.281 C 
HETATM    5  N10 UNL     1     -34.446  16.652  -3.621  1.00 20.00     0.101 N 
HETATM    6  O11 UNL     1     -33.771  14.636  -6.423  1.00 20.00    -0.296 OA
ENDROOT
BRANCH   5   7
HETATM    7  C6  UNL     1     -33.164  17.189  -3.161  1.00 20.00     0.232 A 
HETATM    8  C4  UNL     1     -32.746  18.588  -3.528  1.00 20.00     0.047 A 
HETATM    9  C7  UNL     1     -33.070  18.260  -2.089  1.00 20.00    -0.015 A 
HETATM   10  C8  UNL     1     -34.324  18.852  -1.497  1.00 20.00     0.017 C 
HETATM   11  C9  UNL     1     -31.925  18.160  -1.114  1.00 20.00     0.017 C 
ENDBRANCH   5   7
TORSDOF 1
ENDMDL
MODEL 8
REMARK VINA RESULT:      -3.7      2.036      2.705
REMARK  1 active torsions:
REMARK  status: ('A' for Active; 'I' for Inactive)
REMARK    1  A    between atoms: C6_6  and  N10_10 
ROOT
HETATM    1  C1  UNL     1     -37.523  16.265  -6.037  1.00 20.00     0.156 C 
HETATM    2  C2  UNL     1     -36.949  17.630  -6.259  1.00 20.00     0.110 C 
HETATM    3  C3  UNL     1     -36.444  15.247  -5.781  1.00 20.00     0.350 C 
HETATM    4  C5  UNL     1     -35.477  17.283  -6.430  1.00 20.00     0.281 C 
HETATM    5  N10 UNL     1     -35.229  16.064  -5.637  1.00 20.00     0.101 N 
HETATM    6  O11 UNL     1     -38.721  16.010  -6.056  1.00 20.00    -0.296 OA
ENDROOT
BRANCH   5   7
HETATM    7  C6  UNL     1     -34.970  16.389  -4.233  1.00 20.00     0.232 A 
HETATM    8  C4  UNL     1     -35.154  15.349  -3.161  1.00 20.00     0.047 A 
HETATM    9  C7  UNL     1     -33.765  15.850  -3.483  1.00 20.00    -0.015 A 
HETATM   10  C8  UNL     1     -32.814  14.899  -4.162  1.00 20.00     0.017 C 
HETATM   11  C9  UNL     1     -33.102  16.772  -2.492  1.00 20.00     0.017 C 
ENDBRANCH   5   7
TORSDOF 1
ENDMDL
MODEL 9
REMARK VINA RESULT:      -3.7      2.165      3.816
REMARK  1 active torsions:
REMARK  status: ('A' for Active; 'I' for Inactive)
REMARK    1  A    between atoms: C6_6  and  N10_10 
ROOT
HETATM    1  C1  UNL     1     -33.816  14.606  -4.078  1.00 20.00     0.156 C 
HETATM    2  C2  UNL     1     -33.666  15.820  -3.213  1.00 20.00     0.110 C 
HETATM    3  C3  UNL     1     -35.232  14.097  -4.074  1.00 20.00     0.350 C 
HETATM    4  C5  UNL     1     -34.995  15.790  -2.469  1.00 20.00     0.281 C 
HETATM    5  N10 UNL     1     -35.975  15.152  -3.368  1.00 20.00     0.101 N 
HETATM    6  O11 UNL     1     -32.901  14.095  -4.712  1.00 20.00    -0.296 OA
ENDROOT
BRANCH   5   7
HETATM    7  C6  UNL     1     -36.542  16.122  -4.306  1.00 20.00     0.232 A 
HETATM    8  C4  UNL     1     -36.920  15.704  -5.702  1.00 20.00     0.047 A 
HETATM    9  C7  UNL     1     -38.003  16.092  -4.721  1.00 20.00    -0.015 A 
HETATM   10  C8  UNL     1     -38.913  15.005  -4.211  1.00 20.00     0.017 C 
HETATM   11  C9  UNL     1     -38.690  17.419  -4.919  1.00 20.00     0.017 C 
ENDBRANCH   5   7
TORSDOF 1
ENDMDL
