MODEL 1
REMARK VINA RESULT:      -4.2      0.000      0.000
REMARK  2 active torsions:
REMARK  status: ('A' for Active; 'I' for Inactive)
REMARK    1  A    between atoms: C6_6  and  N9_9 
REMARK    2  A    between atoms: C7_7  and  N9_9 
ROOT
HETATM    1  C1  UNL     1     -32.875   8.810   0.626  1.00 20.00     0.013 C 
HETATM    2  C2  UNL     1     -32.658   8.010   1.495  1.00 20.00    -0.087 C 
HETATM    3  C6  UNL     1     -32.388   7.036   2.554  1.00 20.00     0.366 C 
ENDROOT
BRANCH   3   4
HETATM    4  N9  UNL     1     -33.563   6.861   3.407  1.00 20.00     0.112 N 
HETATM    5  C5  UNL     1     -33.208   7.054   4.812  1.00 20.00     0.312 C 
BRANCH   4   6
HETATM    6  C7  UNL     1     -34.149   5.536   3.205  1.00 20.00     0.325 C 
HETATM    7  C3  UNL     1     -34.670   5.020   4.478  1.00 20.00     0.095 C 
HETATM    8  N8  UNL     1     -35.083   4.612   5.482  1.00 20.00    -0.195 NA
HETATM    9  C4  UNL     1     -33.126   4.581   2.606  1.00 20.00     0.059 C 
ENDBRANCH   4   6
ENDBRANCH   3   4
TORSDOF 2
ENDMDL
MODEL 2
REMARK VINA RESULT:      -4.2     11.155     11.760
REMARK  2 active torsions:
REMARK  status: ('A' for Active; 'I' for Inactive)
REMARK    1  A    between atoms: C6_6  and  N9_9 
REMARK    2  A    between atoms: C7_7  and  N9_9 
ROOT
HETATM    1  C1  UNL     1     -35.183  16.705  -1.112  1.00 20.00     0.013 C 
HETATM    2  C2  UNL     1     -34.496  16.468  -2.068  1.00 20.00    -0.087 C 
HETATM    3  C6  UNL     1     -33.655  16.181  -3.232  1.00 20.00     0.366 C 
ENDROOT
BRANCH   3   4
HETATM    4  N9  UNL     1     -34.080  14.943  -3.885  1.00 20.00     0.112 N 
HETATM    5  C5  UNL     1     -32.936  14.269  -4.497  1.00 20.00     0.312 C 
BRANCH   4   6
HETATM    6  C7  UNL     1     -35.107  15.222  -4.889  1.00 20.00     0.325 C 
HETATM    7  C3  UNL     1     -36.271  14.355  -4.667  1.00 20.00     0.095 C 
HETATM    8  N8  UNL     1     -37.193  13.672  -4.492  1.00 20.00    -0.195 NA
HETATM    9  C4  UNL     1     -34.549  15.038  -6.294  1.00 20.00     0.059 C 
ENDBRANCH   4   6
ENDBRANCH   3   4
TORSDOF 2
ENDMDL
MODEL 3
REMARK VINA RESULT:      -4.1     11.084     12.241
REMARK  2 active torsions:
REMARK  status: ('A' for Active; 'I' for Inactive)
REMARK    1  A    between atoms: C6_6  and  N9_9 
REMARK    2  A    between atoms: C7_7  and  N9_9 
ROOT
HETATM    1  C1  UNL     1     -33.306  16.522  -2.984  1.00 20.00     0.013 C 
HETATM    2  C2  UNL     1     -33.767  15.509  -3.436  1.00 20.00    -0.087 C 
HETATM    3  C6  UNL     1     -34.328  14.272  -3.982  1.00 20.00     0.366 C 
ENDROOT
BRANCH   3   4
HETATM    4  N9  UNL     1     -35.024  14.532  -5.242  1.00 20.00     0.112 N 
HETATM    5  C5  UNL     1     -34.106  15.108  -6.224  1.00 20.00     0.312 C 
BRANCH   4   6
HETATM    6  C7  UNL     1     -36.163  15.424  -5.022  1.00 20.00     0.325 C 
HETATM    7  C3  UNL     1     -37.337  14.644  -4.613  1.00 20.00     0.095 C 
HETATM    8  N8  UNL     1     -38.266  14.029  -4.287  1.00 20.00    -0.195 NA
HETATM    9  C4  UNL     1     -36.457  16.238  -6.275  1.00 20.00     0.059 C 
ENDBRANCH   4   6
ENDBRANCH   3   4
TORSDOF 2
ENDMDL
MODEL 4
REMARK VINA RESULT:      -4.1     11.179     11.953
REMARK  2 active torsions:
REMARK  status: ('A' for Active; 'I' for Inactive)
REMARK    1  A    between atoms: C6_6  and  N9_9 
REMARK    2  A    between atoms: C7_7  and  N9_9 
ROOT
HETATM    1  C1  UNL     1     -32.918  17.436  -1.970  1.00 20.00     0.013 C 
HETATM    2  C2  UNL     1     -33.381  16.589  -2.684  1.00 20.00    -0.087 C 
HETATM    3  C6  UNL     1     -33.943  15.553  -3.552  1.00 20.00     0.366 C 
ENDROOT
BRANCH   3   4
HETATM    4  N9  UNL     1     -35.088  16.070  -4.300  1.00 20.00     0.112 N 
HETATM    5  C5  UNL     1     -36.234  16.262  -3.412  1.00 20.00     0.312 C 
BRANCH   4   6
HETATM    6  C7  UNL     1     -35.436  15.164  -5.394  1.00 20.00     0.325 C 
HETATM    7  C3  UNL     1     -35.806  13.849  -4.856  1.00 20.00     0.095 C 
HETATM    8  N8  UNL     1     -36.102  12.810  -4.433  1.00 20.00    -0.195 NA
HETATM    9  C4  UNL     1     -34.282  15.045  -6.381  1.00 20.00     0.059 C 
ENDBRANCH   4   6
ENDBRANCH   3   4
TORSDOF 2
ENDMDL
MODEL 5
REMARK VINA RESULT:      -3.9     11.377     12.333
REMARK  2 active torsions:
REMARK  status: ('A' for Active; 'I' for Inactive)
REMARK    1  A    between atoms: C6_6  and  N9_9 
REMARK    2  A    between atoms: C7_7  and  N9_9 
ROOT
HETATM    1  C1  UNL     1     -33.269  14.619  -4.211  1.00 20.00     0.013 C 
HETATM    2  C2  UNL     1     -33.205  15.693  -3.680  1.00 20.00    -0.087 C 
HETATM    3  C6  UNL     1     -33.126  17.007  -3.037  1.00 20.00     0.366 C 
ENDROOT
BRANCH   3   4
HETATM    4  N9  UNL     1     -33.665  16.950  -1.678  1.00 20.00     0.112 N 
HETATM    5  C5  UNL     1     -35.111  16.733  -1.711  1.00 20.00     0.312 C 
BRANCH   4   6
HETATM    6  C7  UNL     1     -33.348  18.178  -0.951  1.00 20.00     0.325 C 
HETATM    7  C3  UNL     1     -31.895  18.294  -0.773  1.00 20.00     0.095 C 
HETATM    8  N8  UNL     1     -30.747  18.389  -0.634  1.00 20.00    -0.195 NA
HETATM    9  C4  UNL     1     -34.067  18.209   0.391  1.00 20.00     0.059 C 
ENDBRANCH   4   6
ENDBRANCH   3   4
TORSDOF 2
ENDMDL
MODEL 6
REMARK VINA RESULT:      -3.8     10.887     11.713
REMARK  2 active torsions:
REMARK  status: ('A' for Active; 'I' for Inactive)
REMARK    1  A    between atoms: C6_6  and  N9_9 
REMARK    2  A    between atoms: C7_7  and  N9_9 
ROOT
HETATM    1  C1  UNL     1     -35.438  17.050   0.311  1.00 20.00     0.013 C 
HETATM    2  C2  UNL     1     -35.362  17.033  -0.887  1.00 20.00    -0.087 C 
HETATM    3  C6  UNL     1     -35.267  17.016  -2.348  1.00 20.00     0.366 C 
ENDROOT
BRANCH   3   4
HETATM    4  N9  UNL     1     -35.068  15.653  -2.838  1.00 20.00     0.112 N 
HETATM    5  C5  UNL     1     -33.740  15.512  -3.432  1.00 20.00     0.312 C 
BRANCH   4   6
HETATM    6  C7  UNL     1     -36.103  15.303  -3.811  1.00 20.00     0.325 C 
HETATM    7  C3  UNL     1     -35.944  13.904  -4.228  1.00 20.00     0.095 C 
HETATM    8  N8  UNL     1     -35.822  12.798  -4.557  1.00 20.00    -0.195 NA
HETATM    9  C4  UNL     1     -36.053  16.239  -5.010  1.00 20.00     0.059 C 
ENDBRANCH   4   6
ENDBRANCH   3   4
TORSDOF 2
ENDMDL
MODEL 7
REMARK VINA RESULT:      -3.8     11.449     12.455
REMARK  2 active torsions:
REMARK  status: ('A' for Active; 'I' for Inactive)
REMARK    1  A    between atoms: C6_6  and  N9_9 
REMARK    2  A    between atoms: C7_7  and  N9_9 
ROOT
HETATM    1  C1  UNL     1     -31.175  18.278  -0.516  1.00 20.00     0.013 C 
HETATM    2  C2  UNL     1     -32.142  18.271  -1.228  1.00 20.00    -0.087 C 
HETATM    3  C6  UNL     1     -33.323  18.267  -2.095  1.00 20.00     0.366 C 
ENDROOT
BRANCH   3   4
HETATM    4  N9  UNL     1     -33.137  17.347  -3.217  1.00 20.00     0.112 N 
HETATM    5  C5  UNL     1     -33.891  17.806  -4.383  1.00 20.00     0.312 C 
BRANCH   4   6
HETATM    6  C7  UNL     1     -33.546  15.994  -2.843  1.00 20.00     0.325 C 
HETATM    7  C3  UNL     1     -33.479  15.110  -4.013  1.00 20.00     0.095 C 
HETATM    8  N8  UNL     1     -33.425  14.409  -4.936  1.00 20.00    -0.195 NA
HETATM    9  C4  UNL     1     -34.946  16.002  -2.243  1.00 20.00     0.059 C 
ENDBRANCH   4   6
ENDBRANCH   3   4
TORSDOF 2
ENDMDL
MODEL 8
REMARK VINA RESULT:      -3.8     11.148     11.954
REMARK  2 active torsions:
REMARK  status: ('A' for Active; 'I' for Inactive)
REMARK    1  A    between atoms: C6_6  and  N9_9 
REMARK    2  A    between atoms: C7_7  and  N9_9 
ROOT
HETATM    1  C1  UNL     1     -33.570  17.738  -1.133  1.00 20.00     0.013 C 
HETATM    2  C2  UNL     1     -34.299  16.981  -1.713  1.00 20.00    -0.087 C 
HETATM    3  C6  UNL     1     -35.191  16.056  -2.416  1.00 20.00     0.366 C 
ENDROOT
BRANCH   3   4
HETATM    4  N9  UNL     1     -35.257  16.384  -3.841  1.00 20.00     0.112 N 
HETATM    5  C5  UNL     1     -36.477  17.134  -4.136  1.00 20.00     0.312 C 
BRANCH   4   6
HETATM    6  C7  UNL     1     -35.197  15.166  -4.649  1.00 20.00     0.325 C 
HETATM    7  C3  UNL     1     -36.441  14.401  -4.494  1.00 20.00     0.095 C 
HETATM    8  N8  UNL     1     -37.424  13.797  -4.374  1.00 20.00    -0.195 NA
HETATM    9  C4  UNL     1     -33.987  14.325  -4.265  1.00 20.00     0.059 C 
ENDBRANCH   4   6
ENDBRANCH   3   4
TORSDOF 2
ENDMDL
MODEL 9
REMARK VINA RESULT:      -3.7     10.950     12.555
REMARK  2 active torsions:
REMARK  status: ('A' for Active; 'I' for Inactive)
REMARK    1  A    between atoms: C6_6  and  N9_9 
REMARK    2  A    between atoms: C7_7  and  N9_9 
ROOT
HETATM    1  C1  UNL     1     -33.727  15.187  -7.781  1.00 20.00     0.013 C 
HETATM    2  C2  UNL     1     -34.535  15.805  -7.143  1.00 20.00    -0.087 C 
HETATM    3  C6  UNL     1     -35.523  16.559  -6.370  1.00 20.00     0.366 C 
ENDROOT
BRANCH   3   4
HETATM    4  N9  UNL     1     -35.508  16.145  -4.967  1.00 20.00     0.112 N 
HETATM    5  C5  UNL     1     -34.298  16.630  -4.304  1.00 20.00     0.312 C 
BRANCH   4   6
HETATM    6  C7  UNL     1     -35.599  14.689  -4.863  1.00 20.00     0.325 C 
HETATM    7  C3  UNL     1     -36.977  14.295  -4.546  1.00 20.00     0.095 C 
HETATM    8  N8  UNL     1     -38.066  13.982  -4.297  1.00 20.00    -0.195 NA
HETATM    9  C4  UNL     1     -34.626  14.162  -3.818  1.00 20.00     0.059 C 
ENDBRANCH   4   6
ENDBRANCH   3   4
TORSDOF 2
ENDMDL
