MODEL 1
REMARK VINA RESULT:      -4.3      0.000      0.000
REMARK  2 active torsions:
REMARK  status: ('A' for Active; 'I' for Inactive)
REMARK    1  A    between atoms: C3_3  and  N10_10 
REMARK    2  A    between atoms: C8_8  and  N10_10 
ROOT
HETATM    1  C1  UNL     1     -36.384  13.731  -4.553  1.00 20.00     0.094 C 
HETATM    2  C7  UNL     1     -36.708  15.779  -5.889  1.00 20.00     0.059 C 
HETATM    3  C8  UNL     1     -37.109  15.005  -4.640  1.00 20.00     0.322 C 
HETATM    4  N9  UNL     1     -35.814  12.723  -4.487  1.00 20.00    -0.195 NA
ENDROOT
BRANCH   3   5
HETATM    5  N10 UNL     1     -36.864  15.796  -3.445  1.00 20.00     0.106 N 
HETATM    6  H24 UNL     1     -37.518  15.526  -2.717  1.00 20.00     0.318 HD
BRANCH   5   7
HETATM    7  C3  UNL     1     -35.499  15.579  -2.955  1.00 20.00     0.230 A 
HETATM    8  C2  UNL     1     -35.041  16.244  -1.684  1.00 20.00     0.047 A 
HETATM    9  C4  UNL     1     -34.451  16.679  -3.007  1.00 20.00    -0.015 A 
HETATM   10  C5  UNL     1     -33.034  16.270  -3.314  1.00 20.00     0.017 C 
HETATM   11  C6  UNL     1     -34.823  18.043  -3.527  1.00 20.00     0.017 C 
ENDBRANCH   5   7
ENDBRANCH   3   5
TORSDOF 2
ENDMDL
MODEL 2
REMARK VINA RESULT:      -4.3      1.500      1.806
REMARK  2 active torsions:
REMARK  status: ('A' for Active; 'I' for Inactive)
REMARK    1  A    between atoms: C3_3  and  N10_10 
REMARK    2  A    between atoms: C8_8  and  N10_10 
ROOT
HETATM    1  C1  UNL     1     -37.200  14.553  -4.188  1.00 20.00     0.094 C 
HETATM    2  C7  UNL     1     -34.783  14.445  -3.712  1.00 20.00     0.059 C 
HETATM    3  C8  UNL     1     -36.004  15.342  -3.871  1.00 20.00     0.322 C 
HETATM    4  N9  UNL     1     -38.145  13.928  -4.442  1.00 20.00    -0.195 NA
ENDROOT
BRANCH   3   5
HETATM    5  N10 UNL     1     -36.230  16.120  -2.664  1.00 20.00     0.106 N 
HETATM    6  H24 UNL     1     -36.898  15.639  -2.068  1.00 20.00     0.318 HD
BRANCH   5   7
HETATM    7  C3  UNL     1     -34.978  16.296  -1.922  1.00 20.00     0.230 A 
HETATM    8  C2  UNL     1     -34.956  17.132  -0.670  1.00 20.00     0.047 A 
HETATM    9  C4  UNL     1     -34.241  17.624  -1.909  1.00 20.00    -0.015 A 
HETATM   10  C5  UNL     1     -32.735  17.581  -1.916  1.00 20.00     0.017 C 
HETATM   11  C6  UNL     1     -34.823  18.811  -2.631  1.00 20.00     0.017 C 
ENDBRANCH   5   7
ENDBRANCH   3   5
TORSDOF 2
ENDMDL
MODEL 3
REMARK VINA RESULT:      -4.3      0.875      1.456
REMARK  2 active torsions:
REMARK  status: ('A' for Active; 'I' for Inactive)
REMARK    1  A    between atoms: C3_3  and  N10_10 
REMARK    2  A    between atoms: C8_8  and  N10_10 
ROOT
HETATM    1  C1  UNL     1     -36.374  13.819  -4.487  1.00 20.00     0.094 C 
HETATM    2  C7  UNL     1     -36.603  16.060  -5.491  1.00 20.00     0.059 C 
HETATM    3  C8  UNL     1     -36.991  15.143  -4.339  1.00 20.00     0.322 C 
HETATM    4  N9  UNL     1     -35.889  12.772  -4.608  1.00 20.00    -0.195 NA
ENDROOT
BRANCH   3   5
HETATM    5  N10 UNL     1     -36.606  15.728  -3.065  1.00 20.00     0.106 N 
HETATM    6  H24 UNL     1     -36.489  14.993  -2.374  1.00 20.00     0.318 HD
BRANCH   5   7
HETATM    7  C3  UNL     1     -35.341  16.458  -3.195  1.00 20.00     0.230 A 
HETATM    8  C2  UNL     1     -34.073  15.873  -2.633  1.00 20.00     0.047 A 
HETATM    9  C4  UNL     1     -34.671  17.107  -1.996  1.00 20.00    -0.015 A 
HETATM   10  C5  UNL     1     -33.973  18.423  -2.222  1.00 20.00     0.017 C 
HETATM   11  C6  UNL     1     -35.284  16.965  -0.628  1.00 20.00     0.017 C 
ENDBRANCH   5   7
ENDBRANCH   3   5
TORSDOF 2
ENDMDL
MODEL 4
REMARK VINA RESULT:      -4.1      1.700      2.129
REMARK  2 active torsions:
REMARK  status: ('A' for Active; 'I' for Inactive)
REMARK    1  A    between atoms: C3_3  and  N10_10 
REMARK    2  A    between atoms: C8_8  and  N10_10 
ROOT
HETATM    1  C1  UNL     1     -36.503  14.408  -4.380  1.00 20.00     0.094 C 
HETATM    2  C7  UNL     1     -34.347  14.974  -5.436  1.00 20.00     0.059 C 
HETATM    3  C8  UNL     1     -35.321  15.276  -4.304  1.00 20.00     0.322 C 
HETATM    4  N9  UNL     1     -37.438  13.724  -4.443  1.00 20.00    -0.195 NA
ENDROOT
BRANCH   3   5
HETATM    5  N10 UNL     1     -34.673  15.118  -3.013  1.00 20.00     0.106 N 
HETATM    6  H24 UNL     1     -33.668  15.215  -3.121  1.00 20.00     0.318 HD
BRANCH   5   7
HETATM    7  C3  UNL     1     -35.146  16.137  -2.071  1.00 20.00     0.230 A 
HETATM    8  C2  UNL     1     -35.411  17.539  -2.549  1.00 20.00     0.047 A 
HETATM    9  C4  UNL     1     -34.250  17.277  -1.616  1.00 20.00    -0.015 A 
HETATM   10  C5  UNL     1     -34.380  17.731  -0.186  1.00 20.00     0.017 C 
HETATM   11  C6  UNL     1     -32.858  17.404  -2.176  1.00 20.00     0.017 C 
ENDBRANCH   5   7
ENDBRANCH   3   5
TORSDOF 2
ENDMDL
MODEL 5
REMARK VINA RESULT:      -4.1      2.920      4.745
REMARK  2 active torsions:
REMARK  status: ('A' for Active; 'I' for Inactive)
REMARK    1  A    between atoms: C3_3  and  N10_10 
REMARK    2  A    between atoms: C8_8  and  N10_10 
ROOT
HETATM    1  C1  UNL     1     -32.277  18.226  -1.741  1.00 20.00     0.094 C 
HETATM    2  C7  UNL     1     -34.388  16.956  -1.624  1.00 20.00     0.059 C 
HETATM    3  C8  UNL     1     -33.442  17.760  -2.506  1.00 20.00     0.322 C 
HETATM    4  N9  UNL     1     -31.359  18.596  -1.136  1.00 20.00    -0.195 NA
ENDROOT
BRANCH   3   5
HETATM    5  N10 UNL     1     -33.002  16.969  -3.643  1.00 20.00     0.106 N 
HETATM    6  H24 UNL     1     -31.987  16.955  -3.677  1.00 20.00     0.318 HD
BRANCH   5   7
HETATM    7  C3  UNL     1     -33.490  15.591  -3.531  1.00 20.00     0.230 A 
HETATM    8  C2  UNL     1     -32.887  14.508  -4.385  1.00 20.00     0.047 A 
HETATM    9  C4  UNL     1     -34.312  14.946  -4.634  1.00 20.00    -0.015 A 
HETATM   10  C5  UNL     1     -35.418  14.013  -4.217  1.00 20.00     0.017 C 
HETATM   11  C6  UNL     1     -34.600  15.713  -5.898  1.00 20.00     0.017 C 
ENDBRANCH   5   7
ENDBRANCH   3   5
TORSDOF 2
ENDMDL
MODEL 6
REMARK VINA RESULT:      -4.1      3.268      5.075
REMARK  2 active torsions:
REMARK  status: ('A' for Active; 'I' for Inactive)
REMARK    1  A    between atoms: C3_3  and  N10_10 
REMARK    2  A    between atoms: C8_8  and  N10_10 
ROOT
HETATM    1  C1  UNL     1     -31.601  18.358  -0.917  1.00 20.00     0.094 C 
HETATM    2  C7  UNL     1     -33.998  17.802  -0.746  1.00 20.00     0.059 C 
HETATM    3  C8  UNL     1     -32.901  18.425  -1.599  1.00 20.00     0.322 C 
HETATM    4  N9  UNL     1     -30.576  18.307  -0.377  1.00 20.00    -0.195 NA
ENDROOT
BRANCH   3   5
HETATM    5  N10 UNL     1     -32.816  17.765  -2.890  1.00 20.00     0.106 N 
HETATM    6  H24 UNL     1     -31.843  17.685  -3.170  1.00 20.00     0.318 HD
BRANCH   5   7
HETATM    7  C3  UNL     1     -33.399  16.421  -2.821  1.00 20.00     0.230 A 
HETATM    8  C2  UNL     1     -32.984  15.369  -3.814  1.00 20.00     0.047 A 
HETATM    9  C4  UNL     1     -34.388  15.928  -3.863  1.00 20.00    -0.015 A 
HETATM   10  C5  UNL     1     -35.513  15.047  -3.388  1.00 20.00     0.017 C 
HETATM   11  C6  UNL     1     -34.751  16.812  -5.028  1.00 20.00     0.017 C 
ENDBRANCH   5   7
ENDBRANCH   3   5
TORSDOF 2
ENDMDL
MODEL 7
REMARK VINA RESULT:      -4.1      1.782      2.406
REMARK  2 active torsions:
REMARK  status: ('A' for Active; 'I' for Inactive)
REMARK    1  A    between atoms: C3_3  and  N10_10 
REMARK    2  A    between atoms: C8_8  and  N10_10 
ROOT
HETATM    1  C1  UNL     1     -35.893  14.851  -6.810  1.00 20.00     0.094 C 
HETATM    2  C7  UNL     1     -36.358  13.831  -4.613  1.00 20.00     0.059 C 
HETATM    3  C8  UNL     1     -35.459  14.767  -5.410  1.00 20.00     0.322 C 
HETATM    4  N9  UNL     1     -36.236  14.914  -7.917  1.00 20.00    -0.195 NA
ENDROOT
BRANCH   3   5
HETATM    5  N10 UNL     1     -35.444  16.093  -4.816  1.00 20.00     0.106 N 
HETATM    6  H24 UNL     1     -36.105  16.130  -4.046  1.00 20.00     0.318 HD
BRANCH   5   7
HETATM    7  C3  UNL     1     -34.108  16.415  -4.306  1.00 20.00     0.230 A 
HETATM    8  C2  UNL     1     -33.277  15.348  -3.645  1.00 20.00     0.047 A 
HETATM    9  C4  UNL     1     -33.822  16.489  -2.816  1.00 20.00    -0.015 A 
HETATM   10  C5  UNL     1     -32.854  17.544  -2.348  1.00 20.00     0.017 C 
HETATM   11  C6  UNL     1     -34.915  16.179  -1.827  1.00 20.00     0.017 C 
ENDBRANCH   5   7
ENDBRANCH   3   5
TORSDOF 2
ENDMDL
MODEL 8
REMARK VINA RESULT:      -4.0      1.377      1.492
REMARK  2 active torsions:
REMARK  status: ('A' for Active; 'I' for Inactive)
REMARK    1  A    between atoms: C3_3  and  N10_10 
REMARK    2  A    between atoms: C8_8  and  N10_10 
ROOT
HETATM    1  C1  UNL     1     -35.837  13.842  -4.311  1.00 20.00     0.094 C 
HETATM    2  C7  UNL     1     -36.695  16.086  -4.869  1.00 20.00     0.059 C 
HETATM    3  C8  UNL     1     -35.766  15.270  -3.979  1.00 20.00     0.322 C 
HETATM    4  N9  UNL     1     -35.897  12.713  -4.572  1.00 20.00    -0.195 NA
ENDROOT
BRANCH   3   5
HETATM    5  N10 UNL     1     -34.396  15.739  -4.101  1.00 20.00     0.106 N 
HETATM    6  H24 UNL     1     -34.371  16.576  -4.675  1.00 20.00     0.318 HD
BRANCH   5   7
HETATM    7  C3  UNL     1     -33.841  16.056  -2.781  1.00 20.00     0.230 A 
HETATM    8  C2  UNL     1     -34.740  16.571  -1.690  1.00 20.00     0.047 A 
HETATM    9  C4  UNL     1     -33.706  17.491  -2.299  1.00 20.00    -0.015 A 
HETATM   10  C5  UNL     1     -32.494  17.832  -1.473  1.00 20.00     0.017 C 
HETATM   11  C6  UNL     1     -34.196  18.621  -3.166  1.00 20.00     0.017 C 
ENDBRANCH   5   7
ENDBRANCH   3   5
TORSDOF 2
ENDMDL
MODEL 9
REMARK VINA RESULT:      -3.9      2.256      3.746
REMARK  2 active torsions:
REMARK  status: ('A' for Active; 'I' for Inactive)
REMARK    1  A    between atoms: C3_3  and  N10_10 
REMARK    2  A    between atoms: C8_8  and  N10_10 
ROOT
HETATM    1  C1  UNL     1     -35.067  13.596  -4.213  1.00 20.00     0.094 C 
HETATM    2  C7  UNL     1     -34.545  15.679  -3.000  1.00 20.00     0.059 C 
HETATM    3  C8  UNL     1     -34.007  14.556  -3.877  1.00 20.00     0.322 C 
HETATM    4  N9  UNL     1     -35.904  12.836  -4.475  1.00 20.00    -0.195 NA
ENDROOT
BRANCH   3   5
HETATM    5  N10 UNL     1     -33.420  15.090  -5.094  1.00 20.00     0.106 N 
HETATM    6  H24 UNL     1     -32.597  14.549  -5.342  1.00 20.00     0.318 HD
BRANCH   5   7
HETATM    7  C3  UNL     1     -34.379  15.022  -6.202  1.00 20.00     0.230 A 
HETATM    8  C2  UNL     1     -33.944  15.382  -7.597  1.00 20.00     0.047 A 
HETATM    9  C4  UNL     1     -34.918  16.278  -6.865  1.00 20.00    -0.015 A 
HETATM   10  C5  UNL     1     -36.357  16.264  -7.309  1.00 20.00     0.017 C 
HETATM   11  C6  UNL     1     -34.427  17.630  -6.418  1.00 20.00     0.017 C 
ENDBRANCH   5   7
ENDBRANCH   3   5
TORSDOF 2
ENDMDL
