MODEL 1
REMARK VINA RESULT:      -4.5      0.000      0.000
REMARK  1 active torsions:
REMARK  status: ('A' for Active; 'I' for Inactive)
REMARK    1  A    between atoms: C6_6  and  N7_7 
ROOT
HETATM    1  C1  UNL     1     -34.965  16.025  -2.014  1.00 20.00     0.015 C 
HETATM    2  C2  UNL     1     -34.698  15.463  -3.042  1.00 20.00    -0.084 C 
HETATM    3  C4  UNL     1     -34.855  15.583  -5.502  1.00 20.00     0.055 C 
HETATM    4  C5  UNL     1     -32.871  14.496  -4.400  1.00 20.00     0.055 C 
HETATM    5  C6  UNL     1     -34.369  14.777  -4.301  1.00 20.00     0.112 C 
ENDROOT
BRANCH   5   6
HETATM    6  N7  UNL     1     -35.092  13.501  -4.283  1.00 20.00    -0.224 NA
HETATM    7  C3  UNL     1     -36.252  13.603  -4.417  1.00 20.00     0.333 C 
HETATM    8  O8  UNL     1     -37.418  13.700  -4.551  1.00 20.00    -0.260 OA
ENDBRANCH   5   6
TORSDOF 1
ENDMDL
MODEL 2
REMARK VINA RESULT:      -4.1     18.265     18.903
REMARK  1 active torsions:
REMARK  status: ('A' for Active; 'I' for Inactive)
REMARK    1  A    between atoms: C6_6  and  N7_7 
ROOT
HETATM    1  C1  UNL     1     -26.162  19.108  11.988  1.00 20.00     0.015 C 
HETATM    2  C2  UNL     1     -25.266  18.385  11.645  1.00 20.00    -0.084 C 
HETATM    3  C4  UNL     1     -22.896  17.802  12.013  1.00 20.00     0.055 C 
HETATM    4  C5  UNL     1     -24.563  16.029  11.374  1.00 20.00     0.055 C 
HETATM    5  C6  UNL     1     -24.169  17.498  11.229  1.00 20.00     0.112 C 
ENDROOT
BRANCH   5   6
HETATM    6  N7  UNL     1     -23.914  17.784   9.813  1.00 20.00    -0.224 NA
HETATM    7  C3  UNL     1     -23.074  17.124   9.332  1.00 20.00     0.333 C 
HETATM    8  O8  UNL     1     -22.230  16.463   8.843  1.00 20.00    -0.260 OA
ENDBRANCH   5   6
TORSDOF 1
ENDMDL
MODEL 3
REMARK VINA RESULT:      -4.0      0.492      2.171
REMARK  1 active torsions:
REMARK  status: ('A' for Active; 'I' for Inactive)
REMARK    1  A    between atoms: C6_6  and  N7_7 
ROOT
HETATM    1  C1  UNL     1     -35.121  16.525  -6.319  1.00 20.00     0.015 C 
HETATM    2  C2  UNL     1     -34.831  15.760  -5.438  1.00 20.00    -0.084 C 
HETATM    3  C4  UNL     1     -32.976  14.536  -4.365  1.00 20.00     0.055 C 
HETATM    4  C5  UNL     1     -34.922  15.361  -2.999  1.00 20.00     0.055 C 
HETATM    5  C6  UNL     1     -34.473  14.827  -4.358  1.00 20.00     0.112 C 
ENDROOT
BRANCH   5   6
HETATM    6  N7  UNL     1     -35.185  13.575  -4.635  1.00 20.00    -0.224 NA
HETATM    7  C3  UNL     1     -36.351  13.653  -4.544  1.00 20.00     0.333 C 
HETATM    8  O8  UNL     1     -37.523  13.727  -4.454  1.00 20.00    -0.260 OA
ENDBRANCH   5   6
TORSDOF 1
ENDMDL
MODEL 4
REMARK VINA RESULT:      -4.0     17.877     18.550
REMARK  1 active torsions:
REMARK  status: ('A' for Active; 'I' for Inactive)
REMARK    1  A    between atoms: C6_6  and  N7_7 
ROOT
HETATM    1  C1  UNL     1     -24.654  15.827  11.597  1.00 20.00     0.015 C 
HETATM    2  C2  UNL     1     -23.982  16.546  10.909  1.00 20.00    -0.084 C 
HETATM    3  C4  UNL     1     -23.993  18.574   9.502  1.00 20.00     0.055 C 
HETATM    4  C5  UNL     1     -21.955  17.962  10.845  1.00 20.00     0.055 C 
HETATM    5  C6  UNL     1     -23.158  17.430  10.069  1.00 20.00     0.112 C 
ENDROOT
BRANCH   5   6
HETATM    6  N7  UNL     1     -22.678  16.614   8.949  1.00 20.00    -0.224 NA
HETATM    7  C3  UNL     1     -22.292  17.234   8.032  1.00 20.00     0.333 C 
HETATM    8  O8  UNL     1     -21.904  17.852   7.108  1.00 20.00    -0.260 OA
ENDBRANCH   5   6
TORSDOF 1
ENDMDL
MODEL 5
REMARK VINA RESULT:      -3.8     18.547     19.034
REMARK  1 active torsions:
REMARK  status: ('A' for Active; 'I' for Inactive)
REMARK    1  A    between atoms: C6_6  and  N7_7 
ROOT
HETATM    1  C1  UNL     1     -22.156  17.074   8.937  1.00 20.00     0.015 C 
HETATM    2  C2  UNL     1     -22.890  17.198   9.880  1.00 20.00    -0.084 C 
HETATM    3  C4  UNL     1     -24.507  16.037  11.339  1.00 20.00     0.055 C 
HETATM    4  C5  UNL     1     -23.025  17.849  12.262  1.00 20.00     0.055 C 
HETATM    5  C6  UNL     1     -23.787  17.347  11.037  1.00 20.00     0.112 C 
ENDROOT
BRANCH   5   6
HETATM    6  N7  UNL     1     -24.792  18.347  10.660  1.00 20.00    -0.224 NA
HETATM    7  C3  UNL     1     -25.608  18.541  11.479  1.00 20.00     0.333 C 
HETATM    8  O8  UNL     1     -26.430  18.740  12.298  1.00 20.00    -0.260 OA
ENDBRANCH   5   6
TORSDOF 1
ENDMDL
MODEL 6
REMARK VINA RESULT:      -3.7      1.380      1.511
REMARK  1 active torsions:
REMARK  status: ('A' for Active; 'I' for Inactive)
REMARK    1  A    between atoms: C6_6  and  N7_7 
ROOT
HETATM    1  C1  UNL     1     -34.710  15.920  -2.269  1.00 20.00     0.015 C 
HETATM    2  C2  UNL     1     -35.022  15.844  -3.427  1.00 20.00    -0.084 C 
HETATM    3  C4  UNL     1     -35.923  17.093  -5.355  1.00 20.00     0.055 C 
HETATM    4  C5  UNL     1     -34.231  15.263  -5.697  1.00 20.00     0.055 C 
HETATM    5  C6  UNL     1     -35.400  15.754  -4.846  1.00 20.00     0.112 C 
ENDROOT
BRANCH   5   6
HETATM    6  N7  UNL     1     -36.490  14.775  -4.926  1.00 20.00    -0.224 NA
HETATM    7  C3  UNL     1     -36.166  13.673  -4.691  1.00 20.00     0.333 C 
HETATM    8  O8  UNL     1     -35.846  12.565  -4.456  1.00 20.00    -0.260 OA
ENDBRANCH   5   6
TORSDOF 1
ENDMDL
MODEL 7
REMARK VINA RESULT:      -3.7      9.669     11.088
REMARK  1 active torsions:
REMARK  status: ('A' for Active; 'I' for Inactive)
REMARK    1  A    between atoms: C6_6  and  N7_7 
ROOT
HETATM    1  C1  UNL     1     -40.951   5.121  -1.118  1.00 20.00     0.015 C 
HETATM    2  C2  UNL     1     -41.528   6.061  -0.642  1.00 20.00    -0.084 C 
HETATM    3  C4  UNL     1     -42.936   8.025  -1.145  1.00 20.00     0.055 C 
HETATM    4  C5  UNL     1     -43.233   6.758   1.009  1.00 20.00     0.055 C 
HETATM    5  C6  UNL     1     -42.239   7.210  -0.059  1.00 20.00     0.112 C 
ENDROOT
BRANCH   5   6
HETATM    6  N7  UNL     1     -41.220   8.058   0.568  1.00 20.00    -0.224 NA
HETATM    7  C3  UNL     1     -41.402   9.208   0.434  1.00 20.00     0.333 C 
HETATM    8  O8  UNL     1     -41.580  10.365   0.303  1.00 20.00    -0.260 OA
ENDBRANCH   5   6
TORSDOF 1
ENDMDL
MODEL 8
REMARK VINA RESULT:      -3.7      1.476      2.200
REMARK  1 active torsions:
REMARK  status: ('A' for Active; 'I' for Inactive)
REMARK    1  A    between atoms: C6_6  and  N7_7 
ROOT
HETATM    1  C1  UNL     1     -34.254  18.078  -5.001  1.00 20.00     0.015 C 
HETATM    2  C2  UNL     1     -34.385  16.959  -4.584  1.00 20.00    -0.084 C 
HETATM    3  C4  UNL     1     -33.278  14.770  -4.310  1.00 20.00     0.055 C 
HETATM    4  C5  UNL     1     -34.915  15.597  -2.588  1.00 20.00     0.055 C 
HETATM    5  C6  UNL     1     -34.542  15.589  -4.069  1.00 20.00     0.112 C 
ENDROOT
BRANCH   5   6
HETATM    6  N7  UNL     1     -35.636  14.979  -4.832  1.00 20.00    -0.224 NA
HETATM    7  C3  UNL     1     -35.780  13.832  -4.634  1.00 20.00     0.333 C 
HETATM    8  O8  UNL     1     -35.929  12.681  -4.439  1.00 20.00    -0.260 OA
ENDBRANCH   5   6
TORSDOF 1
ENDMDL
MODEL 9
REMARK VINA RESULT:      -3.6     18.107     18.697
REMARK  1 active torsions:
REMARK  status: ('A' for Active; 'I' for Inactive)
REMARK    1  A    between atoms: C6_6  and  N7_7 
ROOT
HETATM    1  C1  UNL     1     -21.971  17.393   7.933  1.00 20.00     0.015 C 
HETATM    2  C2  UNL     1     -22.646  17.453   8.925  1.00 20.00    -0.084 C 
HETATM    3  C4  UNL     1     -22.622  17.900  11.352  1.00 20.00     0.055 C 
HETATM    4  C5  UNL     1     -24.625  18.516   9.959  1.00 20.00     0.055 C 
HETATM    5  C6  UNL     1     -23.472  17.531  10.140  1.00 20.00     0.112 C 
ENDROOT
BRANCH   5   6
HETATM    6  N7  UNL     1     -24.022  16.189  10.357  1.00 20.00    -0.224 NA
HETATM    7  C3  UNL     1     -24.652  16.080  11.340  1.00 20.00     0.333 C 
HETATM    8  O8  UNL     1     -25.286  15.966  12.326  1.00 20.00    -0.260 OA
ENDBRANCH   5   6
TORSDOF 1
ENDMDL
