MODEL 1
REMARK VINA RESULT:      -4.7      0.000      0.000
REMARK  0 active torsions:
REMARK  status: ('A' for Active; 'I' for Inactive)
ROOT
HETATM    1  C1  UNL     1     -22.798  18.285   9.281  1.00 20.00     0.060 A 
HETATM    2  C2  UNL     1     -25.453  18.716  10.120  1.00 20.00     0.065 A 
HETATM    3  C3  UNL     1     -24.714  19.133   6.394  1.00 20.00     0.167 A 
HETATM    4  C4  UNL     1     -23.781  18.639   8.332  1.00 20.00     0.076 A 
HETATM    5  C5  UNL     1     -24.461  18.366  11.040  1.00 20.00     0.139 A 
HETATM    6  C6  UNL     1     -25.093  18.847   8.769  1.00 20.00     0.038 A 
HETATM    7  C7  UNL     1     -23.151  18.152  10.627  1.00 20.00     0.074 A 
HETATM    8  N8  UNL     1     -23.580  18.806   6.969  1.00 20.00    -0.253 NA
HETATM    9  F9  UNL     1     -24.796  18.238  12.332  1.00 20.00    -0.204 F 
HETATM   10  S10 UNL     1     -26.079  19.263   7.417  1.00 20.00    -0.080 SA
HETATM   11 CL11 UNL     1     -21.942  17.722  11.779  1.00 20.00    -0.081 Cl
ENDROOT
TORSDOF 0
ENDMDL
MODEL 2
REMARK VINA RESULT:      -4.7      3.431      4.296
REMARK  0 active torsions:
REMARK  status: ('A' for Active; 'I' for Inactive)
ROOT
HETATM    1  C1  UNL     1     -25.465  19.239   8.811  1.00 20.00     0.060 A 
HETATM    2  C2  UNL     1     -23.200  17.814   9.693  1.00 20.00     0.065 A 
HETATM    3  C3  UNL     1     -25.794  18.766  12.332  1.00 20.00     0.167 A 
HETATM    4  C4  UNL     1     -25.335  18.911  10.179  1.00 20.00     0.076 A 
HETATM    5  C5  UNL     1     -23.352  18.150   8.346  1.00 20.00     0.139 A 
HETATM    6  C6  UNL     1     -24.203  18.204  10.595  1.00 20.00     0.038 A 
HETATM    7  C7  UNL     1     -24.470  18.853   7.909  1.00 20.00     0.074 A 
HETATM    8  N8  UNL     1     -26.237  19.226  11.185  1.00 20.00    -0.253 NA
HETATM    9  F9  UNL     1     -22.400  17.782   7.477  1.00 20.00    -0.204 F 
HETATM   10  S10 UNL     1     -24.298  17.939  12.297  1.00 20.00    -0.080 SA
HETATM   11 CL11 UNL     1     -24.638  19.259   6.242  1.00 20.00    -0.081 Cl
ENDROOT
TORSDOF 0
ENDMDL
MODEL 3
REMARK VINA RESULT:      -4.4     15.225     16.471
REMARK  0 active torsions:
REMARK  status: ('A' for Active; 'I' for Inactive)
ROOT
HETATM    1  C1  UNL     1     -35.472  15.508  -2.532  1.00 20.00     0.060 A 
HETATM    2  C2  UNL     1     -32.897  16.081  -3.523  1.00 20.00     0.065 A 
HETATM    3  C3  UNL     1     -34.075  18.073  -0.482  1.00 20.00     0.167 A 
HETATM    4  C4  UNL     1     -34.685  16.497  -1.901  1.00 20.00     0.076 A 
HETATM    5  C5  UNL     1     -33.695  15.108  -4.129  1.00 20.00     0.139 A 
HETATM    6  C6  UNL     1     -33.410  16.765  -2.409  1.00 20.00     0.038 A 
HETATM    7  C7  UNL     1     -34.966  14.824  -3.641  1.00 20.00     0.074 A 
HETATM    8  N8  UNL     1     -35.051  17.254  -0.797  1.00 20.00    -0.253 NA
HETATM    9  F9  UNL     1     -33.215  14.450  -5.193  1.00 20.00    -0.204 F 
HETATM   10  S10 UNL     1     -32.674  18.003  -1.460  1.00 20.00    -0.080 SA
HETATM   11 CL11 UNL     1     -35.936  13.620  -4.404  1.00 20.00    -0.081 Cl
ENDROOT
TORSDOF 0
ENDMDL
MODEL 4
REMARK VINA RESULT:      -4.3     17.684     18.467
REMARK  0 active torsions:
REMARK  status: ('A' for Active; 'I' for Inactive)
ROOT
HETATM    1  C1  UNL     1     -35.499  14.131  -4.347  1.00 20.00     0.060 A 
HETATM    2  C2  UNL     1     -35.828  16.910  -4.020  1.00 20.00     0.065 A 
HETATM    3  C3  UNL     1     -39.002  14.792  -4.209  1.00 20.00     0.167 A 
HETATM    4  C4  UNL     1     -36.800  14.675  -4.261  1.00 20.00     0.076 A 
HETATM    5  C5  UNL     1     -34.552  16.347  -4.108  1.00 20.00     0.139 A 
HETATM    6  C6  UNL     1     -36.940  16.057  -4.099  1.00 20.00     0.038 A 
HETATM    7  C7  UNL     1     -34.388  14.976  -4.269  1.00 20.00     0.074 A 
HETATM    8  N8  UNL     1     -37.990  13.964  -4.322  1.00 20.00    -0.253 NA
HETATM    9  F9  UNL     1     -33.484  17.154  -4.034  1.00 20.00    -0.204 F 
HETATM   10  S10 UNL     1     -38.618  16.448  -4.024  1.00 20.00    -0.080 SA
HETATM   11 CL11 UNL     1     -32.805  14.301  -4.376  1.00 20.00    -0.081 Cl
ENDROOT
TORSDOF 0
ENDMDL
MODEL 5
REMARK VINA RESULT:      -4.2     16.016     17.131
REMARK  0 active torsions:
REMARK  status: ('A' for Active; 'I' for Inactive)
ROOT
HETATM    1  C1  UNL     1     -35.830  15.773  -2.929  1.00 20.00     0.060 A 
HETATM    2  C2  UNL     1     -33.192  16.143  -3.849  1.00 20.00     0.065 A 
HETATM    3  C3  UNL     1     -35.679  14.560  -6.280  1.00 20.00     0.167 A 
HETATM    4  C4  UNL     1     -35.485  15.376  -4.239  1.00 20.00     0.076 A 
HETATM    5  C5  UNL     1     -33.558  16.527  -2.556  1.00 20.00     0.139 A 
HETATM    6  C6  UNL     1     -34.171  15.568  -4.676  1.00 20.00     0.038 A 
HETATM    7  C7  UNL     1     -34.860  16.346  -2.101  1.00 20.00     0.074 A 
HETATM    8  N8  UNL     1     -36.337  14.797  -5.170  1.00 20.00    -0.253 NA
HETATM    9  F9  UNL     1     -32.631  17.076  -1.759  1.00 20.00    -0.204 F 
HETATM   10  S10 UNL     1     -34.026  15.001  -6.298  1.00 20.00    -0.080 SA
HETATM   11 CL11 UNL     1     -35.290  16.825  -0.502  1.00 20.00    -0.081 Cl
ENDROOT
TORSDOF 0
ENDMDL
MODEL 6
REMARK VINA RESULT:      -4.2     14.232     15.552
REMARK  0 active torsions:
REMARK  status: ('A' for Active; 'I' for Inactive)
ROOT
HETATM    1  C1  UNL     1     -32.770  16.611  -3.061  1.00 20.00     0.060 A 
HETATM    2  C2  UNL     1     -35.197  16.438  -1.640  1.00 20.00     0.065 A 
HETATM    3  C3  UNL     1     -32.643  19.003  -0.418  1.00 20.00     0.167 A 
HETATM    4  C4  UNL     1     -32.991  17.455  -1.951  1.00 20.00     0.076 A 
HETATM    5  C5  UNL     1     -34.954  15.613  -2.742  1.00 20.00     0.139 A 
HETATM    6  C6  UNL     1     -34.202  17.353  -1.261  1.00 20.00     0.038 A 
HETATM    7  C7  UNL     1     -33.757  15.698  -3.444  1.00 20.00     0.074 A 
HETATM    8  N8  UNL     1     -32.108  18.405  -1.457  1.00 20.00    -0.253 NA
HETATM    9  F9  UNL     1     -35.898  14.736  -3.112  1.00 20.00    -0.204 F 
HETATM   10  S10 UNL     1     -34.209  18.488   0.038  1.00 20.00    -0.080 SA
HETATM   11 CL11 UNL     1     -33.476  14.670  -4.800  1.00 20.00    -0.081 Cl
ENDROOT
TORSDOF 0
ENDMDL
MODEL 7
REMARK VINA RESULT:      -4.2     15.295     16.290
REMARK  0 active torsions:
REMARK  status: ('A' for Active; 'I' for Inactive)
ROOT
HETATM    1  C1  UNL     1     -35.345  16.280  -1.868  1.00 20.00     0.060 A 
HETATM    2  C2  UNL     1     -32.982  16.538  -3.381  1.00 20.00     0.065 A 
HETATM    3  C3  UNL     1     -35.773  14.388  -4.862  1.00 20.00     0.167 A 
HETATM    4  C4  UNL     1     -35.239  15.625  -3.115  1.00 20.00     0.076 A 
HETATM    5  C5  UNL     1     -33.111  17.175  -2.145  1.00 20.00     0.139 A 
HETATM    6  C6  UNL     1     -34.059  15.767  -3.849  1.00 20.00     0.038 A 
HETATM    7  C7  UNL     1     -34.277  17.048  -1.397  1.00 20.00     0.074 A 
HETATM    8  N8  UNL     1     -36.212  14.833  -3.708  1.00 20.00    -0.253 NA
HETATM    9  F9  UNL     1     -32.089  17.913  -1.689  1.00 20.00    -0.204 F 
HETATM   10  S10 UNL     1     -34.198  14.873  -5.318  1.00 20.00    -0.080 SA
HETATM   11 CL11 UNL     1     -34.415  17.841   0.128  1.00 20.00    -0.081 Cl
ENDROOT
TORSDOF 0
ENDMDL
MODEL 8
REMARK VINA RESULT:      -4.2     15.176     16.111
REMARK  0 active torsions:
REMARK  status: ('A' for Active; 'I' for Inactive)
ROOT
HETATM    1  C1  UNL     1     -33.001  16.727  -3.341  1.00 20.00     0.060 A 
HETATM    2  C2  UNL     1     -35.354  16.255  -1.866  1.00 20.00     0.065 A 
HETATM    3  C3  UNL     1     -35.122  14.662  -5.331  1.00 20.00     0.167 A 
HETATM    4  C4  UNL     1     -34.025  15.930  -3.897  1.00 20.00     0.076 A 
HETATM    5  C5  UNL     1     -34.326  17.041  -1.338  1.00 20.00     0.139 A 
HETATM    6  C6  UNL     1     -35.184  15.708  -3.148  1.00 20.00     0.038 A 
HETATM    7  C7  UNL     1     -33.164  17.274  -2.065  1.00 20.00     0.074 A 
HETATM    8  N8  UNL     1     -34.004  15.324  -5.146  1.00 20.00    -0.253 NA
HETATM    9  F9  UNL     1     -34.479  17.567  -0.115  1.00 20.00    -0.204 F 
HETATM   10  S10 UNL     1     -36.260  14.711  -4.055  1.00 20.00    -0.080 SA
HETATM   11 CL11 UNL     1     -31.908  18.247  -1.397  1.00 20.00    -0.081 Cl
ENDROOT
TORSDOF 0
ENDMDL
MODEL 9
REMARK VINA RESULT:      -4.0     14.297     15.182
REMARK  0 active torsions:
REMARK  status: ('A' for Active; 'I' for Inactive)
ROOT
HETATM    1  C1  UNL     1     -35.241  16.457  -1.296  1.00 20.00     0.060 A 
HETATM    2  C2  UNL     1     -32.709  17.557  -1.862  1.00 20.00     0.065 A 
HETATM    3  C3  UNL     1     -34.600  18.989   1.134  1.00 20.00     0.167 A 
HETATM    4  C4  UNL     1     -34.731  17.492  -0.482  1.00 20.00     0.076 A 
HETATM    5  C5  UNL     1     -33.235  16.533  -2.653  1.00 20.00     0.139 A 
HETATM    6  C6  UNL     1     -33.473  18.023  -0.780  1.00 20.00     0.038 A 
HETATM    7  C7  UNL     1     -34.485  15.989  -2.375  1.00 20.00     0.074 A 
HETATM    8  N8  UNL     1     -35.364  18.055   0.617  1.00 20.00    -0.253 NA
HETATM    9  F9  UNL     1     -32.514  16.081  -3.688  1.00 20.00    -0.204 F 
HETATM   10  S10 UNL     1     -33.097  19.259   0.363  1.00 20.00    -0.080 SA
HETATM   11 CL11 UNL     1     -35.117  14.726  -3.364  1.00 20.00    -0.081 Cl
ENDROOT
TORSDOF 0
ENDMDL
