MODEL 1
REMARK VINA RESULT:      -6.0      0.000      0.000
REMARK  0 active torsions:
REMARK  status: ('A' for Active; 'I' for Inactive)
ROOT
HETATM    1  C1  UNL     1     -23.525  16.541  10.193  1.00 20.00     0.042 C 
HETATM    2  C2  UNL     1     -26.502  17.707  12.332  1.00 20.00    -0.026 A 
HETATM    3  C3  UNL     1     -26.910  18.781  11.644  1.00 20.00    -0.026 A 
HETATM    4  C4  UNL     1     -24.634  17.350  10.676  1.00 20.00    -0.050 A 
HETATM    5  C5  UNL     1     -25.043  18.434   9.978  1.00 20.00    -0.067 A 
HETATM    6  C6  UNL     1     -22.712  17.024   9.246  1.00 20.00     0.079 C 
HETATM    7  C7  UNL     1     -25.324  16.870  11.927  1.00 20.00     0.065 A 
HETATM    8  C8  UNL     1     -26.232  19.263  10.395  1.00 20.00     0.061 A 
HETATM    9  C9  UNL     1     -24.327  18.878   8.714  1.00 20.00     0.074 C 
HETATM   10  C10 UNL     1     -21.489  17.098   7.434  1.00 20.00     0.345 C 
HETATM   11  C11 UNL     1     -22.884  18.372   8.651  1.00 20.00     0.184 C 
HETATM   12  O12 UNL     1     -21.758  16.287   8.587  1.00 20.00    -0.328 OA
HETATM   13  O13 UNL     1     -22.439  18.167   7.316  1.00 20.00    -0.354 OA
ENDROOT
TORSDOF 0
ENDMDL
MODEL 2
REMARK VINA RESULT:      -5.3     15.860     16.703
REMARK  0 active torsions:
REMARK  status: ('A' for Active; 'I' for Inactive)
ROOT
HETATM    1  C1  UNL     1     -35.879  15.874  -2.505  1.00 20.00     0.042 C 
HETATM    2  C2  UNL     1     -33.917  18.158  -0.111  1.00 20.00    -0.026 A 
HETATM    3  C3  UNL     1     -32.724  18.206  -0.718  1.00 20.00    -0.026 A 
HETATM    4  C4  UNL     1     -34.776  16.612  -1.909  1.00 20.00    -0.050 A 
HETATM    5  C5  UNL     1     -33.572  16.657  -2.525  1.00 20.00    -0.067 A 
HETATM    6  C6  UNL     1     -35.638  14.993  -3.484  1.00 20.00     0.079 C 
HETATM    7  C7  UNL     1     -35.076  17.362  -0.636  1.00 20.00     0.065 A 
HETATM    8  C8  UNL     1     -32.418  17.466  -1.987  1.00 20.00     0.061 A 
HETATM    9  C9  UNL     1     -33.313  15.896  -3.814  1.00 20.00     0.074 C 
HETATM   10  C10 UNL     1     -35.862  13.911  -5.371  1.00 20.00     0.345 C 
HETATM   11  C11 UNL     1     -34.275  14.720  -4.001  1.00 20.00     0.184 C 
HETATM   12  O12 UNL     1     -36.610  14.385  -4.241  1.00 20.00    -0.328 OA
HETATM   13  O13 UNL     1     -34.528  14.439  -5.372  1.00 20.00    -0.354 OA
ENDROOT
TORSDOF 0
ENDMDL
MODEL 3
REMARK VINA RESULT:      -5.1     14.846     15.936
REMARK  0 active torsions:
REMARK  status: ('A' for Active; 'I' for Inactive)
ROOT
HETATM    1  C1  UNL     1     -35.374  16.736  -1.138  1.00 20.00     0.042 C 
HETATM    2  C2  UNL     1     -34.884  14.352  -4.118  1.00 20.00    -0.026 A 
HETATM    3  C3  UNL     1     -33.630  14.648  -4.482  1.00 20.00    -0.026 A 
HETATM    4  C4  UNL     1     -34.767  16.087  -2.290  1.00 20.00    -0.050 A 
HETATM    5  C5  UNL     1     -33.500  16.390  -2.657  1.00 20.00    -0.067 A 
HETATM    6  C6  UNL     1     -34.816  17.841  -0.628  1.00 20.00     0.079 C 
HETATM    7  C7  UNL     1     -35.592  15.032  -2.982  1.00 20.00     0.065 A 
HETATM    8  C8  UNL     1     -32.800  15.693  -3.797  1.00 20.00     0.061 A 
HETATM    9  C9  UNL     1     -32.697  17.452  -1.925  1.00 20.00     0.074 C 
HETATM   10  C10 UNL     1     -34.061  19.261   0.855  1.00 20.00     0.345 C 
HETATM   11  C11 UNL     1     -33.588  18.454  -1.189  1.00 20.00     0.184 C 
HETATM   12  O12 UNL     1     -35.190  18.425   0.559  1.00 20.00    -0.328 OA
HETATM   13  O13 UNL     1     -32.963  18.985  -0.028  1.00 20.00    -0.354 OA
ENDROOT
TORSDOF 0
ENDMDL
MODEL 4
REMARK VINA RESULT:      -5.0     15.022     15.916
REMARK  0 active torsions:
REMARK  status: ('A' for Active; 'I' for Inactive)
ROOT
HETATM    1  C1  UNL     1     -32.934  16.610  -3.181  1.00 20.00     0.042 C 
HETATM    2  C2  UNL     1     -32.236  18.867  -0.146  1.00 20.00    -0.026 A 
HETATM    3  C3  UNL     1     -33.368  18.717   0.554  1.00 20.00    -0.026 A 
HETATM    4  C4  UNL     1     -33.137  17.341  -1.940  1.00 20.00    -0.050 A 
HETATM    5  C5  UNL     1     -34.283  17.187  -1.236  1.00 20.00    -0.067 A 
HETATM    6  C6  UNL     1     -33.976  16.033  -3.791  1.00 20.00     0.079 C 
HETATM    7  C7  UNL     1     -31.990  18.196  -1.466  1.00 20.00     0.065 A 
HETATM    8  C8  UNL     1     -34.513  17.864   0.092  1.00 20.00     0.061 A 
HETATM    9  C9  UNL     1     -35.411  16.305  -1.743  1.00 20.00     0.074 C 
HETATM   10  C10 UNL     1     -35.159  14.525  -4.846  1.00 20.00     0.345 C 
HETATM   11  C11 UNL     1     -35.359  16.104  -3.259  1.00 20.00     0.184 C 
HETATM   12  O12 UNL     1     -33.876  15.168  -4.855  1.00 20.00    -0.328 OA
HETATM   13  O13 UNL     1     -35.896  14.850  -3.659  1.00 20.00    -0.354 OA
ENDROOT
TORSDOF 0
ENDMDL
MODEL 5
REMARK VINA RESULT:      -5.0      2.196      3.799
REMARK  0 active torsions:
REMARK  status: ('A' for Active; 'I' for Inactive)
ROOT
HETATM    1  C1  UNL     1     -22.662  18.389   8.873  1.00 20.00     0.042 C 
HETATM    2  C2  UNL     1     -25.231  19.175   6.120  1.00 20.00    -0.026 A 
HETATM    3  C3  UNL     1     -26.359  19.263   6.836  1.00 20.00    -0.026 A 
HETATM    4  C4  UNL     1     -23.936  18.635   8.216  1.00 20.00    -0.050 A 
HETATM    5  C5  UNL     1     -25.074  18.722   8.942  1.00 20.00    -0.067 A 
HETATM    6  C6  UNL     1     -22.640  17.943  10.134  1.00 20.00     0.079 C 
HETATM    7  C7  UNL     1     -23.895  18.857   6.725  1.00 20.00     0.065 A 
HETATM    8  C8  UNL     1     -26.409  19.049   8.320  1.00 20.00     0.061 A 
HETATM    9  C9  UNL     1     -25.071  18.505  10.446  1.00 20.00     0.074 C 
HETATM   10  C10 UNL     1     -22.055  17.753  12.233  1.00 20.00     0.345 C 
HETATM   11  C11 UNL     1     -23.872  17.677  10.914  1.00 20.00     0.184 C 
HETATM   12  O12 UNL     1     -21.508  17.855  10.910  1.00 20.00    -0.328 OA
HETATM   13  O13 UNL     1     -23.466  18.010  12.236  1.00 20.00    -0.354 OA
ENDROOT
TORSDOF 0
ENDMDL
MODEL 6
REMARK VINA RESULT:      -4.9     17.865     18.818
REMARK  0 active torsions:
REMARK  status: ('A' for Active; 'I' for Inactive)
ROOT
HETATM    1  C1  UNL     1     -36.443  14.339  -4.157  1.00 20.00     0.042 C 
HETATM    2  C2  UNL     1     -32.896  15.663  -3.476  1.00 20.00    -0.026 A 
HETATM    3  C3  UNL     1     -33.163  16.891  -3.012  1.00 20.00    -0.026 A 
HETATM    4  C4  UNL     1     -35.362  15.246  -3.805  1.00 20.00    -0.050 A 
HETATM    5  C5  UNL     1     -35.635  16.487  -3.337  1.00 20.00    -0.067 A 
HETATM    6  C6  UNL     1     -37.684  14.815  -4.318  1.00 20.00     0.079 C 
HETATM    7  C7  UNL     1     -33.960  14.703  -3.920  1.00 20.00     0.065 A 
HETATM    8  C8  UNL     1     -34.554  17.438  -2.889  1.00 20.00     0.061 A 
HETATM    9  C9  UNL     1     -37.063  16.993  -3.224  1.00 20.00     0.074 C 
HETATM   10  C10 UNL     1     -39.861  14.959  -4.168  1.00 20.00     0.345 C 
HETATM   11  C11 UNL     1     -38.022  16.249  -4.157  1.00 20.00     0.184 C 
HETATM   12  O12 UNL     1     -38.805  14.033  -4.464  1.00 20.00    -0.328 OA
HETATM   13  O13 UNL     1     -39.344  16.187  -3.638  1.00 20.00    -0.354 OA
ENDROOT
TORSDOF 0
ENDMDL
MODEL 7
REMARK VINA RESULT:      -4.9     12.370     13.413
REMARK  0 active torsions:
REMARK  status: ('A' for Active; 'I' for Inactive)
ROOT
HETATM    1  C1  UNL     1     -31.506  18.178  -0.703  1.00 20.00     0.042 C 
HETATM    2  C2  UNL     1     -34.614  16.991  -2.635  1.00 20.00    -0.026 A 
HETATM    3  C3  UNL     1     -35.559  17.091  -1.691  1.00 20.00    -0.026 A 
HETATM    4  C4  UNL     1     -32.875  17.776  -0.984  1.00 20.00    -0.050 A 
HETATM    5  C5  UNL     1     -33.828  17.878  -0.028  1.00 20.00    -0.067 A 
HETATM    6  C6  UNL     1     -31.111  18.353   0.564  1.00 20.00     0.079 C 
HETATM    7  C7  UNL     1     -33.171  17.324  -2.392  1.00 20.00     0.065 A 
HETATM    8  C8  UNL     1     -35.275  17.544  -0.289  1.00 20.00     0.061 A 
HETATM    9  C9  UNL     1     -33.492  18.350   1.376  1.00 20.00     0.074 C 
HETATM   10  C10 UNL     1     -30.150  19.259   2.307  1.00 20.00     0.345 C 
HETATM   11  C11 UNL     1     -32.014  18.150   1.722  1.00 20.00     0.184 C 
HETATM   12  O12 UNL     1     -29.910  18.907   0.936  1.00 20.00    -0.328 OA
HETATM   13  O13 UNL     1     -31.537  19.120   2.646  1.00 20.00    -0.354 OA
ENDROOT
TORSDOF 0
ENDMDL
MODEL 8
REMARK VINA RESULT:      -4.8     15.623     16.609
REMARK  0 active torsions:
REMARK  status: ('A' for Active; 'I' for Inactive)
ROOT
HETATM    1  C1  UNL     1     -35.291  16.426  -1.715  1.00 20.00     0.042 C 
HETATM    2  C2  UNL     1     -36.213  14.285  -4.776  1.00 20.00    -0.026 A 
HETATM    3  C3  UNL     1     -35.053  14.278  -5.445  1.00 20.00    -0.026 A 
HETATM    4  C4  UNL     1     -35.184  15.752  -3.000  1.00 20.00    -0.050 A 
HETATM    5  C5  UNL     1     -34.011  15.748  -3.674  1.00 20.00    -0.067 A 
HETATM    6  C6  UNL     1     -34.345  17.295  -1.340  1.00 20.00     0.079 C 
HETATM    7  C7  UNL     1     -36.410  15.017  -3.480  1.00 20.00     0.065 A 
HETATM    8  C8  UNL     1     -33.827  15.003  -4.973  1.00 20.00     0.061 A 
HETATM    9  C9  UNL     1     -32.794  16.491  -3.150  1.00 20.00     0.074 C 
HETATM   10  C10 UNL     1     -32.892  18.324  -0.069  1.00 20.00     0.345 C 
HETATM   11  C11 UNL     1     -33.170  17.618  -2.184  1.00 20.00     0.184 C 
HETATM   12  O12 UNL     1     -34.244  17.842  -0.083  1.00 20.00    -0.328 OA
HETATM   13  O13 UNL     1     -32.161  17.857  -1.212  1.00 20.00    -0.354 OA
ENDROOT
TORSDOF 0
ENDMDL
MODEL 9
REMARK VINA RESULT:      -4.8     13.503     14.718
REMARK  0 active torsions:
REMARK  status: ('A' for Active; 'I' for Inactive)
ROOT
HETATM    1  C1  UNL     1     -35.442  17.209   0.547  1.00 20.00     0.042 C 
HETATM    2  C2  UNL     1     -34.486  16.151  -3.026  1.00 20.00    -0.026 A 
HETATM    3  C3  UNL     1     -33.294  16.744  -3.161  1.00 20.00    -0.026 A 
HETATM    4  C4  UNL     1     -34.708  17.115  -0.706  1.00 20.00    -0.050 A 
HETATM    5  C5  UNL     1     -33.503  17.716  -0.839  1.00 20.00    -0.067 A 
HETATM    6  C6  UNL     1     -35.093  18.129   1.454  1.00 20.00     0.079 C 
HETATM    7  C7  UNL     1     -35.326  16.265  -1.787  1.00 20.00     0.065 A 
HETATM    8  C8  UNL     1     -32.669  17.588  -2.089  1.00 20.00     0.061 A 
HETATM    9  C9  UNL     1     -32.909  18.555   0.280  1.00 20.00     0.074 C 
HETATM   10  C10 UNL     1     -34.624  19.022   3.395  1.00 20.00     0.345 C 
HETATM   11  C11 UNL     1     -33.975  19.081   1.244  1.00 20.00     0.184 C 
HETATM   12  O12 UNL     1     -35.587  18.187   2.736  1.00 20.00    -0.328 OA
HETATM   13  O13 UNL     1     -33.476  19.249   2.565  1.00 20.00    -0.354 OA
ENDROOT
TORSDOF 0
ENDMDL
