MODEL 1
REMARK VINA RESULT:      -4.7      0.000      0.000
REMARK  0 active torsions:
REMARK  status: ('A' for Active; 'I' for Inactive)
ROOT
HETATM    1  C1  UNL     1     -35.715  13.689  -4.188  1.00 20.00     0.035 A 
HETATM    2  C2  UNL     1     -34.498  14.291  -3.856  1.00 20.00     0.026 A 
HETATM    3  C3  UNL     1     -35.611  16.406  -3.453  1.00 20.00     0.045 A 
HETATM    4  C4  UNL     1     -36.904  14.449  -4.157  1.00 20.00     0.077 A 
HETATM    5  C5  UNL     1     -36.830  15.796  -3.789  1.00 20.00     0.039 A 
HETATM    6  C6  UNL     1     -34.449  15.632  -3.493  1.00 20.00     0.035 A 
HETATM    7  C7  UNL     1     -39.042  14.967  -4.323  1.00 20.00     0.253 A 
HETATM    8  N8  UNL     1     -38.177  13.989  -4.459  1.00 20.00    -0.213 NA
HETATM    9  F9  UNL     1     -40.350  14.789  -4.556  1.00 20.00    -0.176 F 
HETATM   10  S10 UNL     1     -38.411  16.480  -3.832  1.00 20.00    -0.037 SA
HETATM   11 CL11 UNL     1     -32.937  16.351  -3.084  1.00 20.00    -0.084 Cl
ENDROOT
TORSDOF 0
ENDMDL
MODEL 2
REMARK VINA RESULT:      -4.5      2.724      3.444
REMARK  0 active torsions:
REMARK  status: ('A' for Active; 'I' for Inactive)
ROOT
HETATM    1  C1  UNL     1     -35.307  16.428  -1.727  1.00 20.00     0.035 A 
HETATM    2  C2  UNL     1     -34.284  17.248  -1.238  1.00 20.00     0.026 A 
HETATM    3  C3  UNL     1     -32.869  16.668  -3.118  1.00 20.00     0.045 A 
HETATM    4  C4  UNL     1     -35.116  15.713  -2.929  1.00 20.00     0.077 A 
HETATM    5  C5  UNL     1     -33.898  15.847  -3.603  1.00 20.00     0.039 A 
HETATM    6  C6  UNL     1     -33.082  17.365  -1.926  1.00 20.00     0.035 A 
HETATM    7  C7  UNL     1     -35.522  14.374  -4.634  1.00 20.00     0.253 A 
HETATM    8  N8  UNL     1     -36.035  14.867  -3.531  1.00 20.00    -0.213 NA
HETATM    9  F9  UNL     1     -36.206  13.523  -5.411  1.00 20.00    -0.176 F 
HETATM   10  S10 UNL     1     -33.934  14.876  -5.027  1.00 20.00    -0.037 SA
HETATM   11 CL11 UNL     1     -31.838  18.384  -1.306  1.00 20.00    -0.084 Cl
ENDROOT
TORSDOF 0
ENDMDL
MODEL 3
REMARK VINA RESULT:      -4.5      4.344      5.012
REMARK  0 active torsions:
REMARK  status: ('A' for Active; 'I' for Inactive)
ROOT
HETATM    1  C1  UNL     1     -32.930  15.722  -3.655  1.00 20.00     0.035 A 
HETATM    2  C2  UNL     1     -33.780  14.787  -4.253  1.00 20.00     0.026 A 
HETATM    3  C3  UNL     1     -35.583  15.415  -2.759  1.00 20.00     0.045 A 
HETATM    4  C4  UNL     1     -33.404  16.520  -2.591  1.00 20.00     0.077 A 
HETATM    5  C5  UNL     1     -34.724  16.351  -2.163  1.00 20.00     0.039 A 
HETATM    6  C6  UNL     1     -35.089  14.638  -3.810  1.00 20.00     0.035 A 
HETATM    7  C7  UNL     1     -33.435  18.027  -0.981  1.00 20.00     0.253 A 
HETATM    8  N8  UNL     1     -32.678  17.483  -1.905  1.00 20.00    -0.213 NA
HETATM    9  F9  UNL     1     -32.975  18.991  -0.171  1.00 20.00    -0.176 F 
HETATM   10  S10 UNL     1     -35.038  17.441  -0.865  1.00 20.00    -0.037 SA
HETATM   11 CL11 UNL     1     -36.120  13.481  -4.565  1.00 20.00    -0.084 Cl
ENDROOT
TORSDOF 0
ENDMDL
MODEL 4
REMARK VINA RESULT:      -4.3      2.736      3.242
REMARK  0 active torsions:
REMARK  status: ('A' for Active; 'I' for Inactive)
ROOT
HETATM    1  C1  UNL     1     -33.052  16.232  -3.539  1.00 20.00     0.035 A 
HETATM    2  C2  UNL     1     -33.084  16.904  -2.312  1.00 20.00     0.026 A 
HETATM    3  C3  UNL     1     -35.434  16.377  -2.041  1.00 20.00     0.045 A 
HETATM    4  C4  UNL     1     -34.225  15.621  -4.032  1.00 20.00     0.077 A 
HETATM    5  C5  UNL     1     -35.396  15.705  -3.273  1.00 20.00     0.039 A 
HETATM    6  C6  UNL     1     -34.260  16.974  -1.575  1.00 20.00     0.035 A 
HETATM    7  C7  UNL     1     -35.576  14.494  -5.363  1.00 20.00     0.253 A 
HETATM    8  N8  UNL     1     -34.343  14.924  -5.226  1.00 20.00    -0.213 NA
HETATM    9  F9  UNL     1     -35.961  13.788  -6.436  1.00 20.00    -0.176 F 
HETATM   10  S10 UNL     1     -36.664  14.881  -4.100  1.00 20.00    -0.037 SA
HETATM   11 CL11 UNL     1     -34.273  17.805  -0.065  1.00 20.00    -0.084 Cl
ENDROOT
TORSDOF 0
ENDMDL
MODEL 5
REMARK VINA RESULT:      -4.2     12.056     12.597
REMARK  0 active torsions:
REMARK  status: ('A' for Active; 'I' for Inactive)
ROOT
HETATM    1  C1  UNL     1     -33.752   4.822   2.461  1.00 20.00     0.035 A 
HETATM    2  C2  UNL     1     -33.061   5.677   1.597  1.00 20.00     0.026 A 
HETATM    3  C3  UNL     1     -32.939   7.380   3.317  1.00 20.00     0.045 A 
HETATM    4  C4  UNL     1     -34.047   5.244   3.775  1.00 20.00     0.077 A 
HETATM    5  C5  UNL     1     -33.634   6.517   4.180  1.00 20.00     0.039 A 
HETATM    6  C6  UNL     1     -32.661   6.938   2.021  1.00 20.00     0.035 A 
HETATM    7  C7  UNL     1     -34.815   5.212   5.843  1.00 20.00     0.253 A 
HETATM    8  N8  UNL     1     -34.722   4.509   4.738  1.00 20.00    -0.213 NA
HETATM    9  F9  UNL     1     -35.426   4.731   6.935  1.00 20.00    -0.176 F 
HETATM   10  S10 UNL     1     -34.117   6.773   5.814  1.00 20.00    -0.037 SA
HETATM   11 CL11 UNL     1     -31.807   7.973   0.939  1.00 20.00    -0.084 Cl
ENDROOT
TORSDOF 0
ENDMDL
MODEL 6
REMARK VINA RESULT:      -4.2      3.983      4.779
REMARK  0 active torsions:
REMARK  status: ('A' for Active; 'I' for Inactive)
ROOT
HETATM    1  C1  UNL     1     -32.692  17.595  -1.843  1.00 20.00     0.035 A 
HETATM    2  C2  UNL     1     -33.324  18.137  -0.719  1.00 20.00     0.026 A 
HETATM    3  C3  UNL     1     -35.276  16.751  -1.102  1.00 20.00     0.045 A 
HETATM    4  C4  UNL     1     -33.354  16.616  -2.615  1.00 20.00     0.077 A 
HETATM    5  C5  UNL     1     -34.636  16.212  -2.229  1.00 20.00     0.039 A 
HETATM    6  C6  UNL     1     -34.599  17.719  -0.356  1.00 20.00     0.035 A 
HETATM    7  C7  UNL     1     -33.739  15.139  -4.207  1.00 20.00     0.253 A 
HETATM    8  N8  UNL     1     -32.854  15.993  -3.748  1.00 20.00    -0.213 NA
HETATM    9  F9  UNL     1     -33.505  14.400  -5.301  1.00 20.00    -0.176 F 
HETATM   10  S10 UNL     1     -35.206  15.018  -3.334  1.00 20.00    -0.037 SA
HETATM   11 CL11 UNL     1     -35.357  18.399   1.035  1.00 20.00    -0.084 Cl
ENDROOT
TORSDOF 0
ENDMDL
MODEL 7
REMARK VINA RESULT:      -4.2      4.660      5.402
REMARK  0 active torsions:
REMARK  status: ('A' for Active; 'I' for Inactive)
ROOT
HETATM    1  C1  UNL     1     -35.381  16.149  -2.017  1.00 20.00     0.035 A 
HETATM    2  C2  UNL     1     -35.107  15.457  -3.201  1.00 20.00     0.026 A 
HETATM    3  C3  UNL     1     -32.906  16.464  -3.325  1.00 20.00     0.045 A 
HETATM    4  C4  UNL     1     -34.409  17.015  -1.472  1.00 20.00     0.077 A 
HETATM    5  C5  UNL     1     -33.188  17.157  -2.137  1.00 20.00     0.039 A 
HETATM    6  C6  UNL     1     -33.885  15.614  -3.845  1.00 20.00     0.035 A 
HETATM    7  C7  UNL     1     -33.441  18.452  -0.106  1.00 20.00     0.253 A 
HETATM    8  N8  UNL     1     -34.540  17.763  -0.311  1.00 20.00    -0.213 NA
HETATM    9  F9  UNL     1     -33.305  19.262   0.953  1.00 20.00    -0.176 F 
HETATM   10  S10 UNL     1     -32.195  18.262  -1.263  1.00 20.00    -0.037 SA
HETATM   11 CL11 UNL     1     -33.569  14.747  -5.300  1.00 20.00    -0.084 Cl
ENDROOT
TORSDOF 0
ENDMDL
MODEL 8
REMARK VINA RESULT:      -4.1      3.698      4.025
REMARK  0 active torsions:
REMARK  status: ('A' for Active; 'I' for Inactive)
ROOT
HETATM    1  C1  UNL     1     -34.316  15.134  -3.209  1.00 20.00     0.035 A 
HETATM    2  C2  UNL     1     -35.078  15.916  -2.334  1.00 20.00     0.026 A 
HETATM    3  C3  UNL     1     -35.995  17.172  -4.194  1.00 20.00     0.045 A 
HETATM    4  C4  UNL     1     -34.388  15.368  -4.599  1.00 20.00     0.077 A 
HETATM    5  C5  UNL     1     -35.227  16.384  -5.067  1.00 20.00     0.039 A 
HETATM    6  C6  UNL     1     -35.905  16.920  -2.822  1.00 20.00     0.035 A 
HETATM    7  C7  UNL     1     -34.005  15.160  -6.762  1.00 20.00     0.253 A 
HETATM    8  N8  UNL     1     -33.695  14.676  -5.581  1.00 20.00    -0.213 NA
HETATM    9  F9  UNL     1     -33.470  14.667  -7.888  1.00 20.00    -0.176 F 
HETATM   10  S10 UNL     1     -35.126  16.452  -6.786  1.00 20.00    -0.037 SA
HETATM   11 CL11 UNL     1     -36.836  17.869  -1.725  1.00 20.00    -0.084 Cl
ENDROOT
TORSDOF 0
ENDMDL
MODEL 9
REMARK VINA RESULT:      -4.1      6.961      7.889
REMARK  0 active torsions:
REMARK  status: ('A' for Active; 'I' for Inactive)
ROOT
HETATM    1  C1  UNL     1     -32.281  17.936  -1.690  1.00 20.00     0.035 A 
HETATM    2  C2  UNL     1     -33.648  17.731  -1.898  1.00 20.00     0.026 A 
HETATM    3  C3  UNL     1     -34.122  18.280   0.415  1.00 20.00     0.045 A 
HETATM    4  C4  UNL     1     -31.817  18.318  -0.413  1.00 20.00     0.077 A 
HETATM    5  C5  UNL     1     -32.748  18.484   0.618  1.00 20.00     0.039 A 
HETATM    6  C6  UNL     1     -34.555  17.901  -0.858  1.00 20.00     0.035 A 
HETATM    7  C7  UNL     1     -30.434  18.892   1.208  1.00 20.00     0.253 A 
HETATM    8  N8  UNL     1     -30.497  18.556  -0.060  1.00 20.00    -0.213 NA
HETATM    9  F9  UNL     1     -29.268  19.176   1.805  1.00 20.00    -0.176 F 
HETATM   10  S10 UNL     1     -31.919  18.950   2.056  1.00 20.00    -0.037 SA
HETATM   11 CL11 UNL     1     -36.236  17.646  -1.140  1.00 20.00    -0.084 Cl
ENDROOT
TORSDOF 0
ENDMDL
