MODEL 1
REMARK VINA RESULT:      -4.5      0.000      0.000
REMARK  0 active torsions:
REMARK  status: ('A' for Active; 'I' for Inactive)
ROOT
HETATM    1  C1  UNL     1     -34.727   5.280   5.053  1.00 20.00     0.317 C 
HETATM    2  C2  UNL     1     -34.014   6.385   4.828  1.00 20.00     0.253 C 
HETATM    3  F3  UNL     1     -34.867   4.337   4.097  1.00 20.00    -0.169 F 
HETATM    4  F4  UNL     1     -35.317   5.102   6.254  1.00 20.00    -0.169 F 
HETATM    5  F5  UNL     1     -33.898   7.304   5.811  1.00 20.00    -0.187 F 
HETATM    6 CL6  UNL     1     -33.237   6.673   3.319  1.00 20.00    -0.046 Cl
ENDROOT
TORSDOF 0
ENDMDL
MODEL 2
REMARK VINA RESULT:      -4.5      0.578      2.115
REMARK  0 active torsions:
REMARK  status: ('A' for Active; 'I' for Inactive)
ROOT
HETATM    1  C1  UNL     1     -34.541   5.899   5.612  1.00 20.00     0.317 C 
HETATM    2  C2  UNL     1     -34.258   5.563   4.352  1.00 20.00     0.253 C 
HETATM    3  F3  UNL     1     -34.097   7.060   6.137  1.00 20.00    -0.169 F 
HETATM    4  F4  UNL     1     -35.284   5.066   6.372  1.00 20.00    -0.169 F 
HETATM    5  F5  UNL     1     -34.722   4.392   3.865  1.00 20.00    -0.187 F 
HETATM    6 CL6  UNL     1     -33.316   6.578   3.331  1.00 20.00    -0.046 Cl
ENDROOT
TORSDOF 0
ENDMDL
MODEL 3
REMARK VINA RESULT:      -4.3      1.600      2.039
REMARK  0 active torsions:
REMARK  status: ('A' for Active; 'I' for Inactive)
ROOT
HETATM    1  C1  UNL     1     -34.432   6.027   5.767  1.00 20.00     0.317 C 
HETATM    2  C2  UNL     1     -34.175   5.861   4.468  1.00 20.00     0.253 C 
HETATM    3  F3  UNL     1     -34.835   4.992   6.533  1.00 20.00    -0.169 F 
HETATM    4  F4  UNL     1     -34.285   7.249   6.323  1.00 20.00    -0.169 F 
HETATM    5  F5  UNL     1     -33.774   6.923   3.737  1.00 20.00    -0.187 F 
HETATM    6 CL6  UNL     1     -34.343   4.331   3.698  1.00 20.00    -0.046 Cl
ENDROOT
TORSDOF 0
ENDMDL
MODEL 4
REMARK VINA RESULT:      -4.3      2.097      2.501
REMARK  0 active torsions:
REMARK  status: ('A' for Active; 'I' for Inactive)
ROOT
HETATM    1  C1  UNL     1     -34.083   4.888   3.519  1.00 20.00     0.317 C 
HETATM    2  C2  UNL     1     -34.334   5.834   4.425  1.00 20.00     0.253 C 
HETATM    3  F3  UNL     1     -34.221   3.580   3.825  1.00 20.00    -0.169 F 
HETATM    4  F4  UNL     1     -33.685   5.242   2.279  1.00 20.00    -0.169 F 
HETATM    5  F5  UNL     1     -34.183   7.131   4.079  1.00 20.00    -0.187 F 
HETATM    6 CL6  UNL     1     -34.843   5.450   6.023  1.00 20.00    -0.046 Cl
ENDROOT
TORSDOF 0
ENDMDL
MODEL 5
REMARK VINA RESULT:      -4.3      2.135      2.767
REMARK  0 active torsions:
REMARK  status: ('A' for Active; 'I' for Inactive)
ROOT
HETATM    1  C1  UNL     1     -33.118   6.504   3.360  1.00 20.00     0.317 C 
HETATM    2  C2  UNL     1     -33.969   6.414   4.384  1.00 20.00     0.253 C 
HETATM    3  F3  UNL     1     -33.284   5.752   2.251  1.00 20.00    -0.169 F 
HETATM    4  F4  UNL     1     -32.076   7.360   3.433  1.00 20.00    -0.169 F 
HETATM    5  F5  UNL     1     -33.767   7.184   5.475  1.00 20.00    -0.187 F 
HETATM    6 CL6  UNL     1     -35.315   5.344   4.354  1.00 20.00    -0.046 Cl
ENDROOT
TORSDOF 0
ENDMDL
MODEL 6
REMARK VINA RESULT:      -4.2      2.002      3.006
REMARK  0 active torsions:
REMARK  status: ('A' for Active; 'I' for Inactive)
ROOT
HETATM    1  C1  UNL     1     -33.586   5.907   3.406  1.00 20.00     0.317 C 
HETATM    2  C2  UNL     1     -34.392   5.662   4.442  1.00 20.00     0.253 C 
HETATM    3  F3  UNL     1     -32.605   6.830   3.494  1.00 20.00    -0.169 F 
HETATM    4  F4  UNL     1     -33.754   5.221   2.256  1.00 20.00    -0.169 F 
HETATM    5  F5  UNL     1     -35.361   4.731   4.314  1.00 20.00    -0.187 F 
HETATM    6 CL6  UNL     1     -34.232   6.502   5.935  1.00 20.00    -0.046 Cl
ENDROOT
TORSDOF 0
ENDMDL
MODEL 7
REMARK VINA RESULT:      -4.1      1.589      1.872
REMARK  0 active torsions:
REMARK  status: ('A' for Active; 'I' for Inactive)
ROOT
HETATM    1  C1  UNL     1     -33.843   5.014   3.261  1.00 20.00     0.317 C 
HETATM    2  C2  UNL     1     -33.542   6.279   3.560  1.00 20.00     0.253 C 
HETATM    3  F3  UNL     1     -33.262   4.392   2.214  1.00 20.00    -0.169 F 
HETATM    4  F4  UNL     1     -34.740   4.347   4.018  1.00 20.00    -0.169 F 
HETATM    5  F5  UNL     1     -34.145   6.866   4.617  1.00 20.00    -0.187 F 
HETATM    6 CL6  UNL     1     -32.408   7.186   2.636  1.00 20.00    -0.046 Cl
ENDROOT
TORSDOF 0
ENDMDL
MODEL 8
REMARK VINA RESULT:      -4.0      1.530      2.029
REMARK  0 active torsions:
REMARK  status: ('A' for Active; 'I' for Inactive)
ROOT
HETATM    1  C1  UNL     1     -34.819   5.209   4.988  1.00 20.00     0.317 C 
HETATM    2  C2  UNL     1     -34.052   6.273   4.744  1.00 20.00     0.253 C 
HETATM    3  F3  UNL     1     -35.245   4.933   6.239  1.00 20.00    -0.169 F 
HETATM    4  F4  UNL     1     -35.175   4.397   3.969  1.00 20.00    -0.169 F 
HETATM    5  F5  UNL     1     -33.647   6.515   3.479  1.00 20.00    -0.187 F 
HETATM    6 CL6  UNL     1     -33.563   7.347   5.997  1.00 20.00    -0.046 Cl
ENDROOT
TORSDOF 0
ENDMDL
MODEL 9
REMARK VINA RESULT:      -4.0      2.404      3.541
REMARK  0 active torsions:
REMARK  status: ('A' for Active; 'I' for Inactive)
ROOT
HETATM    1  C1  UNL     1     -33.170   6.507   3.499  1.00 20.00     0.317 C 
HETATM    2  C2  UNL     1     -33.732   5.319   3.270  1.00 20.00     0.253 C 
HETATM    3  F3  UNL     1     -33.474   7.216   4.607  1.00 20.00    -0.169 F 
HETATM    4  F4  UNL     1     -32.283   7.007   2.613  1.00 20.00    -0.169 F 
HETATM    5  F5  UNL     1     -33.400   4.641   2.150  1.00 20.00    -0.187 F 
HETATM    6 CL6  UNL     1     -34.869   4.627   4.359  1.00 20.00    -0.046 Cl
ENDROOT
TORSDOF 0
ENDMDL
