MODEL 1
REMARK VINA RESULT:      -5.2      0.000      0.000
REMARK  1 active torsions:
REMARK  status: ('A' for Active; 'I' for Inactive)
REMARK    1  A    between atoms: C1_1  and  C2_2 
ROOT
HETATM    1  C2  UNL     1     -34.847   5.358   4.460  1.00 20.00     0.447 C 
HETATM    2  F5  UNL     1     -34.027   6.185   3.780  1.00 20.00    -0.166 F 
HETATM    3  F6  UNL     1     -34.480   4.089   4.187  1.00 20.00    -0.166 F 
HETATM    4  F7  UNL     1     -36.100   5.535   3.990  1.00 20.00    -0.166 F 
ENDROOT
BRANCH   1   5
HETATM    5  C1  UNL     1     -34.786   5.629   5.934  1.00 20.00     0.459 C 
HETATM    6  F3  UNL     1     -34.142   6.801   6.154  1.00 20.00    -0.205 F 
HETATM    7  F4  UNL     1     -34.060   4.660   6.544  1.00 20.00    -0.205 F 
ENDBRANCH   1   5
TORSDOF 1
ENDMDL
MODEL 2
REMARK VINA RESULT:      -5.0      0.884      1.943
REMARK  1 active torsions:
REMARK  status: ('A' for Active; 'I' for Inactive)
REMARK    1  A    between atoms: C1_1  and  C2_2 
ROOT
HETATM    1  C2  UNL     1     -34.927   5.341   4.714  1.00 20.00     0.447 C 
HETATM    2  F5  UNL     1     -34.310   4.248   4.221  1.00 20.00    -0.166 F 
HETATM    3  F6  UNL     1     -35.161   5.132   6.026  1.00 20.00    -0.166 F 
HETATM    4  F7  UNL     1     -36.121   5.461   4.096  1.00 20.00    -0.166 F 
ENDROOT
BRANCH   1   5
HETATM    5  C1  UNL     1     -34.093   6.571   4.507  1.00 20.00     0.459 C 
HETATM    6  F3  UNL     1     -33.140   6.323   3.576  1.00 20.00    -0.205 F 
HETATM    7  F4  UNL     1     -33.448   6.881   5.658  1.00 20.00    -0.205 F 
ENDBRANCH   1   5
TORSDOF 1
ENDMDL
MODEL 3
REMARK VINA RESULT:      -5.0      0.886      2.217
REMARK  1 active torsions:
REMARK  status: ('A' for Active; 'I' for Inactive)
REMARK    1  A    between atoms: C1_1  and  C2_2 
ROOT
HETATM    1  C2  UNL     1     -34.926   5.343   4.724  1.00 20.00     0.447 C 
HETATM    2  F5  UNL     1     -35.164   5.138   6.035  1.00 20.00    -0.166 F 
HETATM    3  F6  UNL     1     -36.116   5.459   4.097  1.00 20.00    -0.166 F 
HETATM    4  F7  UNL     1     -34.307   4.248   4.235  1.00 20.00    -0.166 F 
ENDROOT
BRANCH   1   5
HETATM    5  C1  UNL     1     -34.088   6.570   4.513  1.00 20.00     0.459 C 
HETATM    6  F3  UNL     1     -33.146   6.320   3.571  1.00 20.00    -0.205 F 
HETATM    7  F4  UNL     1     -33.429   6.871   5.658  1.00 20.00    -0.205 F 
ENDBRANCH   1   5
TORSDOF 1
ENDMDL
MODEL 4
REMARK VINA RESULT:      -5.0      0.884      1.990
REMARK  1 active torsions:
REMARK  status: ('A' for Active; 'I' for Inactive)
REMARK    1  A    between atoms: C1_1  and  C2_2 
ROOT
HETATM    1  C2  UNL     1     -34.930   5.346   4.712  1.00 20.00     0.447 C 
HETATM    2  F5  UNL     1     -36.123   5.461   4.094  1.00 20.00    -0.166 F 
HETATM    3  F6  UNL     1     -34.309   4.253   4.220  1.00 20.00    -0.166 F 
HETATM    4  F7  UNL     1     -35.159   5.134   6.025  1.00 20.00    -0.166 F 
ENDROOT
BRANCH   1   5
HETATM    5  C1  UNL     1     -34.094   6.575   4.507  1.00 20.00     0.459 C 
HETATM    6  F3  UNL     1     -33.140   6.326   3.578  1.00 20.00    -0.205 F 
HETATM    7  F4  UNL     1     -33.453   6.885   5.659  1.00 20.00    -0.205 F 
ENDBRANCH   1   5
TORSDOF 1
ENDMDL
MODEL 5
REMARK VINA RESULT:      -4.6      0.844      2.603
REMARK  1 active torsions:
REMARK  status: ('A' for Active; 'I' for Inactive)
REMARK    1  A    between atoms: C1_1  and  C2_2 
ROOT
HETATM    1  C2  UNL     1     -34.463   5.586   5.857  1.00 20.00     0.447 C 
HETATM    2  F5  UNL     1     -33.719   6.698   6.027  1.00 20.00    -0.166 F 
HETATM    3  F6  UNL     1     -35.625   5.756   6.522  1.00 20.00    -0.166 F 
HETATM    4  F7  UNL     1     -33.808   4.554   6.430  1.00 20.00    -0.166 F 
ENDROOT
BRANCH   1   5
HETATM    5  C1  UNL     1     -34.712   5.320   4.402  1.00 20.00     0.459 C 
HETATM    6  F3  UNL     1     -36.021   5.525   4.120  1.00 20.00    -0.205 F 
HETATM    7  F4  UNL     1     -34.448   4.019   4.126  1.00 20.00    -0.205 F 
ENDBRANCH   1   5
TORSDOF 1
ENDMDL
MODEL 6
REMARK VINA RESULT:      -4.6      1.249      2.832
REMARK  1 active torsions:
REMARK  status: ('A' for Active; 'I' for Inactive)
REMARK    1  A    between atoms: C1_1  and  C2_2 
ROOT
HETATM    1  C2  UNL     1     -34.577   5.300   4.274  1.00 20.00     0.447 C 
HETATM    2  F5  UNL     1     -34.179   6.119   5.269  1.00 20.00    -0.166 F 
HETATM    3  F6  UNL     1     -35.899   5.490   4.082  1.00 20.00    -0.166 F 
HETATM    4  F7  UNL     1     -34.398   4.027   4.684  1.00 20.00    -0.166 F 
ENDROOT
BRANCH   1   5
HETATM    5  C1  UNL     1     -33.808   5.568   3.013  1.00 20.00     0.459 C 
HETATM    6  F3  UNL     1     -33.171   4.439   2.621  1.00 20.00    -0.205 F 
HETATM    7  F4  UNL     1     -32.852   6.498   3.254  1.00 20.00    -0.205 F 
ENDBRANCH   1   5
TORSDOF 1
ENDMDL
MODEL 7
REMARK VINA RESULT:      -4.5      1.038      2.549
REMARK  1 active torsions:
REMARK  status: ('A' for Active; 'I' for Inactive)
REMARK    1  A    between atoms: C1_1  and  C2_2 
ROOT
HETATM    1  C2  UNL     1     -34.835   5.497   4.727  1.00 20.00     0.447 C 
HETATM    2  F5  UNL     1     -35.020   4.823   5.881  1.00 20.00    -0.166 F 
HETATM    3  F6  UNL     1     -34.371   6.727   5.033  1.00 20.00    -0.166 F 
HETATM    4  F7  UNL     1     -36.037   5.646   4.133  1.00 20.00    -0.166 F 
ENDROOT
BRANCH   1   5
HETATM    5  C1  UNL     1     -33.879   4.772   3.826  1.00 20.00     0.459 C 
HETATM    6  F3  UNL     1     -34.011   5.233   2.559  1.00 20.00    -0.205 F 
HETATM    7  F4  UNL     1     -34.191   3.453   3.801  1.00 20.00    -0.205 F 
ENDBRANCH   1   5
TORSDOF 1
ENDMDL
MODEL 8
REMARK VINA RESULT:      -4.5      1.059      2.526
REMARK  1 active torsions:
REMARK  status: ('A' for Active; 'I' for Inactive)
REMARK    1  A    between atoms: C1_1  and  C2_2 
ROOT
HETATM    1  C2  UNL     1     -34.814   5.515   4.685  1.00 20.00     0.447 C 
HETATM    2  F5  UNL     1     -36.033   5.614   4.117  1.00 20.00    -0.166 F 
HETATM    3  F6  UNL     1     -34.957   4.895   5.875  1.00 20.00    -0.166 F 
HETATM    4  F7  UNL     1     -34.362   6.764   4.924  1.00 20.00    -0.166 F 
ENDROOT
BRANCH   1   5
HETATM    5  C1  UNL     1     -33.864   4.764   3.799  1.00 20.00     0.459 C 
HETATM    6  F3  UNL     1     -33.959   5.231   2.531  1.00 20.00    -0.205 F 
HETATM    7  F4  UNL     1     -34.215   3.455   3.765  1.00 20.00    -0.205 F 
ENDBRANCH   1   5
TORSDOF 1
ENDMDL
MODEL 9
REMARK VINA RESULT:      -4.2      2.152      3.177
REMARK  1 active torsions:
REMARK  status: ('A' for Active; 'I' for Inactive)
REMARK    1  A    between atoms: C1_1  and  C2_2 
ROOT
HETATM    1  C2  UNL     1     -32.733   6.821   2.974  1.00 20.00     0.447 C 
HETATM    2  F5  UNL     1     -32.488   5.612   2.429  1.00 20.00    -0.166 F 
HETATM    3  F6  UNL     1     -33.106   7.658   1.982  1.00 20.00    -0.166 F 
HETATM    4  F7  UNL     1     -31.577   7.286   3.493  1.00 20.00    -0.166 F 
ENDROOT
BRANCH   1   5
HETATM    5  C1  UNL     1     -33.796   6.733   4.029  1.00 20.00     0.459 C 
HETATM    6  F3  UNL     1     -33.267   7.055   5.234  1.00 20.00    -0.205 F 
HETATM    7  F4  UNL     1     -34.239   5.456   4.121  1.00 20.00    -0.205 F 
ENDBRANCH   1   5
TORSDOF 1
ENDMDL
