MODEL 1
REMARK VINA RESULT:      -4.0      0.000      0.000
REMARK  0 active torsions:
REMARK  status: ('A' for Active; 'I' for Inactive)
ROOT
HETATM    1  C1  UNL     1     -34.766   5.295   6.034  1.00 20.00     0.089 C 
HETATM    2  C2  UNL     1     -34.747   5.409   4.522  1.00 20.00     0.251 C 
HETATM    3  F3  UNL     1     -36.020   5.613   4.088  1.00 20.00    -0.208 F 
HETATM    4 CL4  UNL     1     -34.129   3.908   3.795  1.00 20.00    -0.066 Cl
HETATM    5 CL5  UNL     1     -33.744   6.788   4.017  1.00 20.00    -0.066 Cl
ENDROOT
TORSDOF 0
ENDMDL
MODEL 2
REMARK VINA RESULT:      -3.9      1.466      2.132
REMARK  0 active torsions:
REMARK  status: ('A' for Active; 'I' for Inactive)
ROOT
HETATM    1  C1  UNL     1     -33.907   6.619   4.089  1.00 20.00     0.089 C 
HETATM    2  C2  UNL     1     -34.742   5.414   4.483  1.00 20.00     0.251 C 
HETATM    3  F3  UNL     1     -36.019   5.618   4.061  1.00 20.00    -0.208 F 
HETATM    4 CL4  UNL     1     -34.748   5.217   6.250  1.00 20.00    -0.066 Cl
HETATM    5 CL5  UNL     1     -34.112   3.944   3.708  1.00 20.00    -0.066 Cl
ENDROOT
TORSDOF 0
ENDMDL
MODEL 3
REMARK VINA RESULT:      -3.9      1.466      2.152
REMARK  0 active torsions:
REMARK  status: ('A' for Active; 'I' for Inactive)
ROOT
HETATM    1  C1  UNL     1     -34.204   4.125   3.867  1.00 20.00     0.089 C 
HETATM    2  C2  UNL     1     -34.729   5.408   4.483  1.00 20.00     0.251 C 
HETATM    3  F3  UNL     1     -36.004   5.605   4.050  1.00 20.00    -0.208 F 
HETATM    4 CL4  UNL     1     -33.734   6.791   3.975  1.00 20.00    -0.066 Cl
HETATM    5 CL5  UNL     1     -34.740   5.285   6.256  1.00 20.00    -0.066 Cl
ENDROOT
TORSDOF 0
ENDMDL
MODEL 4
REMARK VINA RESULT:      -3.1      1.627      2.032
REMARK  0 active torsions:
REMARK  status: ('A' for Active; 'I' for Inactive)
ROOT
HETATM    1  C1  UNL     1     -34.634   5.375   5.989  1.00 20.00     0.089 C 
HETATM    2  C2  UNL     1     -34.609   5.310   4.473  1.00 20.00     0.251 C 
HETATM    3  F3  UNL     1     -34.198   4.068   4.100  1.00 20.00    -0.208 F 
HETATM    4 CL4  UNL     1     -33.470   6.510   3.821  1.00 20.00    -0.066 Cl
HETATM    5 CL5  UNL     1     -36.236   5.595   3.814  1.00 20.00    -0.066 Cl
ENDROOT
TORSDOF 0
ENDMDL
MODEL 5
REMARK VINA RESULT:      -3.0      8.584      8.824
REMARK  0 active torsions:
REMARK  status: ('A' for Active; 'I' for Inactive)
ROOT
HETATM    1  C1  UNL     1     -41.444   7.423  -1.178  1.00 20.00     0.089 C 
HETATM    2  C2  UNL     1     -41.603   7.888   0.257  1.00 20.00     0.251 C 
HETATM    3  F3  UNL     1     -40.660   7.269   1.018  1.00 20.00    -0.208 F 
HETATM    4 CL4  UNL     1     -43.213   7.452   0.874  1.00 20.00    -0.066 Cl
HETATM    5 CL5  UNL     1     -41.363   9.646   0.369  1.00 20.00    -0.066 Cl
ENDROOT
TORSDOF 0
ENDMDL
MODEL 6
REMARK VINA RESULT:      -3.0      8.445      8.765
REMARK  0 active torsions:
REMARK  status: ('A' for Active; 'I' for Inactive)
ROOT
HETATM    1  C1  UNL     1     -42.933   7.417   0.786  1.00 20.00     0.089 C 
HETATM    2  C2  UNL     1     -41.555   7.820   0.296  1.00 20.00     0.251 C 
HETATM    3  F3  UNL     1     -40.624   7.248   1.106  1.00 20.00    -0.208 F 
HETATM    4 CL4  UNL     1     -41.365   9.587   0.365  1.00 20.00    -0.066 Cl
HETATM    5 CL5  UNL     1     -41.297   7.244  -1.366  1.00 20.00    -0.066 Cl
ENDROOT
TORSDOF 0
ENDMDL
MODEL 7
REMARK VINA RESULT:      -2.9      8.597      8.811
REMARK  0 active torsions:
REMARK  status: ('A' for Active; 'I' for Inactive)
ROOT
HETATM    1  C1  UNL     1     -41.470   9.410   0.282  1.00 20.00     0.089 C 
HETATM    2  C2  UNL     1     -41.608   7.899   0.308  1.00 20.00     0.251 C 
HETATM    3  F3  UNL     1     -40.698   7.398   1.187  1.00 20.00    -0.208 F 
HETATM    4 CL4  UNL     1     -41.281   7.220  -1.303  1.00 20.00    -0.066 Cl
HETATM    5 CL5  UNL     1     -43.237   7.434   0.847  1.00 20.00    -0.066 Cl
ENDROOT
TORSDOF 0
ENDMDL
MODEL 8
REMARK VINA RESULT:      -2.9      2.062      2.315
REMARK  0 active torsions:
REMARK  status: ('A' for Active; 'I' for Inactive)
ROOT
HETATM    1  C1  UNL     1     -33.542   6.054   3.515  1.00 20.00     0.089 C 
HETATM    2  C2  UNL     1     -34.541   5.342   4.406  1.00 20.00     0.251 C 
HETATM    3  F3  UNL     1     -34.272   4.008   4.378  1.00 20.00    -0.208 F 
HETATM    4 CL4  UNL     1     -36.197   5.603   3.812  1.00 20.00    -0.066 Cl
HETATM    5 CL5  UNL     1     -34.398   5.918   6.082  1.00 20.00    -0.066 Cl
ENDROOT
TORSDOF 0
ENDMDL
MODEL 9
REMARK VINA RESULT:      -2.8      1.612      2.103
REMARK  0 active torsions:
REMARK  status: ('A' for Active; 'I' for Inactive)
ROOT
HETATM    1  C1  UNL     1     -34.687   5.345   6.004  1.00 20.00     0.089 C 
HETATM    2  C2  UNL     1     -34.610   5.429   4.491  1.00 20.00     0.251 C 
HETATM    3  F3  UNL     1     -33.758   6.435   4.156  1.00 20.00    -0.208 F 
HETATM    4 CL4  UNL     1     -36.213   5.787   3.809  1.00 20.00    -0.066 Cl
HETATM    5 CL5  UNL     1     -33.989   3.906   3.817  1.00 20.00    -0.066 Cl
ENDROOT
TORSDOF 0
ENDMDL
