MODEL 1
REMARK VINA RESULT:      -4.4      0.000      0.000
REMARK  1 active torsions:
REMARK  status: ('A' for Active; 'I' for Inactive)
REMARK    1  A    between atoms: C5_5  and  C6_6 
ROOT
HETATM    1  C1  UNL     1     -22.435  17.650   8.195  1.00 20.00     0.080 C 
HETATM    2  C6  UNL     1     -23.182  18.645   8.973  1.00 20.00     0.195 C 
HETATM    3  N7  UNL     1     -21.843  16.867   7.574  1.00 20.00    -0.196 NA
HETATM    4 CL9  UNL     1     -24.619  19.116   8.025  1.00 20.00    -0.109 Cl
ENDROOT
BRANCH   2   5
HETATM    5  C5  UNL     1     -23.609  18.096  10.320  1.00 20.00     0.044 C 
HETATM    6  C2  UNL     1     -24.229  16.717  10.261  1.00 20.00     0.035 C 
HETATM    7  C3  UNL     1     -24.088  16.255  11.696  1.00 20.00     0.168 C 
HETATM    8  O8  UNL     1     -22.898  16.867  12.215  1.00 20.00    -0.391 OA
HETATM    9  C4  UNL     1     -22.455  17.864  11.281  1.00 20.00     0.174 C 
ENDBRANCH   2   5
TORSDOF 1
ENDMDL
MODEL 2
REMARK VINA RESULT:      -4.2     15.828     16.373
REMARK  1 active torsions:
REMARK  status: ('A' for Active; 'I' for Inactive)
REMARK    1  A    between atoms: C5_5  and  C6_6 
ROOT
HETATM    1  C1  UNL     1     -32.684   7.831   1.554  1.00 20.00     0.080 C 
HETATM    2  C6  UNL     1     -32.429   6.901   2.660  1.00 20.00     0.195 C 
HETATM    3  N7  UNL     1     -32.880   8.569   0.678  1.00 20.00    -0.196 NA
HETATM    4 CL9  UNL     1     -31.392   7.734   3.849  1.00 20.00    -0.109 Cl
ENDROOT
BRANCH   2   5
HETATM    5  C5  UNL     1     -33.717   6.452   3.322  1.00 20.00     0.044 C 
HETATM    6  C2  UNL     1     -33.933   4.955   3.307  1.00 20.00     0.035 C 
HETATM    7  C3  UNL     1     -34.959   4.782   4.408  1.00 20.00     0.168 C 
HETATM    8  O8  UNL     1     -34.709   5.813   5.375  1.00 20.00    -0.391 OA
HETATM    9  C4  UNL     1     -33.777   6.749   4.812  1.00 20.00     0.174 C 
ENDBRANCH   2   5
TORSDOF 1
ENDMDL
MODEL 3
REMARK VINA RESULT:      -4.1     17.461     17.984
REMARK  1 active torsions:
REMARK  status: ('A' for Active; 'I' for Inactive)
REMARK    1  A    between atoms: C5_5  and  C6_6 
ROOT
HETATM    1  C1  UNL     1     -36.063  14.101  -4.473  1.00 20.00     0.080 C 
HETATM    2  C6  UNL     1     -34.675  14.580  -4.469  1.00 20.00     0.195 C 
HETATM    3  N7  UNL     1     -37.159  13.718  -4.480  1.00 20.00    -0.196 NA
HETATM    4 CL9  UNL     1     -34.188  14.865  -6.162  1.00 20.00    -0.109 Cl
ENDROOT
BRANCH   2   5
HETATM    5  C5  UNL     1     -34.526  15.857  -3.666  1.00 20.00     0.044 C 
HETATM    6  C2  UNL     1     -35.145  15.799  -2.287  1.00 20.00     0.035 C 
HETATM    7  C3  UNL     1     -34.440  16.941  -1.585  1.00 20.00     0.168 C 
HETATM    8  O8  UNL     1     -33.129  17.036  -2.161  1.00 20.00    -0.391 OA
HETATM    9  C4  UNL     1     -33.085  16.206  -3.332  1.00 20.00     0.174 C 
ENDBRANCH   2   5
TORSDOF 1
ENDMDL
MODEL 4
REMARK VINA RESULT:      -4.1     17.627     18.181
REMARK  1 active torsions:
REMARK  status: ('A' for Active; 'I' for Inactive)
REMARK    1  A    between atoms: C5_5  and  C6_6 
ROOT
HETATM    1  C1  UNL     1     -36.352  14.044  -4.380  1.00 20.00     0.080 C 
HETATM    2  C6  UNL     1     -34.926  14.383  -4.304  1.00 20.00     0.195 C 
HETATM    3  N7  UNL     1     -37.479  13.774  -4.446  1.00 20.00    -0.196 NA
HETATM    4 CL9  UNL     1     -34.496  15.285  -5.782  1.00 20.00    -0.109 Cl
ENDROOT
BRANCH   2   5
HETATM    5  C5  UNL     1     -34.614  15.219  -3.078  1.00 20.00     0.044 C 
HETATM    6  C2  UNL     1     -33.328  16.010  -3.178  1.00 20.00     0.035 C 
HETATM    7  C3  UNL     1     -33.532  17.063  -2.108  1.00 20.00     0.168 C 
HETATM    8  O8  UNL     1     -34.942  17.324  -2.046  1.00 20.00    -0.391 OA
HETATM    9  C4  UNL     1     -35.625  16.323  -2.815  1.00 20.00     0.174 C 
ENDBRANCH   2   5
TORSDOF 1
ENDMDL
MODEL 5
REMARK VINA RESULT:      -4.1     16.072     16.743
REMARK  1 active torsions:
REMARK  status: ('A' for Active; 'I' for Inactive)
REMARK    1  A    between atoms: C5_5  and  C6_6 
ROOT
HETATM    1  C1  UNL     1     -32.684   6.893   2.521  1.00 20.00     0.080 C 
HETATM    2  C6  UNL     1     -33.750   5.890   2.634  1.00 20.00     0.195 C 
HETATM    3  N7  UNL     1     -31.839   7.683   2.426  1.00 20.00    -0.196 NA
HETATM    4 CL9  UNL     1     -33.006   4.277   2.468  1.00 20.00    -0.109 Cl
ENDROOT
BRANCH   2   5
HETATM    5  C5  UNL     1     -34.475   5.991   3.962  1.00 20.00     0.044 C 
HETATM    6  C2  UNL     1     -34.628   4.672   4.687  1.00 20.00     0.035 C 
HETATM    7  C3  UNL     1     -34.904   5.132   6.104  1.00 20.00     0.168 C 
HETATM    8  O8  UNL     1     -34.203   6.371   6.283  1.00 20.00    -0.391 OA
HETATM    9  C4  UNL     1     -33.739   6.821   5.001  1.00 20.00     0.174 C 
ENDBRANCH   2   5
TORSDOF 1
ENDMDL
MODEL 6
REMARK VINA RESULT:      -4.1      3.143      3.921
REMARK  1 active torsions:
REMARK  status: ('A' for Active; 'I' for Inactive)
REMARK    1  A    between atoms: C5_5  and  C6_6 
ROOT
HETATM    1  C1  UNL     1     -25.336  18.603  10.960  1.00 20.00     0.080 C 
HETATM    2  C6  UNL     1     -24.071  17.859  10.964  1.00 20.00     0.195 C 
HETATM    3  N7  UNL     1     -26.339  19.189  10.962  1.00 20.00    -0.196 NA
HETATM    4 CL9  UNL     1     -24.459  16.118  10.939  1.00 20.00    -0.109 Cl
ENDROOT
BRANCH   2   5
HETATM    5  C5  UNL     1     -23.210  18.214   9.768  1.00 20.00     0.044 C 
HETATM    6  C2  UNL     1     -22.280  17.106   9.322  1.00 20.00     0.035 C 
HETATM    7  C3  UNL     1     -21.951  17.532   7.907  1.00 20.00     0.168 C 
HETATM    8  O8  UNL     1     -23.104  18.224   7.402  1.00 20.00    -0.391 OA
HETATM    9  C4  UNL     1     -24.001  18.470   8.496  1.00 20.00     0.174 C 
ENDBRANCH   2   5
TORSDOF 1
ENDMDL
MODEL 7
REMARK VINA RESULT:      -4.1     18.660     19.191
REMARK  1 active torsions:
REMARK  status: ('A' for Active; 'I' for Inactive)
REMARK    1  A    between atoms: C5_5  and  C6_6 
ROOT
HETATM    1  C1  UNL     1     -33.846  14.759  -5.618  1.00 20.00     0.080 C 
HETATM    2  C6  UNL     1     -34.032  14.609  -4.170  1.00 20.00     0.195 C 
HETATM    3  N7  UNL     1     -33.693  14.879  -6.762  1.00 20.00    -0.196 NA
HETATM    4 CL9  UNL     1     -33.271  16.010  -3.370  1.00 20.00    -0.109 Cl
ENDROOT
BRANCH   2   5
HETATM    5  C5  UNL     1     -35.501  14.536  -3.798  1.00 20.00     0.044 C 
HETATM    6  C2  UNL     1     -36.304  15.753  -4.202  1.00 20.00     0.035 C 
HETATM    7  C3  UNL     1     -37.718  15.212  -4.170  1.00 20.00     0.168 C 
HETATM    8  O8  UNL     1     -37.639  13.822  -4.521  1.00 20.00    -0.391 OA
HETATM    9  C4  UNL     1     -36.259  13.427  -4.509  1.00 20.00     0.174 C 
ENDBRANCH   2   5
TORSDOF 1
ENDMDL
MODEL 8
REMARK VINA RESULT:      -3.9     18.717     19.314
REMARK  1 active torsions:
REMARK  status: ('A' for Active; 'I' for Inactive)
REMARK    1  A    between atoms: C5_5  and  C6_6 
ROOT
HETATM    1  C1  UNL     1     -37.370  14.891  -4.405  1.00 20.00     0.080 C 
HETATM    2  C6  UNL     1     -36.608  16.142  -4.499  1.00 20.00     0.195 C 
HETATM    3  N7  UNL     1     -37.976  13.904  -4.329  1.00 20.00    -0.196 NA
HETATM    4 CL9  UNL     1     -36.820  17.030  -2.966  1.00 20.00    -0.109 Cl
ENDROOT
BRANCH   2   5
HETATM    5  C5  UNL     1     -35.135  15.884  -4.748  1.00 20.00     0.044 C 
HETATM    6  C2  UNL     1     -34.458  15.065  -3.671  1.00 20.00     0.035 C 
HETATM    7  C3  UNL     1     -33.223  14.569  -4.394  1.00 20.00     0.168 C 
HETATM    8  O8  UNL     1     -33.580  14.425  -5.777  1.00 20.00    -0.391 OA
HETATM    9  C4  UNL     1     -34.860  15.042  -5.983  1.00 20.00     0.174 C 
ENDBRANCH   2   5
TORSDOF 1
ENDMDL
MODEL 9
REMARK VINA RESULT:      -3.8     17.977     18.514
REMARK  1 active torsions:
REMARK  status: ('A' for Active; 'I' for Inactive)
REMARK    1  A    between atoms: C5_5  and  C6_6 
ROOT
HETATM    1  C1  UNL     1     -36.054  13.798  -4.606  1.00 20.00     0.080 C 
HETATM    2  C6  UNL     1     -36.328  15.231  -4.768  1.00 20.00     0.195 C 
HETATM    3  N7  UNL     1     -35.843  12.663  -4.480  1.00 20.00    -0.196 NA
HETATM    4 CL9  UNL     1     -37.941  15.563  -4.082  1.00 20.00    -0.109 Cl
ENDROOT
BRANCH   2   5
HETATM    5  C5  UNL     1     -35.284  16.083  -4.071  1.00 20.00     0.044 C 
HETATM    6  C2  UNL     1     -35.240  15.904  -2.569  1.00 20.00     0.035 C 
HETATM    7  C3  UNL     1     -33.866  16.447  -2.237  1.00 20.00     0.168 C 
HETATM    8  O8  UNL     1     -33.025  16.173  -3.368  1.00 20.00    -0.391 OA
HETATM    9  C4  UNL     1     -33.855  15.738  -4.456  1.00 20.00     0.174 C 
ENDBRANCH   2   5
TORSDOF 1
ENDMDL
