MODEL 1
REMARK VINA RESULT:      -4.1      0.000      0.000
REMARK  1 active torsions:
REMARK  status: ('A' for Active; 'I' for Inactive)
REMARK    1  A    between atoms: C5_5  and  C6_6 
ROOT
HETATM    1  C1  UNL     1     -35.208  13.801  -4.327  1.00 20.00     0.084 C 
HETATM    2  C6  UNL     1     -34.226  14.908  -4.334  1.00 20.00     0.222 C 
HETATM    3  N7  UNL     1     -35.963  12.920  -4.324  1.00 20.00    -0.195 NA
HETATM    4 CL9  UNL     1     -32.590  14.179  -4.471  1.00 20.00    -0.104 Cl
ENDROOT
BRANCH   2   5
HETATM    5  C5  UNL     1     -34.305  15.805  -3.157  1.00 20.00    -0.019 A 
HETATM    6  C2  UNL     1     -33.241  16.652  -2.731  1.00 20.00     0.017 A 
HETATM    7  C3  UNL     1     -33.576  17.381  -1.612  1.00 20.00     0.050 A 
HETATM    8  S8  UNL     1     -35.168  17.044  -1.078  1.00 20.00    -0.113 SA
HETATM    9  C4  UNL     1     -35.413  15.919  -2.347  1.00 20.00     0.059 A 
ENDBRANCH   2   5
TORSDOF 1
ENDMDL
MODEL 2
REMARK VINA RESULT:      -4.1      0.760      1.356
REMARK  1 active torsions:
REMARK  status: ('A' for Active; 'I' for Inactive)
REMARK    1  A    between atoms: C5_5  and  C6_6 
ROOT
HETATM    1  C1  UNL     1     -35.117  13.796  -4.304  1.00 20.00     0.084 C 
HETATM    2  C6  UNL     1     -34.118  14.887  -4.334  1.00 20.00     0.222 C 
HETATM    3  N7  UNL     1     -35.886  12.927  -4.282  1.00 20.00    -0.195 NA
HETATM    4 CL9  UNL     1     -32.494  14.128  -4.451  1.00 20.00    -0.104 Cl
ENDROOT
BRANCH   2   5
HETATM    5  C5  UNL     1     -34.184  15.811  -3.178  1.00 20.00    -0.019 A 
HETATM    6  C2  UNL     1     -35.293  15.889  -2.286  1.00 20.00     0.017 A 
HETATM    7  C3  UNL     1     -35.098  16.830  -1.299  1.00 20.00     0.050 A 
HETATM    8  S8  UNL     1     -33.584  17.616  -1.450  1.00 20.00    -0.113 SA
HETATM    9  C4  UNL     1     -33.185  16.697  -2.839  1.00 20.00     0.059 A 
ENDBRANCH   2   5
TORSDOF 1
ENDMDL
MODEL 3
REMARK VINA RESULT:      -4.1      3.920      4.922
REMARK  1 active torsions:
REMARK  status: ('A' for Active; 'I' for Inactive)
REMARK    1  A    between atoms: C5_5  and  C6_6 
ROOT
HETATM    1  C1  UNL     1     -31.782  18.284  -0.698  1.00 20.00     0.084 C 
HETATM    2  C6  UNL     1     -33.236  18.244  -0.975  1.00 20.00     0.222 C 
HETATM    3  N7  UNL     1     -30.647  18.314  -0.462  1.00 20.00    -0.195 NA
HETATM    4 CL9  UNL     1     -34.082  18.100   0.603  1.00 20.00    -0.104 Cl
ENDROOT
BRANCH   2   5
HETATM    5  C5  UNL     1     -33.654  17.163  -1.897  1.00 20.00    -0.019 A 
HETATM    6  C2  UNL     1     -34.859  16.415  -1.750  1.00 20.00     0.017 A 
HETATM    7  C3  UNL     1     -35.007  15.471  -2.743  1.00 20.00     0.050 A 
HETATM    8  S8  UNL     1     -33.697  15.488  -3.846  1.00 20.00    -0.113 SA
HETATM    9  C4  UNL     1     -32.928  16.761  -2.997  1.00 20.00     0.059 A 
ENDBRANCH   2   5
TORSDOF 1
ENDMDL
MODEL 4
REMARK VINA RESULT:      -4.0      2.012      2.308
REMARK  1 active torsions:
REMARK  status: ('A' for Active; 'I' for Inactive)
REMARK    1  A    between atoms: C5_5  and  C6_6 
ROOT
HETATM    1  C1  UNL     1     -34.133  14.683  -5.239  1.00 20.00     0.084 C 
HETATM    2  C6  UNL     1     -34.627  14.567  -3.848  1.00 20.00     0.222 C 
HETATM    3  N7  UNL     1     -33.765  14.771  -6.335  1.00 20.00    -0.195 NA
HETATM    4 CL9  UNL     1     -36.411  14.374  -3.923  1.00 20.00    -0.104 Cl
ENDROOT
BRANCH   2   5
HETATM    5  C5  UNL     1     -34.256  15.701  -2.970  1.00 20.00    -0.019 A 
HETATM    6  C2  UNL     1     -35.073  16.181  -1.905  1.00 20.00     0.017 A 
HETATM    7  C3  UNL     1     -34.493  17.243  -1.247  1.00 20.00     0.050 A 
HETATM    8  S8  UNL     1     -32.971  17.659  -1.913  1.00 20.00    -0.113 SA
HETATM    9  C4  UNL     1     -33.084  16.416  -3.085  1.00 20.00     0.059 A 
ENDBRANCH   2   5
TORSDOF 1
ENDMDL
MODEL 5
REMARK VINA RESULT:      -4.0      3.833      4.732
REMARK  1 active torsions:
REMARK  status: ('A' for Active; 'I' for Inactive)
REMARK    1  A    between atoms: C5_5  and  C6_6 
ROOT
HETATM    1  C1  UNL     1     -31.803  18.307  -0.765  1.00 20.00     0.084 C 
HETATM    2  C6  UNL     1     -33.261  18.237  -1.005  1.00 20.00     0.222 C 
HETATM    3  N7  UNL     1     -30.663  18.361  -0.557  1.00 20.00    -0.195 NA
HETATM    4 CL9  UNL     1     -34.064  18.061   0.592  1.00 20.00    -0.104 Cl
ENDROOT
BRANCH   2   5
HETATM    5  C5  UNL     1     -33.680  17.155  -1.926  1.00 20.00    -0.019 A 
HETATM    6  C2  UNL     1     -32.888  16.690  -3.017  1.00 20.00     0.017 A 
HETATM    7  C3  UNL     1     -33.511  15.677  -3.713  1.00 20.00     0.050 A 
HETATM    8  S8  UNL     1     -35.043  15.291  -3.053  1.00 20.00    -0.113 SA
HETATM    9  C4  UNL     1     -34.877  16.480  -1.831  1.00 20.00     0.059 A 
ENDBRANCH   2   5
TORSDOF 1
ENDMDL
MODEL 6
REMARK VINA RESULT:      -3.8      1.865      2.021
REMARK  1 active torsions:
REMARK  status: ('A' for Active; 'I' for Inactive)
REMARK    1  A    between atoms: C5_5  and  C6_6 
ROOT
HETATM    1  C1  UNL     1     -36.120  13.843  -4.267  1.00 20.00     0.084 C 
HETATM    2  C6  UNL     1     -36.439  15.235  -3.878  1.00 20.00     0.222 C 
HETATM    3  N7  UNL     1     -35.874  12.756  -4.592  1.00 20.00    -0.195 NA
HETATM    4 CL9  UNL     1     -36.907  16.119  -5.369  1.00 20.00    -0.104 Cl
ENDROOT
BRANCH   2   5
HETATM    5  C5  UNL     1     -35.345  15.939  -3.169  1.00 20.00    -0.019 A 
HETATM    6  C2  UNL     1     -33.965  15.792  -3.493  1.00 20.00     0.017 A 
HETATM    7  C3  UNL     1     -33.159  16.558  -2.680  1.00 20.00     0.050 A 
HETATM    8  S8  UNL     1     -34.064  17.450  -1.532  1.00 20.00    -0.113 SA
HETATM    9  C4  UNL     1     -35.540  16.812  -2.121  1.00 20.00     0.059 A 
ENDBRANCH   2   5
TORSDOF 1
ENDMDL
MODEL 7
REMARK VINA RESULT:      -3.7      3.165      3.789
REMARK  1 active torsions:
REMARK  status: ('A' for Active; 'I' for Inactive)
REMARK    1  A    between atoms: C5_5  and  C6_6 
ROOT
HETATM    1  C1  UNL     1     -36.509  14.106  -4.483  1.00 20.00     0.084 C 
HETATM    2  C6  UNL     1     -35.090  14.521  -4.552  1.00 20.00     0.222 C 
HETATM    3  N7  UNL     1     -37.622  13.786  -4.410  1.00 20.00    -0.195 NA
HETATM    4 CL9  UNL     1     -34.663  15.250  -2.968  1.00 20.00    -0.104 Cl
ENDROOT
BRANCH   2   5
HETATM    5  C5  UNL     1     -34.778  15.452  -5.661  1.00 20.00    -0.019 A 
HETATM    6  C2  UNL     1     -34.199  15.048  -6.900  1.00 20.00     0.017 A 
HETATM    7  C3  UNL     1     -34.013  16.111  -7.756  1.00 20.00     0.050 A 
HETATM    8  S8  UNL     1     -34.534  17.589  -7.067  1.00 20.00    -0.113 SA
HETATM    9  C4  UNL     1     -35.011  16.810  -5.619  1.00 20.00     0.059 A 
ENDBRANCH   2   5
TORSDOF 1
ENDMDL
MODEL 8
REMARK VINA RESULT:      -3.6      2.321      2.562
REMARK  1 active torsions:
REMARK  status: ('A' for Active; 'I' for Inactive)
REMARK    1  A    between atoms: C5_5  and  C6_6 
ROOT
HETATM    1  C1  UNL     1     -35.917  14.455  -6.165  1.00 20.00     0.084 C 
HETATM    2  C6  UNL     1     -35.983  14.193  -4.709  1.00 20.00     0.222 C 
HETATM    3  N7  UNL     1     -35.885  14.663  -7.306  1.00 20.00    -0.195 NA
HETATM    4 CL9  UNL     1     -37.694  14.388  -4.202  1.00 20.00    -0.104 Cl
ENDROOT
BRANCH   2   5
HETATM    5  C5  UNL     1     -35.091  15.049  -3.892  1.00 20.00    -0.019 A 
HETATM    6  C2  UNL     1     -33.691  15.184  -4.121  1.00 20.00     0.017 A 
HETATM    7  C3  UNL     1     -33.099  16.040  -3.218  1.00 20.00     0.050 A 
HETATM    8  S8  UNL     1     -34.230  16.676  -2.100  1.00 20.00    -0.113 SA
HETATM    9  C4  UNL     1     -35.516  15.806  -2.822  1.00 20.00     0.059 A 
ENDBRANCH   2   5
TORSDOF 1
ENDMDL
MODEL 9
REMARK VINA RESULT:      -3.5      2.892      3.246
REMARK  1 active torsions:
REMARK  status: ('A' for Active; 'I' for Inactive)
REMARK    1  A    between atoms: C5_5  and  C6_6 
ROOT
HETATM    1  C1  UNL     1     -35.187  13.819  -4.210  1.00 20.00     0.084 C 
HETATM    2  C6  UNL     1     -34.369  15.010  -3.891  1.00 20.00     0.222 C 
HETATM    3  N7  UNL     1     -35.839  12.888  -4.444  1.00 20.00    -0.195 NA
HETATM    4 CL9  UNL     1     -34.963  15.671  -2.330  1.00 20.00    -0.104 Cl
ENDROOT
BRANCH   2   5
HETATM    5  C5  UNL     1     -34.372  16.056  -4.940  1.00 20.00    -0.019 A 
HETATM    6  C2  UNL     1     -34.216  17.448  -4.676  1.00 20.00     0.017 A 
HETATM    7  C3  UNL     1     -34.257  18.201  -5.828  1.00 20.00     0.050 A 
HETATM    8  S8  UNL     1     -34.483  17.232  -7.222  1.00 20.00    -0.113 SA
HETATM    9  C4  UNL     1     -34.527  15.799  -6.285  1.00 20.00     0.059 A 
ENDBRANCH   2   5
TORSDOF 1
ENDMDL
