MODEL 1
REMARK VINA RESULT:      -4.2      0.000      0.000
REMARK  0 active torsions:
REMARK  status: ('A' for Active; 'I' for Inactive)
ROOT
HETATM    1  C1  UNL     1     -22.975  17.019   9.290  1.00 20.00     0.085 C 
HETATM    2  C2  UNL     1     -24.681  18.414  10.395  1.00 20.00     0.051 C 
HETATM    3  C3  UNL     1     -24.351  15.965  11.041  1.00 20.00     0.051 C 
HETATM    4  C4  UNL     1     -25.512  18.735  11.634  1.00 20.00     0.076 C 
HETATM    5  C5  UNL     1     -25.157  16.092  12.332  1.00 20.00     0.076 C 
HETATM    6  C6  UNL     1     -23.675  17.262  10.567  1.00 20.00     0.127 C 
HETATM    7  N7  UNL     1     -22.426  16.828   8.287  1.00 20.00    -0.195 NA
HETATM    8  S8  UNL     1     -26.493  17.309  12.178  1.00 20.00    -0.169 SA
HETATM    9 CL9  UNL     1     -22.389  17.744  11.733  1.00 20.00    -0.103 Cl
ENDROOT
TORSDOF 0
ENDMDL
MODEL 2
REMARK VINA RESULT:      -4.1     18.008     18.325
REMARK  0 active torsions:
REMARK  status: ('A' for Active; 'I' for Inactive)
ROOT
HETATM    1  C1  UNL     1     -35.387  13.870  -4.325  1.00 20.00     0.085 C 
HETATM    2  C2  UNL     1     -34.968  16.178  -5.083  1.00 20.00     0.051 C 
HETATM    3  C3  UNL     1     -34.785  15.539  -2.615  1.00 20.00     0.051 C 
HETATM    4  C4  UNL     1     -34.245  17.509  -4.896  1.00 20.00     0.076 C 
HETATM    5  C5  UNL     1     -34.048  16.820  -2.235  1.00 20.00     0.076 C 
HETATM    6  C6  UNL     1     -34.585  15.083  -4.071  1.00 20.00     0.127 C 
HETATM    7  N7  UNL     1     -36.017  12.917  -4.525  1.00 20.00    -0.195 NA
HETATM    8  S8  UNL     1     -34.559  18.227  -3.260  1.00 20.00    -0.169 SA
HETATM    9 CL9  UNL     1     -32.872  14.587  -4.326  1.00 20.00    -0.103 Cl
ENDROOT
TORSDOF 0
ENDMDL
MODEL 3
REMARK VINA RESULT:      -3.9     18.955     19.278
REMARK  0 active torsions:
REMARK  status: ('A' for Active; 'I' for Inactive)
ROOT
HETATM    1  C1  UNL     1     -37.021  14.428  -4.497  1.00 20.00     0.085 C 
HETATM    2  C2  UNL     1     -35.898  16.622  -4.448  1.00 20.00     0.051 C 
HETATM    3  C3  UNL     1     -34.650  14.480  -3.830  1.00 20.00     0.051 C 
HETATM    4  C4  UNL     1     -34.621  17.445  -4.591  1.00 20.00     0.076 C 
HETATM    5  C5  UNL     1     -33.275  15.135  -3.924  1.00 20.00     0.076 C 
HETATM    6  C6  UNL     1     -35.734  15.115  -4.718  1.00 20.00     0.127 C 
HETATM    7  N7  UNL     1     -38.033  13.889  -4.324  1.00 20.00    -0.195 NA
HETATM    8  S8  UNL     1     -33.324  16.886  -3.452  1.00 20.00    -0.169 SA
HETATM    9 CL9  UNL     1     -35.338  14.845  -6.454  1.00 20.00    -0.103 Cl
ENDROOT
TORSDOF 0
ENDMDL
MODEL 4
REMARK VINA RESULT:      -3.9     18.296     18.652
REMARK  0 active torsions:
REMARK  status: ('A' for Active; 'I' for Inactive)
ROOT
HETATM    1  C1  UNL     1     -35.712  13.984  -4.312  1.00 20.00     0.085 C 
HETATM    2  C2  UNL     1     -34.672  15.503  -2.674  1.00 20.00     0.051 C 
HETATM    3  C3  UNL     1     -34.691  16.057  -5.169  1.00 20.00     0.051 C 
HETATM    4  C4  UNL     1     -34.286  16.921  -2.260  1.00 20.00     0.076 C 
HETATM    5  C5  UNL     1     -34.307  17.518  -4.950  1.00 20.00     0.076 C 
HETATM    6  C6  UNL     1     -35.447  15.402  -4.000  1.00 20.00     0.127 C 
HETATM    7  N7  UNL     1     -35.921  12.870  -4.558  1.00 20.00    -0.195 NA
HETATM    8  S8  UNL     1     -33.237  17.728  -3.500  1.00 20.00    -0.169 SA
HETATM    9 CL9  UNL     1     -37.069  16.164  -3.818  1.00 20.00    -0.103 Cl
ENDROOT
TORSDOF 0
ENDMDL
MODEL 5
REMARK VINA RESULT:      -3.8     17.941     18.258
REMARK  0 active torsions:
REMARK  status: ('A' for Active; 'I' for Inactive)
ROOT
HETATM    1  C1  UNL     1     -35.527  13.905  -4.313  1.00 20.00     0.085 C 
HETATM    2  C2  UNL     1     -35.958  15.869  -2.887  1.00 20.00     0.051 C 
HETATM    3  C3  UNL     1     -33.594  15.288  -3.662  1.00 20.00     0.051 C 
HETATM    4  C4  UNL     1     -35.576  17.279  -2.445  1.00 20.00     0.076 C 
HETATM    5  C5  UNL     1     -33.026  16.653  -3.281  1.00 20.00     0.076 C 
HETATM    6  C6  UNL     1     -35.091  15.284  -4.016  1.00 20.00     0.127 C 
HETATM    7  N7  UNL     1     -35.870  12.822  -4.546  1.00 20.00    -0.195 NA
HETATM    8  S8  UNL     1     -33.868  17.359  -1.838  1.00 20.00    -0.169 SA
HETATM    9 CL9  UNL     1     -35.363  16.210  -5.537  1.00 20.00    -0.103 Cl
ENDROOT
TORSDOF 0
ENDMDL
MODEL 6
REMARK VINA RESULT:      -3.8     19.228     19.590
REMARK  0 active torsions:
REMARK  status: ('A' for Active; 'I' for Inactive)
ROOT
HETATM    1  C1  UNL     1     -37.549  14.612  -4.399  1.00 20.00     0.085 C 
HETATM    2  C2  UNL     1     -35.452  15.077  -3.192  1.00 20.00     0.051 C 
HETATM    3  C3  UNL     1     -35.451  14.529  -5.688  1.00 20.00     0.051 C 
HETATM    4  C4  UNL     1     -34.020  15.607  -3.205  1.00 20.00     0.076 C 
HETATM    5  C5  UNL     1     -34.019  15.016  -5.897  1.00 20.00     0.076 C 
HETATM    6  C6  UNL     1     -36.204  15.205  -4.529  1.00 20.00     0.127 C 
HETATM    7  N7  UNL     1     -38.607  14.147  -4.298  1.00 20.00    -0.195 NA
HETATM    8  S8  UNL     1     -32.990  14.747  -4.426  1.00 20.00    -0.169 SA
HETATM    9 CL9  UNL     1     -36.480  16.943  -4.910  1.00 20.00    -0.103 Cl
ENDROOT
TORSDOF 0
ENDMDL
MODEL 7
REMARK VINA RESULT:      -3.7     18.348     18.638
REMARK  0 active torsions:
REMARK  status: ('A' for Active; 'I' for Inactive)
ROOT
HETATM    1  C1  UNL     1     -35.730  13.931  -4.307  1.00 20.00     0.085 C 
HETATM    2  C2  UNL     1     -36.944  16.029  -3.862  1.00 20.00     0.051 C 
HETATM    3  C3  UNL     1     -34.738  15.500  -2.686  1.00 20.00     0.051 C 
HETATM    4  C4  UNL     1     -36.915  17.504  -3.472  1.00 20.00     0.076 C 
HETATM    5  C5  UNL     1     -34.536  16.934  -2.203  1.00 20.00     0.076 C 
HETATM    6  C6  UNL     1     -35.563  15.360  -3.977  1.00 20.00     0.127 C 
HETATM    7  N7  UNL     1     -35.861  12.808  -4.566  1.00 20.00    -0.195 NA
HETATM    8  S8  UNL     1     -36.113  17.764  -1.865  1.00 20.00    -0.169 SA
HETATM    9 CL9  UNL     1     -34.655  16.068  -5.363  1.00 20.00    -0.103 Cl
ENDROOT
TORSDOF 0
ENDMDL
MODEL 8
REMARK VINA RESULT:      -3.7     19.828     20.252
REMARK  0 active torsions:
REMARK  status: ('A' for Active; 'I' for Inactive)
ROOT
HETATM    1  C1  UNL     1     -37.116  14.452  -4.592  1.00 20.00     0.085 C 
HETATM    2  C2  UNL     1     -35.505  14.644  -6.447  1.00 20.00     0.051 C 
HETATM    3  C3  UNL     1     -35.981  16.617  -4.896  1.00 20.00     0.051 C 
HETATM    4  C4  UNL     1     -34.243  15.275  -7.028  1.00 20.00     0.076 C 
HETATM    5  C5  UNL     1     -34.756  17.404  -5.355  1.00 20.00     0.076 C 
HETATM    6  C6  UNL     1     -35.854  15.089  -5.016  1.00 20.00     0.127 C 
HETATM    7  N7  UNL     1     -38.108  13.950  -4.259  1.00 20.00    -0.195 NA
HETATM    8  S8  UNL     1     -34.359  17.084  -7.096  1.00 20.00    -0.169 SA
HETATM    9 CL9  UNL     1     -34.604  14.487  -3.867  1.00 20.00    -0.103 Cl
ENDROOT
TORSDOF 0
ENDMDL
MODEL 9
REMARK VINA RESULT:      -3.4     17.327     17.700
REMARK  0 active torsions:
REMARK  status: ('A' for Active; 'I' for Inactive)
ROOT
HETATM    1  C1  UNL     1     -32.925  17.485  -2.278  1.00 20.00     0.085 C 
HETATM    2  C2  UNL     1     -34.473  17.499  -4.195  1.00 20.00     0.051 C 
HETATM    3  C3  UNL     1     -32.996  15.474  -3.700  1.00 20.00     0.051 C 
HETATM    4  C4  UNL     1     -35.375  16.732  -5.159  1.00 20.00     0.076 C 
HETATM    5  C5  UNL     1     -33.781  14.548  -4.625  1.00 20.00     0.076 C 
HETATM    6  C6  UNL     1     -33.806  16.640  -3.107  1.00 20.00     0.127 C 
HETATM    7  N7  UNL     1     -32.233  18.150  -1.626  1.00 20.00    -0.195 NA
HETATM    8  S8  UNL     1     -34.469  15.437  -6.049  1.00 20.00    -0.169 SA
HETATM    9 CL9  UNL     1     -35.058  16.003  -1.979  1.00 20.00    -0.103 Cl
ENDROOT
TORSDOF 0
ENDMDL
