MODEL 1
REMARK VINA RESULT:      -4.0      0.000      0.000
REMARK  1 active torsions:
REMARK  status: ('A' for Active; 'I' for Inactive)
REMARK    1  A    between atoms: C7_7  and  N8_8 
ROOT
HETATM    1  C1  UNL     1     -23.595  19.068   8.632  1.00 20.00     0.045 C 
HETATM    2  C2  UNL     1     -24.964  19.055   9.298  1.00 20.00     0.236 C 
HETATM    3  C3  UNL     1     -23.675  17.060   9.878  1.00 20.00     0.251 C 
HETATM    4  C4  UNL     1     -23.225  17.592   8.525  1.00 20.00     0.086 C 
HETATM    5  N8  UNL     1     -24.996  17.770  10.102  1.00 20.00    -0.066 N 
HETATM    6  S9  UNL     1     -21.453  17.349   8.265  1.00 20.00    -0.091 SA
HETATM    7  H24 UNL     1     -25.729  17.176   9.686  1.00 20.00     0.280 HD
ENDROOT
BRANCH   5   8
HETATM    8  C7  UNL     1     -25.347  17.952  11.543  1.00 20.00     0.180 C 
HETATM    9  C5  UNL     1     -26.287  19.141  11.663  1.00 20.00     0.039 C 
HETATM   10  C6  UNL     1     -24.062  18.151  12.332  1.00 20.00     0.039 C 
ENDBRANCH   5   8
TORSDOF 1
ENDMDL
MODEL 2
REMARK VINA RESULT:      -3.5     16.300     16.953
REMARK  1 active torsions:
REMARK  status: ('A' for Active; 'I' for Inactive)
REMARK    1  A    between atoms: C7_7  and  N8_8 
ROOT
HETATM    1  C1  UNL     1     -33.879   4.277   3.750  1.00 20.00     0.045 C 
HETATM    2  C2  UNL     1     -33.482   4.870   2.406  1.00 20.00     0.236 C 
HETATM    3  C3  UNL     1     -33.953   6.621   4.046  1.00 20.00     0.251 C 
HETATM    4  C4  UNL     1     -34.735   5.363   4.392  1.00 20.00     0.086 C 
HETATM    5  N8  UNL     1     -33.521   6.372   2.614  1.00 20.00    -0.066 N 
HETATM    6  S9  UNL     1     -34.892   5.142   6.179  1.00 20.00    -0.091 SA
HETATM    7  H24 UNL     1     -34.271   6.737   2.008  1.00 20.00     0.280 HD
ENDROOT
BRANCH   5   8
HETATM    8  C7  UNL     1     -32.264   7.082   2.230  1.00 20.00     0.180 C 
HETATM    9  C5  UNL     1     -31.639   7.670   3.485  1.00 20.00     0.039 C 
HETATM   10  C6  UNL     1     -32.605   8.149   1.202  1.00 20.00     0.039 C 
ENDBRANCH   5   8
TORSDOF 1
ENDMDL
MODEL 3
REMARK VINA RESULT:      -3.5     17.180     18.007
REMARK  1 active torsions:
REMARK  status: ('A' for Active; 'I' for Inactive)
REMARK    1  A    between atoms: C7_7  and  N8_8 
ROOT
HETATM    1  C1  UNL     1     -33.190  16.037  -3.692  1.00 20.00     0.045 C 
HETATM    2  C2  UNL     1     -33.542  14.677  -4.277  1.00 20.00     0.236 C 
HETATM    3  C3  UNL     1     -35.349  15.534  -2.870  1.00 20.00     0.251 C 
HETATM    4  C4  UNL     1     -34.017  16.112  -2.413  1.00 20.00     0.086 C 
HETATM    5  N8  UNL     1     -34.933  14.373  -3.752  1.00 20.00    -0.066 N 
HETATM    6  S9  UNL     1     -34.194  17.807  -1.812  1.00 20.00    -0.091 SA
HETATM    7  H24 UNL     1     -34.847  13.548  -3.140  1.00 20.00     0.280 HD
ENDROOT
BRANCH   5   8
HETATM    8  C7  UNL     1     -35.930  14.030  -4.810  1.00 20.00     0.180 C 
HETATM    9  C5  UNL     1     -35.503  14.695  -6.109  1.00 20.00     0.039 C 
HETATM   10  C6  UNL     1     -37.302  14.495  -4.350  1.00 20.00     0.039 C 
ENDBRANCH   5   8
TORSDOF 1
ENDMDL
MODEL 4
REMARK VINA RESULT:      -3.4     17.338     18.238
REMARK  1 active torsions:
REMARK  status: ('A' for Active; 'I' for Inactive)
REMARK    1  A    between atoms: C7_7  and  N8_8 
ROOT
HETATM    1  C1  UNL     1     -33.435  16.141  -3.080  1.00 20.00     0.045 C 
HETATM    2  C2  UNL     1     -33.377  15.057  -4.147  1.00 20.00     0.236 C 
HETATM    3  C3  UNL     1     -35.669  15.428  -3.381  1.00 20.00     0.251 C 
HETATM    4  C4  UNL     1     -34.688  15.802  -2.280  1.00 20.00     0.086 C 
HETATM    5  N8  UNL     1     -34.816  14.618  -4.338  1.00 20.00    -0.066 N 
HETATM    6  S9  UNL     1     -35.277  17.206  -1.307  1.00 20.00    -0.091 SA
HETATM    7  H24 UNL     1     -34.872  13.636  -4.030  1.00 20.00     0.280 HD
ENDROOT
BRANCH   5   8
HETATM    8  C7  UNL     1     -35.291  14.660  -5.754  1.00 20.00     0.180 C 
HETATM    9  C5  UNL     1     -34.118  15.038  -6.645  1.00 20.00     0.039 C 
HETATM   10  C6  UNL     1     -36.433  15.658  -5.852  1.00 20.00     0.039 C 
ENDBRANCH   5   8
TORSDOF 1
ENDMDL
MODEL 5
REMARK VINA RESULT:      -3.4     17.199     17.929
REMARK  1 active torsions:
REMARK  status: ('A' for Active; 'I' for Inactive)
REMARK    1  A    between atoms: C7_7  and  N8_8 
ROOT
HETATM    1  C1  UNL     1     -34.615  14.902  -5.868  1.00 20.00     0.045 C 
HETATM    2  C2  UNL     1     -33.504  14.770  -4.836  1.00 20.00     0.236 C 
HETATM    3  C3  UNL     1     -34.403  17.043  -4.886  1.00 20.00     0.251 C 
HETATM    4  C4  UNL     1     -34.593  16.380  -6.243  1.00 20.00     0.086 C 
HETATM    5  N8  UNL     1     -33.388  16.145  -4.207  1.00 20.00    -0.066 N 
HETATM    6  S9  UNL     1     -36.130  16.906  -7.035  1.00 20.00    -0.091 SA
HETATM    7  H24 UNL     1     -32.455  16.508  -4.454  1.00 20.00     0.280 HD
ENDROOT
BRANCH   5   8
HETATM    8  C7  UNL     1     -33.478  16.150  -2.715  1.00 20.00     0.180 C 
HETATM    9  C5  UNL     1     -34.931  15.938  -2.320  1.00 20.00     0.039 C 
HETATM   10  C6  UNL     1     -32.929  17.472  -2.203  1.00 20.00     0.039 C 
ENDBRANCH   5   8
TORSDOF 1
ENDMDL
MODEL 6
REMARK VINA RESULT:      -3.4     17.693     18.416
REMARK  1 active torsions:
REMARK  status: ('A' for Active; 'I' for Inactive)
REMARK    1  A    between atoms: C7_7  and  N8_8 
ROOT
HETATM    1  C1  UNL     1     -36.077  14.250  -5.196  1.00 20.00     0.045 C 
HETATM    2  C2  UNL     1     -35.145  13.978  -4.025  1.00 20.00     0.236 C 
HETATM    3  C3  UNL     1     -34.289  15.776  -5.443  1.00 20.00     0.251 C 
HETATM    4  C4  UNL     1     -35.163  14.840  -6.264  1.00 20.00     0.086 C 
HETATM    5  N8  UNL     1     -34.010  14.971  -4.188  1.00 20.00    -0.066 N 
HETATM    6  S9  UNL     1     -36.086  15.731  -7.538  1.00 20.00    -0.091 SA
HETATM    7  H24 UNL     1     -33.157  14.422  -4.369  1.00 20.00     0.280 HD
ENDROOT
BRANCH   5   8
HETATM    8  C7  UNL     1     -33.743  15.808  -2.980  1.00 20.00     0.180 C 
HETATM    9  C5  UNL     1     -35.040  15.955  -2.200  1.00 20.00     0.039 C 
HETATM   10  C6  UNL     1     -33.189  17.149  -3.433  1.00 20.00     0.039 C 
ENDBRANCH   5   8
TORSDOF 1
ENDMDL
MODEL 7
REMARK VINA RESULT:      -3.4     17.635     18.388
REMARK  1 active torsions:
REMARK  status: ('A' for Active; 'I' for Inactive)
REMARK    1  A    between atoms: C7_7  and  N8_8 
ROOT
HETATM    1  C1  UNL     1     -36.671  13.935  -4.475  1.00 20.00     0.045 C 
HETATM    2  C2  UNL     1     -35.196  14.291  -4.356  1.00 20.00     0.236 C 
HETATM    3  C3  UNL     1     -36.617  16.127  -3.591  1.00 20.00     0.251 C 
HETATM    4  C4  UNL     1     -37.364  15.286  -4.615  1.00 20.00     0.086 C 
HETATM    5  N8  UNL     1     -35.177  15.693  -3.777  1.00 20.00    -0.066 N 
HETATM    6  S9  UNL     1     -39.130  15.190  -4.244  1.00 20.00    -0.091 SA
HETATM    7  H24 UNL     1     -34.770  16.307  -4.497  1.00 20.00     0.280 HD
ENDROOT
BRANCH   5   8
HETATM    8  C7  UNL     1     -34.337  15.842  -2.549  1.00 20.00     0.180 C 
HETATM    9  C5  UNL     1     -35.154  16.567  -1.492  1.00 20.00     0.039 C 
HETATM   10  C6  UNL     1     -33.071  16.598  -2.919  1.00 20.00     0.039 C 
ENDBRANCH   5   8
TORSDOF 1
ENDMDL
MODEL 8
REMARK VINA RESULT:      -3.3     18.505     19.247
REMARK  1 active torsions:
REMARK  status: ('A' for Active; 'I' for Inactive)
REMARK    1  A    between atoms: C7_7  and  N8_8 
ROOT
HETATM    1  C1  UNL     1     -35.295  15.204  -7.375  1.00 20.00     0.045 C 
HETATM    2  C2  UNL     1     -33.907  15.035  -6.773  1.00 20.00     0.236 C 
HETATM    3  C3  UNL     1     -35.295  16.512  -5.406  1.00 20.00     0.251 C 
HETATM    4  C4  UNL     1     -35.758  16.560  -6.854  1.00 20.00     0.086 C 
HETATM    5  N8  UNL     1     -33.926  15.868  -5.506  1.00 20.00    -0.066 N 
HETATM    6  S9  UNL     1     -37.550  16.764  -6.978  1.00 20.00    -0.091 SA
HETATM    7  H24 UNL     1     -33.246  16.631  -5.640  1.00 20.00     0.280 HD
ENDROOT
BRANCH   5   8
HETATM    8  C7  UNL     1     -33.515  15.128  -4.275  1.00 20.00     0.180 C 
HETATM    9  C5  UNL     1     -34.640  14.184  -3.882  1.00 20.00     0.039 C 
HETATM   10  C6  UNL     1     -33.204  16.140  -3.183  1.00 20.00     0.039 C 
ENDBRANCH   5   8
TORSDOF 1
ENDMDL
MODEL 9
REMARK VINA RESULT:      -3.2     16.086     16.965
REMARK  1 active torsions:
REMARK  status: ('A' for Active; 'I' for Inactive)
REMARK    1  A    between atoms: C7_7  and  N8_8 
ROOT
HETATM    1  C1  UNL     1     -34.779  16.675  -1.586  1.00 20.00     0.045 C 
HETATM    2  C2  UNL     1     -35.543  16.060  -2.751  1.00 20.00     0.236 C 
HETATM    3  C3  UNL     1     -33.349  16.875  -3.458  1.00 20.00     0.251 C 
HETATM    4  C4  UNL     1     -33.832  17.667  -2.252  1.00 20.00     0.086 C 
HETATM    5  N8  UNL     1     -34.609  16.184  -3.940  1.00 20.00    -0.066 N 
HETATM    6  S9  UNL     1     -32.464  18.138  -1.169  1.00 20.00    -0.091 SA
HETATM    7  H24 UNL     1     -35.063  16.822  -4.610  1.00 20.00     0.280 HD
ENDROOT
BRANCH   5   8
HETATM    8  C7  UNL     1     -34.356  14.900  -4.662  1.00 20.00     0.180 C 
HETATM    9  C5  UNL     1     -35.354  13.865  -4.168  1.00 20.00     0.039 C 
HETATM   10  C6  UNL     1     -32.917  14.480  -4.410  1.00 20.00     0.039 C 
ENDBRANCH   5   8
TORSDOF 1
ENDMDL
