MODEL 1
REMARK VINA RESULT:      -4.5      0.000      0.000
REMARK  0 active torsions:
REMARK  status: ('A' for Active; 'I' for Inactive)
ROOT
HETATM    1  C1  UNL     1     -22.879  16.915   9.518  1.00 20.00     0.085 C 
HETATM    2  C2  UNL     1     -24.628  18.402  10.442  1.00 20.00     0.067 C 
HETATM    3  C3  UNL     1     -24.433  16.020  11.222  1.00 20.00     0.067 C 
HETATM    4  C4  UNL     1     -25.604  18.624  11.595  1.00 20.00     0.170 C 
HETATM    5  C5  UNL     1     -25.419  16.378  12.331  1.00 20.00     0.170 C 
HETATM    6  C6  UNL     1     -23.655  17.246  10.723  1.00 20.00     0.129 C 
HETATM    7  N7  UNL     1     -22.266  16.654   8.567  1.00 20.00    -0.195 NA
HETATM    8  O8  UNL     1     -26.300  17.418  11.908  1.00 20.00    -0.391 OA
HETATM    9 CL9  UNL     1     -22.454  17.751  11.964  1.00 20.00    -0.103 Cl
ENDROOT
TORSDOF 0
ENDMDL
MODEL 2
REMARK VINA RESULT:      -4.4      2.031      2.571
REMARK  0 active torsions:
REMARK  status: ('A' for Active; 'I' for Inactive)
ROOT
HETATM    1  C1  UNL     1     -22.191  17.284   8.188  1.00 20.00     0.085 C 
HETATM    2  C2  UNL     1     -23.832  16.442   9.838  1.00 20.00     0.067 C 
HETATM    3  C3  UNL     1     -21.855  17.803  10.584  1.00 20.00     0.067 C 
HETATM    4  C4  UNL     1     -24.387  16.607  11.251  1.00 20.00     0.170 C 
HETATM    5  C5  UNL     1     -22.523  17.891  11.954  1.00 20.00     0.170 C 
HETATM    6  C6  UNL     1     -22.874  17.581   9.457  1.00 20.00     0.129 C 
HETATM    7  N7  UNL     1     -21.653  17.050   7.187  1.00 20.00    -0.195 NA
HETATM    8  O8  UNL     1     -23.328  16.738  12.198  1.00 20.00    -0.391 OA
HETATM    9 CL9  UNL     1     -23.810  19.092   9.176  1.00 20.00    -0.103 Cl
ENDROOT
TORSDOF 0
ENDMDL
MODEL 3
REMARK VINA RESULT:      -4.2     19.617     19.962
REMARK  0 active torsions:
REMARK  status: ('A' for Active; 'I' for Inactive)
ROOT
HETATM    1  C1  UNL     1     -37.312  14.465  -4.507  1.00 20.00     0.085 C 
HETATM    2  C2  UNL     1     -34.924  14.402  -3.862  1.00 20.00     0.067 C 
HETATM    3  C3  UNL     1     -35.589  14.722  -6.265  1.00 20.00     0.067 C 
HETATM    4  C4  UNL     1     -33.501  14.763  -4.282  1.00 20.00     0.170 C 
HETATM    5  C5  UNL     1     -34.129  15.065  -6.548  1.00 20.00     0.170 C 
HETATM    6  C6  UNL     1     -35.976  15.004  -4.805  1.00 20.00     0.129 C 
HETATM    7  N7  UNL     1     -38.366  14.040  -4.272  1.00 20.00    -0.195 NA
HETATM    8  O8  UNL     1     -33.264  14.386  -5.638  1.00 20.00    -0.391 OA
HETATM    9 CL9  UNL     1     -36.086  16.780  -4.538  1.00 20.00    -0.103 Cl
ENDROOT
TORSDOF 0
ENDMDL
MODEL 4
REMARK VINA RESULT:      -4.2      2.950      3.633
REMARK  0 active torsions:
REMARK  status: ('A' for Active; 'I' for Inactive)
ROOT
HETATM    1  C1  UNL     1     -25.880  18.065  11.739  1.00 20.00     0.085 C 
HETATM    2  C2  UNL     1     -24.198  17.716   9.958  1.00 20.00     0.067 C 
HETATM    3  C3  UNL     1     -23.478  18.124  12.332  1.00 20.00     0.067 C 
HETATM    4  C4  UNL     1     -22.748  17.344   9.658  1.00 20.00     0.170 C 
HETATM    5  C5  UNL     1     -22.069  17.728  11.897  1.00 20.00     0.170 C 
HETATM    6  C6  UNL     1     -24.557  17.498  11.436  1.00 20.00     0.129 C 
HETATM    7  N7  UNL     1     -26.923  18.512  11.978  1.00 20.00    -0.195 NA
HETATM    8  O8  UNL     1     -21.856  18.048  10.522  1.00 20.00    -0.391 OA
HETATM    9 CL9  UNL     1     -24.682  15.735  11.776  1.00 20.00    -0.103 Cl
ENDROOT
TORSDOF 0
ENDMDL
MODEL 5
REMARK VINA RESULT:      -4.1      2.499      3.609
REMARK  0 active torsions:
REMARK  status: ('A' for Active; 'I' for Inactive)
ROOT
HETATM    1  C1  UNL     1     -24.243  16.351  11.104  1.00 20.00     0.085 C 
HETATM    2  C2  UNL     1     -22.810  16.612   9.104  1.00 20.00     0.067 C 
HETATM    3  C3  UNL     1     -24.515  18.364   9.691  1.00 20.00     0.067 C 
HETATM    4  C4  UNL     1     -22.255  17.599   8.079  1.00 20.00     0.170 C 
HETATM    5  C5  UNL     1     -23.863  19.251   8.633  1.00 20.00     0.170 C 
HETATM    6  C6  UNL     1     -23.537  17.323  10.255  1.00 20.00     0.129 C 
HETATM    7  N7  UNL     1     -24.800  15.584  11.773  1.00 20.00    -0.195 NA
HETATM    8  O8  UNL     1     -23.286  18.459   7.595  1.00 20.00    -0.391 OA
HETATM    9 CL9  UNL     1     -22.336  18.134  11.323  1.00 20.00    -0.103 Cl
ENDROOT
TORSDOF 0
ENDMDL
MODEL 6
REMARK VINA RESULT:      -4.1     17.887     18.181
REMARK  0 active torsions:
REMARK  status: ('A' for Active; 'I' for Inactive)
ROOT
HETATM    1  C1  UNL     1     -35.490  13.899  -4.276  1.00 20.00     0.085 C 
HETATM    2  C2  UNL     1     -35.563  15.694  -2.575  1.00 20.00     0.067 C 
HETATM    3  C3  UNL     1     -33.455  15.246  -3.870  1.00 20.00     0.067 C 
HETATM    4  C4  UNL     1     -34.897  16.973  -2.072  1.00 20.00     0.170 C 
HETATM    5  C5  UNL     1     -32.909  16.550  -3.293  1.00 20.00     0.170 C 
HETATM    6  C6  UNL     1     -34.990  15.237  -3.925  1.00 20.00     0.129 C 
HETATM    7  N7  UNL     1     -35.885  12.843  -4.553  1.00 20.00    -0.195 NA
HETATM    8  O8  UNL     1     -33.479  16.815  -2.012  1.00 20.00    -0.391 OA
HETATM    9 CL9  UNL     1     -35.558  16.338  -5.230  1.00 20.00    -0.103 Cl
ENDROOT
TORSDOF 0
ENDMDL
MODEL 7
REMARK VINA RESULT:      -4.1     18.064     18.358
REMARK  0 active torsions:
REMARK  status: ('A' for Active; 'I' for Inactive)
ROOT
HETATM    1  C1  UNL     1     -35.314  13.847  -4.312  1.00 20.00     0.085 C 
HETATM    2  C2  UNL     1     -34.879  16.165  -5.059  1.00 20.00     0.067 C 
HETATM    3  C3  UNL     1     -34.707  15.554  -2.627  1.00 20.00     0.067 C 
HETATM    4  C4  UNL     1     -34.231  17.499  -4.696  1.00 20.00     0.170 C 
HETATM    5  C5  UNL     1     -34.069  16.923  -2.402  1.00 20.00     0.170 C 
HETATM    6  C6  UNL     1     -34.510  15.054  -4.065  1.00 20.00     0.129 C 
HETATM    7  N7  UNL     1     -35.948  12.895  -4.506  1.00 20.00    -0.195 NA
HETATM    8  O8  UNL     1     -34.552  17.869  -3.355  1.00 20.00    -0.391 OA
HETATM    9 CL9  UNL     1     -32.795  14.567  -4.309  1.00 20.00    -0.103 Cl
ENDROOT
TORSDOF 0
ENDMDL
MODEL 8
REMARK VINA RESULT:      -4.0     19.155     19.451
REMARK  0 active torsions:
REMARK  status: ('A' for Active; 'I' for Inactive)
ROOT
HETATM    1  C1  UNL     1     -37.024  14.387  -4.547  1.00 20.00     0.085 C 
HETATM    2  C2  UNL     1     -35.662  16.452  -4.572  1.00 20.00     0.067 C 
HETATM    3  C3  UNL     1     -34.613  14.236  -4.013  1.00 20.00     0.067 C 
HETATM    4  C4  UNL     1     -34.247  17.019  -4.655  1.00 20.00     0.170 C 
HETATM    5  C5  UNL     1     -33.258  14.930  -4.128  1.00 20.00     0.170 C 
HETATM    6  C6  UNL     1     -35.695  14.940  -4.845  1.00 20.00     0.129 C 
HETATM    7  N7  UNL     1     -38.073  13.950  -4.311  1.00 20.00    -0.195 NA
HETATM    8  O8  UNL     1     -33.366  16.311  -3.784  1.00 20.00    -0.391 OA
HETATM    9 CL9  UNL     1     -35.411  14.634  -6.596  1.00 20.00    -0.103 Cl
ENDROOT
TORSDOF 0
ENDMDL
MODEL 9
REMARK VINA RESULT:      -4.0     23.179     23.506
REMARK  0 active torsions:
REMARK  status: ('A' for Active; 'I' for Inactive)
ROOT
HETATM    1  C1  UNL     1     -41.677   9.196   0.131  1.00 20.00     0.085 C 
HETATM    2  C2  UNL     1     -41.065   6.987  -0.802  1.00 20.00     0.067 C 
HETATM    3  C3  UNL     1     -42.858   7.181   0.950  1.00 20.00     0.067 C 
HETATM    4  C4  UNL     1     -41.513   5.541  -0.997  1.00 20.00     0.170 C 
HETATM    5  C5  UNL     1     -43.204   5.724   0.655  1.00 20.00     0.170 C 
HETATM    6  C6  UNL     1     -42.193   7.872  -0.250  1.00 20.00     0.129 C 
HETATM    7  N7  UNL     1     -41.270  10.240   0.432  1.00 20.00    -0.195 NA
HETATM    8  O8  UNL     1     -42.049   5.009   0.214  1.00 20.00    -0.391 OA
HETATM    9 CL9  UNL     1     -43.417   8.167  -1.536  1.00 20.00    -0.103 Cl
ENDROOT
TORSDOF 0
ENDMDL
