MODEL 1
REMARK VINA RESULT:      -4.0      0.000      0.000
REMARK  2 active torsions:
REMARK  status: ('A' for Active; 'I' for Inactive)
REMARK    1  A    between atoms: C4_4  and  C5_5 
REMARK    2  A    between atoms: C4_4  and  C6_6 
ROOT
HETATM    1  C1  UNL     1     -36.798  14.125  -4.595  1.00 20.00     0.079 C 
HETATM    2  C5  UNL     1     -35.388  14.388  -4.905  1.00 20.00     0.189 C 
HETATM    3  N7  UNL     1     -37.911  13.912  -4.348  1.00 20.00    -0.196 NA
HETATM    4 CL8  UNL     1     -35.337  15.882  -5.892  1.00 20.00    -0.109 Cl
ENDROOT
BRANCH   2   5
HETATM    5  C4  UNL     1     -34.535  14.584  -3.646  1.00 20.00     0.039 C 
BRANCH   5   6
HETATM    6  C6  UNL     1     -34.456  16.038  -3.133  1.00 20.00    -0.020 C 
HETATM    7  C2  UNL     1     -35.135  16.215  -1.774  1.00 20.00     0.009 C 
HETATM    8  C3  UNL     1     -32.991  16.474  -3.037  1.00 20.00     0.009 C 
ENDBRANCH   5   6
ENDBRANCH   2   5
TORSDOF 2
ENDMDL
MODEL 2
REMARK VINA RESULT:      -4.0     18.129     19.005
REMARK  2 active torsions:
REMARK  status: ('A' for Active; 'I' for Inactive)
REMARK    1  A    between atoms: C4_4  and  C5_5 
REMARK    2  A    between atoms: C4_4  and  C6_6 
ROOT
HETATM    1  C1  UNL     1     -22.187  17.467   8.336  1.00 20.00     0.079 C 
HETATM    2  C5  UNL     1     -22.833  18.038   9.523  1.00 20.00     0.189 C 
HETATM    3  N7  UNL     1     -21.672  17.013   7.401  1.00 20.00    -0.196 NA
HETATM    4 CL8  UNL     1     -24.006  19.263   8.946  1.00 20.00    -0.109 Cl
ENDROOT
BRANCH   2   5
HETATM    5  C4  UNL     1     -23.572  16.983  10.356  1.00 20.00     0.039 C 
BRANCH   5   6
HETATM    6  C6  UNL     1     -23.501  17.195  11.884  1.00 20.00    -0.020 C 
HETATM    7  C2  UNL     1     -22.161  17.782  12.331  1.00 20.00     0.009 C 
HETATM    8  C3  UNL     1     -24.641  18.114  12.332  1.00 20.00     0.009 C 
ENDBRANCH   5   6
ENDBRANCH   2   5
TORSDOF 2
ENDMDL
MODEL 3
REMARK VINA RESULT:      -4.0     11.219     11.712
REMARK  2 active torsions:
REMARK  status: ('A' for Active; 'I' for Inactive)
REMARK    1  A    between atoms: C4_4  and  C5_5 
REMARK    2  A    between atoms: C4_4  and  C6_6 
ROOT
HETATM    1  C1  UNL     1     -32.694   7.790   1.518  1.00 20.00     0.079 C 
HETATM    2  C5  UNL     1     -32.622   6.923   2.699  1.00 20.00     0.189 C 
HETATM    3  N7  UNL     1     -32.754   8.473   0.582  1.00 20.00    -0.196 NA
HETATM    4 CL8  UNL     1     -31.414   7.645   3.808  1.00 20.00    -0.109 Cl
ENDROOT
BRANCH   2   5
HETATM    5  C4  UNL     1     -33.967   6.802   3.425  1.00 20.00     0.039 C 
BRANCH   5   6
HETATM    6  C6  UNL     1     -33.953   5.894   4.674  1.00 20.00    -0.020 C 
HETATM    7  C2  UNL     1     -34.106   6.686   5.973  1.00 20.00     0.009 C 
HETATM    8  C3  UNL     1     -35.072   4.854   4.569  1.00 20.00     0.009 C 
ENDBRANCH   5   6
ENDBRANCH   2   5
TORSDOF 2
ENDMDL
MODEL 4
REMARK VINA RESULT:      -3.9      0.731      1.471
REMARK  2 active torsions:
REMARK  status: ('A' for Active; 'I' for Inactive)
REMARK    1  A    between atoms: C4_4  and  C5_5 
REMARK    2  A    between atoms: C4_4  and  C6_6 
ROOT
HETATM    1  C1  UNL     1     -36.963  14.219  -4.568  1.00 20.00     0.079 C 
HETATM    2  C5  UNL     1     -35.566  14.531  -4.889  1.00 20.00     0.189 C 
HETATM    3  N7  UNL     1     -38.067  13.973  -4.310  1.00 20.00    -0.196 NA
HETATM    4 CL8  UNL     1     -35.446  14.634  -6.673  1.00 20.00    -0.109 Cl
ENDROOT
BRANCH   2   5
HETATM    5  C4  UNL     1     -35.101  15.856  -4.273  1.00 20.00     0.039 C 
BRANCH   5   6
HETATM    6  C6  UNL     1     -34.297  15.717  -2.962  1.00 20.00    -0.020 C 
HETATM    7  C2  UNL     1     -32.979  16.491  -3.001  1.00 20.00     0.009 C 
HETATM    8  C3  UNL     1     -35.145  16.202  -1.782  1.00 20.00     0.009 C 
ENDBRANCH   5   6
ENDBRANCH   2   5
TORSDOF 2
ENDMDL
MODEL 5
REMARK VINA RESULT:      -3.8      1.717      2.174
REMARK  2 active torsions:
REMARK  status: ('A' for Active; 'I' for Inactive)
REMARK    1  A    between atoms: C4_4  and  C5_5 
REMARK    2  A    between atoms: C4_4  and  C6_6 
ROOT
HETATM    1  C1  UNL     1     -36.194  13.773  -4.628  1.00 20.00     0.079 C 
HETATM    2  C5  UNL     1     -36.656  15.152  -4.820  1.00 20.00     0.189 C 
HETATM    3  N7  UNL     1     -35.825  12.683  -4.479  1.00 20.00    -0.196 NA
HETATM    4 CL8  UNL     1     -38.296  15.262  -4.108  1.00 20.00    -0.109 Cl
ENDROOT
BRANCH   2   5
HETATM    5  C4  UNL     1     -35.741  16.180  -4.144  1.00 20.00     0.039 C 
BRANCH   5   6
HETATM    6  C6  UNL     1     -34.801  15.603  -3.063  1.00 20.00    -0.020 C 
HETATM    7  C2  UNL     1     -33.324  15.776  -3.421  1.00 20.00     0.009 C 
HETATM    8  C3  UNL     1     -35.088  16.275  -1.717  1.00 20.00     0.009 C 
ENDBRANCH   5   6
ENDBRANCH   2   5
TORSDOF 2
ENDMDL
MODEL 6
REMARK VINA RESULT:      -3.7     11.594     12.051
REMARK  2 active torsions:
REMARK  status: ('A' for Active; 'I' for Inactive)
REMARK    1  A    between atoms: C4_4  and  C5_5 
REMARK    2  A    between atoms: C4_4  and  C6_6 
ROOT
HETATM    1  C1  UNL     1     -32.672   7.291   1.685  1.00 20.00     0.079 C 
HETATM    2  C5  UNL     1     -33.432   6.362   2.528  1.00 20.00     0.189 C 
HETATM    3  N7  UNL     1     -32.073   8.030   1.020  1.00 20.00    -0.196 NA
HETATM    4 CL8  UNL     1     -32.826   4.714   2.173  1.00 20.00    -0.109 Cl
ENDROOT
BRANCH   2   5
HETATM    5  C4  UNL     1     -33.266   6.652   4.024  1.00 20.00     0.039 C 
BRANCH   5   6
HETATM    6  C6  UNL     1     -34.494   6.306   4.894  1.00 20.00    -0.020 C 
HETATM    7  C2  UNL     1     -34.941   4.854   4.722  1.00 20.00     0.009 C 
HETATM    8  C3  UNL     1     -34.175   6.575   6.368  1.00 20.00     0.009 C 
ENDBRANCH   5   6
ENDBRANCH   2   5
TORSDOF 2
ENDMDL
MODEL 7
REMARK VINA RESULT:      -3.6     18.165     18.892
REMARK  2 active torsions:
REMARK  status: ('A' for Active; 'I' for Inactive)
REMARK    1  A    between atoms: C4_4  and  C5_5 
REMARK    2  A    between atoms: C4_4  and  C6_6 
ROOT
HETATM    1  C1  UNL     1     -25.271  18.289  12.069  1.00 20.00     0.079 C 
HETATM    2  C5  UNL     1     -24.081  17.431  12.035  1.00 20.00     0.189 C 
HETATM    3  N7  UNL     1     -26.209  18.971  12.098  1.00 20.00    -0.196 NA
HETATM    4 CL8  UNL     1     -24.629  15.791  11.564  1.00 20.00    -0.109 Cl
ENDROOT
BRANCH   2   5
HETATM    5  C4  UNL     1     -23.030  17.921  11.032  1.00 20.00     0.039 C 
BRANCH   5   6
HETATM    6  C6  UNL     1     -23.442  17.804   9.548  1.00 20.00    -0.020 C 
HETATM    7  C2  UNL     1     -23.680  19.168   8.900  1.00 20.00     0.009 C 
HETATM    8  C3  UNL     1     -22.363  17.045   8.771  1.00 20.00     0.009 C 
ENDBRANCH   5   6
ENDBRANCH   2   5
TORSDOF 2
ENDMDL
MODEL 8
REMARK VINA RESULT:      -3.6     11.706     12.169
REMARK  2 active torsions:
REMARK  status: ('A' for Active; 'I' for Inactive)
REMARK    1  A    between atoms: C4_4  and  C5_5 
REMARK    2  A    between atoms: C4_4  and  C6_6 
ROOT
HETATM    1  C1  UNL     1     -32.894   5.313   2.376  1.00 20.00     0.079 C 
HETATM    2  C5  UNL     1     -32.657   6.649   2.934  1.00 20.00     0.189 C 
HETATM    3  N7  UNL     1     -33.081   4.255   1.939  1.00 20.00    -0.196 NA
HETATM    4 CL8  UNL     1     -32.656   7.800   1.562  1.00 20.00    -0.109 Cl
ENDROOT
BRANCH   2   5
HETATM    5  C4  UNL     1     -33.734   7.066   3.943  1.00 20.00     0.039 C 
BRANCH   5   6
HETATM    6  C6  UNL     1     -34.142   5.968   4.950  1.00 20.00    -0.020 C 
HETATM    7  C2  UNL     1     -34.295   6.508   6.372  1.00 20.00     0.009 C 
HETATM    8  C3  UNL     1     -35.455   5.318   4.501  1.00 20.00     0.009 C 
ENDBRANCH   5   6
ENDBRANCH   2   5
TORSDOF 2
ENDMDL
MODEL 9
REMARK VINA RESULT:      -3.5      4.177      5.278
REMARK  2 active torsions:
REMARK  status: ('A' for Active; 'I' for Inactive)
REMARK    1  A    between atoms: C4_4  and  C5_5 
REMARK    2  A    between atoms: C4_4  and  C6_6 
ROOT
HETATM    1  C1  UNL     1     -31.696  18.186  -0.856  1.00 20.00     0.079 C 
HETATM    2  C5  UNL     1     -33.006  17.789  -1.384  1.00 20.00     0.189 C 
HETATM    3  N7  UNL     1     -30.659  18.495  -0.438  1.00 20.00    -0.196 NA
HETATM    4 CL8  UNL     1     -34.023  19.263  -1.431  1.00 20.00    -0.109 Cl
ENDROOT
BRANCH   2   5
HETATM    5  C4  UNL     1     -32.917  17.190  -2.792  1.00 20.00     0.039 C 
BRANCH   5   6
HETATM    6  C6  UNL     1     -33.718  15.886  -2.997  1.00 20.00    -0.020 C 
HETATM    7  C2  UNL     1     -35.024  15.872  -2.202  1.00 20.00     0.009 C 
HETATM    8  C3  UNL     1     -34.020  15.694  -4.486  1.00 20.00     0.009 C 
ENDBRANCH   5   6
ENDBRANCH   2   5
TORSDOF 2
ENDMDL
