MODEL 1
REMARK VINA RESULT:      -3.8      0.000      0.000
REMARK  1 active torsions:
REMARK  status: ('A' for Active; 'I' for Inactive)
REMARK    1  A    between atoms: C4_4  and  C5_5 
ROOT
HETATM    1  C1  UNL     1     -35.354  13.821  -4.309  1.00 20.00     0.085 C 
HETATM    2  C3  UNL     1     -33.088  14.770  -4.263  1.00 20.00     0.049 C 
HETATM    3  C5  UNL     1     -34.581  15.052  -4.061  1.00 20.00     0.121 C 
HETATM    4  N6  UNL     1     -35.960  12.851  -4.502  1.00 20.00    -0.195 NA
HETATM    5 CL7  UNL     1     -35.091  16.254  -5.293  1.00 20.00    -0.103 Cl
ENDROOT
BRANCH   3   6
HETATM    6  C4  UNL     1     -34.823  15.595  -2.638  1.00 20.00     0.036 C 
HETATM    7  C2  UNL     1     -33.873  16.701  -2.180  1.00 20.00     0.008 C 
ENDBRANCH   3   6
TORSDOF 1
ENDMDL
MODEL 2
REMARK VINA RESULT:      -3.7     18.331     18.602
REMARK  1 active torsions:
REMARK  status: ('A' for Active; 'I' for Inactive)
REMARK    1  A    between atoms: C4_4  and  C5_5 
ROOT
HETATM    1  C1  UNL     1     -23.152  16.891   9.869  1.00 20.00     0.085 C 
HETATM    2  C3  UNL     1     -24.627  15.930  11.583  1.00 20.00     0.049 C 
HETATM    3  C5  UNL     1     -23.946  17.203  11.071  1.00 20.00     0.121 C 
HETATM    4  N6  UNL     1     -22.531  16.642   8.921  1.00 20.00    -0.195 NA
HETATM    5 CL7  UNL     1     -22.796  17.763  12.332  1.00 20.00    -0.103 Cl
ENDROOT
BRANCH   3   6
HETATM    6  C4  UNL     1     -25.007  18.286  10.784  1.00 20.00     0.036 C 
HETATM    7  C2  UNL     1     -25.837  18.734  11.985  1.00 20.00     0.008 C 
ENDBRANCH   3   6
TORSDOF 1
ENDMDL
MODEL 3
REMARK VINA RESULT:      -3.7     10.458     11.508
REMARK  1 active torsions:
REMARK  status: ('A' for Active; 'I' for Inactive)
REMARK    1  A    between atoms: C4_4  and  C5_5 
ROOT
HETATM    1  C1  UNL     1     -41.811   8.981   0.218  1.00 20.00     0.085 C 
HETATM    2  C3  UNL     1     -43.417   7.311   1.035  1.00 20.00     0.049 C 
HETATM    3  C5  UNL     1     -42.288   7.598   0.039  1.00 20.00     0.121 C 
HETATM    4  N6  UNL     1     -41.435  10.070   0.363  1.00 20.00    -0.195 NA
HETATM    5 CL7  UNL     1     -42.968   7.484  -1.619  1.00 20.00    -0.103 Cl
ENDROOT
BRANCH   3   6
HETATM    6  C4  UNL     1     -41.149   6.576   0.231  1.00 20.00     0.036 C 
HETATM    7  C2  UNL     1     -40.968   5.566  -0.900  1.00 20.00     0.008 C 
ENDBRANCH   3   6
TORSDOF 1
ENDMDL
MODEL 4
REMARK VINA RESULT:      -3.6      1.351      1.432
REMARK  1 active torsions:
REMARK  status: ('A' for Active; 'I' for Inactive)
REMARK    1  A    between atoms: C4_4  and  C5_5 
ROOT
HETATM    1  C1  UNL     1     -35.735  13.912  -4.310  1.00 20.00     0.085 C 
HETATM    2  C3  UNL     1     -34.861  16.021  -5.219  1.00 20.00     0.049 C 
HETATM    3  C5  UNL     1     -35.567  15.351  -4.035  1.00 20.00     0.121 C 
HETATM    4  N6  UNL     1     -35.863  12.780  -4.528  1.00 20.00    -0.195 NA
HETATM    5 CL7  UNL     1     -37.212  16.057  -3.897  1.00 20.00    -0.103 Cl
ENDROOT
BRANCH   3   6
HETATM    6  C4  UNL     1     -34.761  15.590  -2.742  1.00 20.00     0.036 C 
HETATM    7  C2  UNL     1     -33.394  16.245  -2.925  1.00 20.00     0.008 C 
ENDBRANCH   3   6
TORSDOF 1
ENDMDL
MODEL 5
REMARK VINA RESULT:      -3.5     10.710     11.611
REMARK  1 active torsions:
REMARK  status: ('A' for Active; 'I' for Inactive)
REMARK    1  A    between atoms: C4_4  and  C5_5 
ROOT
HETATM    1  C1  UNL     1     -42.762   7.224  -1.126  1.00 20.00     0.085 C 
HETATM    2  C3  UNL     1     -42.824   5.734   0.827  1.00 20.00     0.049 C 
HETATM    3  C5  UNL     1     -41.934   6.579  -0.091  1.00 20.00     0.121 C 
HETATM    4  N6  UNL     1     -43.416   7.733  -1.937  1.00 20.00    -0.195 NA
HETATM    5 CL7  UNL     1     -40.799   5.474  -0.935  1.00 20.00    -0.103 Cl
ENDROOT
BRANCH   3   6
HETATM    6  C4  UNL     1     -41.160   7.619   0.745  1.00 20.00     0.036 C 
HETATM    7  C2  UNL     1     -41.318   9.073   0.305  1.00 20.00     0.008 C 
ENDBRANCH   3   6
TORSDOF 1
ENDMDL
MODEL 6
REMARK VINA RESULT:      -3.5      1.636      2.455
REMARK  1 active torsions:
REMARK  status: ('A' for Active; 'I' for Inactive)
REMARK    1  A    between atoms: C4_4  and  C5_5 
ROOT
HETATM    1  C1  UNL     1     -35.321  13.832  -4.337  1.00 20.00     0.085 C 
HETATM    2  C3  UNL     1     -34.737  15.584  -2.717  1.00 20.00     0.049 C 
HETATM    3  C5  UNL     1     -34.520  15.054  -4.138  1.00 20.00     0.121 C 
HETATM    4  N6  UNL     1     -35.955  12.873  -4.492  1.00 20.00    -0.195 NA
HETATM    5 CL7  UNL     1     -32.794  14.586  -4.300  1.00 20.00    -0.103 Cl
ENDROOT
BRANCH   3   6
HETATM    6  C4  UNL     1     -34.887  16.145  -5.165  1.00 20.00     0.036 C 
HETATM    7  C2  UNL     1     -34.476  15.860  -6.609  1.00 20.00     0.008 C 
ENDBRANCH   3   6
TORSDOF 1
ENDMDL
MODEL 7
REMARK VINA RESULT:      -3.5     10.918     11.796
REMARK  1 active torsions:
REMARK  status: ('A' for Active; 'I' for Inactive)
REMARK    1  A    between atoms: C4_4  and  C5_5 
ROOT
HETATM    1  C1  UNL     1     -41.353   5.762  -0.697  1.00 20.00     0.085 C 
HETATM    2  C3  UNL     1     -43.245   7.325  -0.821  1.00 20.00     0.049 C 
HETATM    3  C5  UNL     1     -42.173   6.706   0.083  1.00 20.00     0.121 C 
HETATM    4  N6  UNL     1     -40.707   5.022  -1.315  1.00 20.00    -0.195 NA
HETATM    5 CL7  UNL     1     -43.004   5.755   1.359  1.00 20.00    -0.103 Cl
ENDROOT
BRANCH   3   6
HETATM    6  C4  UNL     1     -41.311   7.821   0.710  1.00 20.00     0.036 C 
HETATM    7  C2  UNL     1     -41.552   9.229   0.169  1.00 20.00     0.008 C 
ENDBRANCH   3   6
TORSDOF 1
ENDMDL
MODEL 8
REMARK VINA RESULT:      -3.5     18.368     19.139
REMARK  1 active torsions:
REMARK  status: ('A' for Active; 'I' for Inactive)
REMARK    1  A    between atoms: C4_4  and  C5_5 
ROOT
HETATM    1  C1  UNL     1     -22.898  17.687  11.965  1.00 20.00     0.085 C 
HETATM    2  C3  UNL     1     -24.371  17.977  10.020  1.00 20.00     0.049 C 
HETATM    3  C5  UNL     1     -24.291  17.572  11.496  1.00 20.00     0.121 C 
HETATM    4  N6  UNL     1     -21.802  17.782  12.332  1.00 20.00    -0.195 NA
HETATM    5 CL7  UNL     1     -24.750  15.841  11.622  1.00 20.00    -0.103 Cl
ENDROOT
BRANCH   3   6
HETATM    6  C4  UNL     1     -25.245  18.450  12.332  1.00 20.00     0.036 C 
HETATM    7  C2  UNL     1     -26.733  18.139  12.182  1.00 20.00     0.008 C 
ENDBRANCH   3   6
TORSDOF 1
ENDMDL
MODEL 9
REMARK VINA RESULT:      -3.5     11.104     11.939
REMARK  1 active torsions:
REMARK  status: ('A' for Active; 'I' for Inactive)
REMARK    1  A    between atoms: C4_4  and  C5_5 
ROOT
HETATM    1  C1  UNL     1     -42.789   5.704   0.762  1.00 20.00     0.085 C 
HETATM    2  C3  UNL     1     -40.970   5.650  -0.890  1.00 20.00     0.049 C 
HETATM    3  C5  UNL     1     -41.985   6.533  -0.155  1.00 20.00     0.121 C 
HETATM    4  N6  UNL     1     -43.417   5.050   1.485  1.00 20.00    -0.195 NA
HETATM    5 CL7  UNL     1     -43.113   7.215  -1.375  1.00 20.00    -0.103 Cl
ENDROOT
BRANCH   3   6
HETATM    6  C4  UNL     1     -41.250   7.661   0.597  1.00 20.00     0.036 C 
HETATM    7  C2  UNL     1     -41.596   9.083   0.160  1.00 20.00     0.008 C 
ENDBRANCH   3   6
TORSDOF 1
ENDMDL
