MODEL 1
REMARK VINA RESULT:      -4.1      0.000      0.000
REMARK  1 active torsions:
REMARK  status: ('A' for Active; 'I' for Inactive)
REMARK    1  A    between atoms: C5_5  and  C6_6 
ROOT
HETATM    1  C1  UNL     1     -22.921  18.490   9.401  1.00 20.00     0.080 C 
HETATM    2  C5  UNL     1     -24.198  17.984   9.931  1.00 20.00     0.196 C 
HETATM    3  N7  UNL     1     -21.914  18.885   8.980  1.00 20.00    -0.196 NA
HETATM    4 CL8  UNL     1     -25.416  19.263   9.618  1.00 20.00    -0.109 Cl
ENDROOT
BRANCH   2   5
HETATM    5  C6  UNL     1     -24.127  17.561  11.430  1.00 20.00    -0.022 C 
HETATM    6  C2  UNL     1     -25.151  18.367  12.260  1.00 20.00     0.017 C 
HETATM    7  C3  UNL     1     -24.499  16.066  11.568  1.00 20.00     0.017 C 
HETATM    8  C4  UNL     1     -22.729  17.772  12.045  1.00 20.00     0.017 C 
ENDBRANCH   2   5
TORSDOF 1
ENDMDL
MODEL 2
REMARK VINA RESULT:      -3.9     18.189     18.994
REMARK  1 active torsions:
REMARK  status: ('A' for Active; 'I' for Inactive)
REMARK    1  A    between atoms: C5_5  and  C6_6 
ROOT
HETATM    1  C1  UNL     1     -35.805  13.917  -4.550  1.00 20.00     0.080 C 
HETATM    2  C5  UNL     1     -35.701  15.383  -4.639  1.00 20.00     0.196 C 
HETATM    3  N7  UNL     1     -35.892  12.762  -4.479  1.00 20.00    -0.196 NA
HETATM    4 CL8  UNL     1     -35.546  15.772  -6.383  1.00 20.00    -0.109 Cl
ENDROOT
BRANCH   2   5
HETATM    5  C6  UNL     1     -34.549  15.981  -3.775  1.00 20.00    -0.022 C 
HETATM    6  C2  UNL     1     -34.903  15.884  -2.274  1.00 20.00     0.017 C 
HETATM    7  C3  UNL     1     -33.255  15.165  -3.996  1.00 20.00     0.017 C 
HETATM    8  C4  UNL     1     -34.255  17.457  -4.111  1.00 20.00     0.017 C 
ENDBRANCH   2   5
TORSDOF 1
ENDMDL
MODEL 3
REMARK VINA RESULT:      -3.9     18.164     19.015
REMARK  1 active torsions:
REMARK  status: ('A' for Active; 'I' for Inactive)
REMARK    1  A    between atoms: C5_5  and  C6_6 
ROOT
HETATM    1  C1  UNL     1     -35.768  13.962  -4.624  1.00 20.00     0.080 C 
HETATM    2  C5  UNL     1     -35.560  15.414  -4.759  1.00 20.00     0.196 C 
HETATM    3  N7  UNL     1     -35.936  12.819  -4.516  1.00 20.00    -0.196 NA
HETATM    4 CL8  UNL     1     -35.128  15.702  -6.476  1.00 20.00    -0.109 Cl
ENDROOT
BRANCH   2   5
HETATM    5  C6  UNL     1     -34.511  15.990  -3.759  1.00 20.00    -0.022 C 
HETATM    6  C2  UNL     1     -33.168  15.242  -3.906  1.00 20.00     0.017 C 
HETATM    7  C3  UNL     1     -34.247  17.478  -4.082  1.00 20.00     0.017 C 
HETATM    8  C4  UNL     1     -34.967  15.886  -2.290  1.00 20.00     0.017 C 
ENDBRANCH   2   5
TORSDOF 1
ENDMDL
MODEL 4
REMARK VINA RESULT:      -3.8     18.176     18.979
REMARK  1 active torsions:
REMARK  status: ('A' for Active; 'I' for Inactive)
REMARK    1  A    between atoms: C5_5  and  C6_6 
ROOT
HETATM    1  C1  UNL     1     -35.790  13.971  -4.609  1.00 20.00     0.080 C 
HETATM    2  C5  UNL     1     -35.634  15.432  -4.699  1.00 20.00     0.196 C 
HETATM    3  N7  UNL     1     -35.918  12.820  -4.536  1.00 20.00    -0.196 NA
HETATM    4 CL8  UNL     1     -35.355  15.802  -6.432  1.00 20.00    -0.109 Cl
ENDROOT
BRANCH   2   5
HETATM    5  C6  UNL     1     -34.521  16.000  -3.766  1.00 20.00    -0.022 C 
HETATM    6  C2  UNL     1     -34.299  17.501  -4.054  1.00 20.00     0.017 C 
HETATM    7  C3  UNL     1     -34.965  15.876  -2.290  1.00 20.00     0.017 C 
HETATM    8  C4  UNL     1     -33.173  15.268  -3.931  1.00 20.00     0.017 C 
ENDBRANCH   2   5
TORSDOF 1
ENDMDL
MODEL 5
REMARK VINA RESULT:      -3.8      1.903      2.471
REMARK  1 active torsions:
REMARK  status: ('A' for Active; 'I' for Inactive)
REMARK    1  A    between atoms: C5_5  and  C6_6 
ROOT
HETATM    1  C1  UNL     1     -24.335  18.659   8.936  1.00 20.00     0.080 C 
HETATM    2  C5  UNL     1     -23.300  18.228   9.890  1.00 20.00     0.196 C 
HETATM    3  N7  UNL     1     -25.150  19.005   8.184  1.00 20.00    -0.196 NA
HETATM    4 CL8  UNL     1     -22.296  17.017   9.028  1.00 20.00    -0.109 Cl
ENDROOT
BRANCH   2   5
HETATM    5  C6  UNL     1     -23.877  17.696  11.238  1.00 20.00    -0.022 C 
HETATM    6  C2  UNL     1     -24.294  16.216  11.092  1.00 20.00     0.017 C 
HETATM    7  C3  UNL     1     -22.787  17.761  12.332  1.00 20.00     0.017 C 
HETATM    8  C4  UNL     1     -25.100  18.500  11.723  1.00 20.00     0.017 C 
ENDBRANCH   2   5
TORSDOF 1
ENDMDL
MODEL 6
REMARK VINA RESULT:      -3.7     18.491     19.266
REMARK  1 active torsions:
REMARK  status: ('A' for Active; 'I' for Inactive)
REMARK    1  A    between atoms: C5_5  and  C6_6 
ROOT
HETATM    1  C1  UNL     1     -37.132  14.793  -4.386  1.00 20.00     0.080 C 
HETATM    2  C5  UNL     1     -36.182  15.915  -4.458  1.00 20.00     0.196 C 
HETATM    3  N7  UNL     1     -37.885  13.911  -4.328  1.00 20.00    -0.196 NA
HETATM    4 CL8  UNL     1     -35.905  16.230  -6.202  1.00 20.00    -0.109 Cl
ENDROOT
BRANCH   2   5
HETATM    5  C6  UNL     1     -34.862  15.668  -3.665  1.00 20.00    -0.022 C 
HETATM    6  C2  UNL     1     -35.100  15.886  -2.154  1.00 20.00     0.017 C 
HETATM    7  C3  UNL     1     -34.409  14.202  -3.852  1.00 20.00     0.017 C 
HETATM    8  C4  UNL     1     -33.713  16.592  -4.115  1.00 20.00     0.017 C 
ENDBRANCH   2   5
TORSDOF 1
ENDMDL
MODEL 7
REMARK VINA RESULT:      -3.7      2.207      3.047
REMARK  1 active torsions:
REMARK  status: ('A' for Active; 'I' for Inactive)
REMARK    1  A    between atoms: C5_5  and  C6_6 
ROOT
HETATM    1  C1  UNL     1     -25.777  18.598  11.348  1.00 20.00     0.080 C 
HETATM    2  C5  UNL     1     -24.547  18.546  10.542  1.00 20.00     0.196 C 
HETATM    3  N7  UNL     1     -26.746  18.644  11.986  1.00 20.00    -0.196 NA
HETATM    4 CL8  UNL     1     -25.059  18.698   8.830  1.00 20.00    -0.109 Cl
ENDROOT
BRANCH   2   5
HETATM    5  C6  UNL     1     -23.679  17.278  10.809  1.00 20.00    -0.022 C 
HETATM    6  C2  UNL     1     -22.865  16.913   9.548  1.00 20.00     0.017 C 
HETATM    7  C3  UNL     1     -22.667  17.568  11.942  1.00 20.00     0.017 C 
HETATM    8  C4  UNL     1     -24.523  16.052  11.215  1.00 20.00     0.017 C 
ENDBRANCH   2   5
TORSDOF 1
ENDMDL
MODEL 8
REMARK VINA RESULT:      -3.7     16.240     17.134
REMARK  1 active torsions:
REMARK  status: ('A' for Active; 'I' for Inactive)
REMARK    1  A    between atoms: C5_5  and  C6_6 
ROOT
HETATM    1  C1  UNL     1     -33.013   6.811   3.187  1.00 20.00     0.080 C 
HETATM    2  C5  UNL     1     -33.991   6.762   4.286  1.00 20.00     0.196 C 
HETATM    3  N7  UNL     1     -32.245   6.853   2.318  1.00 20.00    -0.196 NA
HETATM    4 CL8  UNL     1     -33.119   7.292   5.761  1.00 20.00    -0.109 Cl
ENDROOT
BRANCH   2   5
HETATM    5  C6  UNL     1     -34.679   5.372   4.449  1.00 20.00    -0.022 C 
HETATM    6  C2  UNL     1     -34.765   4.991   5.944  1.00 20.00     0.017 C 
HETATM    7  C3  UNL     1     -36.125   5.438   3.907  1.00 20.00     0.017 C 
HETATM    8  C4  UNL     1     -33.932   4.246   3.704  1.00 20.00     0.017 C 
ENDBRANCH   2   5
TORSDOF 1
ENDMDL
MODEL 9
REMARK VINA RESULT:      -3.7     18.026     18.847
REMARK  1 active torsions:
REMARK  status: ('A' for Active; 'I' for Inactive)
REMARK    1  A    between atoms: C5_5  and  C6_6 
ROOT
HETATM    1  C1  UNL     1     -35.493  13.856  -4.495  1.00 20.00     0.080 C 
HETATM    2  C5  UNL     1     -34.710  15.097  -4.605  1.00 20.00     0.196 C 
HETATM    3  N7  UNL     1     -36.113  12.878  -4.412  1.00 20.00    -0.196 NA
HETATM    4 CL8  UNL     1     -33.001  14.642  -4.306  1.00 20.00    -0.109 Cl
ENDROOT
BRANCH   2   5
HETATM    5  C6  UNL     1     -35.211  16.238  -3.668  1.00 20.00    -0.022 C 
HETATM    6  C2  UNL     1     -34.528  17.573  -4.040  1.00 20.00     0.017 C 
HETATM    7  C3  UNL     1     -36.733  16.433  -3.853  1.00 20.00     0.017 C 
HETATM    8  C4  UNL     1     -34.936  15.950  -2.178  1.00 20.00     0.017 C 
ENDBRANCH   2   5
TORSDOF 1
ENDMDL
