MODEL 1
REMARK VINA RESULT:      -5.0      0.000      0.000
REMARK  0 active torsions:
REMARK  status: ('A' for Active; 'I' for Inactive)
ROOT
HETATM    1  C1  UNL     1     -34.399   7.493   5.324  1.00 20.00     0.022 A 
HETATM    2  C2  UNL     1     -34.403   4.844   3.664  1.00 20.00     0.120 C 
HETATM    3  C3  UNL     1     -34.685   5.212   5.906  1.00 20.00     0.101 C 
HETATM    4  C4  UNL     1     -33.810   6.417   5.852  1.00 20.00     0.025 A 
HETATM    5  C5  UNL     1     -33.635   5.939   3.482  1.00 20.00    -0.048 C 
HETATM    6  C6  UNL     1     -32.830   7.693   1.750  1.00 20.00     0.014 A 
HETATM    7  C7  UNL     1     -32.078   7.651   4.281  1.00 20.00     0.021 C 
HETATM    8  C8  UNL     1     -32.809   6.298   2.312  1.00 20.00     0.021 A 
HETATM    9  C9  UNL     1     -31.821   7.346   2.812  1.00 20.00    -0.005 A 
HETATM   10  C10 UNL     1     -33.335   6.896   4.572  1.00 20.00     0.004 A 
HETATM   11  N11 UNL     1     -34.986   4.483   4.869  1.00 20.00    -0.276 NA
ENDROOT
TORSDOF 0
ENDMDL
MODEL 2
REMARK VINA RESULT:      -5.0     11.388     12.229
REMARK  0 active torsions:
REMARK  status: ('A' for Active; 'I' for Inactive)
ROOT
HETATM    1  C1  UNL     1     -35.964  15.920  -3.633  1.00 20.00     0.022 A 
HETATM    2  C2  UNL     1     -32.918  15.292  -3.953  1.00 20.00     0.120 C 
HETATM    3  C3  UNL     1     -34.757  13.935  -4.108  1.00 20.00     0.101 C 
HETATM    4  C4  UNL     1     -35.500  14.775  -3.127  1.00 20.00     0.025 A 
HETATM    5  C5  UNL     1     -33.505  16.151  -3.094  1.00 20.00    -0.048 C 
HETATM    6  C6  UNL     1     -33.490  18.585  -2.200  1.00 20.00     0.014 A 
HETATM    7  C7  UNL     1     -35.135  16.701  -1.352  1.00 20.00     0.021 C 
HETATM    8  C8  UNL     1     -32.875  17.215  -2.287  1.00 20.00     0.021 A 
HETATM    9  C9  UNL     1     -33.877  17.542  -1.185  1.00 20.00    -0.005 A 
HETATM   10  C10 UNL     1     -34.914  16.014  -2.661  1.00 20.00     0.004 A 
HETATM   11  N11 UNL     1     -33.547  14.192  -4.518  1.00 20.00    -0.276 NA
ENDROOT
TORSDOF 0
ENDMDL
MODEL 3
REMARK VINA RESULT:      -4.9     11.622     12.376
REMARK  0 active torsions:
REMARK  status: ('A' for Active; 'I' for Inactive)
ROOT
HETATM    1  C1  UNL     1     -33.167  17.981  -3.143  1.00 20.00     0.022 A 
HETATM    2  C2  UNL     1     -35.224  16.820  -1.095  1.00 20.00     0.120 C 
HETATM    3  C3  UNL     1     -33.325  18.061  -0.778  1.00 20.00     0.101 C 
HETATM    4  C4  UNL     1     -32.700  17.476  -1.998  1.00 20.00     0.025 A 
HETATM    5  C5  UNL     1     -34.782  16.259  -2.240  1.00 20.00    -0.048 C 
HETATM    6  C6  UNL     1     -35.510  15.147  -4.467  1.00 20.00     0.014 A 
HETATM    7  C7  UNL     1     -32.998  15.508  -3.739  1.00 20.00     0.021 C 
HETATM    8  C8  UNL     1     -35.342  15.106  -2.973  1.00 20.00     0.021 A 
HETATM    9  C9  UNL     1     -34.225  14.619  -3.889  1.00 20.00    -0.005 A 
HETATM   10  C10 UNL     1     -33.483  16.613  -2.856  1.00 20.00     0.004 A 
HETATM   11  N11 UNL     1     -34.527  17.770  -0.364  1.00 20.00    -0.276 NA
ENDROOT
TORSDOF 0
ENDMDL
MODEL 4
REMARK VINA RESULT:      -4.9     11.872     12.477
REMARK  0 active torsions:
REMARK  status: ('A' for Active; 'I' for Inactive)
ROOT
HETATM    1  C1  UNL     1     -36.636  16.126  -3.988  1.00 20.00     0.022 A 
HETATM    2  C2  UNL     1     -34.048  14.875  -5.220  1.00 20.00     0.120 C 
HETATM    3  C3  UNL     1     -36.177  14.050  -5.040  1.00 20.00     0.101 C 
HETATM    4  C4  UNL     1     -36.407  14.825  -3.788  1.00 20.00     0.025 A 
HETATM    5  C5  UNL     1     -34.155  15.656  -4.125  1.00 20.00    -0.048 C 
HETATM    6  C6  UNL     1     -33.252  17.786  -2.952  1.00 20.00     0.014 A 
HETATM    7  C7  UNL     1     -35.117  16.211  -1.943  1.00 20.00     0.021 C 
HETATM    8  C8  UNL     1     -33.083  16.356  -3.389  1.00 20.00     0.021 A 
HETATM    9  C9  UNL     1     -33.670  16.681  -2.019  1.00 20.00    -0.005 A 
HETATM   10  C10 UNL     1     -35.406  15.770  -3.341  1.00 20.00     0.004 A 
HETATM   11  N11 UNL     1     -35.072  14.092  -5.731  1.00 20.00    -0.276 NA
ENDROOT
TORSDOF 0
ENDMDL
MODEL 5
REMARK VINA RESULT:      -4.8     11.531     12.490
REMARK  0 active torsions:
REMARK  status: ('A' for Active; 'I' for Inactive)
ROOT
HETATM    1  C1  UNL     1     -37.041  16.967  -4.553  1.00 20.00     0.022 A 
HETATM    2  C2  UNL     1     -36.373  13.923  -4.293  1.00 20.00     0.120 C 
HETATM    3  C3  UNL     1     -38.381  15.026  -4.300  1.00 20.00     0.101 C 
HETATM    4  C4  UNL     1     -37.756  16.235  -3.694  1.00 20.00     0.025 A 
HETATM    5  C5  UNL     1     -35.690  14.971  -3.788  1.00 20.00    -0.048 C 
HETATM    6  C6  UNL     1     -33.353  16.082  -3.610  1.00 20.00     0.014 A 
HETATM    7  C7  UNL     1     -35.544  17.043  -2.491  1.00 20.00     0.021 C 
HETATM    8  C8  UNL     1     -34.321  14.994  -3.234  1.00 20.00     0.021 A 
HETATM    9  C9  UNL     1     -34.234  16.270  -2.405  1.00 20.00    -0.005 A 
HETATM   10  C10 UNL     1     -36.320  16.284  -3.519  1.00 20.00     0.004 A 
HETATM   11  N11 UNL     1     -37.724  13.942  -4.606  1.00 20.00    -0.276 NA
ENDROOT
TORSDOF 0
ENDMDL
MODEL 6
REMARK VINA RESULT:      -4.8     11.817     12.713
REMARK  0 active torsions:
REMARK  status: ('A' for Active; 'I' for Inactive)
ROOT
HETATM    1  C1  UNL     1     -32.722  18.682  -2.477  1.00 20.00     0.022 A 
HETATM    2  C2  UNL     1     -34.462  17.835  -0.021  1.00 20.00     0.120 C 
HETATM    3  C3  UNL     1     -32.365  18.750  -0.134  1.00 20.00     0.101 C 
HETATM    4  C4  UNL     1     -32.113  18.091  -1.446  1.00 20.00     0.025 A 
HETATM    5  C5  UNL     1     -34.367  17.228  -1.222  1.00 20.00    -0.048 C 
HETATM    6  C6  UNL     1     -35.715  16.282  -3.225  1.00 20.00     0.014 A 
HETATM    7  C7  UNL     1     -33.081  16.223  -3.048  1.00 20.00     0.021 C 
HETATM    8  C8  UNL     1     -35.246  16.191  -1.799  1.00 20.00     0.021 A 
HETATM    9  C9  UNL     1     -34.439  15.545  -2.920  1.00 20.00    -0.005 A 
HETATM   10  C10 UNL     1     -33.186  17.377  -2.104  1.00 20.00     0.004 A 
HETATM   11  N11 UNL     1     -33.483  18.650   0.529  1.00 20.00    -0.276 NA
ENDROOT
TORSDOF 0
ENDMDL
MODEL 7
REMARK VINA RESULT:      -4.6     11.395     12.562
REMARK  0 active torsions:
REMARK  status: ('A' for Active; 'I' for Inactive)
ROOT
HETATM    1  C1  UNL     1     -34.476  13.965  -3.848  1.00 20.00     0.022 A 
HETATM    2  C2  UNL     1     -36.969  15.802  -4.278  1.00 20.00     0.120 C 
HETATM    3  C3  UNL     1     -35.804  14.482  -5.744  1.00 20.00     0.101 C 
HETATM    4  C4  UNL     1     -34.545  14.682  -4.973  1.00 20.00     0.025 A 
HETATM    5  C5  UNL     1     -35.906  16.016  -3.476  1.00 20.00    -0.048 C 
HETATM    6  C6  UNL     1     -35.166  16.621  -1.065  1.00 20.00     0.014 A 
HETATM    7  C7  UNL     1     -33.498  16.185  -3.065  1.00 20.00     0.021 C 
HETATM    8  C8  UNL     1     -35.760  17.008  -2.392  1.00 20.00     0.021 A 
HETATM    9  C9  UNL     1     -34.259  17.135  -2.151  1.00 20.00    -0.005 A 
HETATM   10  C10 UNL     1     -34.586  15.387  -3.710  1.00 20.00     0.004 A 
HETATM   11  N11 UNL     1     -36.955  14.990  -5.403  1.00 20.00    -0.276 NA
ENDROOT
TORSDOF 0
ENDMDL
MODEL 8
REMARK VINA RESULT:      -4.4     11.442     12.632
REMARK  0 active torsions:
REMARK  status: ('A' for Active; 'I' for Inactive)
ROOT
HETATM    1  C1  UNL     1     -36.352  16.704  -5.451  1.00 20.00     0.022 A 
HETATM    2  C2  UNL     1     -36.651  13.776  -4.394  1.00 20.00     0.120 C 
HETATM    3  C3  UNL     1     -38.183  15.468  -4.588  1.00 20.00     0.101 C 
HETATM    4  C4  UNL     1     -37.124  16.495  -4.381  1.00 20.00     0.025 A 
HETATM    5  C5  UNL     1     -35.603  14.612  -4.243  1.00 20.00    -0.048 C 
HETATM    6  C6  UNL     1     -33.036  14.855  -4.521  1.00 20.00     0.014 A 
HETATM    7  C7  UNL     1     -34.615  16.754  -3.586  1.00 20.00     0.021 C 
HETATM    8  C8  UNL     1     -34.231  14.294  -3.800  1.00 20.00     0.021 A 
HETATM    9  C9  UNL     1     -33.621  15.622  -3.365  1.00 20.00    -0.005 A 
HETATM   10  C10 UNL     1     -35.737  16.086  -4.313  1.00 20.00     0.004 A 
HETATM   11  N11 UNL     1     -37.957  14.185  -4.619  1.00 20.00    -0.276 NA
ENDROOT
TORSDOF 0
ENDMDL
MODEL 9
REMARK VINA RESULT:      -4.4     11.182     12.798
REMARK  0 active torsions:
REMARK  status: ('A' for Active; 'I' for Inactive)
ROOT
HETATM    1  C1  UNL     1     -34.274  15.484  -6.211  1.00 20.00     0.022 A 
HETATM    2  C2  UNL     1     -35.306  13.853  -3.751  1.00 20.00     0.120 C 
HETATM    3  C3  UNL     1     -36.086  13.986  -5.900  1.00 20.00     0.101 C 
HETATM    4  C4  UNL     1     -35.593  15.386  -6.028  1.00 20.00     0.025 A 
HETATM    5  C5  UNL     1     -34.777  15.094  -3.764  1.00 20.00    -0.048 C 
HETATM    6  C6  UNL     1     -32.979  16.636  -2.709  1.00 20.00     0.014 A 
HETATM    7  C7  UNL     1     -34.678  17.400  -4.580  1.00 20.00     0.021 C 
HETATM    8  C8  UNL     1     -34.284  15.894  -2.625  1.00 20.00     0.021 A 
HETATM    9  C9  UNL     1     -34.246  17.335  -3.121  1.00 20.00    -0.005 A 
HETATM   10  C10 UNL     1     -34.797  15.961  -4.965  1.00 20.00     0.004 A 
HETATM   11  N11 UNL     1     -35.929  13.252  -4.835  1.00 20.00    -0.276 NA
ENDROOT
TORSDOF 0
ENDMDL
