MODEL 1
REMARK VINA RESULT:      -3.7      0.000      0.000
REMARK  1 active torsions:
REMARK  status: ('A' for Active; 'I' for Inactive)
REMARK    1  A    between atoms: C2_2  and  C4_4 
ROOT
HETATM    1  C1  UNL     1     -24.471  18.415  10.543  1.00 20.00     0.076 A 
HETATM    2  C2  UNL     1     -23.227  17.957  10.698  1.00 20.00     0.053 A 
HETATM    3  C3  UNL     1     -23.419  18.403   8.163  1.00 20.00     0.255 A 
HETATM    4  O5  UNL     1     -23.213  18.507   6.964  1.00 20.00    -0.272 OA
HETATM    5  S7  UNL     1     -24.952  18.826   8.927  1.00 20.00    -0.051 SA
HETATM    6  S8  UNL     1     -22.218  17.815   9.310  1.00 20.00    -0.037 SA
ENDROOT
BRANCH   2   7
HETATM    7  C4  UNL     1     -22.704  17.578  12.004  1.00 20.00     0.278 C 
HETATM    8  O6  UNL     1     -21.533  17.764  12.332  1.00 20.00    -0.301 OA
ENDBRANCH   2   7
TORSDOF 1
ENDMDL
MODEL 2
REMARK VINA RESULT:      -3.6      1.266      3.708
REMARK  1 active torsions:
REMARK  status: ('A' for Active; 'I' for Inactive)
REMARK    1  A    between atoms: C2_2  and  C4_4 
ROOT
HETATM    1  C1  UNL     1     -25.081  18.533  10.043  1.00 20.00     0.076 A 
HETATM    2  C2  UNL     1     -24.053  18.564   9.192  1.00 20.00     0.053 A 
HETATM    3  C3  UNL     1     -22.986  17.880  11.440  1.00 20.00     0.255 A 
HETATM    4  O5  UNL     1     -22.216  17.556  12.332  1.00 20.00    -0.272 OA
HETATM    5  S7  UNL     1     -24.719  18.099  11.683  1.00 20.00    -0.051 SA
HETATM    6  S8  UNL     1     -22.481  18.178   9.779  1.00 20.00    -0.037 SA
ENDROOT
BRANCH   2   7
HETATM    7  C4  UNL     1     -24.226  18.914   7.789  1.00 20.00     0.278 C 
HETATM    8  O6  UNL     1     -23.435  18.567   6.913  1.00 20.00    -0.301 OA
ENDBRANCH   2   7
TORSDOF 1
ENDMDL
MODEL 3
REMARK VINA RESULT:      -3.6      1.761      2.453
REMARK  1 active torsions:
REMARK  status: ('A' for Active; 'I' for Inactive)
REMARK    1  A    between atoms: C2_2  and  C4_4 
ROOT
HETATM    1  C1  UNL     1     -23.285  17.249  10.608  1.00 20.00     0.076 A 
HETATM    2  C2  UNL     1     -24.339  18.066  10.674  1.00 20.00     0.053 A 
HETATM    3  C3  UNL     1     -23.539  18.272   8.229  1.00 20.00     0.255 A 
HETATM    4  O5  UNL     1     -23.402  18.573   7.053  1.00 20.00    -0.272 OA
HETATM    5  S7  UNL     1     -22.484  17.138   9.073  1.00 20.00    -0.051 SA
HETATM    6  S8  UNL     1     -24.810  18.927   9.259  1.00 20.00    -0.037 SA
ENDROOT
BRANCH   2   7
HETATM    7  C4  UNL     1     -25.096  18.246  11.906  1.00 20.00     0.278 C 
HETATM    8  O6  UNL     1     -25.878  19.180  12.077  1.00 20.00    -0.301 OA
ENDBRANCH   2   7
TORSDOF 1
ENDMDL
MODEL 4
REMARK VINA RESULT:      -3.4     16.946     18.713
REMARK  1 active torsions:
REMARK  status: ('A' for Active; 'I' for Inactive)
REMARK    1  A    between atoms: C2_2  and  C4_4 
ROOT
HETATM    1  C1  UNL     1     -35.058  14.408  -4.606  1.00 20.00     0.076 A 
HETATM    2  C2  UNL     1     -35.991  15.079  -3.927  1.00 20.00     0.053 A 
HETATM    3  C3  UNL     1     -33.762  16.052  -3.062  1.00 20.00     0.255 A 
HETATM    4  O5  UNL     1     -32.901  16.688  -2.473  1.00 20.00    -0.272 OA
HETATM    5  S7  UNL     1     -33.407  14.816  -4.268  1.00 20.00    -0.051 SA
HETATM    6  S8  UNL     1     -35.490  16.275  -2.793  1.00 20.00    -0.037 SA
ENDROOT
BRANCH   2   7
HETATM    7  C4  UNL     1     -37.413  14.829  -4.119  1.00 20.00     0.278 C 
HETATM    8  O6  UNL     1     -37.861  13.722  -4.413  1.00 20.00    -0.301 OA
ENDBRANCH   2   7
TORSDOF 1
ENDMDL
MODEL 5
REMARK VINA RESULT:      -3.4     18.375     19.344
REMARK  1 active torsions:
REMARK  status: ('A' for Active; 'I' for Inactive)
REMARK    1  A    between atoms: C2_2  and  C4_4 
ROOT
HETATM    1  C1  UNL     1     -35.507  16.253  -3.980  1.00 20.00     0.076 A 
HETATM    2  C2  UNL     1     -34.932  15.072  -4.214  1.00 20.00     0.053 A 
HETATM    3  C3  UNL     1     -37.461  14.569  -4.314  1.00 20.00     0.255 A 
HETATM    4  O5  UNL     1     -38.556  14.037  -4.417  1.00 20.00    -0.272 OA
HETATM    5  S7  UNL     1     -37.241  16.286  -3.976  1.00 20.00    -0.051 SA
HETATM    6  S8  UNL     1     -35.937  13.701  -4.488  1.00 20.00    -0.037 SA
ENDROOT
BRANCH   2   7
HETATM    7  C4  UNL     1     -33.484  14.913  -4.244  1.00 20.00     0.278 C 
HETATM    8  O6  UNL     1     -32.936  13.845  -4.511  1.00 20.00    -0.301 OA
ENDBRANCH   2   7
TORSDOF 1
ENDMDL
MODEL 6
REMARK VINA RESULT:      -3.4     16.542     18.195
REMARK  1 active torsions:
REMARK  status: ('A' for Active; 'I' for Inactive)
REMARK    1  A    between atoms: C2_2  and  C4_4 
ROOT
HETATM    1  C1  UNL     1     -36.118  15.602  -3.182  1.00 20.00     0.076 A 
HETATM    2  C2  UNL     1     -35.338  14.860  -3.970  1.00 20.00     0.053 A 
HETATM    3  C3  UNL     1     -33.690  16.437  -2.763  1.00 20.00     0.255 A 
HETATM    4  O5  UNL     1     -32.697  17.028  -2.366  1.00 20.00    -0.272 OA
HETATM    5  S7  UNL     1     -35.324  16.795  -2.204  1.00 20.00    -0.051 SA
HETATM    6  S8  UNL     1     -33.639  15.138  -3.952  1.00 20.00    -0.037 SA
ENDROOT
BRANCH   2   7
HETATM    7  C4  UNL     1     -35.884  13.825  -4.839  1.00 20.00     0.278 C 
HETATM    8  O6  UNL     1     -35.880  12.632  -4.539  1.00 20.00    -0.301 OA
ENDBRANCH   2   7
TORSDOF 1
ENDMDL
MODEL 7
REMARK VINA RESULT:      -3.3     18.013     19.378
REMARK  1 active torsions:
REMARK  status: ('A' for Active; 'I' for Inactive)
REMARK    1  A    between atoms: C2_2  and  C4_4 
ROOT
HETATM    1  C1  UNL     1     -36.022  15.888  -3.217  1.00 20.00     0.076 A 
HETATM    2  C2  UNL     1     -36.662  14.998  -3.978  1.00 20.00     0.053 A 
HETATM    3  C3  UNL     1     -34.183  14.298  -4.144  1.00 20.00     0.255 A 
HETATM    4  O5  UNL     1     -33.129  13.743  -4.412  1.00 20.00    -0.272 OA
HETATM    5  S7  UNL     1     -34.300  15.713  -3.098  1.00 20.00    -0.051 SA
HETATM    6  S8  UNL     1     -35.746  13.770  -4.764  1.00 20.00    -0.037 SA
ENDROOT
BRANCH   2   7
HETATM    7  C4  UNL     1     -38.107  15.038  -4.158  1.00 20.00     0.278 C 
HETATM    8  O6  UNL     1     -38.775  14.037  -4.413  1.00 20.00    -0.301 OA
ENDBRANCH   2   7
TORSDOF 1
ENDMDL
MODEL 8
REMARK VINA RESULT:      -3.3     16.535     17.414
REMARK  1 active torsions:
REMARK  status: ('A' for Active; 'I' for Inactive)
REMARK    1  A    between atoms: C2_2  and  C4_4 
ROOT
HETATM    1  C1  UNL     1     -33.423   5.253   2.734  1.00 20.00     0.076 A 
HETATM    2  C2  UNL     1     -33.069   6.485   3.104  1.00 20.00     0.053 A 
HETATM    3  C3  UNL     1     -34.420   5.593   5.113  1.00 20.00     0.255 A 
HETATM    4  O5  UNL     1     -34.995   5.457   6.182  1.00 20.00    -0.272 OA
HETATM    5  S7  UNL     1     -34.363   4.341   3.873  1.00 20.00    -0.051 SA
HETATM    6  S8  UNL     1     -33.561   7.061   4.650  1.00 20.00    -0.037 SA
ENDROOT
BRANCH   2   7
HETATM    7  C4  UNL     1     -32.280   7.351   2.237  1.00 20.00     0.278 C 
HETATM    8  O6  UNL     1     -32.785   8.095   1.399  1.00 20.00    -0.301 OA
ENDBRANCH   2   7
TORSDOF 1
ENDMDL
MODEL 9
REMARK VINA RESULT:      -3.3     18.106     19.657
REMARK  1 active torsions:
REMARK  status: ('A' for Active; 'I' for Inactive)
REMARK    1  A    between atoms: C2_2  and  C4_4 
ROOT
HETATM    1  C1  UNL     1     -35.846  15.042  -6.046  1.00 20.00     0.076 A 
HETATM    2  C2  UNL     1     -36.221  14.889  -4.774  1.00 20.00     0.053 A 
HETATM    3  C3  UNL     1     -33.645  14.773  -4.685  1.00 20.00     0.255 A 
HETATM    4  O5  UNL     1     -32.479  14.677  -4.334  1.00 20.00    -0.272 OA
HETATM    5  S7  UNL     1     -34.140  15.016  -6.360  1.00 20.00    -0.051 SA
HETATM    6  S8  UNL     1     -35.007  14.684  -3.571  1.00 20.00    -0.037 SA
ENDROOT
BRANCH   2   7
HETATM    7  C4  UNL     1     -37.624  14.893  -4.380  1.00 20.00     0.278 C 
HETATM    8  O6  UNL     1     -38.322  13.880  -4.388  1.00 20.00    -0.301 OA
ENDBRANCH   2   7
TORSDOF 1
ENDMDL
