MODEL 1
REMARK VINA RESULT:      -5.2      0.000      0.000
REMARK  1 active torsions:
REMARK  status: ('A' for Active; 'I' for Inactive)
REMARK    1  A    between atoms: C3_3  and  C8_8 
ROOT
HETATM    1  C1  UNL     1     -34.495  16.614  -6.563  1.00 20.00    -0.029 C 
HETATM    2  C2  UNL     1     -34.563  17.589  -5.650  1.00 20.00    -0.030 C 
HETATM    3  C4  UNL     1     -34.788  15.171  -6.303  1.00 20.00     0.045 C 
HETATM    4  C5  UNL     1     -34.912  17.367  -4.215  1.00 20.00     0.037 C 
HETATM    5  C6  UNL     1     -33.338  14.259  -4.365  1.00 20.00     0.019 C 
HETATM    6  C7  UNL     1     -33.011  15.640  -3.784  1.00 20.00     0.012 C 
HETATM    7  C8  UNL     1     -34.750  14.786  -4.809  1.00 20.00     0.031 C 
HETATM    8  C9  UNL     1     -34.537  15.957  -3.749  1.00 20.00    -0.026 C 
HETATM    9  C11 UNL     1     -35.116  15.700  -2.348  1.00 20.00     0.016 C 
ENDROOT
BRANCH   7  10
HETATM   10  C3  UNL     1     -35.922  13.795  -4.498  1.00 20.00     0.132 C 
HETATM   11  C10 UNL     1     -37.308  14.379  -4.459  1.00 20.00     0.091 C 
HETATM   12  O12 UNL     1     -35.719  12.599  -4.298  1.00 20.00    -0.298 OA
ENDBRANCH   7  10
TORSDOF 1
ENDMDL
MODEL 2
REMARK VINA RESULT:      -4.6      1.181      3.012
REMARK  1 active torsions:
REMARK  status: ('A' for Active; 'I' for Inactive)
REMARK    1  A    between atoms: C3_3  and  C8_8 
ROOT
HETATM    1  C1  UNL     1     -34.058  15.782  -2.802  1.00 20.00    -0.029 C 
HETATM    2  C2  UNL     1     -33.238  15.417  -3.793  1.00 20.00    -0.030 C 
HETATM    3  C4  UNL     1     -35.552  15.735  -2.862  1.00 20.00     0.045 C 
HETATM    4  C5  UNL     1     -33.701  14.936  -5.129  1.00 20.00     0.037 C 
HETATM    5  C6  UNL     1     -36.447  17.071  -4.887  1.00 20.00     0.019 C 
HETATM    6  C7  UNL     1     -35.119  17.057  -5.653  1.00 20.00     0.012 C 
HETATM    7  C8  UNL     1     -36.116  15.654  -4.296  1.00 20.00     0.031 C 
HETATM    8  C9  UNL     1     -35.075  15.506  -5.494  1.00 20.00    -0.026 C 
HETATM    9  C11 UNL     1     -35.608  14.812  -6.758  1.00 20.00     0.016 C 
ENDROOT
BRANCH   7  10
HETATM   10  C3  UNL     1     -37.325  14.659  -4.323  1.00 20.00     0.132 C 
HETATM   11  C10 UNL     1     -38.701  15.267  -4.380  1.00 20.00     0.091 C 
HETATM   12  O12 UNL     1     -37.159  13.441  -4.300  1.00 20.00    -0.298 OA
ENDBRANCH   7  10
TORSDOF 1
ENDMDL
MODEL 3
REMARK VINA RESULT:      -4.6      1.618      2.481
REMARK  1 active torsions:
REMARK  status: ('A' for Active; 'I' for Inactive)
REMARK    1  A    between atoms: C3_3  and  C8_8 
ROOT
HETATM    1  C1  UNL     1     -33.785  17.605  -3.800  1.00 20.00    -0.029 C 
HETATM    2  C2  UNL     1     -33.912  16.826  -2.721  1.00 20.00    -0.030 C 
HETATM    3  C4  UNL     1     -34.398  17.329  -5.136  1.00 20.00     0.045 C 
HETATM    4  C5  UNL     1     -34.666  15.537  -2.704  1.00 20.00     0.037 C 
HETATM    5  C6  UNL     1     -33.712  14.995  -6.013  1.00 20.00     0.019 C 
HETATM    6  C7  UNL     1     -33.302  14.453  -4.639  1.00 20.00     0.012 C 
HETATM    7  C8  UNL     1     -34.831  15.861  -5.332  1.00 20.00     0.031 C 
HETATM    8  C9  UNL     1     -34.696  14.877  -4.085  1.00 20.00    -0.026 C 
HETATM    9  C11 UNL     1     -35.664  13.683  -4.071  1.00 20.00     0.016 C 
ENDROOT
BRANCH   7  10
HETATM   10  C3  UNL     1     -36.206  15.820  -6.081  1.00 20.00     0.132 C 
HETATM   11  C10 UNL     1     -37.284  16.735  -5.565  1.00 20.00     0.091 C 
HETATM   12  O12 UNL     1     -36.395  15.079  -7.044  1.00 20.00    -0.298 OA
ENDBRANCH   7  10
TORSDOF 1
ENDMDL
MODEL 4
REMARK VINA RESULT:      -4.6      1.346      2.799
REMARK  1 active torsions:
REMARK  status: ('A' for Active; 'I' for Inactive)
REMARK    1  A    between atoms: C3_3  and  C8_8 
ROOT
HETATM    1  C1  UNL     1     -32.945  15.987  -3.328  1.00 20.00    -0.029 C 
HETATM    2  C2  UNL     1     -33.293  17.278  -3.368  1.00 20.00    -0.030 C 
HETATM    3  C4  UNL     1     -33.570  14.903  -4.146  1.00 20.00     0.045 C 
HETATM    4  C5  UNL     1     -34.392  17.822  -4.221  1.00 20.00     0.037 C 
HETATM    5  C6  UNL     1     -36.132  14.830  -3.796  1.00 20.00     0.019 C 
HETATM    6  C7  UNL     1     -36.230  16.257  -3.244  1.00 20.00     0.012 C 
HETATM    7  C8  UNL     1     -34.950  15.277  -4.728  1.00 20.00     0.031 C 
HETATM    8  C9  UNL     1     -35.467  16.768  -4.504  1.00 20.00    -0.026 C 
HETATM    9  C11 UNL     1     -36.451  17.298  -5.560  1.00 20.00     0.016 C 
ENDROOT
BRANCH   7  10
HETATM   10  C3  UNL     1     -35.060  14.736  -6.193  1.00 20.00     0.132 C 
HETATM   11  C10 UNL     1     -33.965  15.135  -7.146  1.00 20.00     0.091 C 
HETATM   12  O12 UNL     1     -35.994  14.019  -6.548  1.00 20.00    -0.298 OA
ENDBRANCH   7  10
TORSDOF 1
ENDMDL
MODEL 5
REMARK VINA RESULT:      -4.6      1.584      3.071
REMARK  1 active torsions:
REMARK  status: ('A' for Active; 'I' for Inactive)
REMARK    1  A    between atoms: C3_3  and  C8_8 
ROOT
HETATM    1  C1  UNL     1     -34.014  16.426  -2.673  1.00 20.00    -0.029 C 
HETATM    2  C2  UNL     1     -33.583  17.037  -3.781  1.00 20.00    -0.030 C 
HETATM    3  C4  UNL     1     -35.209  15.529  -2.595  1.00 20.00     0.045 C 
HETATM    4  C5  UNL     1     -34.261  16.938  -5.109  1.00 20.00     0.037 C 
HETATM    5  C6  UNL     1     -37.330  16.723  -3.469  1.00 20.00     0.019 C 
HETATM    6  C7  UNL     1     -36.565  17.797  -4.251  1.00 20.00     0.012 C 
HETATM    7  C8  UNL     1     -36.188  15.691  -3.777  1.00 20.00     0.031 C 
HETATM    8  C9  UNL     1     -35.761  16.666  -4.963  1.00 20.00    -0.026 C 
HETATM    9  C11 UNL     1     -36.368  16.348  -6.339  1.00 20.00     0.016 C 
ENDROOT
BRANCH   7  10
HETATM   10  C3  UNL     1     -36.710  14.281  -4.215  1.00 20.00     0.132 C 
HETATM   11  C10 UNL     1     -35.671  13.219  -4.454  1.00 20.00     0.091 C 
HETATM   12  O12 UNL     1     -37.910  14.052  -4.355  1.00 20.00    -0.298 OA
ENDBRANCH   7  10
TORSDOF 1
ENDMDL
MODEL 6
REMARK VINA RESULT:      -4.5      2.020      3.630
REMARK  1 active torsions:
REMARK  status: ('A' for Active; 'I' for Inactive)
REMARK    1  A    between atoms: C3_3  and  C8_8 
ROOT
HETATM    1  C1  UNL     1     -36.635  14.262  -4.670  1.00 20.00    -0.029 C 
HETATM    2  C2  UNL     1     -35.583  13.571  -4.221  1.00 20.00    -0.030 C 
HETATM    3  C4  UNL     1     -36.647  15.734  -4.934  1.00 20.00     0.045 C 
HETATM    4  C5  UNL     1     -34.262  14.182  -3.884  1.00 20.00     0.037 C 
HETATM    5  C6  UNL     1     -35.922  17.065  -2.839  1.00 20.00     0.019 C 
HETATM    6  C7  UNL     1     -35.231  15.876  -2.160  1.00 20.00     0.012 C 
HETATM    7  C8  UNL     1     -35.500  16.501  -4.243  1.00 20.00     0.031 C 
HETATM    8  C9  UNL     1     -34.405  15.647  -3.462  1.00 20.00    -0.026 C 
HETATM    9  C11 UNL     1     -33.014  16.294  -3.346  1.00 20.00     0.016 C 
ENDROOT
BRANCH   7  10
HETATM   10  C3  UNL     1     -34.941  17.590  -5.220  1.00 20.00     0.132 C 
HETATM   11  C10 UNL     1     -34.591  17.135  -6.611  1.00 20.00     0.091 C 
HETATM   12  O12 UNL     1     -34.796  18.759  -4.868  1.00 20.00    -0.298 OA
ENDBRANCH   7  10
TORSDOF 1
ENDMDL
MODEL 7
REMARK VINA RESULT:      -4.5      1.435      2.727
REMARK  1 active torsions:
REMARK  status: ('A' for Active; 'I' for Inactive)
REMARK    1  A    between atoms: C3_3  and  C8_8 
ROOT
HETATM    1  C1  UNL     1     -36.583  17.166  -2.689  1.00 20.00    -0.029 C 
HETATM    2  C2  UNL     1     -35.544  17.012  -1.861  1.00 20.00    -0.030 C 
HETATM    3  C4  UNL     1     -36.705  16.538  -4.040  1.00 20.00     0.045 C 
HETATM    4  C5  UNL     1     -34.327  16.208  -2.186  1.00 20.00     0.037 C 
HETATM    5  C6  UNL     1     -34.676  17.129  -5.531  1.00 20.00     0.019 C 
HETATM    6  C7  UNL     1     -33.764  17.522  -4.363  1.00 20.00     0.012 C 
HETATM    7  C8  UNL     1     -35.364  16.047  -4.624  1.00 20.00     0.031 C 
HETATM    8  C9  UNL     1     -34.072  16.147  -3.695  1.00 20.00    -0.026 C 
HETATM    9  C11 UNL     1     -32.956  15.133  -3.994  1.00 20.00     0.016 C 
ENDROOT
BRANCH   7  10
HETATM   10  C3  UNL     1     -35.580  14.669  -5.336  1.00 20.00     0.132 C 
HETATM   11  C10 UNL     1     -36.322  13.615  -4.559  1.00 20.00     0.091 C 
HETATM   12  O12 UNL     1     -35.167  14.459  -6.474  1.00 20.00    -0.298 OA
ENDBRANCH   7  10
TORSDOF 1
ENDMDL
MODEL 8
REMARK VINA RESULT:      -4.4      1.824      3.189
REMARK  1 active torsions:
REMARK  status: ('A' for Active; 'I' for Inactive)
REMARK    1  A    between atoms: C3_3  and  C8_8 
ROOT
HETATM    1  C1  UNL     1     -36.682  14.118  -4.461  1.00 20.00    -0.029 C 
HETATM    2  C2  UNL     1     -37.083  15.038  -5.344  1.00 20.00    -0.030 C 
HETATM    3  C4  UNL     1     -35.506  14.260  -3.547  1.00 20.00     0.045 C 
HETATM    4  C5  UNL     1     -36.387  16.340  -5.571  1.00 20.00     0.037 C 
HETATM    5  C6  UNL     1     -33.349  14.777  -4.875  1.00 20.00     0.019 C 
HETATM    6  C7  UNL     1     -34.080  15.268  -6.130  1.00 20.00     0.012 C 
HETATM    7  C8  UNL     1     -34.506  15.351  -3.981  1.00 20.00     0.031 C 
HETATM    8  C9  UNL     1     -34.895  16.253  -5.237  1.00 20.00    -0.026 C 
HETATM    9  C11 UNL     1     -34.272  17.659  -5.266  1.00 20.00     0.016 C 
ENDROOT
BRANCH   7  10
HETATM   10  C3  UNL     1     -34.004  16.129  -2.718  1.00 20.00     0.132 C 
HETATM   11  C10 UNL     1     -35.028  16.428  -1.657  1.00 20.00     0.091 C 
HETATM   12  O12 UNL     1     -32.831  16.476  -2.598  1.00 20.00    -0.298 OA
ENDBRANCH   7  10
TORSDOF 1
ENDMDL
MODEL 9
REMARK VINA RESULT:      -4.3      2.045      3.486
REMARK  1 active torsions:
REMARK  status: ('A' for Active; 'I' for Inactive)
REMARK    1  A    between atoms: C3_3  and  C8_8 
ROOT
HETATM    1  C1  UNL     1     -36.091  16.683  -5.800  1.00 20.00    -0.029 C 
HETATM    2  C2  UNL     1     -35.482  15.731  -6.515  1.00 20.00    -0.030 C 
HETATM    3  C4  UNL     1     -35.561  17.278  -4.534  1.00 20.00     0.045 C 
HETATM    4  C5  UNL     1     -34.186  15.095  -6.130  1.00 20.00     0.037 C 
HETATM    5  C6  UNL     1     -35.070  15.447  -2.775  1.00 20.00     0.019 C 
HETATM    6  C7  UNL     1     -35.011  14.300  -3.791  1.00 20.00     0.012 C 
HETATM    7  C8  UNL     1     -34.473  16.424  -3.850  1.00 20.00     0.031 C 
HETATM    8  C9  UNL     1     -33.969  15.118  -4.614  1.00 20.00    -0.026 C 
HETATM    9  C11 UNL     1     -32.537  14.665  -4.285  1.00 20.00     0.016 C 
ENDROOT
BRANCH   7  10
HETATM   10  C3  UNL     1     -33.348  17.362  -3.298  1.00 20.00     0.132 C 
HETATM   11  C10 UNL     1     -32.983  18.552  -4.143  1.00 20.00     0.091 C 
HETATM   12  O12 UNL     1     -32.790  17.138  -2.225  1.00 20.00    -0.298 OA
ENDBRANCH   7  10
TORSDOF 1
ENDMDL
