MODEL 1
REMARK VINA RESULT:      -5.0      0.000      0.000
REMARK  2 active torsions:
REMARK  status: ('A' for Active; 'I' for Inactive)
REMARK    1  A    between atoms: C4_4  and  C5_5 
REMARK    2  A    between atoms: C6_6  and  C10_10 
ROOT
HETATM    1  C1  UNL     1     -33.004  15.566  -3.644  1.00 20.00    -0.003 C 
HETATM    2  C2  UNL     1     -33.949  14.549  -4.043  1.00 20.00     0.010 C 
HETATM    3  C3  UNL     1     -33.409  16.676  -3.009  1.00 20.00    -0.021 C 
HETATM    4  C4  UNL     1     -35.264  14.814  -4.058  1.00 20.00    -0.016 C 
HETATM    5  C6  UNL     1     -34.869  16.936  -2.702  1.00 20.00     0.016 C 
HETATM    6  C7  UNL     1     -35.829  16.159  -3.658  1.00 20.00     0.025 C 
HETATM    7  C8  UNL     1     -36.114  16.983  -4.922  1.00 20.00     0.016 C 
ENDROOT
BRANCH   4   8
HETATM    8  C5  UNL     1     -36.174  13.740  -4.462  1.00 20.00     0.266 C 
HETATM    9  O11 UNL     1     -35.830  12.565  -4.503  1.00 20.00    -0.302 OA
ENDBRANCH   4   8
BRANCH   5  10
HETATM   10  C10 UNL     1     -35.141  16.576  -1.237  1.00 20.00     0.005 C 
HETATM   11  C9  UNL     1     -34.650  17.640  -0.314  1.00 20.00     0.006 C 
ENDBRANCH   5  10
TORSDOF 2
ENDMDL
MODEL 2
REMARK VINA RESULT:      -4.7      1.217      2.851
REMARK  2 active torsions:
REMARK  status: ('A' for Active; 'I' for Inactive)
REMARK    1  A    between atoms: C4_4  and  C5_5 
REMARK    2  A    between atoms: C6_6  and  C10_10 
ROOT
HETATM    1  C1  UNL     1     -34.715  16.231  -1.951  1.00 20.00    -0.003 C 
HETATM    2  C2  UNL     1     -35.520  15.270  -2.669  1.00 20.00     0.010 C 
HETATM    3  C3  UNL     1     -33.779  16.956  -2.581  1.00 20.00    -0.021 C 
HETATM    4  C4  UNL     1     -35.160  14.866  -3.897  1.00 20.00    -0.016 C 
HETATM    5  C6  UNL     1     -33.495  16.790  -4.059  1.00 20.00     0.016 C 
HETATM    6  C7  UNL     1     -33.924  15.387  -4.597  1.00 20.00     0.025 C 
HETATM    7  C8  UNL     1     -32.783  14.374  -4.428  1.00 20.00     0.016 C 
ENDROOT
BRANCH   4   8
HETATM    8  C5  UNL     1     -36.022  13.898  -4.579  1.00 20.00     0.266 C 
HETATM    9  O11 UNL     1     -35.852  12.689  -4.492  1.00 20.00    -0.302 OA
ENDBRANCH   4   8
BRANCH   5  10
HETATM   10  C10 UNL     1     -34.198  17.913  -4.829  1.00 20.00     0.005 C 
HETATM   11  C9  UNL     1     -34.461  17.524  -6.244  1.00 20.00     0.006 C 
ENDBRANCH   5  10
TORSDOF 2
ENDMDL
MODEL 3
REMARK VINA RESULT:      -4.7      1.076      1.324
REMARK  2 active torsions:
REMARK  status: ('A' for Active; 'I' for Inactive)
REMARK    1  A    between atoms: C4_4  and  C5_5 
REMARK    2  A    between atoms: C6_6  and  C10_10 
ROOT
HETATM    1  C1  UNL     1     -33.697  14.349  -4.141  1.00 20.00    -0.003 C 
HETATM    2  C2  UNL     1     -35.118  14.088  -4.166  1.00 20.00     0.010 C 
HETATM    3  C3  UNL     1     -33.220  15.539  -3.746  1.00 20.00    -0.021 C 
HETATM    4  C4  UNL     1     -35.995  15.100  -4.085  1.00 20.00    -0.016 C 
HETATM    5  C6  UNL     1     -34.134  16.673  -3.336  1.00 20.00     0.016 C 
HETATM    6  C7  UNL     1     -35.563  16.544  -3.954  1.00 20.00     0.025 C 
HETATM    7  C8  UNL     1     -35.616  17.214  -5.334  1.00 20.00     0.016 C 
ENDROOT
BRANCH   4   8
HETATM    8  C5  UNL     1     -37.422  14.773  -4.105  1.00 20.00     0.266 C 
HETATM    9  O11 UNL     1     -37.846  13.695  -4.504  1.00 20.00    -0.302 OA
ENDBRANCH   4   8
BRANCH   5  10
HETATM   10  C10 UNL     1     -34.199  16.731  -1.806  1.00 20.00     0.005 C 
HETATM   11  C9  UNL     1     -35.498  17.295  -1.335  1.00 20.00     0.006 C 
ENDBRANCH   5  10
TORSDOF 2
ENDMDL
MODEL 4
REMARK VINA RESULT:      -4.5      1.551      2.608
REMARK  2 active torsions:
REMARK  status: ('A' for Active; 'I' for Inactive)
REMARK    1  A    between atoms: C4_4  and  C5_5 
REMARK    2  A    between atoms: C6_6  and  C10_10 
ROOT
HETATM    1  C1  UNL     1     -33.628  16.045  -3.053  1.00 20.00    -0.003 C 
HETATM    2  C2  UNL     1     -34.580  14.974  -3.246  1.00 20.00     0.010 C 
HETATM    3  C3  UNL     1     -33.560  17.072  -3.912  1.00 20.00    -0.021 C 
HETATM    4  C4  UNL     1     -35.203  14.826  -4.425  1.00 20.00    -0.016 C 
HETATM    5  C6  UNL     1     -34.447  17.154  -5.136  1.00 20.00     0.016 C 
HETATM    6  C7  UNL     1     -34.964  15.754  -5.596  1.00 20.00     0.025 C 
HETATM    7  C8  UNL     1     -33.965  15.101  -6.561  1.00 20.00     0.016 C 
ENDROOT
BRANCH   4   8
HETATM    8  C5  UNL     1     -36.164  13.729  -4.557  1.00 20.00     0.266 C 
HETATM    9  O11 UNL     1     -35.840  12.552  -4.455  1.00 20.00    -0.302 OA
ENDBRANCH   4   8
BRANCH   5  10
HETATM   10  C10 UNL     1     -35.615  18.102  -4.841  1.00 20.00     0.005 C 
HETATM   11  C9  UNL     1     -36.757  17.868  -5.771  1.00 20.00     0.006 C 
ENDBRANCH   5  10
TORSDOF 2
ENDMDL
MODEL 5
REMARK VINA RESULT:      -4.3      1.156      1.430
REMARK  2 active torsions:
REMARK  status: ('A' for Active; 'I' for Inactive)
REMARK    1  A    between atoms: C4_4  and  C5_5 
REMARK    2  A    between atoms: C6_6  and  C10_10 
ROOT
HETATM    1  C1  UNL     1     -32.965  17.109  -2.568  1.00 20.00    -0.003 C 
HETATM    2  C2  UNL     1     -33.432  15.857  -3.118  1.00 20.00     0.010 C 
HETATM    3  C3  UNL     1     -33.784  17.899  -1.857  1.00 20.00    -0.021 C 
HETATM    4  C4  UNL     1     -34.746  15.595  -3.190  1.00 20.00    -0.016 C 
HETATM    5  C6  UNL     1     -35.235  17.542  -1.619  1.00 20.00     0.016 C 
HETATM    6  C7  UNL     1     -35.798  16.566  -2.701  1.00 20.00     0.025 C 
HETATM    7  C8  UNL     1     -36.355  17.352  -3.897  1.00 20.00     0.016 C 
ENDROOT
BRANCH   4   8
HETATM    8  C5  UNL     1     -35.158  14.306  -3.748  1.00 20.00     0.266 C 
HETATM    9  O11 UNL     1     -34.353  13.469  -4.139  1.00 20.00    -0.302 OA
ENDBRANCH   4   8
BRANCH   5  10
HETATM   10  C10 UNL     1     -35.376  16.945  -0.214  1.00 20.00     0.005 C 
HETATM   11  C9  UNL     1     -34.686  17.785   0.808  1.00 20.00     0.006 C 
ENDBRANCH   5  10
TORSDOF 2
ENDMDL
MODEL 6
REMARK VINA RESULT:      -4.2      1.079      1.374
REMARK  2 active torsions:
REMARK  status: ('A' for Active; 'I' for Inactive)
REMARK    1  A    between atoms: C4_4  and  C5_5 
REMARK    2  A    between atoms: C6_6  and  C10_10 
ROOT
HETATM    1  C1  UNL     1     -33.253  15.743  -3.457  1.00 20.00    -0.003 C 
HETATM    2  C2  UNL     1     -34.162  14.657  -3.746  1.00 20.00     0.010 C 
HETATM    3  C3  UNL     1     -33.679  17.015  -3.446  1.00 20.00    -0.021 C 
HETATM    4  C4  UNL     1     -35.362  14.903  -4.293  1.00 20.00    -0.016 C 
HETATM    5  C6  UNL     1     -35.113  17.384  -3.761  1.00 20.00     0.016 C 
HETATM    6  C7  UNL     1     -35.834  16.302  -4.626  1.00 20.00     0.025 C 
HETATM    7  C8  UNL     1     -35.607  16.569  -6.121  1.00 20.00     0.016 C 
ENDROOT
BRANCH   4   8
HETATM    8  C5  UNL     1     -36.242  13.763  -4.553  1.00 20.00     0.266 C 
HETATM    9  O11 UNL     1     -35.849  12.604  -4.514  1.00 20.00    -0.302 OA
ENDBRANCH   4   8
BRANCH   5  10
HETATM   10  C10 UNL     1     -35.863  17.626  -2.446  1.00 20.00     0.005 C 
HETATM   11  C9  UNL     1     -37.340  17.655  -2.657  1.00 20.00     0.006 C 
ENDBRANCH   5  10
TORSDOF 2
ENDMDL
MODEL 7
REMARK VINA RESULT:      -4.2      1.733      2.743
REMARK  2 active torsions:
REMARK  status: ('A' for Active; 'I' for Inactive)
REMARK    1  A    between atoms: C4_4  and  C5_5 
REMARK    2  A    between atoms: C6_6  and  C10_10 
ROOT
HETATM    1  C1  UNL     1     -36.325  16.994  -3.588  1.00 20.00    -0.003 C 
HETATM    2  C2  UNL     1     -35.905  16.695  -4.937  1.00 20.00     0.010 C 
HETATM    3  C3  UNL     1     -35.599  16.593  -2.533  1.00 20.00    -0.021 C 
HETATM    4  C4  UNL     1     -34.959  15.771  -5.165  1.00 20.00    -0.016 C 
HETATM    5  C6  UNL     1     -34.328  15.787  -2.695  1.00 20.00     0.016 C 
HETATM    6  C7  UNL     1     -34.280  15.008  -4.048  1.00 20.00     0.025 C 
HETATM    7  C8  UNL     1     -34.943  13.632  -3.901  1.00 20.00     0.016 C 
ENDROOT
BRANCH   4   8
HETATM    8  C5  UNL     1     -34.568  15.519  -6.553  1.00 20.00     0.266 C 
HETATM    9  O11 UNL     1     -33.659  14.755  -6.854  1.00 20.00    -0.302 OA
ENDBRANCH   4   8
BRANCH   5  10
HETATM   10  C10 UNL     1     -33.124  16.726  -2.557  1.00 20.00     0.005 C 
HETATM   11  C9  UNL     1     -33.325  17.714  -1.458  1.00 20.00     0.006 C 
ENDBRANCH   5  10
TORSDOF 2
ENDMDL
MODEL 8
REMARK VINA RESULT:      -4.2     10.711     11.594
REMARK  2 active torsions:
REMARK  status: ('A' for Active; 'I' for Inactive)
REMARK    1  A    between atoms: C4_4  and  C5_5 
REMARK    2  A    between atoms: C6_6  and  C10_10 
ROOT
HETATM    1  C1  UNL     1     -32.208   7.623   4.534  1.00 20.00    -0.003 C 
HETATM    2  C2  UNL     1     -33.463   6.977   4.844  1.00 20.00     0.010 C 
HETATM    3  C3  UNL     1     -31.778   7.727   3.268  1.00 20.00    -0.021 C 
HETATM    4  C4  UNL     1     -34.077   6.214   3.927  1.00 20.00    -0.016 C 
HETATM    5  C6  UNL     1     -32.561   7.154   2.106  1.00 20.00     0.016 C 
HETATM    6  C7  UNL     1     -33.515   5.995   2.540  1.00 20.00     0.025 C 
HETATM    7  C8  UNL     1     -32.779   4.649   2.500  1.00 20.00     0.016 C 
ENDROOT
BRANCH   4   8
HETATM    8  C5  UNL     1     -35.351   5.594   4.295  1.00 20.00     0.266 C 
HETATM    9  O11 UNL     1     -35.421   4.477   4.793  1.00 20.00    -0.302 OA
ENDBRANCH   4   8
BRANCH   5  10
HETATM   10  C10 UNL     1     -33.342   8.284   1.427  1.00 20.00     0.005 C 
HETATM   11  C9  UNL     1     -32.816   8.567   0.060  1.00 20.00     0.006 C 
ENDBRANCH   5  10
TORSDOF 2
ENDMDL
MODEL 9
REMARK VINA RESULT:      -4.1      1.402      1.891
REMARK  2 active torsions:
REMARK  status: ('A' for Active; 'I' for Inactive)
REMARK    1  A    between atoms: C4_4  and  C5_5 
REMARK    2  A    between atoms: C6_6  and  C10_10 
ROOT
HETATM    1  C1  UNL     1     -34.536  16.344  -6.291  1.00 20.00    -0.003 C 
HETATM    2  C2  UNL     1     -35.183  15.087  -5.994  1.00 20.00     0.010 C 
HETATM    3  C3  UNL     1     -34.243  17.217  -5.316  1.00 20.00    -0.021 C 
HETATM    4  C4  UNL     1     -35.768  14.889  -4.803  1.00 20.00    -0.016 C 
HETATM    5  C6  UNL     1     -34.596  16.951  -3.868  1.00 20.00     0.016 C 
HETATM    6  C7  UNL     1     -35.778  15.941  -3.716  1.00 20.00     0.025 C 
HETATM    7  C8  UNL     1     -37.123  16.679  -3.740  1.00 20.00     0.016 C 
ENDROOT
BRANCH   4   8
HETATM    8  C5  UNL     1     -36.398  13.590  -4.557  1.00 20.00     0.266 C 
HETATM    9  O11 UNL     1     -35.756  12.551  -4.473  1.00 20.00    -0.302 OA
ENDBRANCH   4   8
BRANCH   5  10
HETATM   10  C10 UNL     1     -33.346  16.449  -3.136  1.00 20.00     0.005 C 
HETATM   11  C9  UNL     1     -32.985  17.342  -1.997  1.00 20.00     0.006 C 
ENDBRANCH   5  10
TORSDOF 2
ENDMDL
