MODEL 1
REMARK VINA RESULT:      -3.8      0.000      0.000
REMARK  4 active torsions:
REMARK  status: ('A' for Active; 'I' for Inactive)
REMARK    1  A    between atoms: C4_4  and  C6_6 
REMARK    2  A    between atoms: C4_4  and  N7_7 
REMARK    3  A    between atoms: C5_5  and  C6_6 
REMARK    4  A    between atoms: C5_5  and  O8_8 
ROOT
HETATM    1  C1  UNL     1     -32.548   7.870   1.605  1.00 20.00     0.157 C 
HETATM    2  N7  UNL     1     -32.181   7.084   2.396  1.00 20.00    -0.275 NA
HETATM    3  S9  UNL     1     -33.019   8.938   0.521  1.00 20.00    -0.055 SA
ENDROOT
BRANCH   2   4
HETATM    4  C4  UNL     1     -33.199   6.656   3.358  1.00 20.00     0.157 C 
BRANCH   4   5
HETATM    5  C6  UNL     1     -33.883   5.366   2.893  1.00 20.00     0.025 C 
HETATM    6  C2  UNL     1     -32.901   4.435   2.175  1.00 20.00     0.014 C 
BRANCH   5   7
HETATM    7  C5  UNL     1     -34.585   4.648   4.052  1.00 20.00     0.172 C 
BRANCH   7   8
HETATM    8  O8  UNL     1     -35.213   5.601   4.900  1.00 20.00    -0.396 OA
HETATM    9  C3  UNL     1     -34.794   5.453   6.250  1.00 20.00     0.201 C 
ENDBRANCH   7   8
ENDBRANCH   5   7
ENDBRANCH   4   5
ENDBRANCH   2   4
TORSDOF 4
ENDMDL
MODEL 2
REMARK VINA RESULT:      -3.6     11.480     11.907
REMARK  4 active torsions:
REMARK  status: ('A' for Active; 'I' for Inactive)
REMARK    1  A    between atoms: C4_4  and  C6_6 
REMARK    2  A    between atoms: C4_4  and  N7_7 
REMARK    3  A    between atoms: C5_5  and  C6_6 
REMARK    4  A    between atoms: C5_5  and  O8_8 
ROOT
HETATM    1  C1  UNL     1     -38.000  14.455  -4.342  1.00 20.00     0.157 C 
HETATM    2  N7  UNL     1     -37.026  13.814  -4.477  1.00 20.00    -0.275 NA
HETATM    3  S9  UNL     1     -39.337  15.300  -4.155  1.00 20.00    -0.055 SA
ENDROOT
BRANCH   2   4
HETATM    4  C4  UNL     1     -35.834  14.577  -4.854  1.00 20.00     0.157 C 
BRANCH   4   5
HETATM    5  C6  UNL     1     -34.750  14.466  -3.775  1.00 20.00     0.025 C 
HETATM    6  C2  UNL     1     -33.346  14.454  -4.386  1.00 20.00     0.014 C 
BRANCH   5   7
HETATM    7  C5  UNL     1     -34.889  15.569  -2.718  1.00 20.00     0.172 C 
BRANCH   7   8
HETATM    8  O8  UNL     1     -33.629  16.192  -2.504  1.00 20.00    -0.396 OA
HETATM    9  C3  UNL     1     -33.754  17.353  -1.695  1.00 20.00     0.201 C 
ENDBRANCH   7   8
ENDBRANCH   5   7
ENDBRANCH   4   5
ENDBRANCH   2   4
TORSDOF 4
ENDMDL
MODEL 3
REMARK VINA RESULT:      -3.5     11.561     12.534
REMARK  4 active torsions:
REMARK  status: ('A' for Active; 'I' for Inactive)
REMARK    1  A    between atoms: C4_4  and  C6_6 
REMARK    2  A    between atoms: C4_4  and  N7_7 
REMARK    3  A    between atoms: C5_5  and  C6_6 
REMARK    4  A    between atoms: C5_5  and  O8_8 
ROOT
HETATM    1  C1  UNL     1     -37.675  14.750  -4.525  1.00 20.00     0.157 C 
HETATM    2  N7  UNL     1     -36.986  13.867  -4.876  1.00 20.00    -0.275 NA
HETATM    3  S9  UNL     1     -38.629  15.942  -4.070  1.00 20.00    -0.055 SA
ENDROOT
BRANCH   2   4
HETATM    4  C4  UNL     1     -35.744  13.714  -4.115  1.00 20.00     0.157 C 
BRANCH   4   5
HETATM    5  C6  UNL     1     -34.913  15.001  -4.161  1.00 20.00     0.025 C 
HETATM    6  C2  UNL     1     -34.667  15.563  -2.757  1.00 20.00     0.014 C 
BRANCH   5   7
HETATM    7  C5  UNL     1     -33.595  14.797  -4.918  1.00 20.00     0.172 C 
BRANCH   7   8
HETATM    8  O8  UNL     1     -33.863  14.555  -6.294  1.00 20.00    -0.396 OA
HETATM    9  C3  UNL     1     -34.302  15.733  -6.954  1.00 20.00     0.201 C 
ENDBRANCH   7   8
ENDBRANCH   5   7
ENDBRANCH   4   5
ENDBRANCH   2   4
TORSDOF 4
ENDMDL
MODEL 4
REMARK VINA RESULT:      -3.5      3.220      4.672
REMARK  4 active torsions:
REMARK  status: ('A' for Active; 'I' for Inactive)
REMARK    1  A    between atoms: C4_4  and  C6_6 
REMARK    2  A    between atoms: C4_4  and  N7_7 
REMARK    3  A    between atoms: C5_5  and  C6_6 
REMARK    4  A    between atoms: C5_5  and  O8_8 
ROOT
HETATM    1  C1  UNL     1     -34.477   5.202   4.323  1.00 20.00     0.157 C 
HETATM    2  N7  UNL     1     -34.288   5.042   3.175  1.00 20.00    -0.275 NA
HETATM    3  S9  UNL     1     -34.760   5.410   5.877  1.00 20.00    -0.055 SA
ENDROOT
BRANCH   2   4
HETATM    4  C4  UNL     1     -32.963   5.453   2.705  1.00 20.00     0.157 C 
BRANCH   4   5
HETATM    5  C6  UNL     1     -32.838   6.981   2.690  1.00 20.00     0.025 C 
HETATM    6  C2  UNL     1     -31.937   7.484   3.821  1.00 20.00     0.014 C 
BRANCH   5   7
HETATM    7  C5  UNL     1     -32.361   7.495   1.326  1.00 20.00     0.172 C 
BRANCH   7   8
HETATM    8  O8  UNL     1     -32.916   8.779   1.074  1.00 20.00    -0.396 OA
HETATM    9  C3  UNL     1     -33.432   8.873  -0.247  1.00 20.00     0.201 C 
ENDBRANCH   7   8
ENDBRANCH   5   7
ENDBRANCH   4   5
ENDBRANCH   2   4
TORSDOF 4
ENDMDL
MODEL 5
REMARK VINA RESULT:      -3.4     11.614     12.353
REMARK  4 active torsions:
REMARK  status: ('A' for Active; 'I' for Inactive)
REMARK    1  A    between atoms: C4_4  and  C6_6 
REMARK    2  A    between atoms: C4_4  and  N7_7 
REMARK    3  A    between atoms: C5_5  and  C6_6 
REMARK    4  A    between atoms: C5_5  and  O8_8 
ROOT
HETATM    1  C1  UNL     1     -32.782  17.400  -2.258  1.00 20.00     0.157 C 
HETATM    2  N7  UNL     1     -33.127  16.562  -3.004  1.00 20.00    -0.275 NA
HETATM    3  S9  UNL     1     -32.290  18.542  -1.263  1.00 20.00    -0.055 SA
ENDROOT
BRANCH   2   4
HETATM    4  C4  UNL     1     -34.341  15.844  -2.606  1.00 20.00     0.157 C 
BRANCH   4   5
HETATM    5  C6  UNL     1     -34.629  14.683  -3.565  1.00 20.00     0.025 C 
HETATM    6  C2  UNL     1     -36.101  14.653  -3.988  1.00 20.00     0.014 C 
BRANCH   5   7
HETATM    7  C5  UNL     1     -33.699  14.713  -4.784  1.00 20.00     0.172 C 
BRANCH   7   8
HETATM    8  O8  UNL     1     -34.434  14.397  -5.959  1.00 20.00    -0.396 OA
HETATM    9  C3  UNL     1     -34.034  15.204  -7.058  1.00 20.00     0.201 C 
ENDBRANCH   7   8
ENDBRANCH   5   7
ENDBRANCH   4   5
ENDBRANCH   2   4
TORSDOF 4
ENDMDL
MODEL 6
REMARK VINA RESULT:      -3.4     11.220     11.755
REMARK  4 active torsions:
REMARK  status: ('A' for Active; 'I' for Inactive)
REMARK    1  A    between atoms: C4_4  and  C6_6 
REMARK    2  A    between atoms: C4_4  and  N7_7 
REMARK    3  A    between atoms: C5_5  and  C6_6 
REMARK    4  A    between atoms: C5_5  and  O8_8 
ROOT
HETATM    1  C1  UNL     1     -34.159  16.096  -2.726  1.00 20.00     0.157 C 
HETATM    2  N7  UNL     1     -33.448  15.727  -3.584  1.00 20.00    -0.275 NA
HETATM    3  S9  UNL     1     -35.106  16.620  -1.557  1.00 20.00    -0.055 SA
ENDROOT
BRANCH   2   4
HETATM    4  C4  UNL     1     -33.849  14.470  -4.219  1.00 20.00     0.157 C 
BRANCH   4   5
HETATM    5  C6  UNL     1     -35.230  14.603  -4.870  1.00 20.00     0.025 C 
HETATM    6  C2  UNL     1     -35.121  14.828  -6.381  1.00 20.00     0.014 C 
BRANCH   5   7
HETATM    7  C5  UNL     1     -36.125  13.399  -4.549  1.00 20.00     0.172 C 
BRANCH   7   8
HETATM    8  O8  UNL     1     -37.491  13.793  -4.577  1.00 20.00    -0.396 OA
HETATM    9  C3  UNL     1     -37.667  15.100  -4.048  1.00 20.00     0.201 C 
ENDBRANCH   7   8
ENDBRANCH   5   7
ENDBRANCH   4   5
ENDBRANCH   2   4
TORSDOF 4
ENDMDL
MODEL 7
REMARK VINA RESULT:      -3.4     11.303     12.367
REMARK  4 active torsions:
REMARK  status: ('A' for Active; 'I' for Inactive)
REMARK    1  A    between atoms: C4_4  and  C6_6 
REMARK    2  A    between atoms: C4_4  and  N7_7 
REMARK    3  A    between atoms: C5_5  and  C6_6 
REMARK    4  A    between atoms: C5_5  and  O8_8 
ROOT
HETATM    1  C1  UNL     1     -34.284  15.948  -2.836  1.00 20.00     0.157 C 
HETATM    2  N7  UNL     1     -35.163  15.174  -2.918  1.00 20.00    -0.275 NA
HETATM    3  S9  UNL     1     -33.108  17.014  -2.706  1.00 20.00    -0.055 SA
ENDROOT
BRANCH   2   4
HETATM    4  C4  UNL     1     -34.913  14.053  -3.827  1.00 20.00     0.157 C 
BRANCH   4   5
HETATM    5  C6  UNL     1     -36.046  13.917  -4.851  1.00 20.00     0.025 C 
HETATM    6  C2  UNL     1     -37.374  14.440  -4.296  1.00 20.00     0.014 C 
BRANCH   5   7
HETATM    7  C5  UNL     1     -35.691  14.595  -6.180  1.00 20.00     0.172 C 
BRANCH   7   8
HETATM    8  O8  UNL     1     -34.280  14.610  -6.352  1.00 20.00    -0.396 OA
HETATM    9  C3  UNL     1     -33.908  15.268  -7.555  1.00 20.00     0.201 C 
ENDBRANCH   7   8
ENDBRANCH   5   7
ENDBRANCH   4   5
ENDBRANCH   2   4
TORSDOF 4
ENDMDL
MODEL 8
REMARK VINA RESULT:      -3.3     11.501     12.020
REMARK  4 active torsions:
REMARK  status: ('A' for Active; 'I' for Inactive)
REMARK    1  A    between atoms: C4_4  and  C6_6 
REMARK    2  A    between atoms: C4_4  and  N7_7 
REMARK    3  A    between atoms: C5_5  and  C6_6 
REMARK    4  A    between atoms: C5_5  and  O8_8 
ROOT
HETATM    1  C1  UNL     1     -32.319  18.179  -0.980  1.00 20.00     0.157 C 
HETATM    2  N7  UNL     1     -33.251  17.988  -1.669  1.00 20.00    -0.275 NA
HETATM    3  S9  UNL     1     -31.071  18.457  -0.031  1.00 20.00    -0.055 SA
ENDROOT
BRANCH   2   4
HETATM    4  C4  UNL     1     -33.031  17.026  -2.751  1.00 20.00     0.157 C 
BRANCH   4   5
HETATM    5  C6  UNL     1     -34.005  15.847  -2.641  1.00 20.00     0.025 C 
HETATM    6  C2  UNL     1     -35.280  16.239  -1.889  1.00 20.00     0.014 C 
BRANCH   5   7
HETATM    7  C5  UNL     1     -34.330  15.253  -4.017  1.00 20.00     0.172 C 
BRANCH   7   8
HETATM    8  O8  UNL     1     -34.781  13.912  -3.869  1.00 20.00    -0.396 OA
HETATM    9  C3  UNL     1     -36.036  13.712  -4.504  1.00 20.00     0.201 C 
ENDBRANCH   7   8
ENDBRANCH   5   7
ENDBRANCH   4   5
ENDBRANCH   2   4
TORSDOF 4
ENDMDL
MODEL 9
REMARK VINA RESULT:      -3.3      1.283      2.209
REMARK  4 active torsions:
REMARK  status: ('A' for Active; 'I' for Inactive)
REMARK    1  A    between atoms: C4_4  and  C6_6 
REMARK    2  A    between atoms: C4_4  and  N7_7 
REMARK    3  A    between atoms: C5_5  and  C6_6 
REMARK    4  A    between atoms: C5_5  and  O8_8 
ROOT
HETATM    1  C1  UNL     1     -32.644   7.533   1.871  1.00 20.00     0.157 C 
HETATM    2  N7  UNL     1     -32.605   6.841   2.818  1.00 20.00    -0.275 NA
HETATM    3  S9  UNL     1     -32.682   8.452   0.571  1.00 20.00    -0.055 SA
ENDROOT
BRANCH   2   4
HETATM    4  C4  UNL     1     -33.282   7.377   4.001  1.00 20.00     0.157 C 
BRANCH   4   5
HETATM    5  C6  UNL     1     -33.856   6.245   4.862  1.00 20.00     0.025 C 
HETATM    6  C2  UNL     1     -34.084   6.697   6.308  1.00 20.00     0.014 C 
BRANCH   5   7
HETATM    7  C5  UNL     1     -35.137   5.664   4.251  1.00 20.00     0.172 C 
BRANCH   7   8
HETATM    8  O8  UNL     1     -35.100   4.244   4.313  1.00 20.00    -0.396 OA
HETATM    9  C3  UNL     1     -33.919   3.727   3.715  1.00 20.00     0.201 C 
ENDBRANCH   7   8
ENDBRANCH   5   7
ENDBRANCH   4   5
ENDBRANCH   2   4
TORSDOF 4
ENDMDL
