MODEL 1
REMARK VINA RESULT:      -4.9      0.000      0.000
REMARK  2 active torsions:
REMARK  status: ('A' for Active; 'I' for Inactive)
REMARK    1  A    between atoms: C3_3  and  C8_8 
REMARK    2  A    between atoms: C8_8  and  C10_10 
ROOT
HETATM    1  C1  UNL     1     -33.652  17.136  -3.692  1.00 20.00    -0.026 C 
HETATM    2  C2  UNL     1     -34.908  17.366  -4.103  1.00 20.00    -0.024 C 
HETATM    3  C4  UNL     1     -35.033  15.796  -2.430  1.00 20.00     0.018 C 
HETATM    4  C5  UNL     1     -33.804  14.701  -4.155  1.00 20.00     0.025 C 
HETATM    5  C6  UNL     1     -33.635  15.770  -3.047  1.00 20.00     0.010 C 
HETATM    6  C7  UNL     1     -35.721  16.136  -3.763  1.00 20.00     0.024 C 
HETATM    7  C8  UNL     1     -35.261  14.953  -4.669  1.00 20.00     0.020 C 
ENDROOT
BRANCH   7   8
HETATM    8  C3  UNL     1     -36.148  13.763  -4.401  1.00 20.00     0.241 C 
HETATM    9  O11 UNL     1     -35.768  12.601  -4.501  1.00 20.00    -0.306 OA
ENDBRANCH   7   8
BRANCH   7  10
HETATM   10  C10 UNL     1     -35.318  15.239  -6.171  1.00 20.00     0.013 C 
HETATM   11  C9  UNL     1     -33.997  15.001  -6.826  1.00 20.00     0.006 C 
ENDBRANCH   7  10
TORSDOF 2
ENDMDL
MODEL 2
REMARK VINA RESULT:      -4.5     17.280     18.810
REMARK  2 active torsions:
REMARK  status: ('A' for Active; 'I' for Inactive)
REMARK    1  A    between atoms: C3_3  and  C8_8 
REMARK    2  A    between atoms: C8_8  and  C10_10 
ROOT
HETATM    1  C1  UNL     1     -24.611  18.316  12.331  1.00 20.00    -0.026 C 
HETATM    2  C2  UNL     1     -25.282  18.070  11.196  1.00 20.00    -0.024 C 
HETATM    3  C4  UNL     1     -23.983  16.221  11.615  1.00 20.00     0.018 C 
HETATM    4  C5  UNL     1     -22.400  17.967  11.256  1.00 20.00     0.025 C 
HETATM    5  C6  UNL     1     -23.385  17.434  12.327  1.00 20.00     0.010 C 
HETATM    6  C7  UNL     1     -24.482  17.047  10.417  1.00 20.00     0.024 C 
HETATM    7  C8  UNL     1     -23.162  17.708   9.914  1.00 20.00     0.020 C 
ENDROOT
BRANCH   7   8
HETATM    8  C3  UNL     1     -22.423  16.717   9.049  1.00 20.00     0.241 C 
HETATM    9  O11 UNL     1     -21.405  16.993   8.424  1.00 20.00    -0.306 OA
ENDBRANCH   7   8
BRANCH   7  10
HETATM   10  C10 UNL     1     -23.358  18.981   9.089  1.00 20.00     0.013 C 
HETATM   11  C9  UNL     1     -24.395  18.796   8.031  1.00 20.00     0.006 C 
ENDBRANCH   7  10
TORSDOF 2
ENDMDL
MODEL 3
REMARK VINA RESULT:      -4.4      1.095      1.181
REMARK  2 active torsions:
REMARK  status: ('A' for Active; 'I' for Inactive)
REMARK    1  A    between atoms: C3_3  and  C8_8 
REMARK    2  A    between atoms: C8_8  and  C10_10 
ROOT
HETATM    1  C1  UNL     1     -33.556  16.488  -3.778  1.00 20.00    -0.026 C 
HETATM    2  C2  UNL     1     -34.556  17.341  -4.048  1.00 20.00    -0.024 C 
HETATM    3  C4  UNL     1     -35.292  15.968  -2.358  1.00 20.00     0.018 C 
HETATM    4  C5  UNL     1     -34.968  14.490  -4.201  1.00 20.00     0.025 C 
HETATM    5  C6  UNL     1     -34.170  15.271  -3.127  1.00 20.00     0.010 C 
HETATM    6  C7  UNL     1     -35.842  16.675  -3.608  1.00 20.00     0.024 C 
HETATM    7  C8  UNL     1     -36.139  15.468  -4.551  1.00 20.00     0.020 C 
ENDROOT
BRANCH   7   8
HETATM    8  C3  UNL     1     -37.475  14.877  -4.175  1.00 20.00     0.241 C 
HETATM    9  O11 UNL     1     -37.783  13.710  -4.393  1.00 20.00    -0.306 OA
ENDBRANCH   7   8
BRANCH   7  10
HETATM   10  C10 UNL     1     -36.194  15.818  -6.039  1.00 20.00     0.013 C 
HETATM   11  C9  UNL     1     -35.362  14.883  -6.853  1.00 20.00     0.006 C 
ENDBRANCH   7  10
TORSDOF 2
ENDMDL
MODEL 4
REMARK VINA RESULT:      -4.3      1.306      2.220
REMARK  2 active torsions:
REMARK  status: ('A' for Active; 'I' for Inactive)
REMARK    1  A    between atoms: C3_3  and  C8_8 
REMARK    2  A    between atoms: C8_8  and  C10_10 
ROOT
HETATM    1  C1  UNL     1     -33.294  16.023  -3.410  1.00 20.00    -0.026 C 
HETATM    2  C2  UNL     1     -34.322  15.853  -2.564  1.00 20.00    -0.024 C 
HETATM    3  C4  UNL     1     -34.224  13.970  -3.879  1.00 20.00     0.018 C 
HETATM    4  C5  UNL     1     -34.722  15.721  -5.419  1.00 20.00     0.025 C 
HETATM    5  C6  UNL     1     -33.544  15.132  -4.603  1.00 20.00     0.010 C 
HETATM    6  C7  UNL     1     -35.277  14.874  -3.214  1.00 20.00     0.024 C 
HETATM    7  C8  UNL     1     -35.941  15.553  -4.450  1.00 20.00     0.020 C 
ENDROOT
BRANCH   7   8
HETATM    8  C3  UNL     1     -36.969  14.611  -5.027  1.00 20.00     0.241 C 
HETATM    9  O11 UNL     1     -37.694  13.899  -4.340  1.00 20.00    -0.306 OA
ENDBRANCH   7   8
BRANCH   7  10
HETATM   10  C10 UNL     1     -36.647  16.876  -4.151  1.00 20.00     0.013 C 
HETATM   11  C9  UNL     1     -36.182  17.965  -5.061  1.00 20.00     0.006 C 
ENDBRANCH   7  10
TORSDOF 2
ENDMDL
MODEL 5
REMARK VINA RESULT:      -4.3      1.176      2.225
REMARK  2 active torsions:
REMARK  status: ('A' for Active; 'I' for Inactive)
REMARK    1  A    between atoms: C3_3  and  C8_8 
REMARK    2  A    between atoms: C8_8  and  C10_10 
ROOT
HETATM    1  C1  UNL     1     -34.303  17.139  -2.909  1.00 20.00    -0.026 C 
HETATM    2  C2  UNL     1     -34.877  16.137  -2.225  1.00 20.00    -0.024 C 
HETATM    3  C4  UNL     1     -33.540  15.170  -3.825  1.00 20.00     0.018 C 
HETATM    4  C5  UNL     1     -35.191  16.340  -5.086  1.00 20.00     0.025 C 
HETATM    5  C6  UNL     1     -33.905  16.590  -4.259  1.00 20.00     0.010 C 
HETATM    6  C7  UNL     1     -34.893  14.928  -3.136  1.00 20.00     0.024 C 
HETATM    7  C8  UNL     1     -35.895  15.182  -4.303  1.00 20.00     0.020 C 
ENDROOT
BRANCH   7   8
HETATM    8  C3  UNL     1     -35.987  13.933  -5.144  1.00 20.00     0.241 C 
HETATM    9  O11 UNL     1     -36.013  12.801  -4.672  1.00 20.00    -0.306 OA
ENDBRANCH   7   8
BRANCH   7  10
HETATM   10  C10 UNL     1     -37.314  15.544  -3.861  1.00 20.00     0.013 C 
HETATM   11  C9  UNL     1     -37.802  16.781  -4.539  1.00 20.00     0.006 C 
ENDBRANCH   7  10
TORSDOF 2
ENDMDL
MODEL 6
REMARK VINA RESULT:      -4.3      1.025      2.953
REMARK  2 active torsions:
REMARK  status: ('A' for Active; 'I' for Inactive)
REMARK    1  A    between atoms: C3_3  and  C8_8 
REMARK    2  A    between atoms: C8_8  and  C10_10 
ROOT
HETATM    1  C1  UNL     1     -34.474  16.908  -6.952  1.00 20.00    -0.026 C 
HETATM    2  C2  UNL     1     -34.076  15.645  -7.168  1.00 20.00    -0.024 C 
HETATM    3  C4  UNL     1     -36.347  15.575  -6.822  1.00 20.00     0.018 C 
HETATM    4  C5  UNL     1     -35.472  16.357  -4.746  1.00 20.00     0.025 C 
HETATM    5  C6  UNL     1     -35.774  16.842  -6.186  1.00 20.00     0.010 C 
HETATM    6  C7  UNL     1     -35.094  14.737  -6.513  1.00 20.00     0.024 C 
HETATM    7  C8  UNL     1     -34.987  14.885  -4.964  1.00 20.00     0.020 C 
ENDROOT
BRANCH   7   8
HETATM    8  C3  UNL     1     -35.928  13.899  -4.317  1.00 20.00     0.241 C 
HETATM    9  O11 UNL     1     -35.929  12.699  -4.571  1.00 20.00    -0.306 OA
ENDBRANCH   7   8
BRANCH   7  10
HETATM   10  C10 UNL     1     -33.592  14.630  -4.393  1.00 20.00     0.013 C 
HETATM   11  C9  UNL     1     -33.147  15.749  -3.509  1.00 20.00     0.006 C 
ENDBRANCH   7  10
TORSDOF 2
ENDMDL
MODEL 7
REMARK VINA RESULT:      -4.2      1.533      3.302
REMARK  2 active torsions:
REMARK  status: ('A' for Active; 'I' for Inactive)
REMARK    1  A    between atoms: C3_3  and  C8_8 
REMARK    2  A    between atoms: C8_8  and  C10_10 
ROOT
HETATM    1  C1  UNL     1     -37.363  14.834  -4.483  1.00 20.00    -0.026 C 
HETATM    2  C2  UNL     1     -36.760  16.031  -4.546  1.00 20.00    -0.024 C 
HETATM    3  C4  UNL     1     -35.629  14.641  -5.985  1.00 20.00     0.018 C 
HETATM    4  C5  UNL     1     -35.270  13.663  -3.839  1.00 20.00     0.025 C 
HETATM    5  C6  UNL     1     -36.357  13.801  -4.934  1.00 20.00     0.010 C 
HETATM    6  C7  UNL     1     -35.338  15.790  -5.005  1.00 20.00     0.024 C 
HETATM    7  C8  UNL     1     -34.554  15.055  -3.875  1.00 20.00     0.020 C 
ENDROOT
BRANCH   7   8
HETATM    8  C3  UNL     1     -33.112  14.916  -4.295  1.00 20.00     0.241 C 
HETATM    9  O11 UNL     1     -32.565  13.835  -4.486  1.00 20.00    -0.306 OA
ENDBRANCH   7   8
BRANCH   7  10
HETATM   10  C10 UNL     1     -34.571  15.764  -2.520  1.00 20.00     0.013 C 
HETATM   11  C9  UNL     1     -33.459  16.754  -2.405  1.00 20.00     0.006 C 
ENDBRANCH   7  10
TORSDOF 2
ENDMDL
MODEL 8
REMARK VINA RESULT:      -4.2      1.507      2.387
REMARK  2 active torsions:
REMARK  status: ('A' for Active; 'I' for Inactive)
REMARK    1  A    between atoms: C3_3  and  C8_8 
REMARK    2  A    between atoms: C8_8  and  C10_10 
ROOT
HETATM    1  C1  UNL     1     -35.374  17.623  -2.774  1.00 20.00    -0.026 C 
HETATM    2  C2  UNL     1     -35.167  16.521  -2.038  1.00 20.00    -0.024 C 
HETATM    3  C4  UNL     1     -33.142  17.090  -2.965  1.00 20.00     0.018 C 
HETATM    4  C5  UNL     1     -34.510  16.563  -4.846  1.00 20.00     0.025 C 
HETATM    5  C6  UNL     1     -34.273  17.686  -3.806  1.00 20.00     0.010 C 
HETATM    6  C7  UNL     1     -33.945  15.829  -2.604  1.00 20.00     0.024 C 
HETATM    7  C8  UNL     1     -34.290  15.257  -4.012  1.00 20.00     0.020 C 
ENDROOT
BRANCH   7   8
HETATM    8  C3  UNL     1     -33.104  14.476  -4.523  1.00 20.00     0.241 C 
HETATM    9  O11 UNL     1     -32.948  13.276  -4.324  1.00 20.00    -0.306 OA
ENDBRANCH   7   8
BRANCH   7  10
HETATM   10  C10 UNL     1     -35.501  14.323  -4.044  1.00 20.00     0.013 C 
HETATM   11  C9  UNL     1     -36.484  14.734  -5.091  1.00 20.00     0.006 C 
ENDBRANCH   7  10
TORSDOF 2
ENDMDL
MODEL 9
REMARK VINA RESULT:      -4.2      1.158      2.980
REMARK  2 active torsions:
REMARK  status: ('A' for Active; 'I' for Inactive)
REMARK    1  A    between atoms: C3_3  and  C8_8 
REMARK    2  A    between atoms: C8_8  and  C10_10 
ROOT
HETATM    1  C1  UNL     1     -35.790  17.136  -5.788  1.00 20.00    -0.026 C 
HETATM    2  C2  UNL     1     -34.509  16.740  -5.799  1.00 20.00    -0.024 C 
HETATM    3  C4  UNL     1     -35.765  14.950  -6.507  1.00 20.00     0.018 C 
HETATM    4  C5  UNL     1     -36.484  15.305  -4.261  1.00 20.00     0.025 C 
HETATM    5  C6  UNL     1     -36.643  15.894  -5.685  1.00 20.00     0.010 C 
HETATM    6  C7  UNL     1     -34.507  15.232  -5.667  1.00 20.00     0.024 C 
HETATM    7  C8  UNL     1     -34.988  14.845  -4.235  1.00 20.00     0.020 C 
ENDROOT
BRANCH   7   8
HETATM    8  C3  UNL     1     -34.881  13.349  -4.075  1.00 20.00     0.241 C 
HETATM    9  O11 UNL     1     -35.783  12.571  -4.365  1.00 20.00    -0.306 OA
ENDBRANCH   7   8
BRANCH   7  10
HETATM   10  C10 UNL     1     -34.192  15.486  -3.098  1.00 20.00     0.013 C 
HETATM   11  C9  UNL     1     -35.090  16.096  -2.073  1.00 20.00     0.006 C 
ENDBRANCH   7  10
TORSDOF 2
ENDMDL
