MODEL 1
REMARK VINA RESULT:      -4.8      0.000      0.000
REMARK  1 active torsions:
REMARK  status: ('A' for Active; 'I' for Inactive)
REMARK    1  A    between atoms: C3_3  and  C8_8 
ROOT
HETATM    1  C1  UNL     1     -33.745  16.857  -2.033  1.00 20.00    -0.028 C 
HETATM    2  C2  UNL     1     -33.151  16.993  -3.229  1.00 20.00    -0.016 C 
HETATM    3  C4  UNL     1     -35.177  16.434  -1.834  1.00 20.00     0.042 C 
HETATM    4  C5  UNL     1     -33.659  15.288  -5.007  1.00 20.00     0.020 C 
HETATM    5  C6  UNL     1     -34.205  14.248  -4.016  1.00 20.00     0.016 C 
HETATM    6  C7  UNL     1     -33.824  16.743  -4.553  1.00 20.00     0.070 C 
HETATM    7  C8  UNL     1     -35.626  14.514  -3.499  1.00 20.00     0.086 C 
HETATM    8  C9  UNL     1     -35.951  15.966  -3.086  1.00 20.00     0.063 C 
HETATM    9  S11 UNL     1     -35.599  17.126  -4.447  1.00 20.00    -0.154 SA
ENDROOT
BRANCH   7  10
HETATM   10  C3  UNL     1     -36.635  14.029  -4.505  1.00 20.00     0.224 C 
HETATM   11  O10 UNL     1     -36.325  13.268  -5.416  1.00 20.00    -0.279 OA
HETATM   12 CL12 UNL     1     -38.222  14.671  -4.201  1.00 20.00    -0.043 Cl
ENDBRANCH   7  10
TORSDOF 1
ENDMDL
MODEL 2
REMARK VINA RESULT:      -4.5      1.172      1.234
REMARK  1 active torsions:
REMARK  status: ('A' for Active; 'I' for Inactive)
REMARK    1  A    between atoms: C3_3  and  C8_8 
ROOT
HETATM    1  C1  UNL     1     -34.608  16.896  -1.627  1.00 20.00    -0.028 C 
HETATM    2  C2  UNL     1     -33.438  16.675  -2.247  1.00 20.00    -0.016 C 
HETATM    3  C4  UNL     1     -35.940  16.990  -2.325  1.00 20.00     0.042 C 
HETATM    4  C5  UNL     1     -33.390  15.010  -4.132  1.00 20.00     0.020 C 
HETATM    5  C6  UNL     1     -34.714  14.342  -3.729  1.00 20.00     0.016 C 
HETATM    6  C7  UNL     1     -33.278  16.487  -3.732  1.00 20.00     0.070 C 
HETATM    7  C8  UNL     1     -35.984  15.120  -4.103  1.00 20.00     0.086 C 
HETATM    8  C9  UNL     1     -35.971  16.639  -3.829  1.00 20.00     0.063 C 
HETATM    9  S11 UNL     1     -34.542  17.435  -4.635  1.00 20.00    -0.154 SA
ENDROOT
BRANCH   7  10
HETATM   10  C3  UNL     1     -36.337  14.861  -5.542  1.00 20.00     0.224 C 
HETATM   11  O10 UNL     1     -35.924  13.872  -6.142  1.00 20.00    -0.279 OA
HETATM   12 CL12 UNL     1     -37.362  16.102  -6.198  1.00 20.00    -0.043 Cl
ENDBRANCH   7  10
TORSDOF 1
ENDMDL
MODEL 3
REMARK VINA RESULT:      -4.3      2.892      4.207
REMARK  1 active torsions:
REMARK  status: ('A' for Active; 'I' for Inactive)
REMARK    1  A    between atoms: C3_3  and  C8_8 
ROOT
HETATM    1  C1  UNL     1     -35.407  13.902  -4.151  1.00 20.00    -0.028 C 
HETATM    2  C2  UNL     1     -36.445  14.752  -4.096  1.00 20.00    -0.016 C 
HETATM    3  C4  UNL     1     -33.962  14.321  -4.211  1.00 20.00     0.042 C 
HETATM    4  C5  UNL     1     -36.223  16.802  -2.656  1.00 20.00     0.020 C 
HETATM    5  C6  UNL     1     -35.045  16.244  -1.841  1.00 20.00     0.016 C 
HETATM    6  C7  UNL     1     -36.323  16.253  -4.084  1.00 20.00     0.070 C 
HETATM    7  C8  UNL     1     -33.683  16.276  -2.548  1.00 20.00     0.086 C 
HETATM    8  C9  UNL     1     -33.659  15.825  -4.025  1.00 20.00     0.063 C 
HETATM    9  S11 UNL     1     -34.853  16.780  -5.018  1.00 20.00    -0.154 SA
ENDROOT
BRANCH   7  10
HETATM   10  C3  UNL     1     -33.072  17.644  -2.420  1.00 20.00     0.224 C 
HETATM   11  O10 UNL     1     -32.556  18.214  -3.378  1.00 20.00    -0.279 OA
HETATM   12 CL12 UNL     1     -33.196  18.268  -0.803  1.00 20.00    -0.043 Cl
ENDBRANCH   7  10
TORSDOF 1
ENDMDL
MODEL 4
REMARK VINA RESULT:      -4.3      1.834      2.135
REMARK  1 active torsions:
REMARK  status: ('A' for Active; 'I' for Inactive)
REMARK    1  A    between atoms: C3_3  and  C8_8 
ROOT
HETATM    1  C1  UNL     1     -35.464  16.608  -1.998  1.00 20.00    -0.028 C 
HETATM    2  C2  UNL     1     -34.122  16.643  -2.019  1.00 20.00    -0.016 C 
HETATM    3  C4  UNL     1     -36.339  16.646  -3.223  1.00 20.00     0.042 C 
HETATM    4  C5  UNL     1     -32.930  15.332  -3.804  1.00 20.00     0.020 C 
HETATM    5  C6  UNL     1     -34.142  14.444  -4.124  1.00 20.00     0.016 C 
HETATM    6  C7  UNL     1     -33.288  16.724  -3.269  1.00 20.00     0.070 C 
HETATM    7  C8  UNL     1     -35.236  15.105  -4.975  1.00 20.00     0.086 C 
HETATM    8  C9  UNL     1     -35.632  16.547  -4.594  1.00 20.00     0.063 C 
HETATM    9  S11 UNL     1     -34.173  17.641  -4.568  1.00 20.00    -0.154 SA
ENDROOT
BRANCH   7  10
HETATM   10  C3  UNL     1     -34.857  15.045  -6.430  1.00 20.00     0.224 C 
HETATM   11  O10 UNL     1     -33.740  14.687  -6.794  1.00 20.00    -0.279 OA
HETATM   12 CL12 UNL     1     -36.164  15.533  -7.467  1.00 20.00    -0.043 Cl
ENDBRANCH   7  10
TORSDOF 1
ENDMDL
MODEL 5
REMARK VINA RESULT:      -4.3      1.528      1.948
REMARK  1 active torsions:
REMARK  status: ('A' for Active; 'I' for Inactive)
REMARK    1  A    between atoms: C3_3  and  C8_8 
ROOT
HETATM    1  C1  UNL     1     -34.498  17.940  -0.933  1.00 20.00    -0.028 C 
HETATM    2  C2  UNL     1     -34.095  18.703  -1.962  1.00 20.00    -0.016 C 
HETATM    3  C4  UNL     1     -35.290  16.666  -1.073  1.00 20.00     0.042 C 
HETATM    4  C5  UNL     1     -33.261  17.552  -4.037  1.00 20.00     0.020 C 
HETATM    5  C6  UNL     1     -33.016  16.208  -3.333  1.00 20.00     0.016 C 
HETATM    6  C7  UNL     1     -34.373  18.402  -3.411  1.00 20.00     0.070 C 
HETATM    7  C8  UNL     1     -34.274  15.370  -3.060  1.00 20.00     0.086 C 
HETATM    8  C9  UNL     1     -35.501  16.125  -2.505  1.00 20.00     0.063 C 
HETATM    9  S11 UNL     1     -35.955  17.520  -3.587  1.00 20.00    -0.154 SA
ENDROOT
BRANCH   7  10
HETATM   10  C3  UNL     1     -34.659  14.607  -4.299  1.00 20.00     0.224 C 
HETATM   11  O10 UNL     1     -33.874  14.448  -5.230  1.00 20.00    -0.279 OA
HETATM   12 CL12 UNL     1     -36.291  14.015  -4.221  1.00 20.00    -0.043 Cl
ENDBRANCH   7  10
TORSDOF 1
ENDMDL
MODEL 6
REMARK VINA RESULT:      -4.2      1.586      2.114
REMARK  1 active torsions:
REMARK  status: ('A' for Active; 'I' for Inactive)
REMARK    1  A    between atoms: C3_3  and  C8_8 
ROOT
HETATM    1  C1  UNL     1     -33.477  15.130  -3.782  1.00 20.00    -0.028 C 
HETATM    2  C2  UNL     1     -33.555  14.969  -5.114  1.00 20.00    -0.016 C 
HETATM    3  C4  UNL     1     -34.549  15.763  -2.934  1.00 20.00     0.042 C 
HETATM    4  C5  UNL     1     -35.764  14.276  -6.096  1.00 20.00     0.020 C 
HETATM    5  C6  UNL     1     -36.331  13.769  -4.761  1.00 20.00     0.016 C 
HETATM    6  C7  UNL     1     -34.725  15.395  -5.960  1.00 20.00     0.070 C 
HETATM    7  C8  UNL     1     -36.810  14.861  -3.793  1.00 20.00     0.086 C 
HETATM    8  C9  UNL     1     -35.891  16.090  -3.627  1.00 20.00     0.063 C 
HETATM    9  S11 UNL     1     -35.532  16.859  -5.241  1.00 20.00    -0.154 SA
ENDROOT
BRANCH   7  10
HETATM   10  C3  UNL     1     -38.197  15.305  -4.168  1.00 20.00     0.224 C 
HETATM   11  O10 UNL     1     -38.924  14.619  -4.882  1.00 20.00    -0.279 OA
HETATM   12 CL12 UNL     1     -38.599  16.849  -3.480  1.00 20.00    -0.043 Cl
ENDBRANCH   7  10
TORSDOF 1
ENDMDL
MODEL 7
REMARK VINA RESULT:      -4.1      2.636      3.888
REMARK  1 active torsions:
REMARK  status: ('A' for Active; 'I' for Inactive)
REMARK    1  A    between atoms: C3_3  and  C8_8 
ROOT
HETATM    1  C1  UNL     1     -34.881  15.439  -7.053  1.00 20.00    -0.028 C 
HETATM    2  C2  UNL     1     -35.767  14.566  -6.544  1.00 20.00    -0.016 C 
HETATM    3  C4  UNL     1     -34.354  16.645  -6.321  1.00 20.00     0.042 C 
HETATM    4  C5  UNL     1     -35.524  13.905  -4.129  1.00 20.00     0.020 C 
HETATM    5  C6  UNL     1     -34.066  14.380  -4.025  1.00 20.00     0.016 C 
HETATM    6  C7  UNL     1     -36.365  14.661  -5.165  1.00 20.00     0.070 C 
HETATM    7  C8  UNL     1     -33.878  15.899  -3.897  1.00 20.00     0.086 C 
HETATM    8  C9  UNL     1     -34.733  16.783  -4.830  1.00 20.00     0.063 C 
HETATM    9  S11 UNL     1     -36.506  16.400  -4.649  1.00 20.00    -0.154 SA
ENDROOT
BRANCH   7  10
HETATM   10  C3  UNL     1     -34.076  16.321  -2.467  1.00 20.00     0.224 C 
HETATM   11  O10 UNL     1     -35.007  15.891  -1.790  1.00 20.00    -0.279 OA
HETATM   12 CL12 UNL     1     -32.860  17.445  -1.941  1.00 20.00    -0.043 Cl
ENDBRANCH   7  10
TORSDOF 1
ENDMDL
MODEL 8
REMARK VINA RESULT:      -4.1      2.533      3.809
REMARK  1 active torsions:
REMARK  status: ('A' for Active; 'I' for Inactive)
REMARK    1  A    between atoms: C3_3  and  C8_8 
ROOT
HETATM    1  C1  UNL     1     -37.901  14.781  -4.279  1.00 20.00    -0.028 C 
HETATM    2  C2  UNL     1     -37.934  16.123  -4.334  1.00 20.00    -0.016 C 
HETATM    3  C4  UNL     1     -36.666  13.948  -4.502  1.00 20.00     0.042 C 
HETATM    4  C5  UNL     1     -36.006  17.398  -3.344  1.00 20.00     0.020 C 
HETATM    5  C6  UNL     1     -35.504  16.215  -2.502  1.00 20.00     0.016 C 
HETATM    6  C7  UNL     1     -36.744  16.997  -4.627  1.00 20.00     0.070 C 
HETATM    7  C8  UNL     1     -34.730  15.138  -3.278  1.00 20.00     0.086 C 
HETATM    8  C9  UNL     1     -35.324  14.702  -4.635  1.00 20.00     0.063 C 
HETATM    9  S11 UNL     1     -35.577  16.138  -5.728  1.00 20.00    -0.154 SA
ENDROOT
BRANCH   7  10
HETATM   10  C3  UNL     1     -33.299  15.566  -3.458  1.00 20.00     0.224 C 
HETATM   11  O10 UNL     1     -32.536  14.968  -4.211  1.00 20.00    -0.279 OA
HETATM   12 CL12 UNL     1     -32.907  16.960  -2.496  1.00 20.00    -0.043 Cl
ENDBRANCH   7  10
TORSDOF 1
ENDMDL
MODEL 9
REMARK VINA RESULT:      -4.1      1.643      1.989
REMARK  1 active torsions:
REMARK  status: ('A' for Active; 'I' for Inactive)
REMARK    1  A    between atoms: C3_3  and  C8_8 
ROOT
HETATM    1  C1  UNL     1     -35.843  18.625  -2.384  1.00 20.00    -0.028 C 
HETATM    2  C2  UNL     1     -34.675  18.882  -2.996  1.00 20.00    -0.016 C 
HETATM    3  C4  UNL     1     -36.744  17.465  -2.717  1.00 20.00     0.042 C 
HETATM    4  C5  UNL     1     -33.182  16.940  -3.564  1.00 20.00     0.020 C 
HETATM    5  C6  UNL     1     -33.872  15.974  -2.590  1.00 20.00     0.016 C 
HETATM    6  C7  UNL     1     -34.089  18.051  -4.106  1.00 20.00     0.070 C 
HETATM    7  C8  UNL     1     -35.220  15.412  -3.065  1.00 20.00     0.086 C 
HETATM    8  C9  UNL     1     -36.199  16.416  -3.711  1.00 20.00     0.063 C 
HETATM    9  S11 UNL     1     -35.411  17.294  -5.101  1.00 20.00    -0.154 SA
ENDROOT
BRANCH   7  10
HETATM   10  C3  UNL     1     -34.991  14.250  -3.994  1.00 20.00     0.224 C 
HETATM   11  O10 UNL     1     -33.873  13.770  -4.165  1.00 20.00    -0.279 OA
HETATM   12 CL12 UNL     1     -36.462  13.714  -4.747  1.00 20.00    -0.043 Cl
ENDBRANCH   7  10
TORSDOF 1
ENDMDL
