MODEL 1
REMARK VINA RESULT:      -4.1      0.000      0.000
REMARK  2 active torsions:
REMARK  status: ('A' for Active; 'I' for Inactive)
REMARK    1  A    between atoms: C1_1  and  C3_3 
REMARK       I    between atoms: C1_1  and  N8_8 
REMARK    2  A    between atoms: N8_8  and  O10_10 
ROOT
HETATM    1  C1  UNL     1     -33.420   5.795   2.954  1.00 20.00     0.247 C 
HETATM    2  C6  UNL     1     -34.604   4.232   4.487  1.00 20.00     0.189 C 
HETATM    3  N8  UNL     1     -34.217   5.560   4.047  1.00 20.00    -0.231 N 
HETATM    4  O9  UNL     1     -32.952   4.906   2.239  1.00 20.00    -0.271 OA
ENDROOT
BRANCH   1   5
HETATM    5  C3  UNL     1     -33.112   7.242   2.659  1.00 20.00     0.084 A 
HETATM    6  C2  UNL     1     -31.689   7.675   2.708  1.00 20.00     0.019 A 
HETATM    7  C4  UNL     1     -32.399   7.556   1.390  1.00 20.00    -0.005 A 
HETATM    8  C5  UNL     1     -32.781   8.780   0.631  1.00 20.00     0.011 C 
ENDBRANCH   1   5
BRANCH   3   9
HETATM    9  O10 UNL     1     -34.746   6.582   4.857  1.00 20.00    -0.281 OA
HETATM   10  C7  UNL     1     -34.085   6.561   6.119  1.00 20.00     0.238 C 
ENDBRANCH   3   9
TORSDOF 2
ENDMDL
MODEL 2
REMARK VINA RESULT:      -4.0     10.997     12.037
REMARK  2 active torsions:
REMARK  status: ('A' for Active; 'I' for Inactive)
REMARK    1  A    between atoms: C1_1  and  C3_3 
REMARK       I    between atoms: C1_1  and  N8_8 
REMARK    2  A    between atoms: N8_8  and  O10_10 
ROOT
HETATM    1  C1  UNL     1     -34.303  15.698  -2.857  1.00 20.00     0.247 C 
HETATM    2  C6  UNL     1     -35.515  13.936  -4.130  1.00 20.00     0.189 C 
HETATM    3  N8  UNL     1     -34.392  14.832  -3.919  1.00 20.00    -0.231 N 
HETATM    4  O9  UNL     1     -35.163  15.804  -1.980  1.00 20.00    -0.271 OA
ENDROOT
BRANCH   1   5
HETATM    5  C3  UNL     1     -33.067  16.563  -2.813  1.00 20.00     0.084 A 
HETATM    6  C2  UNL     1     -33.132  17.904  -3.454  1.00 20.00     0.019 A 
HETATM    7  C4  UNL     1     -33.102  17.781  -1.958  1.00 20.00    -0.005 A 
HETATM    8  C5  UNL     1     -31.880  18.167  -1.197  1.00 20.00     0.011 C 
ENDBRANCH   1   5
BRANCH   3   9
HETATM    9  O10 UNL     1     -33.405  14.718  -4.915  1.00 20.00    -0.281 OA
HETATM   10  C7  UNL     1     -33.989  15.009  -6.182  1.00 20.00     0.238 C 
ENDBRANCH   3   9
TORSDOF 2
ENDMDL
MODEL 3
REMARK VINA RESULT:      -3.9     11.133     12.111
REMARK  2 active torsions:
REMARK  status: ('A' for Active; 'I' for Inactive)
REMARK    1  A    between atoms: C1_1  and  C3_3 
REMARK       I    between atoms: C1_1  and  N8_8 
REMARK    2  A    between atoms: N8_8  and  O10_10 
ROOT
HETATM    1  C1  UNL     1     -37.106  14.726  -4.280  1.00 20.00     0.247 C 
HETATM    2  C6  UNL     1     -39.547  15.206  -4.221  1.00 20.00     0.189 C 
HETATM    3  N8  UNL     1     -38.153  15.604  -4.148  1.00 20.00    -0.231 N 
HETATM    4  O9  UNL     1     -37.242  13.516  -4.472  1.00 20.00    -0.271 OA
ENDROOT
BRANCH   1   5
HETATM    5  C3  UNL     1     -35.725  15.322  -4.161  1.00 20.00     0.084 A 
HETATM    6  C2  UNL     1     -35.124  15.421  -2.802  1.00 20.00     0.019 A 
HETATM    7  C4  UNL     1     -34.607  14.413  -3.787  1.00 20.00    -0.005 A 
HETATM    8  C5  UNL     1     -33.274  14.605  -4.426  1.00 20.00     0.011 C 
ENDBRANCH   1   5
BRANCH   3   9
HETATM    9  O10 UNL     1     -37.987  16.985  -3.929  1.00 20.00    -0.281 OA
HETATM   10  C7  UNL     1     -38.948  17.420  -2.972  1.00 20.00     0.238 C 
ENDBRANCH   3   9
TORSDOF 2
ENDMDL
MODEL 4
REMARK VINA RESULT:      -3.9     11.174     12.252
REMARK  2 active torsions:
REMARK  status: ('A' for Active; 'I' for Inactive)
REMARK    1  A    between atoms: C1_1  and  C3_3 
REMARK       I    between atoms: C1_1  and  N8_8 
REMARK    2  A    between atoms: N8_8  and  O10_10 
ROOT
HETATM    1  C1  UNL     1     -34.204  16.218  -4.476  1.00 20.00     0.247 C 
HETATM    2  C6  UNL     1     -34.729  15.016  -6.591  1.00 20.00     0.189 C 
HETATM    3  N8  UNL     1     -34.548  15.074  -5.151  1.00 20.00    -0.231 N 
HETATM    4  O9  UNL     1     -34.012  17.307  -5.020  1.00 20.00    -0.271 OA
ENDROOT
BRANCH   1   5
HETATM    5  C3  UNL     1     -34.046  16.080  -2.982  1.00 20.00     0.084 A 
HETATM    6  C2  UNL     1     -33.081  16.983  -2.297  1.00 20.00     0.019 A 
HETATM    7  C4  UNL     1     -34.559  17.185  -2.125  1.00 20.00    -0.005 A 
HETATM    8  C5  UNL     1     -35.215  16.850  -0.830  1.00 20.00     0.011 C 
ENDBRANCH   1   5
BRANCH   3   9
HETATM    9  O10 UNL     1     -34.765  13.833  -4.522  1.00 20.00    -0.281 OA
HETATM   10  C7  UNL     1     -36.157  13.531  -4.561  1.00 20.00     0.238 C 
ENDBRANCH   3   9
TORSDOF 2
ENDMDL
MODEL 5
REMARK VINA RESULT:      -3.7     11.683     12.420
REMARK  2 active torsions:
REMARK  status: ('A' for Active; 'I' for Inactive)
REMARK    1  A    between atoms: C1_1  and  C3_3 
REMARK       I    between atoms: C1_1  and  N8_8 
REMARK    2  A    between atoms: N8_8  and  O10_10 
ROOT
HETATM    1  C1  UNL     1     -31.647  18.393  -0.156  1.00 20.00     0.247 C 
HETATM    2  C6  UNL     1     -30.534  19.002   1.985  1.00 20.00     0.189 C 
HETATM    3  N8  UNL     1     -31.698  18.655   1.191  1.00 20.00    -0.231 N 
HETATM    4  O9  UNL     1     -30.612  18.426  -0.825  1.00 20.00    -0.271 OA
ENDROOT
BRANCH   1   5
HETATM    5  C3  UNL     1     -32.963  18.064  -0.816  1.00 20.00     0.084 A 
HETATM    6  C2  UNL     1     -33.317  18.792  -2.065  1.00 20.00     0.019 A 
HETATM    7  C4  UNL     1     -32.926  17.343  -2.117  1.00 20.00    -0.005 A 
HETATM    8  C5  UNL     1     -33.953  16.299  -2.395  1.00 20.00     0.011 C 
ENDBRANCH   1   5
BRANCH   3   9
HETATM    9  O10 UNL     1     -32.885  18.615   1.946  1.00 20.00    -0.281 OA
HETATM   10  C7  UNL     1     -32.701  17.732   3.050  1.00 20.00     0.238 C 
ENDBRANCH   3   9
TORSDOF 2
ENDMDL
MODEL 6
REMARK VINA RESULT:      -3.6     11.595     13.009
REMARK  2 active torsions:
REMARK  status: ('A' for Active; 'I' for Inactive)
REMARK    1  A    between atoms: C1_1  and  C3_3 
REMARK       I    between atoms: C1_1  and  N8_8 
REMARK    2  A    between atoms: N8_8  and  O10_10 
ROOT
HETATM    1  C1  UNL     1     -34.466  15.408  -5.278  1.00 20.00     0.247 C 
HETATM    2  C6  UNL     1     -35.374  15.137  -7.579  1.00 20.00     0.189 C 
HETATM    3  N8  UNL     1     -35.285  15.818  -6.300  1.00 20.00    -0.231 N 
HETATM    4  O9  UNL     1     -33.727  14.423  -5.341  1.00 20.00    -0.271 OA
ENDROOT
BRANCH   1   5
HETATM    5  C3  UNL     1     -34.519  16.234  -4.017  1.00 20.00     0.084 A 
HETATM    6  C2  UNL     1     -34.772  15.527  -2.732  1.00 20.00     0.019 A 
HETATM    7  C4  UNL     1     -33.409  16.078  -3.037  1.00 20.00    -0.005 A 
HETATM    8  C5  UNL     1     -32.907  17.281  -2.315  1.00 20.00     0.011 C 
ENDBRANCH   1   5
BRANCH   3   9
HETATM    9  O10 UNL     1     -36.125  16.945  -6.220  1.00 20.00    -0.281 OA
HETATM   10  C7  UNL     1     -37.468  16.539  -6.470  1.00 20.00     0.238 C 
ENDBRANCH   3   9
TORSDOF 2
ENDMDL
MODEL 7
REMARK VINA RESULT:      -3.6     11.484     12.300
REMARK  2 active torsions:
REMARK  status: ('A' for Active; 'I' for Inactive)
REMARK    1  A    between atoms: C1_1  and  C3_3 
REMARK       I    between atoms: C1_1  and  N8_8 
REMARK    2  A    between atoms: N8_8  and  O10_10 
ROOT
HETATM    1  C1  UNL     1     -32.493  18.308  -0.985  1.00 20.00     0.247 C 
HETATM    2  C6  UNL     1     -31.986  18.752   1.411  1.00 20.00     0.189 C 
HETATM    3  N8  UNL     1     -32.865  18.326   0.336  1.00 20.00    -0.231 N 
HETATM    4  O9  UNL     1     -31.381  18.650  -1.393  1.00 20.00    -0.271 OA
ENDROOT
BRANCH   1   5
HETATM    5  C3  UNL     1     -33.548  17.848  -1.962  1.00 20.00     0.084 A 
HETATM    6  C2  UNL     1     -33.150  17.674  -3.385  1.00 20.00     0.019 A 
HETATM    7  C4  UNL     1     -33.423  16.475  -2.523  1.00 20.00    -0.005 A 
HETATM    8  C5  UNL     1     -34.656  15.665  -2.734  1.00 20.00     0.011 C 
ENDBRANCH   1   5
BRANCH   3   9
HETATM    9  O10 UNL     1     -34.137  17.933   0.792  1.00 20.00    -0.281 OA
HETATM   10  C7  UNL     1     -34.254  18.257   2.175  1.00 20.00     0.238 C 
ENDBRANCH   3   9
TORSDOF 2
ENDMDL
MODEL 8
REMARK VINA RESULT:      -3.6      1.689      3.782
REMARK  2 active torsions:
REMARK  status: ('A' for Active; 'I' for Inactive)
REMARK    1  A    between atoms: C1_1  and  C3_3 
REMARK       I    between atoms: C1_1  and  N8_8 
REMARK    2  A    between atoms: N8_8  and  O10_10 
ROOT
HETATM    1  C1  UNL     1     -34.198   4.793   3.825  1.00 20.00     0.247 C 
HETATM    2  C6  UNL     1     -33.003   4.531   1.658  1.00 20.00     0.189 C 
HETATM    3  N8  UNL     1     -33.574   5.330   2.727  1.00 20.00    -0.231 N 
HETATM    4  O9  UNL     1     -34.338   3.583   4.014  1.00 20.00    -0.271 OA
ENDROOT
BRANCH   1   5
HETATM    5  C3  UNL     1     -34.743   5.783   4.825  1.00 20.00     0.084 A 
HETATM    6  C2  UNL     1     -35.000   5.304   6.210  1.00 20.00     0.019 A 
HETATM    7  C4  UNL     1     -33.845   6.221   5.928  1.00 20.00    -0.005 A 
HETATM    8  C5  UNL     1     -33.889   7.642   6.376  1.00 20.00     0.011 C 
ENDBRANCH   1   5
BRANCH   3   9
HETATM    9  O10 UNL     1     -33.418   6.714   2.519  1.00 20.00    -0.281 OA
HETATM   10  C7  UNL     1     -32.065   7.073   2.787  1.00 20.00     0.238 C 
ENDBRANCH   3   9
TORSDOF 2
ENDMDL
MODEL 9
REMARK VINA RESULT:      -3.5     11.200     12.018
REMARK  2 active torsions:
REMARK  status: ('A' for Active; 'I' for Inactive)
REMARK    1  A    between atoms: C1_1  and  C3_3 
REMARK       I    between atoms: C1_1  and  N8_8 
REMARK    2  A    between atoms: N8_8  and  O10_10 
ROOT
HETATM    1  C1  UNL     1     -34.233  16.125  -2.766  1.00 20.00     0.247 C 
HETATM    2  C6  UNL     1     -34.237  17.551  -0.727  1.00 20.00     0.189 C 
HETATM    3  N8  UNL     1     -33.703  17.143  -2.013  1.00 20.00    -0.231 N 
HETATM    4  O9  UNL     1     -35.211  15.455  -2.428  1.00 20.00    -0.271 OA
ENDROOT
BRANCH   1   5
HETATM    5  C3  UNL     1     -33.533  15.835  -4.071  1.00 20.00     0.084 A 
HETATM    6  C2  UNL     1     -32.942  14.482  -4.259  1.00 20.00     0.019 A 
HETATM    7  C4  UNL     1     -34.181  14.878  -5.009  1.00 20.00    -0.005 A 
HETATM    8  C5  UNL     1     -34.118  15.145  -6.474  1.00 20.00     0.011 C 
ENDBRANCH   1   5
BRANCH   3   9
HETATM    9  O10 UNL     1     -32.585  17.903  -2.408  1.00 20.00    -0.281 OA
HETATM   10  C7  UNL     1     -31.909  18.370  -1.245  1.00 20.00     0.238 C 
ENDBRANCH   3   9
TORSDOF 2
ENDMDL
