MODEL 1
REMARK VINA RESULT:      -4.1      0.000      0.000
REMARK  2 active torsions:
REMARK  status: ('A' for Active; 'I' for Inactive)
REMARK    1  A    between atoms: C1_1  and  C5_5 
REMARK    2  A    between atoms: C1_1  and  C6_6 
ROOT
HETATM    1  C1  UNL     1     -33.543   6.353   3.935  1.00 20.00     0.182 C 
HETATM    2  O7  UNL     1     -32.937   7.201   4.596  1.00 20.00    -0.293 OA
ENDROOT
BRANCH   1   3
HETATM    3  C5  UNL     1     -33.226   6.193   2.465  1.00 20.00     0.335 C 
HETATM    4  F8  UNL     1     -32.454   5.091   2.259  1.00 20.00    -0.225 F 
HETATM    5 CL9  UNL     1     -32.329   7.628   1.942  1.00 20.00    -0.081 Cl
ENDBRANCH   1   3
BRANCH   1   6
HETATM    6  C6  UNL     1     -34.594   5.425   4.578  1.00 20.00     0.014 C 
HETATM    7  C2  UNL     1     -34.680   5.652   6.093  1.00 20.00     0.023 C 
HETATM    8  C3  UNL     1     -34.202   3.957   4.330  1.00 20.00     0.023 C 
HETATM    9  C4  UNL     1     -35.957   5.688   3.923  1.00 20.00     0.023 C 
ENDBRANCH   1   6
TORSDOF 2
ENDMDL
MODEL 2
REMARK VINA RESULT:      -4.1      0.029      1.443
REMARK  2 active torsions:
REMARK  status: ('A' for Active; 'I' for Inactive)
REMARK    1  A    between atoms: C1_1  and  C5_5 
REMARK    2  A    between atoms: C1_1  and  C6_6 
ROOT
HETATM    1  C1  UNL     1     -33.536   6.358   3.939  1.00 20.00     0.182 C 
HETATM    2  O7  UNL     1     -32.941   7.212   4.602  1.00 20.00    -0.293 OA
ENDROOT
BRANCH   1   3
HETATM    3  C5  UNL     1     -33.218   6.207   2.469  1.00 20.00     0.335 C 
HETATM    4  F8  UNL     1     -32.457   5.098   2.256  1.00 20.00    -0.225 F 
HETATM    5 CL9  UNL     1     -32.303   7.636   1.960  1.00 20.00    -0.081 Cl
ENDBRANCH   1   3
BRANCH   1   6
HETATM    6  C6  UNL     1     -34.576   5.415   4.579  1.00 20.00     0.014 C 
HETATM    7  C2  UNL     1     -34.209   3.944   4.343  1.00 20.00     0.023 C 
HETATM    8  C3  UNL     1     -35.958   5.676   3.952  1.00 20.00     0.023 C 
HETATM    9  C4  UNL     1     -34.654   5.709   6.083  1.00 20.00     0.023 C 
ENDBRANCH   1   6
TORSDOF 2
ENDMDL
MODEL 3
REMARK VINA RESULT:      -4.0     11.888     12.440
REMARK  2 active torsions:
REMARK  status: ('A' for Active; 'I' for Inactive)
REMARK    1  A    between atoms: C1_1  and  C5_5 
REMARK    2  A    between atoms: C1_1  and  C6_6 
ROOT
HETATM    1  C1  UNL     1     -34.420  14.667  -4.152  1.00 20.00     0.182 C 
HETATM    2  O7  UNL     1     -33.409  13.994  -4.374  1.00 20.00    -0.293 OA
ENDROOT
BRANCH   1   3
HETATM    3  C5  UNL     1     -35.770  14.143  -4.586  1.00 20.00     0.335 C 
HETATM    4  F8  UNL     1     -35.902  12.830  -4.253  1.00 20.00    -0.225 F 
HETATM    5 CL9  UNL     1     -35.876  14.301  -6.347  1.00 20.00    -0.081 Cl
ENDBRANCH   1   3
BRANCH   1   6
HETATM    6  C6  UNL     1     -34.346  16.018  -3.412  1.00 20.00     0.014 C 
HETATM    7  C2  UNL     1     -35.106  15.963  -2.081  1.00 20.00     0.023 C 
HETATM    8  C3  UNL     1     -34.979  17.117  -4.287  1.00 20.00     0.023 C 
HETATM    9  C4  UNL     1     -32.872  16.371  -3.168  1.00 20.00     0.023 C 
ENDBRANCH   1   6
TORSDOF 2
ENDMDL
MODEL 4
REMARK VINA RESULT:      -4.0     11.896     12.428
REMARK  2 active torsions:
REMARK  status: ('A' for Active; 'I' for Inactive)
REMARK    1  A    between atoms: C1_1  and  C5_5 
REMARK    2  A    between atoms: C1_1  and  C6_6 
ROOT
HETATM    1  C1  UNL     1     -34.403  14.685  -4.170  1.00 20.00     0.182 C 
HETATM    2  O7  UNL     1     -33.395  14.010  -4.393  1.00 20.00    -0.293 OA
ENDROOT
BRANCH   1   3
HETATM    3  C5  UNL     1     -35.756  14.159  -4.595  1.00 20.00     0.335 C 
HETATM    4  F8  UNL     1     -35.889  12.850  -4.250  1.00 20.00    -0.225 F 
HETATM    5 CL9  UNL     1     -35.868  14.302  -6.357  1.00 20.00    -0.081 Cl
ENDBRANCH   1   3
BRANCH   1   6
HETATM    6  C6  UNL     1     -34.325  16.040  -3.439  1.00 20.00     0.014 C 
HETATM    7  C2  UNL     1     -32.870  16.420  -3.132  1.00 20.00     0.023 C 
HETATM    8  C3  UNL     1     -35.092  15.949  -2.107  1.00 20.00     0.023 C 
HETATM    9  C4  UNL     1     -34.982  17.117  -4.313  1.00 20.00     0.023 C 
ENDBRANCH   1   6
TORSDOF 2
ENDMDL
MODEL 5
REMARK VINA RESULT:      -4.0      9.349      9.946
REMARK  2 active torsions:
REMARK  status: ('A' for Active; 'I' for Inactive)
REMARK    1  A    between atoms: C1_1  and  C5_5 
REMARK    2  A    between atoms: C1_1  and  C6_6 
ROOT
HETATM    1  C1  UNL     1     -42.320   7.291  -0.790  1.00 20.00     0.182 C 
HETATM    2  O7  UNL     1     -42.481   7.811  -1.897  1.00 20.00    -0.293 OA
ENDROOT
BRANCH   1   3
HETATM    3  C5  UNL     1     -42.217   8.172   0.434  1.00 20.00     0.335 C 
HETATM    4  F8  UNL     1     -43.416   8.754   0.707  1.00 20.00    -0.225 F 
HETATM    5 CL9  UNL     1     -41.028   9.440   0.094  1.00 20.00    -0.081 Cl
ENDBRANCH   1   3
BRANCH   1   6
HETATM    6  C6  UNL     1     -42.254   5.760  -0.616  1.00 20.00     0.014 C 
HETATM    7  C2  UNL     1     -43.350   5.062  -1.433  1.00 20.00     0.023 C 
HETATM    8  C3  UNL     1     -42.456   5.403   0.868  1.00 20.00     0.023 C 
HETATM    9  C4  UNL     1     -40.869   5.268  -1.057  1.00 20.00     0.023 C 
ENDBRANCH   1   6
TORSDOF 2
ENDMDL
MODEL 6
REMARK VINA RESULT:      -4.0     11.891     12.449
REMARK  2 active torsions:
REMARK  status: ('A' for Active; 'I' for Inactive)
REMARK    1  A    between atoms: C1_1  and  C5_5 
REMARK    2  A    between atoms: C1_1  and  C6_6 
ROOT
HETATM    1  C1  UNL     1     -34.405  14.681  -4.167  1.00 20.00     0.182 C 
HETATM    2  O7  UNL     1     -33.394  14.006  -4.379  1.00 20.00    -0.293 OA
ENDROOT
BRANCH   1   3
HETATM    3  C5  UNL     1     -35.754  14.149  -4.594  1.00 20.00     0.335 C 
HETATM    4  F8  UNL     1     -35.881  12.838  -4.253  1.00 20.00    -0.225 F 
HETATM    5 CL9  UNL     1     -35.865  14.296  -6.356  1.00 20.00    -0.081 Cl
ENDBRANCH   1   3
BRANCH   1   6
HETATM    6  C6  UNL     1     -34.333  16.042  -3.446  1.00 20.00     0.014 C 
HETATM    7  C2  UNL     1     -34.928  17.160  -4.311  1.00 20.00     0.023 C 
HETATM    8  C3  UNL     1     -32.861  16.389  -3.152  1.00 20.00     0.023 C 
HETATM    9  C4  UNL     1     -35.089  15.940  -2.114  1.00 20.00     0.023 C 
ENDBRANCH   1   6
TORSDOF 2
ENDMDL
MODEL 7
REMARK VINA RESULT:      -3.9      9.278     10.145
REMARK  2 active torsions:
REMARK  status: ('A' for Active; 'I' for Inactive)
REMARK    1  A    between atoms: C1_1  and  C5_5 
REMARK    2  A    between atoms: C1_1  and  C6_6 
ROOT
HETATM    1  C1  UNL     1     -42.784   6.379  -0.987  1.00 20.00     0.182 C 
HETATM    2  O7  UNL     1     -43.304   6.910  -1.973  1.00 20.00    -0.293 OA
ENDROOT
BRANCH   1   3
HETATM    3  C5  UNL     1     -42.200   4.991  -1.115  1.00 20.00     0.335 C 
HETATM    4  F8  UNL     1     -40.912   5.051  -1.549  1.00 20.00    -0.225 F 
HETATM    5 CL9  UNL     1     -43.165   4.102  -2.307  1.00 20.00    -0.081 Cl
ENDBRANCH   1   3
BRANCH   1   6
HETATM    6  C6  UNL     1     -42.684   7.110   0.367  1.00 20.00     0.014 C 
HETATM    7  C2  UNL     1     -43.416   8.457   0.325  1.00 20.00     0.023 C 
HETATM    8  C3  UNL     1     -41.203   7.374   0.698  1.00 20.00     0.023 C 
HETATM    9  C4  UNL     1     -43.280   6.214   1.461  1.00 20.00     0.023 C 
ENDBRANCH   1   6
TORSDOF 2
ENDMDL
MODEL 8
REMARK VINA RESULT:      -3.9     12.453     13.224
REMARK  2 active torsions:
REMARK  status: ('A' for Active; 'I' for Inactive)
REMARK    1  A    between atoms: C1_1  and  C5_5 
REMARK    2  A    between atoms: C1_1  and  C6_6 
ROOT
HETATM    1  C1  UNL     1     -33.842  15.014  -4.679  1.00 20.00     0.182 C 
HETATM    2  O7  UNL     1     -33.244  13.945  -4.526  1.00 20.00    -0.293 OA
ENDROOT
BRANCH   1   3
HETATM    3  C5  UNL     1     -33.776  16.062  -3.591  1.00 20.00     0.335 C 
HETATM    4  F8  UNL     1     -32.550  16.063  -3.000  1.00 20.00    -0.225 F 
HETATM    5 CL9  UNL     1     -34.999  15.660  -2.374  1.00 20.00    -0.081 Cl
ENDBRANCH   1   3
BRANCH   1   6
HETATM    6  C6  UNL     1     -34.628  15.324  -5.969  1.00 20.00     0.014 C 
HETATM    7  C2  UNL     1     -33.770  15.068  -7.215  1.00 20.00     0.023 C 
HETATM    8  C3  UNL     1     -35.050  16.805  -5.968  1.00 20.00     0.023 C 
HETATM    9  C4  UNL     1     -35.890  14.452  -6.004  1.00 20.00     0.023 C 
ENDBRANCH   1   6
TORSDOF 2
ENDMDL
MODEL 9
REMARK VINA RESULT:      -3.8      9.245      9.728
REMARK  2 active torsions:
REMARK  status: ('A' for Active; 'I' for Inactive)
REMARK    1  A    between atoms: C1_1  and  C5_5 
REMARK    2  A    between atoms: C1_1  and  C6_6 
ROOT
HETATM    1  C1  UNL     1     -41.844   7.321  -0.704  1.00 20.00     0.182 C 
HETATM    2  O7  UNL     1     -41.495   7.849  -1.763  1.00 20.00    -0.293 OA
ENDROOT
BRANCH   1   3
HETATM    3  C5  UNL     1     -42.101   8.188   0.507  1.00 20.00     0.335 C 
HETATM    4  F8  UNL     1     -43.416   8.532   0.579  1.00 20.00    -0.225 F 
HETATM    5 CL9  UNL     1     -41.132   9.661   0.339  1.00 20.00    -0.081 Cl
ENDBRANCH   1   3
BRANCH   1   6
HETATM    6  C6  UNL     1     -42.058   5.797  -0.591  1.00 20.00     0.014 C 
HETATM    7  C2  UNL     1     -40.862   5.027  -1.165  1.00 20.00     0.023 C 
HETATM    8  C3  UNL     1     -43.316   5.397  -1.382  1.00 20.00     0.023 C 
HETATM    9  C4  UNL     1     -42.267   5.432   0.885  1.00 20.00     0.023 C 
ENDBRANCH   1   6
TORSDOF 2
ENDMDL
