MODEL 1
REMARK VINA RESULT:      -4.6      0.000      0.000
REMARK  1 active torsions:
REMARK  status: ('A' for Active; 'I' for Inactive)
REMARK    1  A    between atoms: C6_6  and  C10_10 
ROOT
HETATM    1  C1  UNL     1     -37.759  14.955  -4.154  1.00 20.00     0.059 C 
HETATM    2  C10 UNL     1     -37.022  16.139  -3.747  1.00 20.00     0.133 C 
HETATM    3  N11 UNL     1     -38.387  14.029  -4.460  1.00 20.00    -0.197 NA
ENDROOT
BRANCH   2   4
HETATM    4  C6  UNL     1     -35.593  15.854  -4.234  1.00 20.00    -0.025 C 
HETATM    5  C4  UNL     1     -35.267  14.349  -4.116  1.00 20.00     0.011 C 
HETATM    6  C2  UNL     1     -33.745  14.255  -4.004  1.00 20.00     0.002 C 
HETATM    7  C3  UNL     1     -33.231  15.668  -3.725  1.00 20.00     0.010 C 
HETATM    8  C5  UNL     1     -34.472  16.507  -3.355  1.00 20.00    -0.040 C 
HETATM    9  C7  UNL     1     -34.734  16.370  -1.836  1.00 20.00     0.015 C 
HETATM   10  C8  UNL     1     -34.229  17.994  -3.649  1.00 20.00     0.015 C 
HETATM   11  C9  UNL     1     -35.517  16.267  -5.722  1.00 20.00     0.017 C 
ENDBRANCH   2   4
TORSDOF 1
ENDMDL
MODEL 2
REMARK VINA RESULT:      -4.6      1.519      2.161
REMARK  1 active torsions:
REMARK  status: ('A' for Active; 'I' for Inactive)
REMARK    1  A    between atoms: C6_6  and  C10_10 
ROOT
HETATM    1  C1  UNL     1     -36.068  13.827  -4.560  1.00 20.00     0.059 C 
HETATM    2  C10 UNL     1     -36.166  15.261  -4.769  1.00 20.00     0.133 C 
HETATM    3  N11 UNL     1     -36.036  12.677  -4.407  1.00 20.00    -0.197 NA
ENDROOT
BRANCH   2   4
HETATM    4  C6  UNL     1     -34.759  15.769  -4.419  1.00 20.00    -0.025 C 
HETATM    5  C4  UNL     1     -34.453  15.541  -2.923  1.00 20.00     0.011 C 
HETATM    6  C2  UNL     1     -33.396  16.579  -2.546  1.00 20.00     0.002 C 
HETATM    7  C3  UNL     1     -33.338  17.591  -3.691  1.00 20.00     0.010 C 
HETATM    8  C5  UNL     1     -34.582  17.320  -4.563  1.00 20.00    -0.040 C 
HETATM    9  C7  UNL     1     -35.776  18.123  -3.995  1.00 20.00     0.015 C 
HETATM   10  C8  UNL     1     -34.348  17.795  -6.004  1.00 20.00     0.015 C 
HETATM   11  C9  UNL     1     -33.749  14.961  -5.266  1.00 20.00     0.017 C 
ENDBRANCH   2   4
TORSDOF 1
ENDMDL
MODEL 3
REMARK VINA RESULT:      -4.5      1.221      1.519
REMARK  1 active torsions:
REMARK  status: ('A' for Active; 'I' for Inactive)
REMARK    1  A    between atoms: C6_6  and  C10_10 
ROOT
HETATM    1  C1  UNL     1     -36.199  13.908  -4.338  1.00 20.00     0.059 C 
HETATM    2  C10 UNL     1     -36.499  15.230  -3.814  1.00 20.00     0.133 C 
HETATM    3  N11 UNL     1     -36.005  12.840  -4.746  1.00 20.00    -0.197 NA
ENDROOT
BRANCH   2   4
HETATM    4  C6  UNL     1     -35.173  15.988  -3.980  1.00 20.00    -0.025 C 
HETATM    5  C4  UNL     1     -33.974  15.028  -3.822  1.00 20.00     0.011 C 
HETATM    6  C2  UNL     1     -32.795  15.896  -3.379  1.00 20.00     0.002 C 
HETATM    7  C3  UNL     1     -33.371  17.252  -2.967  1.00 20.00     0.010 C 
HETATM    8  C5  UNL     1     -34.898  17.052  -2.863  1.00 20.00    -0.040 C 
HETATM    9  C7  UNL     1     -35.241  16.544  -1.442  1.00 20.00     0.015 C 
HETATM   10  C8  UNL     1     -35.634  18.384  -3.068  1.00 20.00     0.015 C 
HETATM   11  C9  UNL     1     -35.153  16.584  -5.406  1.00 20.00     0.017 C 
ENDBRANCH   2   4
TORSDOF 1
ENDMDL
MODEL 4
REMARK VINA RESULT:      -4.5      1.210      2.183
REMARK  1 active torsions:
REMARK  status: ('A' for Active; 'I' for Inactive)
REMARK    1  A    between atoms: C6_6  and  C10_10 
ROOT
HETATM    1  C1  UNL     1     -37.867  14.824  -4.621  1.00 20.00     0.059 C 
HETATM    2  C10 UNL     1     -36.821  15.687  -5.144  1.00 20.00     0.133 C 
HETATM    3  N11 UNL     1     -38.732  14.156  -4.234  1.00 20.00    -0.197 NA
ENDROOT
BRANCH   2   4
HETATM    4  C6  UNL     1     -35.579  15.268  -4.342  1.00 20.00    -0.025 C 
HETATM    5  C4  UNL     1     -35.614  15.879  -2.925  1.00 20.00     0.011 C 
HETATM    6  C2  UNL     1     -34.158  15.955  -2.462  1.00 20.00     0.002 C 
HETATM    7  C3  UNL     1     -33.287  15.713  -3.696  1.00 20.00     0.010 C 
HETATM    8  C5  UNL     1     -34.230  15.825  -4.913  1.00 20.00    -0.040 C 
HETATM    9  C7  UNL     1     -34.318  17.309  -5.342  1.00 20.00     0.015 C 
HETATM   10  C8  UNL     1     -33.675  15.032  -6.104  1.00 20.00     0.015 C 
HETATM   11  C9  UNL     1     -35.599  13.727  -4.224  1.00 20.00     0.017 C 
ENDBRANCH   2   4
TORSDOF 1
ENDMDL
MODEL 5
REMARK VINA RESULT:      -4.3      0.744      2.131
REMARK  1 active torsions:
REMARK  status: ('A' for Active; 'I' for Inactive)
REMARK    1  A    between atoms: C6_6  and  C10_10 
ROOT
HETATM    1  C1  UNL     1     -37.103  14.244  -4.201  1.00 20.00     0.059 C 
HETATM    2  C10 UNL     1     -35.716  14.418  -3.803  1.00 20.00     0.133 C 
HETATM    3  N11 UNL     1     -38.206  14.059  -4.508  1.00 20.00    -0.197 NA
ENDROOT
BRANCH   2   4
HETATM    4  C6  UNL     1     -35.462  15.914  -4.041  1.00 20.00    -0.025 C 
HETATM    5  C4  UNL     1     -35.395  16.222  -5.552  1.00 20.00     0.011 C 
HETATM    6  C2  UNL     1     -34.555  17.493  -5.686  1.00 20.00     0.002 C 
HETATM    7  C3  UNL     1     -33.877  17.723  -4.335  1.00 20.00     0.010 C 
HETATM    8  C5  UNL     1     -34.066  16.416  -3.536  1.00 20.00    -0.040 C 
HETATM    9  C7  UNL     1     -32.910  15.447  -3.881  1.00 20.00     0.015 C 
HETATM   10  C8  UNL     1     -34.004  16.690  -2.026  1.00 20.00     0.015 C 
HETATM   11  C9  UNL     1     -36.647  16.691  -3.423  1.00 20.00     0.017 C 
ENDBRANCH   2   4
TORSDOF 1
ENDMDL
MODEL 6
REMARK VINA RESULT:      -4.2      2.365      3.893
REMARK  1 active torsions:
REMARK  status: ('A' for Active; 'I' for Inactive)
REMARK    1  A    between atoms: C6_6  and  C10_10 
ROOT
HETATM    1  C1  UNL     1     -33.589  16.723  -2.289  1.00 20.00     0.059 C 
HETATM    2  C10 UNL     1     -34.676  15.798  -2.558  1.00 20.00     0.133 C 
HETATM    3  N11 UNL     1     -32.734  17.463  -2.029  1.00 20.00    -0.197 NA
ENDROOT
BRANCH   2   4
HETATM    4  C6  UNL     1     -34.535  15.508  -4.060  1.00 20.00    -0.025 C 
HETATM    5  C4  UNL     1     -34.415  16.823  -4.859  1.00 20.00     0.011 C 
HETATM    6  C2  UNL     1     -34.903  16.502  -6.273  1.00 20.00     0.002 C 
HETATM    7  C3  UNL     1     -35.598  15.142  -6.206  1.00 20.00     0.010 C 
HETATM    8  C5  UNL     1     -35.796  14.838  -4.706  1.00 20.00    -0.040 C 
HETATM    9  C7  UNL     1     -37.128  15.472  -4.239  1.00 20.00     0.015 C 
HETATM   10  C8  UNL     1     -35.896  13.325  -4.468  1.00 20.00     0.015 C 
HETATM   11  C9  UNL     1     -33.242  14.683  -4.255  1.00 20.00     0.017 C 
ENDBRANCH   2   4
TORSDOF 1
ENDMDL
MODEL 7
REMARK VINA RESULT:      -4.2      1.484      2.444
REMARK  1 active torsions:
REMARK  status: ('A' for Active; 'I' for Inactive)
REMARK    1  A    between atoms: C6_6  and  C10_10 
ROOT
HETATM    1  C1  UNL     1     -35.536  14.823  -5.499  1.00 20.00     0.059 C 
HETATM    2  C10 UNL     1     -35.020  16.175  -5.373  1.00 20.00     0.133 C 
HETATM    3  N11 UNL     1     -35.963  13.754  -5.645  1.00 20.00    -0.197 NA
ENDROOT
BRANCH   2   4
HETATM    4  C6  UNL     1     -34.440  16.204  -3.950  1.00 20.00    -0.025 C 
HETATM    5  C4  UNL     1     -35.443  15.603  -2.942  1.00 20.00     0.011 C 
HETATM    6  C2  UNL     1     -35.097  16.220  -1.586  1.00 20.00     0.002 C 
HETATM    7  C3  UNL     1     -34.151  17.390  -1.858  1.00 20.00     0.010 C 
HETATM    8  C5  UNL     1     -34.214  17.645  -3.379  1.00 20.00    -0.040 C 
HETATM    9  C7  UNL     1     -35.389  18.608  -3.675  1.00 20.00     0.015 C 
HETATM   10  C8  UNL     1     -32.927  18.322  -3.869  1.00 20.00     0.015 C 
HETATM   11  C9  UNL     1     -33.156  15.343  -3.953  1.00 20.00     0.017 C 
ENDBRANCH   2   4
TORSDOF 1
ENDMDL
MODEL 8
REMARK VINA RESULT:      -4.0      2.002      2.960
REMARK  1 active torsions:
REMARK  status: ('A' for Active; 'I' for Inactive)
REMARK    1  A    between atoms: C6_6  and  C10_10 
ROOT
HETATM    1  C1  UNL     1     -35.666  17.740  -6.308  1.00 20.00     0.059 C 
HETATM    2  C10 UNL     1     -34.789  17.235  -5.266  1.00 20.00     0.133 C 
HETATM    3  N11 UNL     1     -36.350  18.188  -7.132  1.00 20.00    -0.197 NA
ENDROOT
BRANCH   2   4
HETATM    4  C6  UNL     1     -35.060  15.723  -5.274  1.00 20.00    -0.025 C 
HETATM    5  C4  UNL     1     -36.563  15.438  -5.066  1.00 20.00     0.011 C 
HETATM    6  C2  UNL     1     -36.646  14.029  -4.475  1.00 20.00     0.002 C 
HETATM    7  C3  UNL     1     -35.231  13.645  -4.040  1.00 20.00     0.010 C 
HETATM    8  C5  UNL     1     -34.404  14.947  -4.080  1.00 20.00    -0.040 C 
HETATM    9  C7  UNL     1     -34.556  15.677  -2.724  1.00 20.00     0.015 C 
HETATM   10  C8  UNL     1     -32.913  14.637  -4.274  1.00 20.00     0.015 C 
HETATM   11  C9  UNL     1     -34.634  15.181  -6.657  1.00 20.00     0.017 C 
ENDBRANCH   2   4
TORSDOF 1
ENDMDL
MODEL 9
REMARK VINA RESULT:      -4.0      2.707      4.115
REMARK  1 active torsions:
REMARK  status: ('A' for Active; 'I' for Inactive)
REMARK    1  A    between atoms: C6_6  and  C10_10 
ROOT
HETATM    1  C1  UNL     1     -32.735  18.379  -2.266  1.00 20.00     0.059 C 
HETATM    2  C10 UNL     1     -33.917  18.343  -3.110  1.00 20.00     0.133 C 
HETATM    3  N11 UNL     1     -31.784  18.454  -1.605  1.00 20.00    -0.197 NA
ENDROOT
BRANCH   2   4
HETATM    4  C6  UNL     1     -34.434  16.907  -2.938  1.00 20.00    -0.025 C 
HETATM    5  C4  UNL     1     -33.346  15.886  -3.334  1.00 20.00     0.011 C 
HETATM    6  C2  UNL     1     -34.090  14.611  -3.734  1.00 20.00     0.002 C 
HETATM    7  C3  UNL     1     -35.564  14.987  -3.890  1.00 20.00     0.010 C 
HETATM    8  C5  UNL     1     -35.612  16.529  -3.901  1.00 20.00    -0.040 C 
HETATM    9  C7  UNL     1     -35.396  17.027  -5.350  1.00 20.00     0.015 C 
HETATM   10  C8  UNL     1     -36.987  17.033  -3.440  1.00 20.00     0.015 C 
HETATM   11  C9  UNL     1     -34.783  16.713  -1.445  1.00 20.00     0.017 C 
ENDBRANCH   2   4
TORSDOF 1
ENDMDL
