MODEL 1
REMARK VINA RESULT:      -4.1      0.000      0.000
REMARK  0 active torsions:
REMARK  status: ('A' for Active; 'I' for Inactive)
ROOT
HETATM    1  C1  UNL     1     -34.357   6.311   5.953  1.00 20.00     0.096 A 
HETATM    2  C2  UNL     1     -34.959   4.652   4.545  1.00 20.00     0.096 A 
HETATM    3  C3  UNL     1     -33.703   6.509   4.763  1.00 20.00    -0.025 A 
HETATM    4  C4  UNL     1     -34.080   5.471   3.881  1.00 20.00    -0.025 A 
HETATM    5  C5  UNL     1     -32.756   7.520   4.261  1.00 20.00     0.114 A 
HETATM    6  C6  UNL     1     -33.495   5.479   2.529  1.00 20.00     0.114 A 
HETATM    7  N7  UNL     1     -35.120   5.173   5.809  1.00 20.00    -0.374 N 
HETATM    8  S8  UNL     1     -32.401   6.981   2.519  1.00 20.00    -0.160 SA
HETATM    9  H15 UNL     1     -35.712   4.780   6.526  1.00 20.00     0.164 HD
ENDROOT
TORSDOF 0
ENDMDL
MODEL 2
REMARK VINA RESULT:      -4.1      0.019      1.924
REMARK  0 active torsions:
REMARK  status: ('A' for Active; 'I' for Inactive)
ROOT
HETATM    1  C1  UNL     1     -34.956   4.667   4.565  1.00 20.00     0.096 A 
HETATM    2  C2  UNL     1     -34.343   6.331   5.961  1.00 20.00     0.096 A 
HETATM    3  C3  UNL     1     -34.079   5.480   3.893  1.00 20.00    -0.025 A 
HETATM    4  C4  UNL     1     -33.695   6.522   4.767  1.00 20.00    -0.025 A 
HETATM    5  C5  UNL     1     -33.500   5.478   2.538  1.00 20.00     0.114 A 
HETATM    6  C6  UNL     1     -32.746   7.526   4.255  1.00 20.00     0.114 A 
HETATM    7  N7  UNL     1     -35.111   5.197   5.827  1.00 20.00    -0.374 N 
HETATM    8  S8  UNL     1     -32.402   6.977   2.514  1.00 20.00    -0.160 SA
HETATM    9  H15 UNL     1     -35.702   4.809   6.548  1.00 20.00     0.164 HD
ENDROOT
TORSDOF 0
ENDMDL
MODEL 3
REMARK VINA RESULT:      -3.9      2.370      2.988
REMARK  0 active torsions:
REMARK  status: ('A' for Active; 'I' for Inactive)
ROOT
HETATM    1  C1  UNL     1     -32.573   7.302   3.339  1.00 20.00     0.096 A 
HETATM    2  C2  UNL     1     -33.325   5.433   2.321  1.00 20.00     0.096 A 
HETATM    3  C3  UNL     1     -33.366   6.625   4.231  1.00 20.00    -0.025 A 
HETATM    4  C4  UNL     1     -33.837   5.455   3.594  1.00 20.00    -0.025 A 
HETATM    5  C5  UNL     1     -33.791   6.861   5.622  1.00 20.00     0.114 A 
HETATM    6  C6  UNL     1     -34.716   4.563   4.369  1.00 20.00     0.114 A 
HETATM    7  N7  UNL     1     -32.556   6.566   2.176  1.00 20.00    -0.374 N 
HETATM    8  S8  UNL     1     -34.870   5.402   6.019  1.00 20.00    -0.160 SA
HETATM    9  H15 UNL     1     -32.051   6.820   1.338  1.00 20.00     0.164 HD
ENDROOT
TORSDOF 0
ENDMDL
MODEL 4
REMARK VINA RESULT:      -3.9     16.838     17.456
REMARK  0 active torsions:
REMARK  status: ('A' for Active; 'I' for Inactive)
ROOT
HETATM    1  C1  UNL     1     -23.589  18.449   8.418  1.00 20.00     0.096 A 
HETATM    2  C2  UNL     1     -21.602  17.933   9.357  1.00 20.00     0.096 A 
HETATM    3  C3  UNL     1     -23.792  18.266   9.763  1.00 20.00    -0.025 A 
HETATM    4  C4  UNL     1     -22.548  17.943  10.351  1.00 20.00    -0.025 A 
HETATM    5  C5  UNL     1     -24.968  18.336  10.649  1.00 20.00     0.114 A 
HETATM    6  C6  UNL     1     -22.524  17.701  11.804  1.00 20.00     0.114 A 
HETATM    7  N7  UNL     1     -22.248  18.242   8.181  1.00 20.00    -0.374 N 
HETATM    8  S8  UNL     1     -24.289  17.937  12.332  1.00 20.00    -0.160 SA
HETATM    9  H15 UNL     1     -21.804  18.308   7.277  1.00 20.00     0.164 HD
ENDROOT
TORSDOF 0
ENDMDL
MODEL 5
REMARK VINA RESULT:      -3.6     15.532     15.951
REMARK  0 active torsions:
REMARK  status: ('A' for Active; 'I' for Inactive)
ROOT
HETATM    1  C1  UNL     1     -25.951  17.232  11.994  1.00 20.00     0.096 A 
HETATM    2  C2  UNL     1     -24.429  15.626  11.553  1.00 20.00     0.096 A 
HETATM    3  C3  UNL     1     -25.135  17.689  10.990  1.00 20.00    -0.025 A 
HETATM    4  C4  UNL     1     -24.181  16.683  10.714  1.00 20.00    -0.025 A 
HETATM    5  C5  UNL     1     -25.064  18.931  10.200  1.00 20.00     0.114 A 
HETATM    6  C6  UNL     1     -23.190  16.955   9.659  1.00 20.00     0.114 A 
HETATM    7  N7  UNL     1     -25.510  15.972  12.331  1.00 20.00    -0.374 N 
HETATM    8  S8  UNL     1     -23.624  18.658   9.058  1.00 20.00    -0.160 SA
HETATM    9  H15 UNL     1     -25.922  15.387  13.044  1.00 20.00     0.164 HD
ENDROOT
TORSDOF 0
ENDMDL
MODEL 6
REMARK VINA RESULT:      -3.6     16.534     16.963
REMARK  0 active torsions:
REMARK  status: ('A' for Active; 'I' for Inactive)
ROOT
HETATM    1  C1  UNL     1     -24.674  18.662   8.740  1.00 20.00     0.096 A 
HETATM    2  C2  UNL     1     -26.096  19.060  10.447  1.00 20.00     0.096 A 
HETATM    3  C3  UNL     1     -24.053  18.283   9.904  1.00 20.00    -0.025 A 
HETATM    4  C4  UNL     1     -24.944  18.532  10.973  1.00 20.00    -0.025 A 
HETATM    5  C5  UNL     1     -22.737  17.707  10.231  1.00 20.00     0.114 A 
HETATM    6  C6  UNL     1     -24.486  18.197  12.332  1.00 20.00     0.114 A 
HETATM    7  N7  UNL     1     -25.920  19.137   9.084  1.00 20.00    -0.374 N 
HETATM    8  S8  UNL     1     -22.773  17.523  12.080  1.00 20.00    -0.160 SA
HETATM    9  H15 UNL     1     -26.606  19.488   8.431  1.00 20.00     0.164 HD
ENDROOT
TORSDOF 0
ENDMDL
MODEL 7
REMARK VINA RESULT:      -3.5     12.048     12.532
REMARK  0 active torsions:
REMARK  status: ('A' for Active; 'I' for Inactive)
ROOT
HETATM    1  C1  UNL     1     -33.100  15.443  -3.840  1.00 20.00     0.096 A 
HETATM    2  C2  UNL     1     -35.188  14.924  -3.159  1.00 20.00     0.096 A 
HETATM    3  C3  UNL     1     -33.439  16.302  -2.825  1.00 20.00    -0.025 A 
HETATM    4  C4  UNL     1     -34.746  15.977  -2.399  1.00 20.00    -0.025 A 
HETATM    5  C5  UNL     1     -32.756  17.415  -2.142  1.00 20.00     0.114 A 
HETATM    6  C6  UNL     1     -35.325  16.776  -1.305  1.00 20.00     0.114 A 
HETATM    7  N7  UNL     1     -34.176  14.607  -4.037  1.00 20.00    -0.374 N 
HETATM    8  S8  UNL     1     -33.991  17.999  -0.884  1.00 20.00    -0.160 SA
HETATM    9  H15 UNL     1     -34.216  13.868  -4.724  1.00 20.00     0.164 HD
ENDROOT
TORSDOF 0
ENDMDL
MODEL 8
REMARK VINA RESULT:      -3.5     12.024     12.576
REMARK  0 active torsions:
REMARK  status: ('A' for Active; 'I' for Inactive)
ROOT
HETATM    1  C1  UNL     1     -35.098  14.829  -3.228  1.00 20.00     0.096 A 
HETATM    2  C2  UNL     1     -33.045  15.472  -3.911  1.00 20.00     0.096 A 
HETATM    3  C3  UNL     1     -34.715  15.899  -2.460  1.00 20.00    -0.025 A 
HETATM    4  C4  UNL     1     -33.429  16.302  -2.888  1.00 20.00    -0.025 A 
HETATM    5  C5  UNL     1     -35.336  16.656  -1.359  1.00 20.00     0.114 A 
HETATM    6  C6  UNL     1     -32.810  17.447  -2.198  1.00 20.00     0.114 A 
HETATM    7  N7  UNL     1     -34.071  14.576  -4.110  1.00 20.00    -0.374 N 
HETATM    8  S8  UNL     1     -34.073  17.951  -0.932  1.00 20.00    -0.160 SA
HETATM    9  H15 UNL     1     -34.071  13.840  -4.802  1.00 20.00     0.164 HD
ENDROOT
TORSDOF 0
ENDMDL
MODEL 9
REMARK VINA RESULT:      -3.4     16.513     16.792
REMARK  0 active torsions:
REMARK  status: ('A' for Active; 'I' for Inactive)
ROOT
HETATM    1  C1  UNL     1     -25.875  18.472  11.588  1.00 20.00     0.096 A 
HETATM    2  C2  UNL     1     -25.885  19.263   9.474  1.00 20.00     0.096 A 
HETATM    3  C3  UNL     1     -24.634  18.248  11.048  1.00 20.00    -0.025 A 
HETATM    4  C4  UNL     1     -24.640  18.743   9.724  1.00 20.00    -0.025 A 
HETATM    5  C5  UNL     1     -23.388  17.637  11.543  1.00 20.00     0.114 A 
HETATM    6  C6  UNL     1     -23.399  18.609   8.942  1.00 20.00     0.114 A 
HETATM    7  N7  UNL     1     -26.631  19.092  10.618  1.00 20.00    -0.374 N 
HETATM    8  S8  UNL     1     -22.218  17.771  10.105  1.00 20.00    -0.160 SA
HETATM    9  H15 UNL     1     -27.593  19.379  10.730  1.00 20.00     0.164 HD
ENDROOT
TORSDOF 0
ENDMDL
