MODEL 1
REMARK VINA RESULT:      -3.8      0.000      0.000
REMARK  2 active torsions:
REMARK  status: ('A' for Active; 'I' for Inactive)
REMARK    1  A    between atoms: C6_6  and  S8_8 
REMARK    2  A    between atoms: C7_7  and  S9_9 
ROOT
HETATM    1  C1  UNL     1     -23.524  16.703   9.503  1.00 20.00     0.011 C 
HETATM    2  C2  UNL     1     -22.559  18.864   9.242  1.00 20.00     0.020 C 
HETATM    3  C3  UNL     1     -22.909  17.827  11.511  1.00 20.00     0.020 C 
HETATM    4  C4  UNL     1     -22.409  17.574  10.073  1.00 20.00    -0.012 C 
HETATM    5  C5  UNL     1     -24.617  17.737   9.808  1.00 20.00     0.013 C 
HETATM    6  C6  UNL     1     -24.086  19.001   9.084  1.00 20.00     0.050 C 
HETATM    7  C7  UNL     1     -24.432  17.974  11.327  1.00 20.00     0.050 C 
ENDROOT
BRANCH   6   8
HETATM    8  S8  UNL     1     -24.590  19.056   7.334  1.00 20.00    -0.177 SA
HETATM    9  H20 UNL     1     -24.886  20.362   7.320  1.00 20.00     0.102 HD
ENDBRANCH   6   8
BRANCH   7  10
HETATM   10  S9  UNL     1     -25.360  16.768  12.330  1.00 20.00    -0.177 SA
HETATM   11  H21 UNL     1     -25.618  17.604  13.344  1.00 20.00     0.102 HD
ENDBRANCH   7  10
TORSDOF 2
ENDMDL
MODEL 2
REMARK VINA RESULT:      -3.6      1.624      1.926
REMARK  2 active torsions:
REMARK  status: ('A' for Active; 'I' for Inactive)
REMARK    1  A    between atoms: C6_6  and  S8_8 
REMARK    2  A    between atoms: C7_7  and  S9_9 
ROOT
HETATM    1  C1  UNL     1     -24.326  16.526  10.654  1.00 20.00     0.011 C 
HETATM    2  C2  UNL     1     -22.230  17.607  10.981  1.00 20.00     0.020 C 
HETATM    3  C3  UNL     1     -24.267  18.218  12.330  1.00 20.00     0.020 C 
HETATM    4  C4  UNL     1     -23.429  17.048  11.772  1.00 20.00    -0.012 C 
HETATM    5  C5  UNL     1     -24.390  17.884   9.943  1.00 20.00     0.013 C 
HETATM    6  C6  UNL     1     -22.892  18.216   9.730  1.00 20.00     0.050 C 
HETATM    7  C7  UNL     1     -24.907  18.820  11.063  1.00 20.00     0.050 C 
ENDROOT
BRANCH   6   8
HETATM    8  S8  UNL     1     -22.238  17.495   8.190  1.00 20.00    -0.177 SA
HETATM    9  H20 UNL     1     -22.230  16.229   8.626  1.00 20.00     0.102 HD
ENDBRANCH   6   8
BRANCH   7  10
HETATM   10  S9  UNL     1     -26.727  18.838  11.161  1.00 20.00    -0.177 SA
HETATM   11  H21 UNL     1     -26.865  17.523  11.368  1.00 20.00     0.102 HD
ENDBRANCH   7  10
TORSDOF 2
ENDMDL
MODEL 3
REMARK VINA RESULT:      -3.5     16.371     17.531
REMARK  2 active torsions:
REMARK  status: ('A' for Active; 'I' for Inactive)
REMARK    1  A    between atoms: C6_6  and  S8_8 
REMARK    2  A    between atoms: C7_7  and  S9_9 
ROOT
HETATM    1  C1  UNL     1     -35.086  16.841  -4.147  1.00 20.00     0.011 C 
HETATM    2  C2  UNL     1     -33.474  16.679  -2.402  1.00 20.00     0.020 C 
HETATM    3  C3  UNL     1     -33.709  14.897  -4.165  1.00 20.00     0.020 C 
HETATM    4  C4  UNL     1     -33.639  16.417  -3.912  1.00 20.00    -0.012 C 
HETATM    5  C5  UNL     1     -35.640  15.872  -3.094  1.00 20.00     0.013 C 
HETATM    6  C6  UNL     1     -34.844  16.272  -1.826  1.00 20.00     0.050 C 
HETATM    7  C7  UNL     1     -35.078  14.509  -3.570  1.00 20.00     0.050 C 
ENDROOT
BRANCH   6   8
HETATM    8  S8  UNL     1     -35.637  17.638  -0.917  1.00 20.00    -0.177 SA
HETATM    9  H20 UNL     1     -35.168  17.289   0.288  1.00 20.00     0.102 HD
ENDBRANCH   6   8
BRANCH   7  10
HETATM   10  S9  UNL     1     -36.157  13.712  -4.803  1.00 20.00    -0.177 SA
HETATM   11  H21 UNL     1     -36.780  12.904  -3.936  1.00 20.00     0.102 HD
ENDBRANCH   7  10
TORSDOF 2
ENDMDL
MODEL 4
REMARK VINA RESULT:      -3.5     16.979     18.149
REMARK  2 active torsions:
REMARK  status: ('A' for Active; 'I' for Inactive)
REMARK    1  A    between atoms: C6_6  and  S8_8 
REMARK    2  A    between atoms: C7_7  and  S9_9 
ROOT
HETATM    1  C1  UNL     1     -33.877  17.130  -4.120  1.00 20.00     0.011 C 
HETATM    2  C2  UNL     1     -34.779  15.885  -2.301  1.00 20.00     0.020 C 
HETATM    3  C3  UNL     1     -33.527  14.774  -4.182  1.00 20.00     0.020 C 
HETATM    4  C4  UNL     1     -33.529  15.964  -3.200  1.00 20.00    -0.012 C 
HETATM    5  C5  UNL     1     -35.180  16.480  -4.605  1.00 20.00     0.013 C 
HETATM    6  C6  UNL     1     -35.929  16.209  -3.275  1.00 20.00     0.050 C 
HETATM    7  C7  UNL     1     -34.690  15.110  -5.137  1.00 20.00     0.050 C 
ENDROOT
BRANCH   6   8
HETATM    8  S8  UNL     1     -36.905  17.647  -2.728  1.00 20.00    -0.177 SA
HETATM    9  H20 UNL     1     -38.099  17.052  -2.846  1.00 20.00     0.102 HD
ENDBRANCH   6   8
BRANCH   7  10
HETATM   10  S9  UNL     1     -34.144  15.201  -6.873  1.00 20.00    -0.177 SA
HETATM   11  H21 UNL     1     -32.869  14.869  -6.632  1.00 20.00     0.102 HD
ENDBRANCH   7  10
TORSDOF 2
ENDMDL
MODEL 5
REMARK VINA RESULT:      -3.5     16.697     17.755
REMARK  2 active torsions:
REMARK  status: ('A' for Active; 'I' for Inactive)
REMARK    1  A    between atoms: C6_6  and  S8_8 
REMARK    2  A    between atoms: C7_7  and  S9_9 
ROOT
HETATM    1  C1  UNL     1     -34.816  15.947  -2.340  1.00 20.00     0.011 C 
HETATM    2  C2  UNL     1     -33.677  14.951  -4.179  1.00 20.00     0.020 C 
HETATM    3  C3  UNL     1     -33.329  17.364  -3.546  1.00 20.00     0.020 C 
HETATM    4  C4  UNL     1     -33.444  15.924  -3.006  1.00 20.00    -0.012 C 
HETATM    5  C5  UNL     1     -35.535  16.388  -3.623  1.00 20.00     0.013 C 
HETATM    6  C6  UNL     1     -35.110  15.291  -4.632  1.00 20.00     0.050 C 
HETATM    7  C7  UNL     1     -34.767  17.677  -4.006  1.00 20.00     0.050 C 
ENDROOT
BRANCH   6   8
HETATM    8  S8  UNL     1     -36.209  13.838  -4.574  1.00 20.00    -0.177 SA
HETATM    9  H20 UNL     1     -36.493  13.936  -3.269  1.00 20.00     0.102 HD
ENDBRANCH   6   8
BRANCH   7  10
HETATM   10  S9  UNL     1     -35.443  19.153  -3.178  1.00 20.00    -0.177 SA
HETATM   11  H21 UNL     1     -34.833  20.044  -3.969  1.00 20.00     0.102 HD
ENDBRANCH   7  10
TORSDOF 2
ENDMDL
MODEL 6
REMARK VINA RESULT:      -3.4     16.687     17.907
REMARK  2 active torsions:
REMARK  status: ('A' for Active; 'I' for Inactive)
REMARK    1  A    between atoms: C6_6  and  S8_8 
REMARK    2  A    between atoms: C7_7  and  S9_9 
ROOT
HETATM    1  C1  UNL     1     -35.683  16.649  -3.672  1.00 20.00     0.011 C 
HETATM    2  C2  UNL     1     -34.792  14.444  -3.793  1.00 20.00     0.020 C 
HETATM    3  C3  UNL     1     -33.668  16.263  -2.463  1.00 20.00     0.020 C 
HETATM    4  C4  UNL     1     -35.018  15.595  -2.792  1.00 20.00    -0.012 C 
HETATM    5  C5  UNL     1     -34.527  16.672  -4.681  1.00 20.00     0.013 C 
HETATM    6  C6  UNL     1     -34.418  15.182  -5.093  1.00 20.00     0.050 C 
HETATM    7  C7  UNL     1     -33.306  16.982  -3.779  1.00 20.00     0.050 C 
ENDROOT
BRANCH   6   8
HETATM    8  S8  UNL     1     -35.542  14.763  -6.465  1.00 20.00    -0.177 SA
HETATM    9  H20 UNL     1     -34.577  14.472  -7.347  1.00 20.00     0.102 HD
ENDBRANCH   6   8
BRANCH   7  10
HETATM   10  S9  UNL     1     -33.067  18.772  -3.535  1.00 20.00    -0.177 SA
HETATM   11  H21 UNL     1     -34.047  18.918  -2.634  1.00 20.00     0.102 HD
ENDBRANCH   7  10
TORSDOF 2
ENDMDL
MODEL 7
REMARK VINA RESULT:      -3.4     16.980     18.260
REMARK  2 active torsions:
REMARK  status: ('A' for Active; 'I' for Inactive)
REMARK    1  A    between atoms: C6_6  and  S8_8 
REMARK    2  A    between atoms: C7_7  and  S9_9 
ROOT
HETATM    1  C1  UNL     1     -33.344  14.669  -4.234  1.00 20.00     0.011 C 
HETATM    2  C2  UNL     1     -35.012  15.471  -2.734  1.00 20.00     0.020 C 
HETATM    3  C3  UNL     1     -35.593  14.573  -5.014  1.00 20.00     0.020 C 
HETATM    4  C4  UNL     1     -34.750  14.335  -3.744  1.00 20.00    -0.012 C 
HETATM    5  C5  UNL     1     -33.736  16.081  -4.690  1.00 20.00     0.013 C 
HETATM    6  C6  UNL     1     -34.341  16.689  -3.400  1.00 20.00     0.050 C 
HETATM    7  C7  UNL     1     -34.915  15.801  -5.655  1.00 20.00     0.050 C 
ENDROOT
BRANCH   6   8
HETATM    8  S8  UNL     1     -33.071  17.439  -2.330  1.00 20.00    -0.177 SA
HETATM    9  H20 UNL     1     -32.806  18.473  -3.140  1.00 20.00     0.102 HD
ENDBRANCH   6   8
BRANCH   7  10
HETATM   10  S9  UNL     1     -34.349  15.460  -7.353  1.00 20.00    -0.177 SA
HETATM   11  H21 UNL     1     -33.248  14.787  -6.997  1.00 20.00     0.102 HD
ENDBRANCH   7  10
TORSDOF 2
ENDMDL
MODEL 8
REMARK VINA RESULT:      -3.4     16.144     17.475
REMARK  2 active torsions:
REMARK  status: ('A' for Active; 'I' for Inactive)
REMARK    1  A    between atoms: C6_6  and  S8_8 
REMARK    2  A    between atoms: C7_7  and  S9_9 
ROOT
HETATM    1  C1  UNL     1     -33.356  15.560  -3.665  1.00 20.00     0.011 C 
HETATM    2  C2  UNL     1     -34.712  16.350  -1.874  1.00 20.00     0.020 C 
HETATM    3  C3  UNL     1     -35.683  15.777  -4.126  1.00 20.00     0.020 C 
HETATM    4  C4  UNL     1     -34.715  15.315  -3.017  1.00 20.00    -0.012 C 
HETATM    5  C5  UNL     1     -33.641  17.047  -3.921  1.00 20.00     0.013 C 
HETATM    6  C6  UNL     1     -34.000  17.563  -2.505  1.00 20.00     0.050 C 
HETATM    7  C7  UNL     1     -34.959  16.996  -4.732  1.00 20.00     0.050 C 
ENDROOT
BRANCH   6   8
HETATM    8  S8  UNL     1     -32.524  18.058  -1.557  1.00 20.00    -0.177 SA
HETATM    9  H20 UNL     1     -32.681  19.375  -1.742  1.00 20.00     0.102 HD
ENDBRANCH   6   8
BRANCH   7  10
HETATM   10  S9  UNL     1     -34.661  16.794  -6.519  1.00 20.00    -0.177 SA
HETATM   11  H21 UNL     1     -33.325  16.775  -6.432  1.00 20.00     0.102 HD
ENDBRANCH   7  10
TORSDOF 2
ENDMDL
MODEL 9
REMARK VINA RESULT:      -3.3     15.921     17.103
REMARK  2 active torsions:
REMARK  status: ('A' for Active; 'I' for Inactive)
REMARK    1  A    between atoms: C6_6  and  S8_8 
REMARK    2  A    between atoms: C7_7  and  S9_9 
ROOT
HETATM    1  C1  UNL     1     -35.025  16.189  -1.780  1.00 20.00     0.011 C 
HETATM    2  C2  UNL     1     -35.492  15.896  -4.097  1.00 20.00     0.020 C 
HETATM    3  C3  UNL     1     -33.138  16.129  -3.233  1.00 20.00     0.020 C 
HETATM    4  C4  UNL     1     -34.501  15.445  -3.005  1.00 20.00    -0.012 C 
HETATM    5  C5  UNL     1     -34.914  17.565  -2.452  1.00 20.00     0.013 C 
HETATM    6  C6  UNL     1     -35.755  17.372  -3.740  1.00 20.00     0.050 C 
HETATM    7  C7  UNL     1     -33.427  17.603  -2.884  1.00 20.00     0.050 C 
ENDROOT
BRANCH   6   8
HETATM    8  S8  UNL     1     -37.525  17.703  -3.463  1.00 20.00    -0.177 SA
HETATM    9  H20 UNL     1     -37.880  16.421  -3.307  1.00 20.00     0.102 HD
ENDBRANCH   6   8
BRANCH   7  10
HETATM   10  S9  UNL     1     -32.340  18.217  -1.557  1.00 20.00    -0.177 SA
HETATM   11  H21 UNL     1     -33.201  19.129  -1.087  1.00 20.00     0.102 HD
ENDBRANCH   7  10
TORSDOF 2
ENDMDL
