MODEL 1
REMARK VINA RESULT:      -4.0      0.000      0.000
REMARK  2 active torsions:
REMARK  status: ('A' for Active; 'I' for Inactive)
REMARK    1  A    between atoms: C1_1  and  C5_5 
REMARK    2  A    between atoms: C5_5  and  C6_6 
ROOT
HETATM    1  C5  UNL     1     -35.358  15.181  -5.003  1.00 20.00     0.190 C 
HETATM    2 CL9  UNL     1     -34.751  14.793  -6.640  1.00 20.00    -0.114 Cl
ENDROOT
BRANCH   1   3
HETATM    3  C1  UNL     1     -36.323  14.057  -4.657  1.00 20.00     0.144 C 
HETATM    4  C2  UNL     1     -37.720  14.463  -4.263  1.00 20.00     0.092 C 
HETATM    5  O7  UNL     1     -35.986  12.873  -4.668  1.00 20.00    -0.297 OA
ENDBRANCH   1   3
BRANCH   1   6
HETATM    6  C6  UNL     1     -34.217  15.332  -3.980  1.00 20.00     0.119 C 
HETATM    7  C3  UNL     1     -32.998  14.493  -4.368  1.00 20.00     0.053 C 
HETATM    8  C4  UNL     1     -33.787  16.789  -3.796  1.00 20.00     0.053 C 
HETATM    9  F8  UNL     1     -34.651  14.883  -2.764  1.00 20.00    -0.242 F 
ENDBRANCH   1   6
TORSDOF 2
ENDMDL
MODEL 2
REMARK VINA RESULT:      -4.0     12.274     12.763
REMARK  2 active torsions:
REMARK  status: ('A' for Active; 'I' for Inactive)
REMARK    1  A    between atoms: C1_1  and  C5_5 
REMARK    2  A    between atoms: C5_5  and  C6_6 
ROOT
HETATM    1  C5  UNL     1     -34.095   6.641   4.203  1.00 20.00     0.190 C 
HETATM    2 CL9  UNL     1     -33.184   7.317   5.586  1.00 20.00    -0.114 Cl
ENDROOT
BRANCH   1   3
HETATM    3  C1  UNL     1     -33.072   6.487   3.087  1.00 20.00     0.144 C 
HETATM    4  C2  UNL     1     -31.850   7.365   3.163  1.00 20.00     0.092 C 
HETATM    5  O7  UNL     1     -33.236   5.707   2.148  1.00 20.00    -0.297 OA
ENDBRANCH   1   3
BRANCH   1   6
HETATM    6  C6  UNL     1     -34.801   5.321   4.561  1.00 20.00     0.119 C 
HETATM    7  C3  UNL     1     -34.115   4.120   3.906  1.00 20.00     0.053 C 
HETATM    8  C4  UNL     1     -34.881   5.092   6.072  1.00 20.00     0.053 C 
HETATM    9  F8  UNL     1     -36.084   5.364   4.091  1.00 20.00    -0.242 F 
ENDBRANCH   1   6
TORSDOF 2
ENDMDL
MODEL 3
REMARK VINA RESULT:      -4.0     11.604     12.116
REMARK  2 active torsions:
REMARK  status: ('A' for Active; 'I' for Inactive)
REMARK    1  A    between atoms: C1_1  and  C5_5 
REMARK    2  A    between atoms: C5_5  and  C6_6 
ROOT
HETATM    1  C5  UNL     1     -33.018   5.893   3.628  1.00 20.00     0.190 C 
HETATM    2 CL9  UNL     1     -33.423   4.910   2.191  1.00 20.00    -0.114 Cl
ENDROOT
BRANCH   1   3
HETATM    3  C1  UNL     1     -32.315   7.127   3.083  1.00 20.00     0.144 C 
HETATM    4  C2  UNL     1     -32.585   7.479   1.643  1.00 20.00     0.092 C 
HETATM    5  O7  UNL     1     -31.541   7.799   3.766  1.00 20.00    -0.297 OA
ENDBRANCH   1   3
BRANCH   1   6
HETATM    6  C6  UNL     1     -34.260   6.230   4.473  1.00 20.00     0.119 C 
HETATM    7  C3  UNL     1     -35.278   5.088   4.457  1.00 20.00     0.053 C 
HETATM    8  C4  UNL     1     -33.905   6.567   5.923  1.00 20.00     0.053 C 
HETATM    9  F8  UNL     1     -34.872   7.329   3.940  1.00 20.00    -0.242 F 
ENDBRANCH   1   6
TORSDOF 2
ENDMDL
MODEL 4
REMARK VINA RESULT:      -4.0      1.461      1.723
REMARK  2 active torsions:
REMARK  status: ('A' for Active; 'I' for Inactive)
REMARK    1  A    between atoms: C1_1  and  C5_5 
REMARK    2  A    between atoms: C5_5  and  C6_6 
ROOT
HETATM    1  C5  UNL     1     -34.411  15.058  -4.343  1.00 20.00     0.190 C 
HETATM    2 CL9  UNL     1     -32.758  14.385  -4.459  1.00 20.00    -0.114 Cl
ENDROOT
BRANCH   1   3
HETATM    3  C1  UNL     1     -35.329  13.848  -4.250  1.00 20.00     0.144 C 
HETATM    4  C2  UNL     1     -36.795  14.092  -4.496  1.00 20.00     0.092 C 
HETATM    5  O7  UNL     1     -34.912  12.726  -3.961  1.00 20.00    -0.297 OA
ENDBRANCH   1   3
BRANCH   1   6
HETATM    6  C6  UNL     1     -34.564  16.025  -3.156  1.00 20.00     0.119 C 
HETATM    7  C3  UNL     1     -33.213  16.583  -2.705  1.00 20.00     0.053 C 
HETATM    8  C4  UNL     1     -35.509  17.188  -3.469  1.00 20.00     0.053 C 
HETATM    9  F8  UNL     1     -35.099  15.345  -2.098  1.00 20.00    -0.242 F 
ENDBRANCH   1   6
TORSDOF 2
ENDMDL
MODEL 5
REMARK VINA RESULT:      -3.9      1.769      1.858
REMARK  2 active torsions:
REMARK  status: ('A' for Active; 'I' for Inactive)
REMARK    1  A    between atoms: C1_1  and  C5_5 
REMARK    2  A    between atoms: C5_5  and  C6_6 
ROOT
HETATM    1  C5  UNL     1     -35.136  14.657  -3.433  1.00 20.00     0.190 C 
HETATM    2 CL9  UNL     1     -36.024  16.144  -2.987  1.00 20.00    -0.114 Cl
ENDROOT
BRANCH   1   3
HETATM    3  C1  UNL     1     -36.126  13.825  -4.235  1.00 20.00     0.144 C 
HETATM    4  C2  UNL     1     -37.460  14.459  -4.529  1.00 20.00     0.092 C 
HETATM    5  O7  UNL     1     -35.872  12.680  -4.608  1.00 20.00    -0.297 OA
ENDBRANCH   1   3
BRANCH   1   6
HETATM    6  C6  UNL     1     -33.839  14.962  -4.206  1.00 20.00     0.119 C 
HETATM    7  C3  UNL     1     -34.129  15.372  -5.652  1.00 20.00     0.053 C 
HETATM    8  C4  UNL     1     -33.002  16.052  -3.533  1.00 20.00     0.053 C 
HETATM    9  F8  UNL     1     -33.073  13.832  -4.248  1.00 20.00    -0.242 F 
ENDBRANCH   1   6
TORSDOF 2
ENDMDL
MODEL 6
REMARK VINA RESULT:      -3.8      1.717      2.071
REMARK  2 active torsions:
REMARK  status: ('A' for Active; 'I' for Inactive)
REMARK    1  A    between atoms: C1_1  and  C5_5 
REMARK    2  A    between atoms: C5_5  and  C6_6 
ROOT
HETATM    1  C5  UNL     1     -36.224  15.056  -3.798  1.00 20.00     0.190 C 
HETATM    2 CL9  UNL     1     -37.289  16.236  -4.616  1.00 20.00    -0.114 Cl
ENDROOT
BRANCH   1   3
HETATM    3  C1  UNL     1     -35.981  13.959  -4.823  1.00 20.00     0.144 C 
HETATM    4  C2  UNL     1     -35.808  14.397  -6.254  1.00 20.00     0.092 C 
HETATM    5  O7  UNL     1     -35.951  12.766  -4.517  1.00 20.00    -0.297 OA
ENDBRANCH   1   3
BRANCH   1   6
HETATM    6  C6  UNL     1     -34.924  15.701  -3.285  1.00 20.00     0.119 C 
HETATM    7  C3  UNL     1     -34.509  16.894  -4.148  1.00 20.00     0.053 C 
HETATM    8  C4  UNL     1     -35.031  16.150  -1.826  1.00 20.00     0.053 C 
HETATM    9  F8  UNL     1     -33.917  14.780  -3.351  1.00 20.00    -0.242 F 
ENDBRANCH   1   6
TORSDOF 2
ENDMDL
MODEL 7
REMARK VINA RESULT:      -3.8      1.801      2.250
REMARK  2 active torsions:
REMARK  status: ('A' for Active; 'I' for Inactive)
REMARK    1  A    between atoms: C1_1  and  C5_5 
REMARK    2  A    between atoms: C5_5  and  C6_6 
ROOT
HETATM    1  C5  UNL     1     -35.246  15.814  -4.824  1.00 20.00     0.190 C 
HETATM    2 CL9  UNL     1     -34.591  17.353  -5.456  1.00 20.00    -0.114 Cl
ENDROOT
BRANCH   1   3
HETATM    3  C1  UNL     1     -35.137  14.830  -5.979  1.00 20.00     0.144 C 
HETATM    4  C2  UNL     1     -34.013  15.054  -6.957  1.00 20.00     0.092 C 
HETATM    5  O7  UNL     1     -35.938  13.907  -6.135  1.00 20.00    -0.297 OA
ENDBRANCH   1   3
BRANCH   1   6
HETATM    6  C6  UNL     1     -34.507  15.342  -3.558  1.00 20.00     0.119 C 
HETATM    7  C3  UNL     1     -33.031  15.745  -3.585  1.00 20.00     0.053 C 
HETATM    8  C4  UNL     1     -35.150  15.874  -2.276  1.00 20.00     0.053 C 
HETATM    9  F8  UNL     1     -34.557  13.978  -3.500  1.00 20.00    -0.242 F 
ENDBRANCH   1   6
TORSDOF 2
ENDMDL
MODEL 8
REMARK VINA RESULT:      -3.8     10.311     11.415
REMARK  2 active torsions:
REMARK  status: ('A' for Active; 'I' for Inactive)
REMARK    1  A    between atoms: C1_1  and  C5_5 
REMARK    2  A    between atoms: C5_5  and  C6_6 
ROOT
HETATM    1  C5  UNL     1     -41.745   6.890   0.343  1.00 20.00     0.190 C 
HETATM    2 CL9  UNL     1     -43.117   6.465   1.408  1.00 20.00    -0.114 Cl
ENDROOT
BRANCH   1   3
HETATM    3  C1  UNL     1     -41.637   5.740  -0.648  1.00 20.00     0.144 C 
HETATM    4  C2  UNL     1     -42.917   5.030  -1.003  1.00 20.00     0.092 C 
HETATM    5  O7  UNL     1     -40.559   5.380  -1.122  1.00 20.00    -0.297 OA
ENDBRANCH   1   3
BRANCH   1   6
HETATM    6  C6  UNL     1     -41.939   8.257  -0.339  1.00 20.00     0.119 C 
HETATM    7  C3  UNL     1     -43.417   8.644  -0.414  1.00 20.00     0.053 C 
HETATM    8  C4  UNL     1     -41.161   9.373   0.362  1.00 20.00     0.053 C 
HETATM    9  F8  UNL     1     -41.471   8.182  -1.621  1.00 20.00    -0.242 F 
ENDBRANCH   1   6
TORSDOF 2
ENDMDL
MODEL 9
REMARK VINA RESULT:      -3.7     10.006     11.246
REMARK  2 active torsions:
REMARK  status: ('A' for Active; 'I' for Inactive)
REMARK    1  A    between atoms: C1_1  and  C5_5 
REMARK    2  A    between atoms: C5_5  and  C6_6 
ROOT
HETATM    1  C5  UNL     1     -41.918   7.666  -0.888  1.00 20.00     0.190 C 
HETATM    2 CL9  UNL     1     -43.417   7.267  -1.779  1.00 20.00    -0.114 Cl
ENDROOT
BRANCH   1   3
HETATM    3  C1  UNL     1     -42.260   8.897  -0.062  1.00 20.00     0.144 C 
HETATM    4  C2  UNL     1     -41.103   9.747   0.395  1.00 20.00     0.092 C 
HETATM    5  O7  UNL     1     -43.417   9.182   0.247  1.00 20.00    -0.297 OA
ENDBRANCH   1   3
BRANCH   1   6
HETATM    6  C6  UNL     1     -41.417   6.487  -0.034  1.00 20.00     0.119 C 
HETATM    7  C3  UNL     1     -42.535   5.906   0.835  1.00 20.00     0.053 C 
HETATM    8  C4  UNL     1     -40.807   5.369  -0.883  1.00 20.00     0.053 C 
HETATM    9  F8  UNL     1     -40.439   6.935   0.808  1.00 20.00    -0.242 F 
ENDBRANCH   1   6
TORSDOF 2
ENDMDL
