MODEL 1
REMARK VINA RESULT:      -4.5      0.000      0.000
REMARK  2 active torsions:
REMARK  status: ('A' for Active; 'I' for Inactive)
REMARK    1  A    between atoms: C1_1  and  C5_5 
REMARK    2  A    between atoms: C1_1  and  C6_6 
ROOT
HETATM    1  C1  UNL     1     -33.688   6.258   4.202  1.00 20.00     0.184 C 
HETATM    2  O7  UNL     1     -33.124   7.057   4.952  1.00 20.00    -0.293 OA
ENDROOT
BRANCH   1   3
HETATM    3  C5  UNL     1     -33.406   6.234   2.701  1.00 20.00     0.052 C 
HETATM    4  C2  UNL     1     -32.316   7.247   2.370  1.00 20.00     0.017 C 
HETATM    5  C3  UNL     1     -33.006   4.835   2.240  1.00 20.00     0.017 C 
ENDBRANCH   1   3
BRANCH   1   6
HETATM    6  C6  UNL     1     -34.685   5.243   4.738  1.00 20.00     0.235 C 
HETATM    7  C4  UNL     1     -34.889   5.403   6.235  1.00 20.00     0.079 C 
HETATM    8  F8  UNL     1     -34.285   3.963   4.502  1.00 20.00    -0.217 F 
HETATM    9 CL9  UNL     1     -36.214   5.517   3.867  1.00 20.00    -0.075 Cl
ENDBRANCH   1   6
TORSDOF 2
ENDMDL
MODEL 2
REMARK VINA RESULT:      -4.4     16.914     17.756
REMARK  2 active torsions:
REMARK  status: ('A' for Active; 'I' for Inactive)
REMARK    1  A    between atoms: C1_1  and  C5_5 
REMARK    2  A    between atoms: C1_1  and  C6_6 
ROOT
HETATM    1  C1  UNL     1     -22.976  17.814  10.953  1.00 20.00     0.184 C 
HETATM    2  O7  UNL     1     -22.170  17.796  11.886  1.00 20.00    -0.293 OA
ENDROOT
BRANCH   1   3
HETATM    3  C5  UNL     1     -24.450  17.475  11.163  1.00 20.00     0.052 C 
HETATM    4  C2  UNL     1     -24.592  15.993  11.489  1.00 20.00     0.017 C 
HETATM    5  C3  UNL     1     -25.060  18.335  12.267  1.00 20.00     0.017 C 
ENDBRANCH   1   3
BRANCH   1   6
HETATM    6  C6  UNL     1     -22.543  18.190   9.545  1.00 20.00     0.235 C 
HETATM    7  C4  UNL     1     -22.380  16.961   8.668  1.00 20.00     0.079 C 
HETATM    8  F8  UNL     1     -21.362  18.869   9.541  1.00 20.00    -0.217 F 
HETATM    9 CL9  UNL     1     -23.804  19.263   8.890  1.00 20.00    -0.075 Cl
ENDBRANCH   1   6
TORSDOF 2
ENDMDL
MODEL 3
REMARK VINA RESULT:      -4.3     16.628     17.430
REMARK  2 active torsions:
REMARK  status: ('A' for Active; 'I' for Inactive)
REMARK    1  A    between atoms: C1_1  and  C5_5 
REMARK    2  A    between atoms: C1_1  and  C6_6 
ROOT
HETATM    1  C1  UNL     1     -24.471  18.275  10.480  1.00 20.00     0.184 C 
HETATM    2  O7  UNL     1     -25.066  18.785   9.529  1.00 20.00    -0.293 OA
ENDROOT
BRANCH   1   3
HETATM    3  C5  UNL     1     -25.106  18.183  11.866  1.00 20.00     0.052 C 
HETATM    4  C2  UNL     1     -26.200  19.236  11.997  1.00 20.00     0.017 C 
HETATM    5  C3  UNL     1     -25.664  16.785  12.121  1.00 20.00     0.017 C 
ENDBRANCH   1   3
BRANCH   1   6
HETATM    6  C6  UNL     1     -23.074  17.698  10.317  1.00 20.00     0.235 C 
HETATM    7  C4  UNL     1     -22.263  18.486   9.302  1.00 20.00     0.079 C 
HETATM    8  F8  UNL     1     -23.105  16.398   9.912  1.00 20.00    -0.217 F 
HETATM    9 CL9  UNL     1     -22.301  17.763  11.920  1.00 20.00    -0.075 Cl
ENDBRANCH   1   6
TORSDOF 2
ENDMDL
MODEL 4
REMARK VINA RESULT:      -4.2     12.324     12.588
REMARK  2 active torsions:
REMARK  status: ('A' for Active; 'I' for Inactive)
REMARK    1  A    between atoms: C1_1  and  C5_5 
REMARK    2  A    between atoms: C1_1  and  C6_6 
ROOT
HETATM    1  C1  UNL     1     -35.363  15.668  -3.555  1.00 20.00     0.184 C 
HETATM    2  O7  UNL     1     -36.278  16.443  -3.836  1.00 20.00    -0.293 OA
ENDROOT
BRANCH   1   3
HETATM    3  C5  UNL     1     -34.442  15.915  -2.362  1.00 20.00     0.052 C 
HETATM    4  C2  UNL     1     -33.176  16.623  -2.832  1.00 20.00     0.017 C 
HETATM    5  C3  UNL     1     -35.150  16.728  -1.282  1.00 20.00     0.017 C 
ENDBRANCH   1   3
BRANCH   1   6
HETATM    6  C6  UNL     1     -35.113  14.413  -4.378  1.00 20.00     0.235 C 
HETATM    7  C4  UNL     1     -36.411  13.698  -4.707  1.00 20.00     0.079 C 
HETATM    8  F8  UNL     1     -34.300  13.534  -3.729  1.00 20.00    -0.217 F 
HETATM    9 CL9  UNL     1     -34.291  14.934  -5.869  1.00 20.00    -0.075 Cl
ENDBRANCH   1   6
TORSDOF 2
ENDMDL
MODEL 5
REMARK VINA RESULT:      -4.2      1.981      2.245
REMARK  2 active torsions:
REMARK  status: ('A' for Active; 'I' for Inactive)
REMARK    1  A    between atoms: C1_1  and  C5_5 
REMARK    2  A    between atoms: C1_1  and  C6_6 
ROOT
HETATM    1  C1  UNL     1     -33.379   5.925   3.134  1.00 20.00     0.184 C 
HETATM    2  O7  UNL     1     -32.985   4.983   2.444  1.00 20.00    -0.293 OA
ENDROOT
BRANCH   1   3
HETATM    3  C5  UNL     1     -32.868   7.347   2.915  1.00 20.00     0.052 C 
HETATM    4  C2  UNL     1     -31.531   7.525   3.626  1.00 20.00     0.017 C 
HETATM    5  C3  UNL     1     -32.737   7.660   1.426  1.00 20.00     0.017 C 
ENDBRANCH   1   3
BRANCH   1   6
HETATM    6  C6  UNL     1     -34.409   5.718   4.234  1.00 20.00     0.235 C 
HETATM    7  C4  UNL     1     -34.446   4.271   4.694  1.00 20.00     0.079 C 
HETATM    8  F8  UNL     1     -35.662   6.063   3.827  1.00 20.00    -0.217 F 
HETATM    9 CL9  UNL     1     -33.946   6.791   5.578  1.00 20.00    -0.075 Cl
ENDBRANCH   1   6
TORSDOF 2
ENDMDL
MODEL 6
REMARK VINA RESULT:      -4.2     12.764     13.561
REMARK  2 active torsions:
REMARK  status: ('A' for Active; 'I' for Inactive)
REMARK    1  A    between atoms: C1_1  and  C5_5 
REMARK    2  A    between atoms: C1_1  and  C6_6 
ROOT
HETATM    1  C1  UNL     1     -33.856  14.947  -4.798  1.00 20.00     0.184 C 
HETATM    2  O7  UNL     1     -33.223  13.931  -4.505  1.00 20.00    -0.293 OA
ENDROOT
BRANCH   1   3
HETATM    3  C5  UNL     1     -34.201  16.005  -3.752  1.00 20.00     0.052 C 
HETATM    4  C2  UNL     1     -35.199  15.429  -2.754  1.00 20.00     0.017 C 
HETATM    5  C3  UNL     1     -32.945  16.503  -3.040  1.00 20.00     0.017 C 
ENDBRANCH   1   3
BRANCH   1   6
HETATM    6  C6  UNL     1     -34.313  15.205  -6.225  1.00 20.00     0.235 C 
HETATM    7  C4  UNL     1     -35.668  14.575  -6.496  1.00 20.00     0.079 C 
HETATM    8  F8  UNL     1     -33.430  14.714  -7.139  1.00 20.00    -0.217 F 
HETATM    9 CL9  UNL     1     -34.395  16.972  -6.425  1.00 20.00    -0.075 Cl
ENDBRANCH   1   6
TORSDOF 2
ENDMDL
MODEL 7
REMARK VINA RESULT:      -4.1     16.730     17.263
REMARK  2 active torsions:
REMARK  status: ('A' for Active; 'I' for Inactive)
REMARK    1  A    between atoms: C1_1  and  C5_5 
REMARK    2  A    between atoms: C1_1  and  C6_6 
ROOT
HETATM    1  C1  UNL     1     -23.314  17.054  10.158  1.00 20.00     0.184 C 
HETATM    2  O7  UNL     1     -23.705  16.075   9.520  1.00 20.00    -0.293 OA
ENDROOT
BRANCH   1   3
HETATM    3  C5  UNL     1     -22.659  18.249   9.468  1.00 20.00     0.052 C 
HETATM    4  C2  UNL     1     -21.658  17.754   8.431  1.00 20.00     0.017 C 
HETATM    5  C3  UNL     1     -23.708  19.153   8.823  1.00 20.00     0.017 C 
ENDBRANCH   1   3
BRANCH   1   6
HETATM    6  C6  UNL     1     -23.478  17.128  11.668  1.00 20.00     0.235 C 
HETATM    7  C4  UNL     1     -22.252  17.732  12.330  1.00 20.00     0.079 C 
HETATM    8  F8  UNL     1     -23.691  15.899  12.216  1.00 20.00    -0.217 F 
HETATM    9 CL9  UNL     1     -24.915  18.132  11.979  1.00 20.00    -0.075 Cl
ENDBRANCH   1   6
TORSDOF 2
ENDMDL
MODEL 8
REMARK VINA RESULT:      -4.1     12.161     12.876
REMARK  2 active torsions:
REMARK  status: ('A' for Active; 'I' for Inactive)
REMARK    1  A    between atoms: C1_1  and  C5_5 
REMARK    2  A    between atoms: C1_1  and  C6_6 
ROOT
HETATM    1  C1  UNL     1     -34.153  14.848  -4.390  1.00 20.00     0.184 C 
HETATM    2  O7  UNL     1     -33.330  13.944  -4.551  1.00 20.00    -0.293 OA
ENDROOT
BRANCH   1   3
HETATM    3  C5  UNL     1     -35.517  14.819  -5.076  1.00 20.00     0.052 C 
HETATM    4  C2  UNL     1     -35.327  14.767  -6.588  1.00 20.00     0.017 C 
HETATM    5  C3  UNL     1     -36.350  13.635  -4.592  1.00 20.00     0.017 C 
ENDBRANCH   1   3
BRANCH   1   6
HETATM    6  C6  UNL     1     -33.855  16.033  -3.485  1.00 20.00     0.235 C 
HETATM    7  C4  UNL     1     -34.068  17.351  -4.209  1.00 20.00     0.079 C 
HETATM    8  F8  UNL     1     -32.574  16.009  -3.022  1.00 20.00    -0.217 F 
HETATM    9 CL9  UNL     1     -34.953  15.901  -2.090  1.00 20.00    -0.075 Cl
ENDBRANCH   1   6
TORSDOF 2
ENDMDL
MODEL 9
REMARK VINA RESULT:      -4.0      2.058      3.427
REMARK  2 active torsions:
REMARK  status: ('A' for Active; 'I' for Inactive)
REMARK    1  A    between atoms: C1_1  and  C5_5 
REMARK    2  A    between atoms: C1_1  and  C6_6 
ROOT
HETATM    1  C1  UNL     1     -33.628   6.526   4.504  1.00 20.00     0.184 C 
HETATM    2  O7  UNL     1     -33.412   7.308   5.432  1.00 20.00    -0.293 OA
ENDROOT
BRANCH   1   3
HETATM    3  C5  UNL     1     -34.550   5.320   4.673  1.00 20.00     0.052 C 
HETATM    4  C2  UNL     1     -34.760   5.042   6.157  1.00 20.00     0.017 C 
HETATM    5  C3  UNL     1     -35.885   5.546   3.967  1.00 20.00     0.017 C 
ENDBRANCH   1   3
BRANCH   1   6
HETATM    6  C6  UNL     1     -32.997   6.733   3.137  1.00 20.00     0.235 C 
HETATM    7  C4  UNL     1     -31.622   7.367   3.250  1.00 20.00     0.079 C 
HETATM    8  F8  UNL     1     -33.763   7.529   2.339  1.00 20.00    -0.217 F 
HETATM    9 CL9  UNL     1     -32.885   5.127   2.376  1.00 20.00    -0.075 Cl
ENDBRANCH   1   6
TORSDOF 2
ENDMDL
