MODEL 1
REMARK VINA RESULT:      -4.1      0.000      0.000
REMARK  1 active torsions:
REMARK  status: ('A' for Active; 'I' for Inactive)
REMARK    1  A    between atoms: C1_1  and  C5_5 
ROOT
HETATM    1  C1  UNL     1     -24.521  19.148   7.653  1.00 20.00     0.141 A 
HETATM    2  C2  UNL     1     -24.894  19.188   5.510  1.00 20.00     0.187 A 
HETATM    3  N6  UNL     1     -23.931  19.236   6.404  1.00 20.00    -0.211 NA
HETATM    4  N7  UNL     1     -25.843  19.035   7.778  1.00 20.00    -0.193 NA
HETATM    5  S8  UNL     1     -26.450  19.038   6.218  1.00 20.00     0.046 SA
HETATM    6 CL9  UNL     1     -24.671  19.258   3.822  1.00 20.00    -0.053 Cl
ENDROOT
BRANCH   1   7
HETATM    7  C5  UNL     1     -23.635  19.182   8.910  1.00 20.00     0.058 A 
HETATM    8  C3  UNL     1     -22.392  18.324   8.942  1.00 20.00     0.013 A 
HETATM    9  C4  UNL     1     -23.571  17.951   9.784  1.00 20.00     0.013 A 
ENDBRANCH   1   7
TORSDOF 1
ENDMDL
MODEL 2
REMARK VINA RESULT:      -4.0     15.507     16.228
REMARK  1 active torsions:
REMARK  status: ('A' for Active; 'I' for Inactive)
REMARK    1  A    between atoms: C1_1  and  C5_5 
ROOT
HETATM    1  C1  UNL     1     -32.984   6.630   2.755  1.00 20.00     0.141 A 
HETATM    2  C2  UNL     1     -34.038   5.954   4.534  1.00 20.00     0.187 A 
HETATM    3  N6  UNL     1     -33.431   6.997   4.012  1.00 20.00    -0.211 NA
HETATM    4  N7  UNL     1     -33.202   5.403   2.284  1.00 20.00    -0.193 NA
HETATM    5  S8  UNL     1     -34.038   4.594   3.487  1.00 20.00     0.046 SA
HETATM    6 CL9  UNL     1     -34.763   5.910   6.075  1.00 20.00    -0.053 Cl
ENDROOT
BRANCH   1   7
HETATM    7  C5  UNL     1     -32.224   7.654   1.895  1.00 20.00     0.058 A 
HETATM    8  C3  UNL     1     -32.944   8.911   1.464  1.00 20.00     0.013 A 
HETATM    9  C4  UNL     1     -32.645   7.845   0.456  1.00 20.00     0.013 A 
ENDBRANCH   1   7
TORSDOF 1
ENDMDL
MODEL 3
REMARK VINA RESULT:      -3.9      4.435      4.962
REMARK  1 active torsions:
REMARK  status: ('A' for Active; 'I' for Inactive)
REMARK    1  A    between atoms: C1_1  and  C5_5 
ROOT
HETATM    1  C1  UNL     1     -23.661  17.399  10.905  1.00 20.00     0.141 A 
HETATM    2  C2  UNL     1     -25.618  18.095  11.551  1.00 20.00     0.187 A 
HETATM    3  N6  UNL     1     -24.583  18.426  10.810  1.00 20.00    -0.211 NA
HETATM    4  N7  UNL     1     -23.912  16.323  11.650  1.00 20.00    -0.193 NA
HETATM    5  S8  UNL     1     -25.426  16.572  12.316  1.00 20.00     0.046 SA
HETATM    6 CL9  UNL     1     -27.021  19.041  11.755  1.00 20.00    -0.053 Cl
ENDROOT
BRANCH   1   7
HETATM    7  C5  UNL     1     -22.330  17.505  10.140  1.00 20.00     0.058 A 
HETATM    8  C3  UNL     1     -22.184  18.581   9.090  1.00 20.00     0.013 A 
HETATM    9  C4  UNL     1     -22.309  17.149   8.672  1.00 20.00     0.013 A 
ENDBRANCH   1   7
TORSDOF 1
ENDMDL
MODEL 4
REMARK VINA RESULT:      -3.9      3.483      4.459
REMARK  1 active torsions:
REMARK  status: ('A' for Active; 'I' for Inactive)
REMARK    1  A    between atoms: C1_1  and  C5_5 
ROOT
HETATM    1  C1  UNL     1     -24.299  18.516   8.029  1.00 20.00     0.141 A 
HETATM    2  C2  UNL     1     -23.432  17.619   9.812  1.00 20.00     0.187 A 
HETATM    3  N6  UNL     1     -24.496  18.257   9.374  1.00 20.00    -0.211 NA
HETATM    4  N7  UNL     1     -23.182  18.127   7.415  1.00 20.00    -0.193 NA
HETATM    5  S8  UNL     1     -22.259  17.366   8.585  1.00 20.00     0.046 SA
HETATM    6 CL9  UNL     1     -23.200  17.080  11.411  1.00 20.00    -0.053 Cl
ENDROOT
BRANCH   1   7
HETATM    7  C5  UNL     1     -25.386  19.262   7.237  1.00 20.00     0.058 A 
HETATM    8  C3  UNL     1     -26.800  19.258   7.769  1.00 20.00     0.013 A 
HETATM    9  C4  UNL     1     -26.464  18.457   6.551  1.00 20.00     0.013 A 
ENDBRANCH   1   7
TORSDOF 1
ENDMDL
MODEL 5
REMARK VINA RESULT:      -3.7     15.857     16.800
REMARK  1 active torsions:
REMARK  status: ('A' for Active; 'I' for Inactive)
REMARK    1  A    between atoms: C1_1  and  C5_5 
ROOT
HETATM    1  C1  UNL     1     -34.906  15.216  -4.905  1.00 20.00     0.141 A 
HETATM    2  C2  UNL     1     -36.426  15.918  -6.294  1.00 20.00     0.187 A 
HETATM    3  N6  UNL     1     -36.100  15.907  -5.020  1.00 20.00    -0.211 NA
HETATM    4  N7  UNL     1     -34.304  14.709  -5.980  1.00 20.00    -0.193 NA
HETATM    5  S8  UNL     1     -35.282  15.102  -7.279  1.00 20.00     0.046 SA
HETATM    6 CL9  UNL     1     -37.819  16.654  -6.944  1.00 20.00    -0.053 Cl
ENDROOT
BRANCH   1   7
HETATM    7  C5  UNL     1     -34.271  15.034  -3.516  1.00 20.00     0.058 A 
HETATM    8  C3  UNL     1     -34.805  15.852  -2.364  1.00 20.00     0.013 A 
HETATM    9  C4  UNL     1     -33.458  16.168  -2.936  1.00 20.00     0.013 A 
ENDBRANCH   1   7
TORSDOF 1
ENDMDL
MODEL 6
REMARK VINA RESULT:      -3.7     12.809     14.291
REMARK  1 active torsions:
REMARK  status: ('A' for Active; 'I' for Inactive)
REMARK    1  A    between atoms: C1_1  and  C5_5 
ROOT
HETATM    1  C1  UNL     1     -34.188  15.948  -2.627  1.00 20.00     0.141 A 
HETATM    2  C2  UNL     1     -33.139  17.599  -1.675  1.00 20.00     0.187 A 
HETATM    3  N6  UNL     1     -33.009  16.672  -2.599  1.00 20.00    -0.211 NA
HETATM    4  N7  UNL     1     -35.194  16.249  -1.807  1.00 20.00    -0.193 NA
HETATM    5  S8  UNL     1     -34.666  17.549  -0.895  1.00 20.00     0.046 SA
HETATM    6 CL9  UNL     1     -31.950  18.749  -1.265  1.00 20.00    -0.053 Cl
ENDROOT
BRANCH   1   7
HETATM    7  C5  UNL     1     -34.333  14.781  -3.618  1.00 20.00     0.058 A 
HETATM    8  C3  UNL     1     -33.169  14.452  -4.523  1.00 20.00     0.013 A 
HETATM    9  C4  UNL     1     -34.396  15.089  -5.096  1.00 20.00     0.013 A 
ENDBRANCH   1   7
TORSDOF 1
ENDMDL
MODEL 7
REMARK VINA RESULT:      -3.6     14.186     14.853
REMARK  1 active torsions:
REMARK  status: ('A' for Active; 'I' for Inactive)
REMARK    1  A    between atoms: C1_1  and  C5_5 
ROOT
HETATM    1  C1  UNL     1     -34.058  16.067  -2.645  1.00 20.00     0.141 A 
HETATM    2  C2  UNL     1     -35.003  14.539  -3.873  1.00 20.00     0.187 A 
HETATM    3  N6  UNL     1     -35.208  15.320  -2.835  1.00 20.00    -0.211 NA
HETATM    4  N7  UNL     1     -33.006  15.918  -3.450  1.00 20.00    -0.193 NA
HETATM    5  S8  UNL     1     -33.445  14.746  -4.561  1.00 20.00     0.046 SA
HETATM    6 CL9  UNL     1     -36.132  13.431  -4.505  1.00 20.00    -0.053 Cl
ENDROOT
BRANCH   1   7
HETATM    7  C5  UNL     1     -33.998  17.079  -1.488  1.00 20.00     0.058 A 
HETATM    8  C3  UNL     1     -35.243  17.311  -0.665  1.00 20.00     0.013 A 
HETATM    9  C4  UNL     1     -34.774  18.369  -1.614  1.00 20.00     0.013 A 
ENDBRANCH   1   7
TORSDOF 1
ENDMDL
MODEL 8
REMARK VINA RESULT:      -3.6     15.157     16.084
REMARK  1 active torsions:
REMARK  status: ('A' for Active; 'I' for Inactive)
REMARK    1  A    between atoms: C1_1  and  C5_5 
ROOT
HETATM    1  C1  UNL     1     -34.843  15.515  -4.270  1.00 20.00     0.141 A 
HETATM    2  C2  UNL     1     -34.485  15.349  -6.409  1.00 20.00     0.187 A 
HETATM    3  N6  UNL     1     -33.883  15.293  -5.241  1.00 20.00    -0.211 NA
HETATM    4  N7  UNL     1     -36.115  15.732  -4.603  1.00 20.00    -0.193 NA
HETATM    5  S8  UNL     1     -36.167  15.664  -6.274  1.00 20.00     0.046 SA
HETATM    6 CL9  UNL     1     -33.722  15.135  -7.918  1.00 20.00    -0.053 Cl
ENDROOT
BRANCH   1   7
HETATM    7  C5  UNL     1     -34.431  15.513  -2.787  1.00 20.00     0.058 A 
HETATM    8  C3  UNL     1     -35.164  16.426  -1.832  1.00 20.00     0.013 A 
HETATM    9  C4  UNL     1     -33.753  16.739  -2.222  1.00 20.00     0.013 A 
ENDBRANCH   1   7
TORSDOF 1
ENDMDL
MODEL 9
REMARK VINA RESULT:      -3.6     16.077     16.516
REMARK  1 active torsions:
REMARK  status: ('A' for Active; 'I' for Inactive)
REMARK    1  A    between atoms: C1_1  and  C5_5 
ROOT
HETATM    1  C1  UNL     1     -34.159   5.657   3.890  1.00 20.00     0.141 A 
HETATM    2  C2  UNL     1     -32.921   6.548   2.338  1.00 20.00     0.187 A 
HETATM    3  N6  UNL     1     -33.570   6.828   3.447  1.00 20.00    -0.211 NA
HETATM    4  N7  UNL     1     -34.009   4.519   3.213  1.00 20.00    -0.193 NA
HETATM    5  S8  UNL     1     -33.054   4.896   1.892  1.00 20.00     0.046 SA
HETATM    6 CL9  UNL     1     -32.030   7.666   1.412  1.00 20.00    -0.053 Cl
ENDROOT
BRANCH   1   7
HETATM    7  C5  UNL     1     -34.997   5.674   5.180  1.00 20.00     0.058 A 
HETATM    8  C3  UNL     1     -34.447   6.391   6.390  1.00 20.00     0.013 A 
HETATM    9  C4  UNL     1     -34.501   4.896   6.376  1.00 20.00     0.013 A 
ENDBRANCH   1   7
TORSDOF 1
ENDMDL
