MODEL 1
REMARK VINA RESULT:      -3.8      0.000      0.000
REMARK  3 active torsions:
REMARK  status: ('A' for Active; 'I' for Inactive)
REMARK    1  A    between atoms: C4_4  and  N8_8 
REMARK    2  A    between atoms: C6_6  and  C7_7 
REMARK    3  A    between atoms: C6_6  and  N8_8 
ROOT
HETATM    1  C1  UNL     1     -33.335   6.902   4.851  1.00 20.00     0.047 C 
HETATM    2  C2  UNL     1     -34.097   6.768   6.160  1.00 20.00     0.076 C 
HETATM    3  C3  UNL     1     -34.569   4.867   4.319  1.00 20.00     0.109 C 
HETATM    4  C4  UNL     1     -34.209   6.249   3.783  1.00 20.00     0.232 C 
HETATM    5  S9  UNL     1     -34.870   5.128   6.092  1.00 20.00    -0.167 SA
ENDROOT
BRANCH   4   6
HETATM    6  N8  UNL     1     -33.527   6.155   2.498  1.00 20.00     0.090 N 
HETATM    7  C5  UNL     1     -32.993   4.807   2.293  1.00 20.00     0.310 C 
BRANCH   6   8
HETATM    8  C6  UNL     1     -32.452   7.144   2.410  1.00 20.00     0.287 C 
BRANCH   8   9
HETATM    9  C7  UNL     1     -32.300   7.720   1.012  1.00 20.00     0.144 C 
HETATM   10 CL10 UNL     1     -33.037   9.338   0.894  1.00 20.00    -0.129 Cl
ENDBRANCH   8   9
ENDBRANCH   6   8
ENDBRANCH   4   6
TORSDOF 3
ENDMDL
MODEL 2
REMARK VINA RESULT:      -3.5     16.079     16.855
REMARK  3 active torsions:
REMARK  status: ('A' for Active; 'I' for Inactive)
REMARK    1  A    between atoms: C4_4  and  N8_8 
REMARK    2  A    between atoms: C6_6  and  C7_7 
REMARK    3  A    between atoms: C6_6  and  N8_8 
ROOT
HETATM    1  C1  UNL     1     -24.139  17.650   9.610  1.00 20.00     0.047 C 
HETATM    2  C2  UNL     1     -23.165  18.169   8.564  1.00 20.00     0.076 C 
HETATM    3  C3  UNL     1     -22.151  17.745  11.017  1.00 20.00     0.109 C 
HETATM    4  C4  UNL     1     -23.621  18.147  10.957  1.00 20.00     0.232 C 
HETATM    5  S9  UNL     1     -21.528  18.034   9.335  1.00 20.00    -0.167 SA
ENDROOT
BRANCH   4   6
HETATM    6  N8  UNL     1     -24.368  17.583  12.075  1.00 20.00     0.090 N 
HETATM    7  C5  UNL     1     -24.604  16.153  11.869  1.00 20.00     0.310 C 
BRANCH   6   8
HETATM    8  C6  UNL     1     -25.640  18.285  12.253  1.00 20.00     0.287 C 
BRANCH   8   9
HETATM    9  C7  UNL     1     -26.825  17.338  12.332  1.00 20.00     0.144 C 
HETATM   10 CL10 UNL     1     -28.352  18.179  11.964  1.00 20.00    -0.129 Cl
ENDBRANCH   8   9
ENDBRANCH   6   8
ENDBRANCH   4   6
TORSDOF 3
ENDMDL
MODEL 3
REMARK VINA RESULT:      -3.4     11.395     12.225
REMARK  3 active torsions:
REMARK  status: ('A' for Active; 'I' for Inactive)
REMARK    1  A    between atoms: C4_4  and  N8_8 
REMARK    2  A    between atoms: C6_6  and  C7_7 
REMARK    3  A    between atoms: C6_6  and  N8_8 
ROOT
HETATM    1  C1  UNL     1     -34.485  15.893  -2.385  1.00 20.00     0.047 C 
HETATM    2  C2  UNL     1     -34.246  17.247  -1.736  1.00 20.00     0.076 C 
HETATM    3  C3  UNL     1     -34.021  17.161  -4.414  1.00 20.00     0.109 C 
HETATM    4  C4  UNL     1     -33.656  15.882  -3.667  1.00 20.00     0.232 C 
HETATM    5  S9  UNL     1     -34.169  18.424  -3.116  1.00 20.00    -0.167 SA
ENDROOT
BRANCH   4   6
HETATM    6  N8  UNL     1     -33.919  14.702  -4.481  1.00 20.00     0.090 N 
HETATM    7  C5  UNL     1     -34.230  15.085  -5.860  1.00 20.00     0.310 C 
BRANCH   6   8
HETATM    8  C6  UNL     1     -35.017  13.917  -3.915  1.00 20.00     0.287 C 
BRANCH   8   9
HETATM    9  C7  UNL     1     -36.171  13.738  -4.887  1.00 20.00     0.144 C 
HETATM   10 CL10 UNL     1     -37.641  14.559  -4.304  1.00 20.00    -0.129 Cl
ENDBRANCH   8   9
ENDBRANCH   6   8
ENDBRANCH   4   6
TORSDOF 3
ENDMDL
MODEL 4
REMARK VINA RESULT:      -3.4     11.329     11.970
REMARK  3 active torsions:
REMARK  status: ('A' for Active; 'I' for Inactive)
REMARK    1  A    between atoms: C4_4  and  N8_8 
REMARK    2  A    between atoms: C6_6  and  C7_7 
REMARK    3  A    between atoms: C6_6  and  N8_8 
ROOT
HETATM    1  C1  UNL     1     -35.236  16.245  -2.155  1.00 20.00     0.047 C 
HETATM    2  C2  UNL     1     -34.898  17.064  -0.919  1.00 20.00     0.076 C 
HETATM    3  C3  UNL     1     -33.096  17.134  -2.913  1.00 20.00     0.109 C 
HETATM    4  C4  UNL     1     -33.900  15.845  -2.779  1.00 20.00     0.232 C 
HETATM    5  S9  UNL     1     -33.458  18.061  -1.393  1.00 20.00    -0.167 SA
ENDROOT
BRANCH   4   6
HETATM    6  N8  UNL     1     -34.071  15.192  -4.070  1.00 20.00     0.090 N 
HETATM    7  C5  UNL     1     -34.556  16.145  -5.071  1.00 20.00     0.310 C 
BRANCH   6   8
HETATM    8  C6  UNL     1     -34.993  14.061  -3.960  1.00 20.00     0.287 C 
BRANCH   8   9
HETATM    9  C7  UNL     1     -36.070  14.077  -5.032  1.00 20.00     0.144 C 
HETATM   10 CL10 UNL     1     -37.677  14.390  -4.330  1.00 20.00    -0.129 Cl
ENDBRANCH   8   9
ENDBRANCH   6   8
ENDBRANCH   4   6
TORSDOF 3
ENDMDL
MODEL 5
REMARK VINA RESULT:      -3.3     11.559     12.218
REMARK  3 active torsions:
REMARK  status: ('A' for Active; 'I' for Inactive)
REMARK    1  A    between atoms: C4_4  and  N8_8 
REMARK    2  A    between atoms: C6_6  and  C7_7 
REMARK    3  A    between atoms: C6_6  and  N8_8 
ROOT
HETATM    1  C1  UNL     1     -33.284  15.871  -3.400  1.00 20.00     0.047 C 
HETATM    2  C2  UNL     1     -33.438  14.754  -4.421  1.00 20.00     0.076 C 
HETATM    3  C3  UNL     1     -35.717  15.713  -3.366  1.00 20.00     0.109 C 
HETATM    4  C4  UNL     1     -34.487  15.760  -2.466  1.00 20.00     0.232 C 
HETATM    5  S9  UNL     1     -35.217  14.676  -4.771  1.00 20.00    -0.167 SA
ENDROOT
BRANCH   4   6
HETATM    6  N8  UNL     1     -34.559  16.876  -1.530  1.00 20.00     0.090 N 
HETATM    7  C5  UNL     1     -35.837  17.580  -1.664  1.00 20.00     0.310 C 
BRANCH   6   8
HETATM    8  C6  UNL     1     -33.446  17.803  -1.743  1.00 20.00     0.287 C 
BRANCH   8   9
HETATM    9  C7  UNL     1     -32.873  18.336  -0.441  1.00 20.00     0.144 C 
HETATM   10 CL10 UNL     1     -31.093  18.251  -0.435  1.00 20.00    -0.129 Cl
ENDBRANCH   8   9
ENDBRANCH   6   8
ENDBRANCH   4   6
TORSDOF 3
ENDMDL
MODEL 6
REMARK VINA RESULT:      -3.3     15.512     16.264
REMARK  3 active torsions:
REMARK  status: ('A' for Active; 'I' for Inactive)
REMARK    1  A    between atoms: C4_4  and  N8_8 
REMARK    2  A    between atoms: C6_6  and  C7_7 
REMARK    3  A    between atoms: C6_6  and  N8_8 
ROOT
HETATM    1  C1  UNL     1     -24.542  19.221   7.092  1.00 20.00     0.047 C 
HETATM    2  C2  UNL     1     -25.685  18.975   6.120  1.00 20.00     0.076 C 
HETATM    3  C3  UNL     1     -26.370  19.260   8.704  1.00 20.00     0.109 C 
HETATM    4  C4  UNL     1     -24.997  18.655   8.436  1.00 20.00     0.232 C 
HETATM    5  S9  UNL     1     -27.195  19.262   7.085  1.00 20.00    -0.167 SA
ENDROOT
BRANCH   4   6
HETATM    6  N8  UNL     1     -24.062  18.970   9.509  1.00 20.00     0.090 N 
HETATM    7  C5  UNL     1     -22.681  18.749   9.072  1.00 20.00     0.310 C 
BRANCH   6   8
HETATM    8  C6  UNL     1     -24.350  18.168  10.698  1.00 20.00     0.287 C 
BRANCH   8   9
HETATM    9  C7  UNL     1     -24.286  16.674  10.426  1.00 20.00     0.144 C 
HETATM   10 CL10 UNL     1     -24.314  15.739  11.942  1.00 20.00    -0.129 Cl
ENDBRANCH   8   9
ENDBRANCH   6   8
ENDBRANCH   4   6
TORSDOF 3
ENDMDL
MODEL 7
REMARK VINA RESULT:      -3.2     11.396     11.963
REMARK  3 active torsions:
REMARK  status: ('A' for Active; 'I' for Inactive)
REMARK    1  A    between atoms: C4_4  and  N8_8 
REMARK    2  A    between atoms: C6_6  and  C7_7 
REMARK    3  A    between atoms: C6_6  and  N8_8 
ROOT
HETATM    1  C1  UNL     1     -32.950  16.655  -2.783  1.00 20.00     0.047 C 
HETATM    2  C2  UNL     1     -33.272  17.740  -1.768  1.00 20.00     0.076 C 
HETATM    3  C3  UNL     1     -35.231  15.969  -2.267  1.00 20.00     0.109 C 
HETATM    4  C4  UNL     1     -34.280  16.262  -3.422  1.00 20.00     0.232 C 
HETATM    5  S9  UNL     1     -34.849  17.238  -1.024  1.00 20.00    -0.167 SA
ENDROOT
BRANCH   4   6
HETATM    6  N8  UNL     1     -34.146  15.108  -4.302  1.00 20.00     0.090 N 
HETATM    7  C5  UNL     1     -32.756  14.648  -4.343  1.00 20.00     0.310 C 
BRANCH   6   8
HETATM    8  C6  UNL     1     -34.613  15.429  -5.652  1.00 20.00     0.287 C 
BRANCH   8   9
HETATM    9  C7  UNL     1     -35.746  14.527  -6.109  1.00 20.00     0.144 C 
HETATM   10 CL10 UNL     1     -36.472  13.653  -4.737  1.00 20.00    -0.129 Cl
ENDBRANCH   8   9
ENDBRANCH   6   8
ENDBRANCH   4   6
TORSDOF 3
ENDMDL
MODEL 8
REMARK VINA RESULT:      -3.2     11.272     12.114
REMARK  3 active torsions:
REMARK  status: ('A' for Active; 'I' for Inactive)
REMARK    1  A    between atoms: C4_4  and  N8_8 
REMARK    2  A    between atoms: C6_6  and  C7_7 
REMARK    3  A    between atoms: C6_6  and  N8_8 
ROOT
HETATM    1  C1  UNL     1     -35.217  16.757  -1.828  1.00 20.00     0.047 C 
HETATM    2  C2  UNL     1     -34.258  17.485  -0.899  1.00 20.00     0.076 C 
HETATM    3  C3  UNL     1     -33.239  16.677  -3.251  1.00 20.00     0.109 C 
HETATM    4  C4  UNL     1     -34.359  15.818  -2.673  1.00 20.00     0.232 C 
HETATM    5  S9  UNL     1     -32.778  17.800  -1.899  1.00 20.00    -0.167 SA
ENDROOT
BRANCH   4   6
HETATM    6  N8  UNL     1     -35.129  15.173  -3.729  1.00 20.00     0.090 N 
HETATM    7  C5  UNL     1     -34.689  13.788  -3.917  1.00 20.00     0.310 C 
BRANCH   6   8
HETATM    8  C6  UNL     1     -35.009  15.916  -4.985  1.00 20.00     0.287 C 
BRANCH   8   9
HETATM    9  C7  UNL     1     -35.191  15.032  -6.207  1.00 20.00     0.144 C 
HETATM   10 CL10 UNL     1     -33.753  15.077  -7.258  1.00 20.00    -0.129 Cl
ENDBRANCH   8   9
ENDBRANCH   6   8
ENDBRANCH   4   6
TORSDOF 3
ENDMDL
MODEL 9
REMARK VINA RESULT:      -3.1     11.476     12.109
REMARK  3 active torsions:
REMARK  status: ('A' for Active; 'I' for Inactive)
REMARK    1  A    between atoms: C4_4  and  N8_8 
REMARK    2  A    between atoms: C6_6  and  C7_7 
REMARK    3  A    between atoms: C6_6  and  N8_8 
ROOT
HETATM    1  C1  UNL     1     -33.341  15.770  -3.579  1.00 20.00     0.047 C 
HETATM    2  C2  UNL     1     -33.783  14.451  -4.193  1.00 20.00     0.076 C 
HETATM    3  C3  UNL     1     -35.715  15.927  -3.047  1.00 20.00     0.109 C 
HETATM    4  C4  UNL     1     -34.321  16.060  -2.444  1.00 20.00     0.232 C 
HETATM    5  S9  UNL     1     -35.597  14.502  -4.168  1.00 20.00    -0.167 SA
ENDROOT
BRANCH   4   6
HETATM    6  N8  UNL     1     -34.118  17.384  -1.868  1.00 20.00     0.090 N 
HETATM    7  C5  UNL     1     -32.693  17.719  -1.833  1.00 20.00     0.310 C 
BRANCH   6   8
HETATM    8  C6  UNL     1     -34.688  17.455  -0.522  1.00 20.00     0.287 C 
BRANCH   8   9
HETATM    9  C7  UNL     1     -33.982  18.473   0.358  1.00 20.00     0.144 C 
HETATM   10 CL10 UNL     1     -33.877  17.908   2.045  1.00 20.00    -0.129 Cl
ENDBRANCH   8   9
ENDBRANCH   6   8
ENDBRANCH   4   6
TORSDOF 3
ENDMDL
