MODEL 1
REMARK VINA RESULT:      -4.6      0.000      0.000
REMARK  3 active torsions:
REMARK  status: ('A' for Active; 'I' for Inactive)
REMARK    1  A    between atoms: C10_10  and  C12_12 
REMARK    2  A    between atoms: C11_11  and  C12_12 
REMARK    3  A    between atoms: C12_12  and  N13_13 
ROOT
HETATM    1  C1  UNL     1     -35.950  14.232  -4.706  1.00 20.00     0.130 C 
HETATM    2  C2  UNL     1     -34.703  13.979  -3.891  1.00 20.00     0.106 C 
HETATM    3  C3  UNL     1     -36.991  15.125  -4.070  1.00 20.00     0.106 C 
HETATM    4  C8  UNL     1     -34.126  15.284  -3.373  1.00 20.00     0.242 C 
HETATM    5  C9  UNL     1     -36.356  16.402  -3.547  1.00 20.00     0.242 C 
HETATM    6  N13 UNL     1     -35.200  16.054  -2.637  1.00 20.00    -0.065 N 
HETATM    7  O14 UNL     1     -36.154  13.659  -5.775  1.00 20.00    -0.298 OA
HETATM    8  H34 UNL     1     -35.563  15.447  -1.889  1.00 20.00     0.280 HD
ENDROOT
BRANCH   6   9
HETATM    9  C12 UNL     1     -34.641  17.275  -1.960  1.00 20.00     0.196 C 
BRANCH   9  10
HETATM   10  C10 UNL     1     -33.141  17.315  -2.201  1.00 20.00     0.017 A 
HETATM   11  C4  UNL     1     -32.491  18.563  -2.732  1.00 20.00     0.007 A 
HETATM   12  C5  UNL     1     -32.253  18.138  -1.310  1.00 20.00     0.007 A 
ENDBRANCH   9  10
BRANCH   9  13
HETATM   13  C11 UNL     1     -34.986  17.206  -0.481  1.00 20.00     0.017 A 
HETATM   14  C6  UNL     1     -35.141  18.469   0.320  1.00 20.00     0.007 A 
HETATM   15  C7  UNL     1     -36.346  17.630  -0.000  1.00 20.00     0.007 A 
ENDBRANCH   9  13
ENDBRANCH   6   9
TORSDOF 3
ENDMDL
MODEL 2
REMARK VINA RESULT:      -4.4      1.976      3.286
REMARK  3 active torsions:
REMARK  status: ('A' for Active; 'I' for Inactive)
REMARK    1  A    between atoms: C10_10  and  C12_12 
REMARK    2  A    between atoms: C11_11  and  C12_12 
REMARK    3  A    between atoms: C12_12  and  N13_13 
ROOT
HETATM    1  C1  UNL     1     -39.081  15.855  -5.130  1.00 20.00     0.130 C 
HETATM    2  C2  UNL     1     -38.616  14.786  -4.169  1.00 20.00     0.106 C 
HETATM    3  C3  UNL     1     -38.408  17.203  -5.004  1.00 20.00     0.106 C 
HETATM    4  C8  UNL     1     -37.101  14.693  -4.160  1.00 20.00     0.242 C 
HETATM    5  C9  UNL     1     -36.898  17.048  -4.974  1.00 20.00     0.242 C 
HETATM    6  N13 UNL     1     -36.512  16.060  -3.897  1.00 20.00    -0.065 N 
HETATM    7  O14 UNL     1     -40.025  15.672  -5.896  1.00 20.00    -0.298 OA
HETATM    8  H34 UNL     1     -36.901  16.402  -3.007  1.00 20.00     0.280 HD
ENDROOT
BRANCH   6   9
HETATM    9  C12 UNL     1     -35.021  15.995  -3.712  1.00 20.00     0.196 C 
BRANCH   9  10
HETATM   10  C10 UNL     1     -34.502  14.751  -4.412  1.00 20.00     0.017 A 
HETATM   11  C4  UNL     1     -33.718  14.869  -5.690  1.00 20.00     0.007 A 
HETATM   12  C5  UNL     1     -33.030  14.445  -4.423  1.00 20.00     0.007 A 
ENDBRANCH   9  10
BRANCH   9  13
HETATM   13  C11 UNL     1     -34.719  15.987  -2.222  1.00 20.00     0.017 A 
HETATM   14  C6  UNL     1     -33.984  17.137  -1.592  1.00 20.00     0.007 A 
HETATM   15  C7  UNL     1     -35.444  16.927  -1.298  1.00 20.00     0.007 A 
ENDBRANCH   9  13
ENDBRANCH   6   9
TORSDOF 3
ENDMDL
MODEL 3
REMARK VINA RESULT:      -4.4      1.562      2.985
REMARK  3 active torsions:
REMARK  status: ('A' for Active; 'I' for Inactive)
REMARK    1  A    between atoms: C10_10  and  C12_12 
REMARK    2  A    between atoms: C11_11  and  C12_12 
REMARK    3  A    between atoms: C12_12  and  N13_13 
ROOT
HETATM    1  C1  UNL     1     -34.757  13.957  -3.964  1.00 20.00     0.130 C 
HETATM    2  C2  UNL     1     -35.774  14.918  -3.391  1.00 20.00     0.106 C 
HETATM    3  C3  UNL     1     -33.522  14.579  -4.573  1.00 20.00     0.106 C 
HETATM    4  C8  UNL     1     -35.105  15.924  -2.474  1.00 20.00     0.242 C 
HETATM    5  C9  UNL     1     -32.909  15.595  -3.624  1.00 20.00     0.242 C 
HETATM    6  N13 UNL     1     -33.963  16.594  -3.205  1.00 20.00    -0.065 N 
HETATM    7  O14 UNL     1     -34.972  12.748  -4.027  1.00 20.00    -0.298 OA
HETATM    8  H34 UNL     1     -34.348  17.020  -4.060  1.00 20.00     0.280 HD
ENDROOT
BRANCH   6   9
HETATM    9  C12 UNL     1     -33.373  17.718  -2.399  1.00 20.00     0.196 C 
BRANCH   9  10
HETATM   10  C10 UNL     1     -34.047  17.741  -1.037  1.00 20.00     0.017 A 
HETATM   11  C4  UNL     1     -33.311  18.267   0.165  1.00 20.00     0.007 A 
HETATM   12  C5  UNL     1     -34.456  19.047  -0.416  1.00 20.00     0.007 A 
ENDBRANCH   9  10
BRANCH   9  13
HETATM   13  C11 UNL     1     -33.574  19.018  -3.164  1.00 20.00     0.017 A 
HETATM   14  C6  UNL     1     -32.997  19.182  -4.542  1.00 20.00     0.007 A 
HETATM   15  C7  UNL     1     -34.485  19.059  -4.359  1.00 20.00     0.007 A 
ENDBRANCH   9  13
ENDBRANCH   6   9
TORSDOF 3
ENDMDL
MODEL 4
REMARK VINA RESULT:      -4.4      0.873      1.602
REMARK  3 active torsions:
REMARK  status: ('A' for Active; 'I' for Inactive)
REMARK    1  A    between atoms: C10_10  and  C12_12 
REMARK    2  A    between atoms: C11_11  and  C12_12 
REMARK    3  A    between atoms: C12_12  and  N13_13 
ROOT
HETATM    1  C1  UNL     1     -36.870  14.586  -4.304  1.00 20.00     0.130 C 
HETATM    2  C2  UNL     1     -37.254  16.034  -4.500  1.00 20.00     0.106 C 
HETATM    3  C3  UNL     1     -35.407  14.313  -4.041  1.00 20.00     0.106 C 
HETATM    4  C8  UNL     1     -36.682  16.896  -3.390  1.00 20.00     0.242 C 
HETATM    5  C9  UNL     1     -34.881  15.220  -2.941  1.00 20.00     0.242 C 
HETATM    6  N13 UNL     1     -35.192  16.660  -3.282  1.00 20.00    -0.065 N 
HETATM    7  O14 UNL     1     -37.682  13.674  -4.456  1.00 20.00    -0.298 OA
HETATM    8  H34 UNL     1     -34.777  16.859  -4.204  1.00 20.00     0.280 HD
ENDROOT
BRANCH   6   9
HETATM    9  C12 UNL     1     -34.548  17.611  -2.312  1.00 20.00     0.196 C 
BRANCH   9  10
HETATM   10  C10 UNL     1     -33.080  17.751  -2.677  1.00 20.00     0.017 A 
HETATM   11  C4  UNL     1     -32.546  19.064  -3.180  1.00 20.00     0.007 A 
HETATM   12  C5  UNL     1     -32.160  18.570  -1.815  1.00 20.00     0.007 A 
ENDBRANCH   9  10
BRANCH   9  13
HETATM   13  C11 UNL     1     -34.743  17.070  -0.904  1.00 20.00     0.017 A 
HETATM   14  C6  UNL     1     -34.557  17.969   0.286  1.00 20.00     0.007 A 
HETATM   15  C7  UNL     1     -35.933  17.493  -0.088  1.00 20.00     0.007 A 
ENDBRANCH   9  13
ENDBRANCH   6   9
TORSDOF 3
ENDMDL
MODEL 5
REMARK VINA RESULT:      -4.2      1.051      2.979
REMARK  3 active torsions:
REMARK  status: ('A' for Active; 'I' for Inactive)
REMARK    1  A    between atoms: C10_10  and  C12_12 
REMARK    2  A    between atoms: C11_11  and  C12_12 
REMARK    3  A    between atoms: C12_12  and  N13_13 
ROOT
HETATM    1  C1  UNL     1     -36.916  14.644  -4.223  1.00 20.00     0.130 C 
HETATM    2  C2  UNL     1     -37.303  16.104  -4.276  1.00 20.00     0.106 C 
HETATM    3  C3  UNL     1     -35.442  14.351  -4.058  1.00 20.00     0.106 C 
HETATM    4  C8  UNL     1     -36.672  16.869  -3.127  1.00 20.00     0.242 C 
HETATM    5  C9  UNL     1     -34.859  15.161  -2.913  1.00 20.00     0.242 C 
HETATM    6  N13 UNL     1     -35.180  16.624  -3.114  1.00 20.00    -0.065 N 
HETATM    7  O14 UNL     1     -37.737  13.749  -4.411  1.00 20.00    -0.298 OA
HETATM    8  H34 UNL     1     -34.811  16.901  -4.035  1.00 20.00     0.280 HD
ENDROOT
BRANCH   6   9
HETATM    9  C12 UNL     1     -34.485  17.490  -2.100  1.00 20.00     0.196 C 
BRANCH   9  10
HETATM   10  C10 UNL     1     -35.472  17.824  -0.995  1.00 20.00     0.017 A 
HETATM   11  C4  UNL     1     -35.288  17.254   0.385  1.00 20.00     0.007 A 
HETATM   12  C5  UNL     1     -35.062  18.720   0.141  1.00 20.00     0.007 A 
ENDBRANCH   9  10
BRANCH   9  13
HETATM   13  C11 UNL     1     -33.963  18.733  -2.803  1.00 20.00     0.017 A 
HETATM   14  C6  UNL     1     -32.492  19.043  -2.802  1.00 20.00     0.007 A 
HETATM   15  C7  UNL     1     -33.167  18.607  -4.073  1.00 20.00     0.007 A 
ENDBRANCH   9  13
ENDBRANCH   6   9
TORSDOF 3
ENDMDL
MODEL 6
REMARK VINA RESULT:      -4.1      2.966      5.119
REMARK  3 active torsions:
REMARK  status: ('A' for Active; 'I' for Inactive)
REMARK    1  A    between atoms: C10_10  and  C12_12 
REMARK    2  A    between atoms: C11_11  and  C12_12 
REMARK    3  A    between atoms: C12_12  and  N13_13 
ROOT
HETATM    1  C1  UNL     1     -33.601  18.171   0.777  1.00 20.00     0.130 C 
HETATM    2  C2  UNL     1     -32.728  18.650  -0.360  1.00 20.00     0.106 C 
HETATM    3  C3  UNL     1     -35.050  17.904   0.438  1.00 20.00     0.106 C 
HETATM    4  C8  UNL     1     -32.897  17.761  -1.578  1.00 20.00     0.242 C 
HETATM    5  C9  UNL     1     -35.159  17.033  -0.801  1.00 20.00     0.242 C 
HETATM    6  N13 UNL     1     -34.364  17.654  -1.927  1.00 20.00    -0.065 N 
HETATM    7  O14 UNL     1     -33.184  18.106   1.932  1.00 20.00    -0.298 OA
HETATM    8  H34 UNL     1     -34.721  18.609  -2.071  1.00 20.00     0.280 HD
ENDROOT
BRANCH   6   9
HETATM    9  C12 UNL     1     -34.573  16.922  -3.224  1.00 20.00     0.196 C 
BRANCH   9  10
HETATM   10  C10 UNL     1     -34.106  15.487  -3.048  1.00 20.00     0.017 A 
HETATM   11  C4  UNL     1     -34.790  14.370  -3.786  1.00 20.00     0.007 A 
HETATM   12  C5  UNL     1     -33.396  14.779  -4.168  1.00 20.00     0.007 A 
ENDBRANCH   9  10
BRANCH   9  13
HETATM   13  C11 UNL     1     -33.807  17.649  -4.317  1.00 20.00     0.017 A 
HETATM   14  C6  UNL     1     -34.420  17.834  -5.678  1.00 20.00     0.007 A 
HETATM   15  C7  UNL     1     -34.241  19.016  -4.766  1.00 20.00     0.007 A 
ENDBRANCH   9  13
ENDBRANCH   6   9
TORSDOF 3
ENDMDL
MODEL 7
REMARK VINA RESULT:      -4.0      1.900      3.742
REMARK  3 active torsions:
REMARK  status: ('A' for Active; 'I' for Inactive)
REMARK    1  A    between atoms: C10_10  and  C12_12 
REMARK    2  A    between atoms: C11_11  and  C12_12 
REMARK    3  A    between atoms: C12_12  and  N13_13 
ROOT
HETATM    1  C1  UNL     1     -39.058  16.019  -4.845  1.00 20.00     0.130 C 
HETATM    2  C2  UNL     1     -38.736  14.649  -4.295  1.00 20.00     0.106 C 
HETATM    3  C3  UNL     1     -38.359  17.184  -4.182  1.00 20.00     0.106 C 
HETATM    4  C8  UNL     1     -37.235  14.454  -4.186  1.00 20.00     0.242 C 
HETATM    5  C9  UNL     1     -36.867  16.924  -4.075  1.00 20.00     0.242 C 
HETATM    6  N13 UNL     1     -36.633  15.594  -3.396  1.00 20.00    -0.065 N 
HETATM    7  O14 UNL     1     -39.919  16.186  -5.707  1.00 20.00    -0.298 OA
HETATM    8  H34 UNL     1     -37.105  15.624  -2.481  1.00 20.00     0.280 HD
ENDROOT
BRANCH   6   9
HETATM    9  C12 UNL     1     -35.174  15.364  -3.115  1.00 20.00     0.196 C 
BRANCH   9  10
HETATM   10  C10 UNL     1     -34.482  16.714  -3.023  1.00 20.00     0.017 A 
HETATM   11  C4  UNL     1     -34.344  17.407  -1.696  1.00 20.00     0.007 A 
HETATM   12  C5  UNL     1     -33.132  16.831  -2.371  1.00 20.00     0.007 A 
ENDBRANCH   9  10
BRANCH   9  13
HETATM   13  C11 UNL     1     -34.599  14.495  -4.223  1.00 20.00     0.017 A 
HETATM   14  C6  UNL     1     -33.941  15.128  -5.417  1.00 20.00     0.007 A 
HETATM   15  C7  UNL     1     -33.111  14.387  -4.405  1.00 20.00     0.007 A 
ENDBRANCH   9  13
ENDBRANCH   6   9
TORSDOF 3
ENDMDL
MODEL 8
REMARK VINA RESULT:      -4.0      2.497      4.471
REMARK  3 active torsions:
REMARK  status: ('A' for Active; 'I' for Inactive)
REMARK    1  A    between atoms: C10_10  and  C12_12 
REMARK    2  A    between atoms: C11_11  and  C12_12 
REMARK    3  A    between atoms: C12_12  and  N13_13 
ROOT
HETATM    1  C1  UNL     1     -36.981  18.168   0.016  1.00 20.00     0.130 C 
HETATM    2  C2  UNL     1     -35.721  17.403   0.350  1.00 20.00     0.106 C 
HETATM    3  C3  UNL     1     -36.907  19.083  -1.185  1.00 20.00     0.106 C 
HETATM    4  C8  UNL     1     -35.166  16.717  -0.884  1.00 20.00     0.242 C 
HETATM    5  C9  UNL     1     -36.321  18.352  -2.381  1.00 20.00     0.242 C 
HETATM    6  N13 UNL     1     -34.999  17.729  -1.995  1.00 20.00    -0.065 N 
HETATM    7  O14 UNL     1     -37.974  18.129   0.740  1.00 20.00    -0.298 OA
HETATM    8  H34 UNL     1     -34.391  18.482  -1.642  1.00 20.00     0.280 HD
ENDROOT
BRANCH   6   9
HETATM    9  C12 UNL     1     -34.297  17.136  -3.185  1.00 20.00     0.196 C 
BRANCH   9  10
HETATM   10  C10 UNL     1     -34.228  15.630  -3.002  1.00 20.00     0.017 A 
HETATM   11  C4  UNL     1     -35.016  14.719  -3.903  1.00 20.00     0.007 A 
HETATM   12  C5  UNL     1     -33.518  14.775  -4.016  1.00 20.00     0.007 A 
ENDBRANCH   9  10
BRANCH   9  13
HETATM   13  C11 UNL     1     -32.918  17.768  -3.295  1.00 20.00     0.017 A 
HETATM   14  C6  UNL     1     -32.773  19.263  -3.360  1.00 20.00     0.007 A 
HETATM   15  C7  UNL     1     -32.333  18.517  -2.130  1.00 20.00     0.007 A 
ENDBRANCH   9  13
ENDBRANCH   6   9
TORSDOF 3
ENDMDL
MODEL 9
REMARK VINA RESULT:      -4.0      2.510      4.171
REMARK  3 active torsions:
REMARK  status: ('A' for Active; 'I' for Inactive)
REMARK    1  A    between atoms: C10_10  and  C12_12 
REMARK    2  A    between atoms: C11_11  and  C12_12 
REMARK    3  A    between atoms: C12_12  and  N13_13 
ROOT
HETATM    1  C1  UNL     1     -39.292  16.109  -4.453  1.00 20.00     0.130 C 
HETATM    2  C2  UNL     1     -38.558  14.824  -4.144  1.00 20.00     0.106 C 
HETATM    3  C3  UNL     1     -38.520  17.388  -4.226  1.00 20.00     0.106 C 
HETATM    4  C8  UNL     1     -37.191  14.815  -4.803  1.00 20.00     0.242 C 
HETATM    5  C9  UNL     1     -37.152  17.313  -4.884  1.00 20.00     0.242 C 
HETATM    6  N13 UNL     1     -36.436  16.066  -4.418  1.00 20.00    -0.065 N 
HETATM    7  O14 UNL     1     -40.481  16.117  -4.767  1.00 20.00    -0.298 OA
HETATM    8  H34 UNL     1     -36.389  16.099  -3.390  1.00 20.00     0.280 HD
ENDROOT
BRANCH   6   9
HETATM    9  C12 UNL     1     -35.014  16.028  -4.907  1.00 20.00     0.196 C 
BRANCH   9  10
HETATM   10  C10 UNL     1     -34.960  15.176  -6.164  1.00 20.00     0.017 A 
HETATM   11  C4  UNL     1     -34.766  15.819  -7.509  1.00 20.00     0.007 A 
HETATM   12  C5  UNL     1     -33.662  14.999  -6.903  1.00 20.00     0.007 A 
ENDBRANCH   9  10
BRANCH   9  13
HETATM   13  C11 UNL     1     -34.136  15.475  -3.796  1.00 20.00     0.017 A 
HETATM   14  C6  UNL     1     -33.119  16.355  -3.124  1.00 20.00     0.007 A 
HETATM   15  C7  UNL     1     -34.346  15.916  -2.374  1.00 20.00     0.007 A 
ENDBRANCH   9  13
ENDBRANCH   6   9
TORSDOF 3
ENDMDL
