MODEL 1
REMARK VINA RESULT:      -4.1      0.000      0.000
REMARK  2 active torsions:
REMARK  status: ('A' for Active; 'I' for Inactive)
REMARK    1  A    between atoms: C4_4  and  C5_5 
REMARK    2  A    between atoms: C5_5  and  C6_6 
ROOT
HETATM    1  C1  UNL     1     -35.301   5.435   4.306  1.00 20.00     0.033 C 
HETATM    2  C2  UNL     1     -34.699   4.725   5.500  1.00 20.00     0.168 C 
HETATM    3  C3  UNL     1     -33.859   6.898   5.439  1.00 20.00     0.172 C 
HETATM    4  C4  UNL     1     -34.308   6.545   4.030  1.00 20.00     0.012 C 
HETATM    5  O7  UNL     1     -33.914   5.691   6.213  1.00 20.00    -0.391 OA
ENDROOT
BRANCH   4   6
HETATM    6  C5  UNL     1     -33.142   6.068   3.167  1.00 20.00     0.017 C 
BRANCH   6   7
HETATM    7  C6  UNL     1     -32.161   7.195   2.890  1.00 20.00     0.085 C 
HETATM    8 BR8  UNL     1     -32.610   8.067   1.210  1.00 20.00    -0.096 Br
ENDBRANCH   6   7
ENDBRANCH   4   6
TORSDOF 2
ENDMDL
MODEL 2
REMARK VINA RESULT:      -3.8     16.001     16.862
REMARK  2 active torsions:
REMARK  status: ('A' for Active; 'I' for Inactive)
REMARK    1  A    between atoms: C4_4  and  C5_5 
REMARK    2  A    between atoms: C5_5  and  C6_6 
ROOT
HETATM    1  C1  UNL     1     -21.722  17.763   9.557  1.00 20.00     0.033 C 
HETATM    2  C2  UNL     1     -21.699  17.478   8.070  1.00 20.00     0.168 C 
HETATM    3  C3  UNL     1     -23.660  18.637   8.565  1.00 20.00     0.172 C 
HETATM    4  C4  UNL     1     -23.196  17.963   9.845  1.00 20.00     0.012 C 
HETATM    5  O7  UNL     1     -22.846  18.123   7.500  1.00 20.00    -0.391 OA
ENDROOT
BRANCH   4   6
HETATM    6  C5  UNL     1     -23.917  16.637  10.081  1.00 20.00     0.017 C 
BRANCH   6   7
HETATM    7  C6  UNL     1     -24.261  16.449  11.549  1.00 20.00     0.085 C 
HETATM    8 BR8  UNL     1     -24.780  18.153  12.332  1.00 20.00    -0.096 Br
ENDBRANCH   6   7
ENDBRANCH   4   6
TORSDOF 2
ENDMDL
MODEL 3
REMARK VINA RESULT:      -3.5     11.944     12.673
REMARK  2 active torsions:
REMARK  status: ('A' for Active; 'I' for Inactive)
REMARK    1  A    between atoms: C4_4  and  C5_5 
REMARK    2  A    between atoms: C5_5  and  C6_6 
ROOT
HETATM    1  C1  UNL     1     -35.789  15.918  -5.311  1.00 20.00     0.033 C 
HETATM    2  C2  UNL     1     -35.577  14.929  -6.439  1.00 20.00     0.168 C 
HETATM    3  C3  UNL     1     -36.305  13.755  -4.561  1.00 20.00     0.172 C 
HETATM    4  C4  UNL     1     -35.681  15.052  -4.072  1.00 20.00     0.012 C 
HETATM    5  O7  UNL     1     -36.007  13.647  -5.961  1.00 20.00    -0.391 OA
ENDROOT
BRANCH   4   6
HETATM    6  C5  UNL     1     -34.231  14.855  -3.637  1.00 20.00     0.017 C 
BRANCH   6   7
HETATM    7  C6  UNL     1     -33.719  16.056  -2.860  1.00 20.00     0.085 C 
HETATM    8 BR8  UNL     1     -35.063  16.638  -1.578  1.00 20.00    -0.096 Br
ENDBRANCH   6   7
ENDBRANCH   4   6
TORSDOF 2
ENDMDL
MODEL 4
REMARK VINA RESULT:      -3.5     15.690     16.408
REMARK  2 active torsions:
REMARK  status: ('A' for Active; 'I' for Inactive)
REMARK    1  A    between atoms: C4_4  and  C5_5 
REMARK    2  A    between atoms: C5_5  and  C6_6 
ROOT
HETATM    1  C1  UNL     1     -25.444  17.126  11.688  1.00 20.00     0.033 C 
HETATM    2  C2  UNL     1     -24.536  15.916  11.763  1.00 20.00     0.168 C 
HETATM    3  C3  UNL     1     -23.219  17.832  11.928  1.00 20.00     0.172 C 
HETATM    4  C4  UNL     1     -24.510  18.227  11.229  1.00 20.00     0.012 C 
HETATM    5  O7  UNL     1     -23.210  16.399  12.015  1.00 20.00    -0.391 OA
ENDROOT
BRANCH   4   6
HETATM    6  C5  UNL     1     -24.350  18.244   9.710  1.00 20.00     0.017 C 
BRANCH   6   7
HETATM    7  C6  UNL     1     -22.976  18.751   9.305  1.00 20.00     0.085 C 
HETATM    8 BR8  UNL     1     -22.051  17.394   8.261  1.00 20.00    -0.096 Br
ENDBRANCH   6   7
ENDBRANCH   4   6
TORSDOF 2
ENDMDL
MODEL 5
REMARK VINA RESULT:      -3.5     16.057     16.946
REMARK  2 active torsions:
REMARK  status: ('A' for Active; 'I' for Inactive)
REMARK    1  A    between atoms: C4_4  and  C5_5 
REMARK    2  A    between atoms: C5_5  and  C6_6 
ROOT
HETATM    1  C1  UNL     1     -24.010  16.735  10.191  1.00 20.00     0.033 C 
HETATM    2  C2  UNL     1     -23.722  17.888   9.251  1.00 20.00     0.168 C 
HETATM    3  C3  UNL     1     -22.060  17.840  10.885  1.00 20.00     0.172 C 
HETATM    4  C4  UNL     1     -23.278  17.134  11.456  1.00 20.00     0.012 C 
HETATM    5  O7  UNL     1     -22.470  18.458   9.656  1.00 20.00    -0.391 OA
ENDROOT
BRANCH   4   6
HETATM    6  C5  UNL     1     -24.115  18.065  12.331  1.00 20.00     0.017 C 
BRANCH   6   7
HETATM    7  C6  UNL     1     -25.578  17.656  12.332  1.00 20.00     0.085 C 
HETATM    8 BR8  UNL     1     -26.668  19.095  11.605  1.00 20.00    -0.096 Br
ENDBRANCH   6   7
ENDBRANCH   4   6
TORSDOF 2
ENDMDL
MODEL 6
REMARK VINA RESULT:      -3.5     15.713     16.655
REMARK  2 active torsions:
REMARK  status: ('A' for Active; 'I' for Inactive)
REMARK    1  A    between atoms: C4_4  and  C5_5 
REMARK    2  A    between atoms: C5_5  and  C6_6 
ROOT
HETATM    1  C1  UNL     1     -22.717  17.774  12.059  1.00 20.00     0.033 C 
HETATM    2  C2  UNL     1     -24.173  18.089  12.332  1.00 20.00     0.168 C 
HETATM    3  C3  UNL     1     -24.067  16.612  10.531  1.00 20.00     0.172 C 
HETATM    4  C4  UNL     1     -22.728  17.328  10.611  1.00 20.00     0.012 C 
HETATM    5  O7  UNL     1     -24.953  17.275  11.445  1.00 20.00    -0.391 OA
ENDROOT
BRANCH   4   6
HETATM    6  C5  UNL     1     -22.660  18.511   9.648  1.00 20.00     0.017 C 
BRANCH   6   7
HETATM    7  C6  UNL     1     -23.216  18.145   8.282  1.00 20.00     0.085 C 
HETATM    8 BR8  UNL     1     -24.942  19.005   8.018  1.00 20.00    -0.096 Br
ENDBRANCH   6   7
ENDBRANCH   4   6
TORSDOF 2
ENDMDL
MODEL 7
REMARK VINA RESULT:      -3.4     11.839     12.432
REMARK  2 active torsions:
REMARK  status: ('A' for Active; 'I' for Inactive)
REMARK    1  A    between atoms: C4_4  and  C5_5 
REMARK    2  A    between atoms: C5_5  and  C6_6 
ROOT
HETATM    1  C1  UNL     1     -35.786  13.930  -4.506  1.00 20.00     0.033 C 
HETATM    2  C2  UNL     1     -35.505  14.634  -5.817  1.00 20.00     0.168 C 
HETATM    3  C3  UNL     1     -33.475  14.270  -4.730  1.00 20.00     0.172 C 
HETATM    4  C4  UNL     1     -34.565  14.260  -3.671  1.00 20.00     0.012 C 
HETATM    5  O7  UNL     1     -34.080  14.720  -5.952  1.00 20.00    -0.391 OA
ENDROOT
BRANCH   4   6
HETATM    6  C5  UNL     1     -34.695  15.615  -2.979  1.00 20.00     0.017 C 
BRANCH   6   7
HETATM    7  C6  UNL     1     -33.355  16.327  -2.901  1.00 20.00     0.085 C 
HETATM    8 BR8  UNL     1     -33.460  17.799  -1.632  1.00 20.00    -0.096 Br
ENDBRANCH   6   7
ENDBRANCH   4   6
TORSDOF 2
ENDMDL
MODEL 8
REMARK VINA RESULT:      -3.3     16.075     16.618
REMARK  2 active torsions:
REMARK  status: ('A' for Active; 'I' for Inactive)
REMARK    1  A    between atoms: C4_4  and  C5_5 
REMARK    2  A    between atoms: C5_5  and  C6_6 
ROOT
HETATM    1  C1  UNL     1     -23.560  18.884   8.480  1.00 20.00     0.033 C 
HETATM    2  C2  UNL     1     -24.850  18.879   7.686  1.00 20.00     0.168 C 
HETATM    3  C3  UNL     1     -25.377  19.155   9.939  1.00 20.00     0.172 C 
HETATM    4  C4  UNL     1     -24.013  18.489   9.871  1.00 20.00     0.012 C 
HETATM    5  O7  UNL     1     -25.914  19.154   8.608  1.00 20.00    -0.391 OA
ENDROOT
BRANCH   4   6
HETATM    6  C5  UNL     1     -24.113  16.974  10.030  1.00 20.00     0.017 C 
BRANCH   6   7
HETATM    7  C6  UNL     1     -23.885  16.554  11.473  1.00 20.00     0.085 C 
HETATM    8 BR8  UNL     1     -22.643  17.781  12.332  1.00 20.00    -0.096 Br
ENDBRANCH   6   7
ENDBRANCH   4   6
TORSDOF 2
ENDMDL
MODEL 9
REMARK VINA RESULT:      -3.2      9.471     10.337
REMARK  2 active torsions:
REMARK  status: ('A' for Active; 'I' for Inactive)
REMARK    1  A    between atoms: C4_4  and  C5_5 
REMARK    2  A    between atoms: C5_5  and  C6_6 
ROOT
HETATM    1  C1  UNL     1     -41.079   7.853   0.720  1.00 20.00     0.033 C 
HETATM    2  C2  UNL     1     -41.550   9.163   0.123  1.00 20.00     0.168 C 
HETATM    3  C3  UNL     1     -43.417   7.827   0.525  1.00 20.00     0.172 C 
HETATM    4  C4  UNL     1     -42.216   6.903   0.402  1.00 20.00     0.012 C 
HETATM    5  O7  UNL     1     -42.984   9.136   0.127  1.00 20.00    -0.391 OA
ENDROOT
BRANCH   4   6
HETATM    6  C5  UNL     1     -42.095   6.316  -1.002  1.00 20.00     0.017 C 
BRANCH   6   7
HETATM    7  C6  UNL     1     -43.408   5.704  -1.461  1.00 20.00     0.085 C 
HETATM    8 BR8  UNL     1     -43.081   3.966  -2.274  1.00 20.00    -0.096 Br
ENDBRANCH   6   7
ENDBRANCH   4   6
TORSDOF 2
ENDMDL
