MODEL 1
REMARK VINA RESULT:      -4.2      0.000      0.000
REMARK  1 active torsions:
REMARK  status: ('A' for Active; 'I' for Inactive)
REMARK    1  A    between atoms: C2_2  and  C4_4 
ROOT
HETATM    1  C1  UNL     1     -33.934   6.482   6.166  1.00 20.00     0.095 A 
HETATM    2  C3  UNL     1     -34.719   5.209   6.022  1.00 20.00     0.122 A 
HETATM    3  C4  UNL     1     -34.132   6.584   3.930  1.00 20.00     0.255 A 
HETATM    4  N5  UNL     1     -33.602   7.211   5.147  1.00 20.00    -0.280 NA
HETATM    5  S7  UNL     1     -34.998   5.040   4.259  1.00 20.00    -0.128 SA
ENDROOT
BRANCH   3   6
HETATM    6  C2  UNL     1     -32.964   6.293   3.052  1.00 20.00     0.253 C 
HETATM    7  O6  UNL     1     -32.077   7.121   2.862  1.00 20.00    -0.277 OA
HETATM    8 CL8  UNL     1     -33.038   4.695   2.374  1.00 20.00    -0.041 Cl
ENDBRANCH   3   6
TORSDOF 1
ENDMDL
MODEL 2
REMARK VINA RESULT:      -3.9     12.321     12.505
REMARK  1 active torsions:
REMARK  status: ('A' for Active; 'I' for Inactive)
REMARK    1  A    between atoms: C2_2  and  C4_4 
ROOT
HETATM    1  C1  UNL     1     -33.100  14.806  -4.251  1.00 20.00     0.095 A 
HETATM    2  C3  UNL     1     -33.523  15.845  -3.250  1.00 20.00     0.122 A 
HETATM    3  C4  UNL     1     -35.248  14.902  -4.908  1.00 20.00     0.255 A 
HETATM    4  N5  UNL     1     -33.928  14.290  -5.104  1.00 20.00    -0.280 NA
HETATM    5  S7  UNL     1     -35.272  16.095  -3.560  1.00 20.00    -0.128 SA
ENDROOT
BRANCH   3   6
HETATM    6  C2  UNL     1     -36.191  13.797  -4.579  1.00 20.00     0.253 C 
HETATM    7  O6  UNL     1     -35.821  12.627  -4.525  1.00 20.00    -0.277 OA
HETATM    8 CL8  UNL     1     -37.804  14.377  -4.296  1.00 20.00    -0.041 Cl
ENDBRANCH   3   6
TORSDOF 1
ENDMDL
MODEL 3
REMARK VINA RESULT:      -3.7     12.673     13.197
REMARK  1 active torsions:
REMARK  status: ('A' for Active; 'I' for Inactive)
REMARK    1  A    between atoms: C2_2  and  C4_4 
ROOT
HETATM    1  C1  UNL     1     -39.113  15.087  -4.647  1.00 20.00     0.095 A 
HETATM    2  C3  UNL     1     -38.557  16.439  -5.000  1.00 20.00     0.122 A 
HETATM    3  C4  UNL     1     -36.993  14.625  -4.064  1.00 20.00     0.255 A 
HETATM    4  N5  UNL     1     -38.371  14.133  -4.180  1.00 20.00    -0.280 NA
HETATM    5  S7  UNL     1     -36.806  16.322  -4.635  1.00 20.00    -0.128 SA
ENDROOT
BRANCH   3   6
HETATM    6  C2  UNL     1     -36.148  13.743  -4.917  1.00 20.00     0.253 C 
HETATM    7  O6  UNL     1     -35.828  12.613  -4.559  1.00 20.00    -0.277 OA
HETATM    8 CL8  UNL     1     -35.707  14.508  -6.413  1.00 20.00    -0.041 Cl
ENDBRANCH   3   6
TORSDOF 1
ENDMDL
MODEL 4
REMARK VINA RESULT:      -3.6     12.943     13.691
REMARK  1 active torsions:
REMARK  status: ('A' for Active; 'I' for Inactive)
REMARK    1  A    between atoms: C2_2  and  C4_4 
ROOT
HETATM    1  C1  UNL     1     -35.371  15.208  -7.437  1.00 20.00     0.095 A 
HETATM    2  C3  UNL     1     -34.973  16.538  -6.860  1.00 20.00     0.122 A 
HETATM    3  C4  UNL     1     -36.340  14.892  -5.434  1.00 20.00     0.255 A 
HETATM    4  N5  UNL     1     -36.053  14.336  -6.762  1.00 20.00    -0.280 NA
HETATM    5  S7  UNL     1     -35.631  16.528  -5.192  1.00 20.00    -0.128 SA
ENDROOT
BRANCH   3   6
HETATM    6  C2  UNL     1     -35.736  13.962  -4.439  1.00 20.00     0.253 C 
HETATM    7  O6  UNL     1     -35.916  12.749  -4.496  1.00 20.00    -0.277 OA
HETATM    8 CL8  UNL     1     -34.789  14.803  -3.249  1.00 20.00    -0.041 Cl
ENDBRANCH   3   6
TORSDOF 1
ENDMDL
MODEL 5
REMARK VINA RESULT:      -3.5     16.268     16.662
REMARK  1 active torsions:
REMARK  status: ('A' for Active; 'I' for Inactive)
REMARK    1  A    between atoms: C2_2  and  C4_4 
ROOT
HETATM    1  C1  UNL     1     -22.383  17.653   8.786  1.00 20.00     0.095 A 
HETATM    2  C3  UNL     1     -23.135  18.950   8.907  1.00 20.00     0.122 A 
HETATM    3  C4  UNL     1     -24.077  16.827  10.011  1.00 20.00     0.255 A 
HETATM    4  N5  UNL     1     -22.806  16.554   9.328  1.00 20.00    -0.280 NA
HETATM    5  S7  UNL     1     -24.575  18.553   9.898  1.00 20.00    -0.128 SA
ENDROOT
BRANCH   3   6
HETATM    6  C2  UNL     1     -23.877  16.484  11.446  1.00 20.00     0.253 C 
HETATM    7  O6  UNL     1     -24.440  15.524  11.966  1.00 20.00    -0.277 OA
HETATM    8 CL8  UNL     1     -22.788  17.584  12.235  1.00 20.00    -0.041 Cl
ENDBRANCH   3   6
TORSDOF 1
ENDMDL
MODEL 6
REMARK VINA RESULT:      -3.5     12.060     12.417
REMARK  1 active torsions:
REMARK  status: ('A' for Active; 'I' for Inactive)
REMARK    1  A    between atoms: C2_2  and  C4_4 
ROOT
HETATM    1  C1  UNL     1     -34.516  16.064  -2.736  1.00 20.00     0.095 A 
HETATM    2  C3  UNL     1     -33.285  16.050  -3.600  1.00 20.00     0.122 A 
HETATM    3  C4  UNL     1     -34.973  14.116  -3.760  1.00 20.00     0.255 A 
HETATM    4  N5  UNL     1     -35.404  15.121  -2.781  1.00 20.00    -0.280 NA
HETATM    5  S7  UNL     1     -33.424  14.548  -4.570  1.00 20.00    -0.128 SA
ENDROOT
BRANCH   3   6
HETATM    6  C2  UNL     1     -36.042  14.037  -4.795  1.00 20.00     0.253 C 
HETATM    7  O6  UNL     1     -37.166  13.620  -4.531  1.00 20.00    -0.277 OA
HETATM    8 CL8  UNL     1     -35.492  14.592  -6.347  1.00 20.00    -0.041 Cl
ENDBRANCH   3   6
TORSDOF 1
ENDMDL
MODEL 7
REMARK VINA RESULT:      -3.4     12.568     13.199
REMARK  1 active torsions:
REMARK  status: ('A' for Active; 'I' for Inactive)
REMARK    1  A    between atoms: C2_2  and  C4_4 
ROOT
HETATM    1  C1  UNL     1     -36.795  16.272  -6.033  1.00 20.00     0.095 A 
HETATM    2  C3  UNL     1     -36.374  17.250  -4.971  1.00 20.00     0.122 A 
HETATM    3  C4  UNL     1     -36.747  14.782  -4.351  1.00 20.00     0.255 A 
HETATM    4  N5  UNL     1     -36.989  15.015  -5.780  1.00 20.00    -0.280 NA
HETATM    5  S7  UNL     1     -36.238  16.270  -3.475  1.00 20.00    -0.128 SA
ENDROOT
BRANCH   3   6
HETATM    6  C2  UNL     1     -35.650  13.779  -4.258  1.00 20.00     0.253 C 
HETATM    7  O6  UNL     1     -35.841  12.589  -4.489  1.00 20.00    -0.277 OA
HETATM    8 CL8  UNL     1     -34.138  14.505  -3.800  1.00 20.00    -0.041 Cl
ENDBRANCH   3   6
TORSDOF 1
ENDMDL
MODEL 8
REMARK VINA RESULT:      -3.4     12.281     12.841
REMARK  1 active torsions:
REMARK  status: ('A' for Active; 'I' for Inactive)
REMARK    1  A    between atoms: C2_2  and  C4_4 
ROOT
HETATM    1  C1  UNL     1     -34.599  14.837  -6.338  1.00 20.00     0.095 A 
HETATM    2  C3  UNL     1     -36.069  14.801  -6.027  1.00 20.00     0.122 A 
HETATM    3  C4  UNL     1     -34.361  14.457  -4.135  1.00 20.00     0.255 A 
HETATM    4  N5  UNL     1     -33.693  14.678  -5.423  1.00 20.00    -0.280 NA
HETATM    5  S7  UNL     1     -36.156  14.523  -4.257  1.00 20.00    -0.128 SA
ENDROOT
BRANCH   3   6
HETATM    6  C2  UNL     1     -33.909  15.544  -3.223  1.00 20.00     0.253 C 
HETATM    7  O6  UNL     1     -32.805  16.070  -3.343  1.00 20.00    -0.277 OA
HETATM    8 CL8  UNL     1     -35.109  15.940  -2.031  1.00 20.00    -0.041 Cl
ENDBRANCH   3   6
TORSDOF 1
ENDMDL
MODEL 9
REMARK VINA RESULT:      -3.3      9.550      9.818
REMARK  1 active torsions:
REMARK  status: ('A' for Active; 'I' for Inactive)
REMARK    1  A    between atoms: C2_2  and  C4_4 
ROOT
HETATM    1  C1  UNL     1     -41.377   5.825  -0.578  1.00 20.00     0.095 A 
HETATM    2  C3  UNL     1     -42.688   5.392   0.016  1.00 20.00     0.122 A 
HETATM    3  C4  UNL     1     -41.689   7.670   0.667  1.00 20.00     0.255 A 
HETATM    4  N5  UNL     1     -40.831   6.965  -0.293  1.00 20.00    -0.280 NA
HETATM    5  S7  UNL     1     -43.184   6.752   1.074  1.00 20.00    -0.128 SA
ENDROOT
BRANCH   3   6
HETATM    6  C2  UNL     1     -42.083   8.957   0.029  1.00 20.00     0.253 C 
HETATM    7  O6  UNL     1     -41.500  10.008   0.283  1.00 20.00    -0.277 OA
HETATM    8 CL8  UNL     1     -43.415   8.762  -1.069  1.00 20.00    -0.041 Cl
ENDBRANCH   3   6
TORSDOF 1
ENDMDL
