MODEL 1
REMARK VINA RESULT:      -5.2      0.000      0.000
REMARK  2 active torsions:
REMARK  status: ('A' for Active; 'I' for Inactive)
REMARK    1  A    between atoms: C2_2  and  C6_6 
REMARK       I    between atoms: C2_2  and  N7_7 
REMARK    2  A    between atoms: C5_5  and  C6_6 
ROOT
HETATM    1  C1  UNL     1     -32.583   8.025   1.386  1.00 20.00     0.166 C 
HETATM    2  C2  UNL     1     -32.932   6.445   2.866  1.00 20.00     0.244 C 
HETATM    3  N7  UNL     1     -32.179   7.480   2.344  1.00 20.00    -0.199 NA
HETATM    4  O8  UNL     1     -33.242   5.403   2.289  1.00 20.00    -0.271 OA
HETATM    5  S9  UNL     1     -33.096   8.789   0.086  1.00 20.00    -0.055 SA
ENDROOT
BRANCH   2   6
HETATM    6  C6  UNL     1     -33.367   6.723   4.296  1.00 20.00     0.109 C 
BRANCH   6   7
HETATM    7  C5  UNL     1     -34.665   6.097   4.670  1.00 20.00    -0.006 A 
HETATM    8  C3  UNL     1     -34.795   4.600   4.729  1.00 20.00     0.005 A 
HETATM    9  C4  UNL     1     -34.819   5.408   5.997  1.00 20.00     0.005 A 
ENDBRANCH   6   7
ENDBRANCH   2   6
TORSDOF 2
ENDMDL
MODEL 2
REMARK VINA RESULT:      -4.6     11.272     11.889
REMARK  2 active torsions:
REMARK  status: ('A' for Active; 'I' for Inactive)
REMARK    1  A    between atoms: C2_2  and  C6_6 
REMARK       I    between atoms: C2_2  and  N7_7 
REMARK    2  A    between atoms: C5_5  and  C6_6 
ROOT
HETATM    1  C1  UNL     1     -35.820  14.845  -6.728  1.00 20.00     0.166 C 
HETATM    2  C2  UNL     1     -36.086  13.962  -4.738  1.00 20.00     0.244 C 
HETATM    3  N7  UNL     1     -35.428  14.059  -5.950  1.00 20.00    -0.199 NA
HETATM    4  O8  UNL     1     -37.272  13.677  -4.571  1.00 20.00    -0.271 OA
HETATM    5  S9  UNL     1     -36.323  15.900  -7.811  1.00 20.00    -0.055 SA
ENDROOT
BRANCH   2   6
HETATM    6  C6  UNL     1     -35.165  14.256  -3.565  1.00 20.00     0.109 C 
BRANCH   6   7
HETATM    7  C5  UNL     1     -35.012  15.705  -3.259  1.00 20.00    -0.006 A 
HETATM    8  C3  UNL     1     -34.989  16.180  -1.833  1.00 20.00     0.005 A 
HETATM    9  C4  UNL     1     -33.734  16.223  -2.661  1.00 20.00     0.005 A 
ENDBRANCH   6   7
ENDBRANCH   2   6
TORSDOF 2
ENDMDL
MODEL 3
REMARK VINA RESULT:      -4.5     16.161     16.444
REMARK  2 active torsions:
REMARK  status: ('A' for Active; 'I' for Inactive)
REMARK    1  A    between atoms: C2_2  and  C6_6 
REMARK       I    between atoms: C2_2  and  N7_7 
REMARK    2  A    between atoms: C5_5  and  C6_6 
ROOT
HETATM    1  C1  UNL     1     -24.566  19.073   7.615  1.00 20.00     0.166 C 
HETATM    2  C2  UNL     1     -22.785  17.908   8.143  1.00 20.00     0.244 C 
HETATM    3  N7  UNL     1     -23.658  18.959   8.351  1.00 20.00    -0.199 NA
HETATM    4  O8  UNL     1     -22.114  17.704   7.131  1.00 20.00    -0.271 OA
HETATM    5  S9  UNL     1     -25.811  19.263   6.639  1.00 20.00    -0.055 SA
ENDROOT
BRANCH   2   6
HETATM    6  C6  UNL     1     -22.723  16.975   9.341  1.00 20.00     0.109 C 
BRANCH   6   7
HETATM    7  C5  UNL     1     -23.291  17.551  10.592  1.00 20.00    -0.006 A 
HETATM    8  C3  UNL     1     -23.513  16.678  11.795  1.00 20.00     0.005 A 
HETATM    9  C4  UNL     1     -22.426  17.717  11.810  1.00 20.00     0.005 A 
ENDBRANCH   6   7
ENDBRANCH   2   6
TORSDOF 2
ENDMDL
MODEL 4
REMARK VINA RESULT:      -4.5     11.136     11.595
REMARK  2 active torsions:
REMARK  status: ('A' for Active; 'I' for Inactive)
REMARK    1  A    between atoms: C2_2  and  C6_6 
REMARK       I    between atoms: C2_2  and  N7_7 
REMARK    2  A    between atoms: C5_5  and  C6_6 
ROOT
HETATM    1  C1  UNL     1     -37.633  14.936  -4.617  1.00 20.00     0.166 C 
HETATM    2  C2  UNL     1     -35.729  13.861  -4.446  1.00 20.00     0.244 C 
HETATM    3  N7  UNL     1     -36.520  14.859  -4.982  1.00 20.00    -0.199 NA
HETATM    4  O8  UNL     1     -35.934  12.649  -4.514  1.00 20.00    -0.271 OA
HETATM    5  S9  UNL     1     -39.149  15.072  -4.146  1.00 20.00    -0.055 SA
ENDROOT
BRANCH   2   6
HETATM    6  C6  UNL     1     -34.516  14.424  -3.724  1.00 20.00     0.109 C 
BRANCH   6   7
HETATM    7  C5  UNL     1     -34.662  15.845  -3.303  1.00 20.00    -0.006 A 
HETATM    8  C3  UNL     1     -34.946  16.185  -1.867  1.00 20.00     0.005 A 
HETATM    9  C4  UNL     1     -33.602  16.500  -2.463  1.00 20.00     0.005 A 
ENDBRANCH   6   7
ENDBRANCH   2   6
TORSDOF 2
ENDMDL
MODEL 5
REMARK VINA RESULT:      -4.4     11.412     11.841
REMARK  2 active torsions:
REMARK  status: ('A' for Active; 'I' for Inactive)
REMARK    1  A    between atoms: C2_2  and  C6_6 
REMARK       I    between atoms: C2_2  and  N7_7 
REMARK    2  A    between atoms: C5_5  and  C6_6 
ROOT
HETATM    1  C1  UNL     1     -34.625  14.974  -6.600  1.00 20.00     0.166 C 
HETATM    2  C2  UNL     1     -33.942  14.441  -4.586  1.00 20.00     0.244 C 
HETATM    3  N7  UNL     1     -33.702  14.736  -5.914  1.00 20.00    -0.199 NA
HETATM    4  O8  UNL     1     -34.622  13.510  -4.155  1.00 20.00    -0.271 OA
HETATM    5  S9  UNL     1     -35.851  15.302  -7.564  1.00 20.00    -0.055 SA
ENDROOT
BRANCH   2   6
HETATM    6  C6  UNL     1     -33.252  15.423  -3.652  1.00 20.00     0.109 C 
BRANCH   6   7
HETATM    7  C5  UNL     1     -34.152  16.473  -3.100  1.00 20.00    -0.006 A 
HETATM    8  C3  UNL     1     -34.999  16.186  -1.892  1.00 20.00     0.005 A 
HETATM    9  C4  UNL     1     -33.834  17.130  -1.787  1.00 20.00     0.005 A 
ENDBRANCH   6   7
ENDBRANCH   2   6
TORSDOF 2
ENDMDL
MODEL 6
REMARK VINA RESULT:      -4.2     11.322     12.022
REMARK  2 active torsions:
REMARK  status: ('A' for Active; 'I' for Inactive)
REMARK    1  A    between atoms: C2_2  and  C6_6 
REMARK       I    between atoms: C2_2  and  N7_7 
REMARK    2  A    between atoms: C5_5  and  C6_6 
ROOT
HETATM    1  C1  UNL     1     -34.426  14.929  -6.373  1.00 20.00     0.166 C 
HETATM    2  C2  UNL     1     -34.531  14.337  -4.264  1.00 20.00     0.244 C 
HETATM    3  N7  UNL     1     -33.829  14.757  -5.377  1.00 20.00    -0.199 NA
HETATM    4  O8  UNL     1     -35.186  13.299  -4.162  1.00 20.00    -0.271 OA
HETATM    5  S9  UNL     1     -35.201  15.174  -7.743  1.00 20.00    -0.055 SA
ENDROOT
BRANCH   2   6
HETATM    6  C6  UNL     1     -34.418  15.324  -3.114  1.00 20.00     0.109 C 
BRANCH   6   7
HETATM    7  C5  UNL     1     -33.193  16.170  -3.155  1.00 20.00    -0.006 A 
HETATM    8  C3  UNL     1     -33.287  17.621  -3.538  1.00 20.00     0.005 A 
HETATM    9  C4  UNL     1     -32.973  17.236  -2.119  1.00 20.00     0.005 A 
ENDBRANCH   6   7
ENDBRANCH   2   6
TORSDOF 2
ENDMDL
MODEL 7
REMARK VINA RESULT:      -4.2      9.664     10.082
REMARK  2 active torsions:
REMARK  status: ('A' for Active; 'I' for Inactive)
REMARK    1  A    between atoms: C2_2  and  C6_6 
REMARK       I    between atoms: C2_2  and  N7_7 
REMARK    2  A    between atoms: C5_5  and  C6_6 
ROOT
HETATM    1  C1  UNL     1     -43.049   4.294  -1.999  1.00 20.00     0.166 C 
HETATM    2  C2  UNL     1     -41.663   5.547  -0.850  1.00 20.00     0.244 C 
HETATM    3  N7  UNL     1     -42.803   5.375  -1.612  1.00 20.00    -0.199 NA
HETATM    4  O8  UNL     1     -40.507   5.306  -1.200  1.00 20.00    -0.271 OA
HETATM    5  S9  UNL     1     -43.417   2.843  -2.543  1.00 20.00    -0.055 SA
ENDROOT
BRANCH   2   6
HETATM    6  C6  UNL     1     -41.980   6.089   0.534  1.00 20.00     0.109 C 
BRANCH   6   7
HETATM    7  C5  UNL     1     -41.643   7.528   0.717  1.00 20.00    -0.006 A 
HETATM    8  C3  UNL     1     -41.297   8.381  -0.471  1.00 20.00     0.005 A 
HETATM    9  C4  UNL     1     -42.596   8.594   0.255  1.00 20.00     0.005 A 
ENDBRANCH   6   7
ENDBRANCH   2   6
TORSDOF 2
ENDMDL
MODEL 8
REMARK VINA RESULT:      -4.2      2.681      4.581
REMARK  2 active torsions:
REMARK  status: ('A' for Active; 'I' for Inactive)
REMARK    1  A    between atoms: C2_2  and  C6_6 
REMARK       I    between atoms: C2_2  and  N7_7 
REMARK    2  A    between atoms: C5_5  and  C6_6 
ROOT
HETATM    1  C1  UNL     1     -34.477   5.827   4.489  1.00 20.00     0.166 C 
HETATM    2  C2  UNL     1     -33.205   5.898   2.704  1.00 20.00     0.244 C 
HETATM    3  N7  UNL     1     -34.371   6.201   3.381  1.00 20.00    -0.199 NA
HETATM    4  O8  UNL     1     -32.768   4.772   2.466  1.00 20.00    -0.271 OA
HETATM    5  S9  UNL     1     -34.660   5.337   5.994  1.00 20.00    -0.055 SA
ENDROOT
BRANCH   2   6
HETATM    6  C6  UNL     1     -32.467   7.149   2.255  1.00 20.00     0.109 C 
BRANCH   6   7
HETATM    7  C5  UNL     1     -33.215   7.976   1.267  1.00 20.00    -0.006 A 
HETATM    8  C3  UNL     1     -32.868   9.426   1.076  1.00 20.00     0.005 A 
HETATM    9  C4  UNL     1     -32.548   8.427  -0.002  1.00 20.00     0.005 A 
ENDBRANCH   6   7
ENDBRANCH   2   6
TORSDOF 2
ENDMDL
MODEL 9
REMARK VINA RESULT:      -4.1     11.597     12.280
REMARK  2 active torsions:
REMARK  status: ('A' for Active; 'I' for Inactive)
REMARK    1  A    between atoms: C2_2  and  C6_6 
REMARK       I    between atoms: C2_2  and  N7_7 
REMARK    2  A    between atoms: C5_5  and  C6_6 
ROOT
HETATM    1  C1  UNL     1     -37.905  16.275  -5.310  1.00 20.00     0.166 C 
HETATM    2  C2  UNL     1     -36.680  14.480  -5.014  1.00 20.00     0.244 C 
HETATM    3  N7  UNL     1     -37.166  15.507  -5.802  1.00 20.00    -0.199 NA
HETATM    4  O8  UNL     1     -37.347  13.618  -4.443  1.00 20.00    -0.271 OA
HETATM    5  S9  UNL     1     -38.911  17.338  -4.680  1.00 20.00    -0.055 SA
ENDROOT
BRANCH   2   6
HETATM    6  C6  UNL     1     -35.164  14.514  -4.909  1.00 20.00     0.109 C 
BRANCH   6   7
HETATM    7  C5  UNL     1     -34.653  14.664  -3.518  1.00 20.00    -0.006 A 
HETATM    8  C3  UNL     1     -33.752  15.814  -3.162  1.00 20.00     0.005 A 
HETATM    9  C4  UNL     1     -35.162  15.773  -2.640  1.00 20.00     0.005 A 
ENDBRANCH   6   7
ENDBRANCH   2   6
TORSDOF 2
ENDMDL
