MODEL 1
REMARK VINA RESULT:      -4.2      0.000      0.000
REMARK  2 active torsions:
REMARK  status: ('A' for Active; 'I' for Inactive)
REMARK    1  A    between atoms: C4_4  and  C8_8 
REMARK    2  A    between atoms: C8_8  and  C9_9 
ROOT
HETATM    1  C1  UNL     1     -33.695  14.568  -4.462  1.00 20.00     0.002 C 
HETATM    2  C2  UNL     1     -33.037  15.636  -3.583  1.00 20.00     0.006 C 
HETATM    3  C3  UNL     1     -35.121  14.397  -3.935  1.00 20.00     0.020 C 
HETATM    4  C4  UNL     1     -34.065  15.960  -2.495  1.00 20.00     0.004 C 
HETATM    5  C5  UNL     1     -35.416  15.683  -3.164  1.00 20.00     0.086 C 
HETATM    6 CL10 UNL     1     -35.924  16.971  -4.292  1.00 20.00    -0.125 Cl
ENDROOT
BRANCH   4   7
HETATM    7  C8  UNL     1     -33.887  17.343  -1.887  1.00 20.00     0.010 C 
BRANCH   7   8
HETATM    8  C9  UNL     1     -32.520  17.982  -2.196  1.00 20.00    -0.022 C 
HETATM    9  C6  UNL     1     -32.648  19.256  -3.032  1.00 20.00     0.009 C 
HETATM   10  C7  UNL     1     -31.784  18.291  -0.891  1.00 20.00     0.009 C 
ENDBRANCH   7   8
ENDBRANCH   4   7
TORSDOF 2
ENDMDL
MODEL 2
REMARK VINA RESULT:      -4.1      1.125      2.095
REMARK  2 active torsions:
REMARK  status: ('A' for Active; 'I' for Inactive)
REMARK    1  A    between atoms: C4_4  and  C8_8 
REMARK    2  A    between atoms: C8_8  and  C9_9 
ROOT
HETATM    1  C1  UNL     1     -36.110  13.619  -4.570  1.00 20.00     0.002 C 
HETATM    2  C2  UNL     1     -34.786  13.976  -3.888  1.00 20.00     0.006 C 
HETATM    3  C3  UNL     1     -37.087  14.746  -4.230  1.00 20.00     0.020 C 
HETATM    4  C4  UNL     1     -35.077  15.238  -3.069  1.00 20.00     0.004 C 
HETATM    5  C5  UNL     1     -36.206  15.931  -3.841  1.00 20.00     0.086 C 
HETATM    6 CL10 UNL     1     -35.642  16.782  -5.307  1.00 20.00    -0.125 Cl
ENDROOT
BRANCH   4   7
HETATM    7  C8  UNL     1     -33.839  16.077  -2.792  1.00 20.00     0.010 C 
BRANCH   7   8
HETATM    8  C9  UNL     1     -34.114  17.314  -1.918  1.00 20.00    -0.022 C 
HETATM    9  C6  UNL     1     -35.037  17.000  -0.739  1.00 20.00     0.009 C 
HETATM   10  C7  UNL     1     -32.794  17.891  -1.401  1.00 20.00     0.009 C 
ENDBRANCH   7   8
ENDBRANCH   4   7
TORSDOF 2
ENDMDL
MODEL 3
REMARK VINA RESULT:      -4.1     11.083     11.970
REMARK  2 active torsions:
REMARK  status: ('A' for Active; 'I' for Inactive)
REMARK    1  A    between atoms: C4_4  and  C8_8 
REMARK    2  A    between atoms: C8_8  and  C9_9 
ROOT
HETATM    1  C1  UNL     1     -34.385   5.945   5.668  1.00 20.00     0.002 C 
HETATM    2  C2  UNL     1     -33.326   6.873   5.063  1.00 20.00     0.006 C 
HETATM    3  C3  UNL     1     -35.233   5.441   4.499  1.00 20.00     0.020 C 
HETATM    4  C4  UNL     1     -33.675   6.974   3.575  1.00 20.00     0.004 C 
HETATM    5  C5  UNL     1     -34.361   5.639   3.262  1.00 20.00     0.086 C 
HETATM    6 CL10 UNL     1     -33.216   4.278   3.095  1.00 20.00    -0.125 Cl
ENDROOT
BRANCH   4   7
HETATM    7  C8  UNL     1     -32.487   7.341   2.700  1.00 20.00     0.010 C 
BRANCH   7   8
HETATM    8  C9  UNL     1     -32.885   7.928   1.333  1.00 20.00    -0.022 C 
HETATM    9  C6  UNL     1     -33.126   9.438   1.396  1.00 20.00     0.009 C 
HETATM   10  C7  UNL     1     -31.801   7.620   0.298  1.00 20.00     0.009 C 
ENDBRANCH   7   8
ENDBRANCH   4   7
TORSDOF 2
ENDMDL
MODEL 4
REMARK VINA RESULT:      -4.1      1.448      4.252
REMARK  2 active torsions:
REMARK  status: ('A' for Active; 'I' for Inactive)
REMARK    1  A    between atoms: C4_4  and  C8_8 
REMARK    2  A    between atoms: C8_8  and  C9_9 
ROOT
HETATM    1  C1  UNL     1     -34.458  17.364  -1.134  1.00 20.00     0.002 C 
HETATM    2  C2  UNL     1     -34.990  16.195  -1.969  1.00 20.00     0.006 C 
HETATM    3  C3  UNL     1     -33.050  17.659  -1.656  1.00 20.00     0.020 C 
HETATM    4  C4  UNL     1     -33.822  15.768  -2.865  1.00 20.00     0.004 C 
HETATM    5  C5  UNL     1     -33.012  17.055  -3.058  1.00 20.00     0.086 C 
HETATM    6 CL10 UNL     1     -33.747  18.184  -4.232  1.00 20.00    -0.125 Cl
ENDROOT
BRANCH   4   7
HETATM    7  C8  UNL     1     -34.263  15.054  -4.134  1.00 20.00     0.010 C 
BRANCH   7   8
HETATM    8  C9  UNL     1     -35.791  15.013  -4.319  1.00 20.00    -0.022 C 
HETATM    9  C6  UNL     1     -36.262  15.903  -5.471  1.00 20.00     0.009 C 
HETATM   10  C7  UNL     1     -36.248  13.572  -4.559  1.00 20.00     0.009 C 
ENDBRANCH   7   8
ENDBRANCH   4   7
TORSDOF 2
ENDMDL
MODEL 5
REMARK VINA RESULT:      -4.0      1.557      2.445
REMARK  2 active torsions:
REMARK  status: ('A' for Active; 'I' for Inactive)
REMARK    1  A    between atoms: C4_4  and  C8_8 
REMARK    2  A    between atoms: C8_8  and  C9_9 
ROOT
HETATM    1  C1  UNL     1     -33.432  14.791  -4.394  1.00 20.00     0.002 C 
HETATM    2  C2  UNL     1     -33.127  15.928  -3.413  1.00 20.00     0.006 C 
HETATM    3  C3  UNL     1     -34.795  14.227  -3.988  1.00 20.00     0.020 C 
HETATM    4  C4  UNL     1     -34.267  15.902  -2.391  1.00 20.00     0.004 C 
HETATM    5  C5  UNL     1     -35.458  15.337  -3.175  1.00 20.00     0.086 C 
HETATM    6 CL10 UNL     1     -36.213  16.530  -4.270  1.00 20.00    -0.125 Cl
ENDROOT
BRANCH   4   7
HETATM    7  C8  UNL     1     -34.491  17.239  -1.701  1.00 20.00     0.010 C 
BRANCH   7   8
HETATM    8  C9  UNL     1     -35.453  17.161  -0.501  1.00 20.00    -0.022 C 
HETATM    9  C6  UNL     1     -34.816  17.674   0.791  1.00 20.00     0.009 C 
HETATM   10  C7  UNL     1     -36.725  17.957  -0.803  1.00 20.00     0.009 C 
ENDBRANCH   7   8
ENDBRANCH   4   7
TORSDOF 2
ENDMDL
MODEL 6
REMARK VINA RESULT:      -4.0      1.331      4.276
REMARK  2 active torsions:
REMARK  status: ('A' for Active; 'I' for Inactive)
REMARK    1  A    between atoms: C4_4  and  C8_8 
REMARK    2  A    between atoms: C8_8  and  C9_9 
ROOT
HETATM    1  C1  UNL     1     -33.900  18.017  -0.434  1.00 20.00     0.002 C 
HETATM    2  C2  UNL     1     -34.935  17.048  -1.015  1.00 20.00     0.006 C 
HETATM    3  C3  UNL     1     -32.663  17.910  -1.328  1.00 20.00     0.020 C 
HETATM    4  C4  UNL     1     -34.217  16.318  -2.154  1.00 20.00     0.004 C 
HETATM    5  C5  UNL     1     -33.174  17.328  -2.644  1.00 20.00     0.086 C 
HETATM    6 CL10 UNL     1     -33.867  18.625  -3.659  1.00 20.00    -0.125 Cl
ENDROOT
BRANCH   4   7
HETATM    7  C8  UNL     1     -35.163  15.763  -3.208  1.00 20.00     0.010 C 
BRANCH   7   8
HETATM    8  C9  UNL     1     -34.781  14.356  -3.701  1.00 20.00    -0.022 C 
HETATM    9  C6  UNL     1     -35.914  13.684  -4.480  1.00 20.00     0.009 C 
HETATM   10  C7  UNL     1     -33.527  14.433  -4.575  1.00 20.00     0.009 C 
ENDBRANCH   7   8
ENDBRANCH   4   7
TORSDOF 2
ENDMDL
MODEL 7
REMARK VINA RESULT:      -3.9      1.790      2.721
REMARK  2 active torsions:
REMARK  status: ('A' for Active; 'I' for Inactive)
REMARK    1  A    between atoms: C4_4  and  C8_8 
REMARK    2  A    between atoms: C8_8  and  C9_9 
ROOT
HETATM    1  C1  UNL     1     -36.016  14.254  -5.545  1.00 20.00     0.002 C 
HETATM    2  C2  UNL     1     -36.149  14.486  -4.037  1.00 20.00     0.006 C 
HETATM    3  C3  UNL     1     -34.972  15.255  -6.043  1.00 20.00     0.020 C 
HETATM    4  C4  UNL     1     -35.269  15.702  -3.731  1.00 20.00     0.004 C 
HETATM    5  C5  UNL     1     -34.173  15.646  -4.801  1.00 20.00     0.086 C 
HETATM    6 CL10 UNL     1     -32.920  14.417  -4.468  1.00 20.00    -0.125 Cl
ENDROOT
BRANCH   4   7
HETATM    7  C8  UNL     1     -34.795  15.757  -2.286  1.00 20.00     0.010 C 
BRANCH   7   8
HETATM    8  C9  UNL     1     -34.553  17.187  -1.771  1.00 20.00    -0.022 C 
HETATM    9  C6  UNL     1     -35.077  17.390  -0.348  1.00 20.00     0.009 C 
HETATM   10  C7  UNL     1     -33.059  17.513  -1.823  1.00 20.00     0.009 C 
ENDBRANCH   7   8
ENDBRANCH   4   7
TORSDOF 2
ENDMDL
MODEL 8
REMARK VINA RESULT:      -3.8      2.083      4.611
REMARK  2 active torsions:
REMARK  status: ('A' for Active; 'I' for Inactive)
REMARK    1  A    between atoms: C4_4  and  C8_8 
REMARK    2  A    between atoms: C8_8  and  C9_9 
ROOT
HETATM    1  C1  UNL     1     -33.808  16.034  -2.857  1.00 20.00     0.002 C 
HETATM    2  C2  UNL     1     -35.266  15.594  -3.022  1.00 20.00     0.006 C 
HETATM    3  C3  UNL     1     -32.996  15.213  -3.861  1.00 20.00     0.020 C 
HETATM    4  C4  UNL     1     -35.234  14.440  -4.029  1.00 20.00     0.004 C 
HETATM    5  C5  UNL     1     -34.010  14.742  -4.901  1.00 20.00     0.086 C 
HETATM    6 CL10 UNL     1     -34.299  16.033  -6.103  1.00 20.00    -0.125 Cl
ENDROOT
BRANCH   4   7
HETATM    7  C8  UNL     1     -36.551  14.242  -4.763  1.00 20.00     0.010 C 
BRANCH   7   8
HETATM    8  C9  UNL     1     -37.574  15.365  -4.511  1.00 20.00    -0.022 C 
HETATM    9  C6  UNL     1     -37.728  16.293  -5.717  1.00 20.00     0.009 C 
HETATM   10  C7  UNL     1     -38.931  14.761  -4.146  1.00 20.00     0.009 C 
ENDBRANCH   7   8
ENDBRANCH   4   7
TORSDOF 2
ENDMDL
MODEL 9
REMARK VINA RESULT:      -3.8      1.969      2.736
REMARK  2 active torsions:
REMARK  status: ('A' for Active; 'I' for Inactive)
REMARK    1  A    between atoms: C4_4  and  C8_8 
REMARK    2  A    between atoms: C8_8  and  C9_9 
ROOT
HETATM    1  C1  UNL     1     -35.749  16.457  -6.451  1.00 20.00     0.002 C 
HETATM    2  C2  UNL     1     -34.828  16.797  -5.276  1.00 20.00     0.006 C 
HETATM    3  C3  UNL     1     -35.757  14.932  -6.565  1.00 20.00     0.020 C 
HETATM    4  C4  UNL     1     -34.231  15.460  -4.825  1.00 20.00     0.004 C 
HETATM    5  C5  UNL     1     -35.305  14.430  -5.195  1.00 20.00     0.086 C 
HETATM    6 CL10 UNL     1     -36.687  14.411  -4.063  1.00 20.00    -0.125 Cl
ENDROOT
BRANCH   4   7
HETATM    7  C8  UNL     1     -33.772  15.461  -3.375  1.00 20.00     0.010 C 
BRANCH   7   8
HETATM    8  C9  UNL     1     -34.128  16.753  -2.616  1.00 20.00    -0.022 C 
HETATM    9  C6  UNL     1     -35.119  16.504  -1.478  1.00 20.00     0.009 C 
HETATM   10  C7  UNL     1     -32.856  17.399  -2.063  1.00 20.00     0.009 C 
ENDBRANCH   7   8
ENDBRANCH   4   7
TORSDOF 2
ENDMDL
