MODEL 1
REMARK VINA RESULT:      -5.2      0.000      0.000
REMARK  2 active torsions:
REMARK  status: ('A' for Active; 'I' for Inactive)
REMARK    1  A    between atoms: C2_2  and  C8_8 
REMARK    2  A    between atoms: C6_6  and  C8_8 
ROOT
HETATM    1  C3  UNL     1     -34.710   5.562   5.851  1.00 20.00     0.002 C 
HETATM    2  C4  UNL     1     -33.568   6.518   5.495  1.00 20.00     0.006 C 
HETATM    3  C5  UNL     1     -35.422   5.236   4.537  1.00 20.00     0.020 C 
HETATM    4  C6  UNL     1     -33.734   6.816   4.002  1.00 20.00     0.007 C 
HETATM    5  C7  UNL     1     -34.405   5.556   3.444  1.00 20.00     0.086 C 
HETATM    6 CL9  UNL     1     -33.276   4.185   3.239  1.00 20.00    -0.125 Cl
ENDROOT
BRANCH   4   7
HETATM    7  C8  UNL     1     -32.442   7.247   3.324  1.00 20.00     0.032 C 
BRANCH   7   8
HETATM    8  C2  UNL     1     -32.592   7.286   1.833  1.00 20.00    -0.036 C 
HETATM    9  C1  UNL     1     -32.676   8.415   1.120  1.00 20.00     0.007 C 
ENDBRANCH   7   8
ENDBRANCH   4   7
TORSDOF 2
ENDMDL
MODEL 2
REMARK VINA RESULT:      -4.1     11.587     12.357
REMARK  2 active torsions:
REMARK  status: ('A' for Active; 'I' for Inactive)
REMARK    1  A    between atoms: C2_2  and  C8_8 
REMARK    2  A    between atoms: C6_6  and  C8_8 
ROOT
HETATM    1  C3  UNL     1     -34.470  17.286  -1.148  1.00 20.00     0.002 C 
HETATM    2  C4  UNL     1     -34.973  16.137  -2.027  1.00 20.00     0.006 C 
HETATM    3  C5  UNL     1     -33.070  17.634  -1.659  1.00 20.00     0.020 C 
HETATM    4  C6  UNL     1     -33.797  15.771  -2.937  1.00 20.00     0.007 C 
HETATM    5  C7  UNL     1     -33.018  17.083  -3.082  1.00 20.00     0.086 C 
HETATM    6 CL9  UNL     1     -33.780  18.238  -4.214  1.00 20.00    -0.125 Cl
ENDROOT
BRANCH   4   7
HETATM    7  C8  UNL     1     -34.221  15.094  -4.231  1.00 20.00     0.032 C 
BRANCH   7   8
HETATM    8  C2  UNL     1     -35.129  13.930  -3.969  1.00 20.00    -0.036 C 
HETATM    9  C1  UNL     1     -36.262  13.700  -4.642  1.00 20.00     0.007 C 
ENDBRANCH   7   8
ENDBRANCH   4   7
TORSDOF 2
ENDMDL
MODEL 3
REMARK VINA RESULT:      -4.0     11.620     12.351
REMARK  2 active torsions:
REMARK  status: ('A' for Active; 'I' for Inactive)
REMARK    1  A    between atoms: C2_2  and  C8_8 
REMARK    2  A    between atoms: C6_6  and  C8_8 
ROOT
HETATM    1  C3  UNL     1     -33.644  14.706  -4.350  1.00 20.00     0.002 C 
HETATM    2  C4  UNL     1     -33.054  15.830  -3.495  1.00 20.00     0.006 C 
HETATM    3  C5  UNL     1     -35.039  14.425  -3.786  1.00 20.00     0.020 C 
HETATM    4  C6  UNL     1     -34.076  16.078  -2.381  1.00 20.00     0.007 C 
HETATM    5  C7  UNL     1     -35.416  15.687  -3.014  1.00 20.00     0.086 C 
HETATM    6 CL9  UNL     1     -36.057  16.922  -4.136  1.00 20.00    -0.125 Cl
ENDROOT
BRANCH   4   7
HETATM    7  C8  UNL     1     -33.995  17.476  -1.786  1.00 20.00     0.032 C 
BRANCH   7   8
HETATM    8  C2  UNL     1     -32.628  18.068  -1.961  1.00 20.00    -0.036 C 
HETATM    9  C1  UNL     1     -31.771  18.278  -0.956  1.00 20.00     0.007 C 
ENDBRANCH   7   8
ENDBRANCH   4   7
TORSDOF 2
ENDMDL
MODEL 4
REMARK VINA RESULT:      -4.0     11.574     12.289
REMARK  2 active torsions:
REMARK  status: ('A' for Active; 'I' for Inactive)
REMARK    1  A    between atoms: C2_2  and  C8_8 
REMARK    2  A    between atoms: C6_6  and  C8_8 
ROOT
HETATM    1  C3  UNL     1     -33.792  16.181  -2.720  1.00 20.00     0.002 C 
HETATM    2  C4  UNL     1     -35.165  15.508  -2.802  1.00 20.00     0.006 C 
HETATM    3  C5  UNL     1     -32.907  15.473  -3.749  1.00 20.00     0.020 C 
HETATM    4  C6  UNL     1     -34.995  14.347  -3.786  1.00 20.00     0.007 C 
HETATM    5  C7  UNL     1     -33.880  14.818  -4.726  1.00 20.00     0.086 C 
HETATM    6 CL9  UNL     1     -34.429  16.012  -5.936  1.00 20.00    -0.125 Cl
ENDROOT
BRANCH   4   7
HETATM    7  C8  UNL     1     -36.297  13.920  -4.448  1.00 20.00     0.032 C 
BRANCH   7   8
HETATM    8  C2  UNL     1     -37.364  14.960  -4.282  1.00 20.00    -0.036 C 
HETATM    9  C1  UNL     1     -38.673  14.689  -4.248  1.00 20.00     0.007 C 
ENDBRANCH   7   8
ENDBRANCH   4   7
TORSDOF 2
ENDMDL
MODEL 5
REMARK VINA RESULT:      -4.0     11.605     12.151
REMARK  2 active torsions:
REMARK  status: ('A' for Active; 'I' for Inactive)
REMARK    1  A    between atoms: C2_2  and  C8_8 
REMARK    2  A    between atoms: C6_6  and  C8_8 
ROOT
HETATM    1  C3  UNL     1     -33.535  14.737  -4.481  1.00 20.00     0.002 C 
HETATM    2  C4  UNL     1     -33.145  15.799  -3.449  1.00 20.00     0.006 C 
HETATM    3  C5  UNL     1     -34.948  14.280  -4.113  1.00 20.00     0.020 C 
HETATM    4  C6  UNL     1     -34.297  15.832  -2.440  1.00 20.00     0.007 C 
HETATM    5  C7  UNL     1     -35.521  15.409  -3.260  1.00 20.00     0.086 C 
HETATM    6 CL9  UNL     1     -36.154  16.709  -4.310  1.00 20.00    -0.125 Cl
ENDROOT
BRANCH   4   7
HETATM    7  C8  UNL     1     -34.410  17.153  -1.694  1.00 20.00     0.032 C 
BRANCH   7   8
HETATM    8  C2  UNL     1     -35.488  17.104  -0.653  1.00 20.00    -0.036 C 
HETATM    9  C1  UNL     1     -35.282  17.338   0.647  1.00 20.00     0.007 C 
ENDBRANCH   7   8
ENDBRANCH   4   7
TORSDOF 2
ENDMDL
MODEL 6
REMARK VINA RESULT:      -3.9     11.530     12.229
REMARK  2 active torsions:
REMARK  status: ('A' for Active; 'I' for Inactive)
REMARK    1  A    between atoms: C2_2  and  C8_8 
REMARK    2  A    between atoms: C6_6  and  C8_8 
ROOT
HETATM    1  C3  UNL     1     -36.087  13.730  -4.485  1.00 20.00     0.002 C 
HETATM    2  C4  UNL     1     -34.666  14.012  -3.988  1.00 20.00     0.006 C 
HETATM    3  C5  UNL     1     -36.949  14.901  -4.004  1.00 20.00     0.020 C 
HETATM    4  C6  UNL     1     -34.775  15.274  -3.126  1.00 20.00     0.007 C 
HETATM    5  C7  UNL     1     -35.962  16.033  -3.730  1.00 20.00     0.086 C 
HETATM    6 CL9  UNL     1     -35.561  16.879  -5.253  1.00 20.00    -0.125 Cl
ENDROOT
BRANCH   4   7
HETATM    7  C8  UNL     1     -33.469  16.045  -3.015  1.00 20.00     0.032 C 
BRANCH   7   8
HETATM    8  C2  UNL     1     -33.571  17.153  -2.010  1.00 20.00    -0.036 C 
HETATM    9  C1  UNL     1     -32.534  17.896  -1.609  1.00 20.00     0.007 C 
ENDBRANCH   7   8
ENDBRANCH   4   7
TORSDOF 2
ENDMDL
MODEL 7
REMARK VINA RESULT:      -3.9     15.632     16.556
REMARK  2 active torsions:
REMARK  status: ('A' for Active; 'I' for Inactive)
REMARK    1  A    between atoms: C2_2  and  C8_8 
REMARK    2  A    between atoms: C6_6  and  C8_8 
ROOT
HETATM    1  C3  UNL     1     -23.837  17.762   8.879  1.00 20.00     0.002 C 
HETATM    2  C4  UNL     1     -24.746  18.560   9.819  1.00 20.00     0.006 C 
HETATM    3  C5  UNL     1     -22.843  17.018   9.774  1.00 20.00     0.020 C 
HETATM    4  C6  UNL     1     -24.168  18.353  11.222  1.00 20.00     0.007 C 
HETATM    5  C7  UNL     1     -23.504  16.974  11.150  1.00 20.00     0.086 C 
HETATM    6 CL9  UNL     1     -24.670  15.621  11.225  1.00 20.00    -0.125 Cl
ENDROOT
BRANCH   4   7
HETATM    7  C8  UNL     1     -25.189  18.551  12.332  1.00 20.00     0.032 C 
BRANCH   7   8
HETATM    8  C2  UNL     1     -26.549  18.853  11.778  1.00 20.00    -0.036 C 
HETATM    9  C1  UNL     1     -27.648  18.148  12.068  1.00 20.00     0.007 C 
ENDBRANCH   7   8
ENDBRANCH   4   7
TORSDOF 2
ENDMDL
MODEL 8
REMARK VINA RESULT:      -3.9     11.849     12.561
REMARK  2 active torsions:
REMARK  status: ('A' for Active; 'I' for Inactive)
REMARK    1  A    between atoms: C2_2  and  C8_8 
REMARK    2  A    between atoms: C6_6  and  C8_8 
ROOT
HETATM    1  C3  UNL     1     -34.829  16.652  -1.653  1.00 20.00     0.002 C 
HETATM    2  C4  UNL     1     -34.966  15.516  -2.670  1.00 20.00     0.006 C 
HETATM    3  C5  UNL     1     -33.472  17.306  -1.922  1.00 20.00     0.020 C 
HETATM    4  C6  UNL     1     -33.629  15.467  -3.414  1.00 20.00     0.007 C 
HETATM    5  C7  UNL     1     -33.118  16.911  -3.354  1.00 20.00     0.086 C 
HETATM    6 CL9  UNL     1     -33.937  18.001  -4.510  1.00 20.00    -0.125 Cl
ENDROOT
BRANCH   4   7
HETATM    7  C8  UNL     1     -33.728  14.846  -4.799  1.00 20.00     0.032 C 
BRANCH   7   8
HETATM    8  C2  UNL     1     -35.156  14.622  -5.198  1.00 20.00    -0.036 C 
HETATM    9  C1  UNL     1     -35.625  14.810  -6.437  1.00 20.00     0.007 C 
ENDBRANCH   7   8
ENDBRANCH   4   7
TORSDOF 2
ENDMDL
MODEL 9
REMARK VINA RESULT:      -3.8      8.939      9.607
REMARK  2 active torsions:
REMARK  status: ('A' for Active; 'I' for Inactive)
REMARK    1  A    between atoms: C2_2  and  C8_8 
REMARK    2  A    between atoms: C6_6  and  C8_8 
ROOT
HETATM    1  C3  UNL     1     -43.232   5.342   1.398  1.00 20.00     0.002 C 
HETATM    2  C4  UNL     1     -42.919   6.803   1.061  1.00 20.00     0.006 C 
HETATM    3  C5  UNL     1     -43.417   4.624   0.059  1.00 20.00     0.020 C 
HETATM    4  C6  UNL     1     -43.059   6.912  -0.460  1.00 20.00     0.007 C 
HETATM    5  C7  UNL     1     -42.711   5.507  -0.966  1.00 20.00     0.086 C 
HETATM    6 CL9  UNL     1     -40.956   5.167  -0.962  1.00 20.00    -0.125 Cl
ENDROOT
BRANCH   4   7
HETATM    7  C8  UNL     1     -42.261   8.060  -1.060  1.00 20.00     0.032 C 
BRANCH   7   8
HETATM    8  C2  UNL     1     -41.266   8.607  -0.081  1.00 20.00    -0.036 C 
HETATM    9  C1  UNL     1     -41.288   9.860   0.385  1.00 20.00     0.007 C 
ENDBRANCH   7   8
ENDBRANCH   4   7
TORSDOF 2
ENDMDL
