MODEL 1
REMARK VINA RESULT:      -5.1      0.000      0.000
REMARK  2 active torsions:
REMARK  status: ('A' for Active; 'I' for Inactive)
REMARK    1  A    between atoms: C4_4  and  C7_7 
REMARK    2  A    between atoms: C7_7  and  C8_8 
ROOT
HETATM    1  C1  UNL     1     -34.674   5.636   5.794  1.00 20.00     0.002 C 
HETATM    2  C2  UNL     1     -33.519   6.580   5.446  1.00 20.00     0.006 C 
HETATM    3  C3  UNL     1     -35.381   5.319   4.474  1.00 20.00     0.020 C 
HETATM    4  C4  UNL     1     -33.672   6.881   3.951  1.00 20.00     0.004 C 
HETATM    5  C5  UNL     1     -34.353   5.628   3.389  1.00 20.00     0.086 C 
HETATM    6 CL9  UNL     1     -33.239   4.245   3.190  1.00 20.00    -0.125 Cl
ENDROOT
BRANCH   4   7
HETATM    7  C7  UNL     1     -32.371   7.296   3.283  1.00 20.00     0.005 C 
BRANCH   7   8
HETATM    8  C8  UNL     1     -32.486   7.254   1.761  1.00 20.00    -0.004 C 
HETATM    9  C6  UNL     1     -32.773   8.630   1.186  1.00 20.00     0.005 C 
ENDBRANCH   7   8
ENDBRANCH   4   7
TORSDOF 2
ENDMDL
MODEL 2
REMARK VINA RESULT:      -4.1     11.416     12.296
REMARK  2 active torsions:
REMARK  status: ('A' for Active; 'I' for Inactive)
REMARK    1  A    between atoms: C4_4  and  C7_7 
REMARK    2  A    between atoms: C7_7  and  C8_8 
ROOT
HETATM    1  C1  UNL     1     -34.421  17.300  -1.173  1.00 20.00     0.002 C 
HETATM    2  C2  UNL     1     -34.915  16.134  -2.034  1.00 20.00     0.006 C 
HETATM    3  C3  UNL     1     -33.038  17.675  -1.710  1.00 20.00     0.020 C 
HETATM    4  C4  UNL     1     -33.746  15.788  -2.963  1.00 20.00     0.004 C 
HETATM    5  C5  UNL     1     -32.999  17.116  -3.130  1.00 20.00     0.086 C 
HETATM    6 CL9  UNL     1     -33.806  18.246  -4.255  1.00 20.00    -0.125 Cl
ENDROOT
BRANCH   4   7
HETATM    7  C7  UNL     1     -34.179  15.094  -4.245  1.00 20.00     0.005 C 
BRANCH   7   8
HETATM    8  C8  UNL     1     -34.940  13.803  -3.952  1.00 20.00    -0.004 C 
HETATM    9  C6  UNL     1     -36.285  13.776  -4.659  1.00 20.00     0.005 C 
ENDBRANCH   7   8
ENDBRANCH   4   7
TORSDOF 2
ENDMDL
MODEL 3
REMARK VINA RESULT:      -4.0     11.579     12.295
REMARK  2 active torsions:
REMARK  status: ('A' for Active; 'I' for Inactive)
REMARK    1  A    between atoms: C4_4  and  C7_7 
REMARK    2  A    between atoms: C7_7  and  C8_8 
ROOT
HETATM    1  C1  UNL     1     -33.693  14.735  -4.338  1.00 20.00     0.002 C 
HETATM    2  C2  UNL     1     -33.067  15.837  -3.479  1.00 20.00     0.006 C 
HETATM    3  C3  UNL     1     -35.088  14.483  -3.762  1.00 20.00     0.020 C 
HETATM    4  C4  UNL     1     -34.073  16.099  -2.353  1.00 20.00     0.004 C 
HETATM    5  C5  UNL     1     -35.428  15.746  -2.977  1.00 20.00     0.086 C 
HETATM    6 CL9  UNL     1     -36.049  17.006  -4.081  1.00 20.00    -0.125 Cl
ENDROOT
BRANCH   4   7
HETATM    7  C7  UNL     1     -33.953  17.489  -1.748  1.00 20.00     0.005 C 
BRANCH   7   8
HETATM    8  C8  UNL     1     -32.621  18.143  -2.109  1.00 20.00    -0.004 C 
HETATM    9  C6  UNL     1     -31.725  18.290  -0.891  1.00 20.00     0.005 C 
ENDBRANCH   7   8
ENDBRANCH   4   7
TORSDOF 2
ENDMDL
MODEL 4
REMARK VINA RESULT:      -3.9     15.509     16.366
REMARK  2 active torsions:
REMARK  status: ('A' for Active; 'I' for Inactive)
REMARK    1  A    between atoms: C4_4  and  C7_7 
REMARK    2  A    between atoms: C7_7  and  C8_8 
ROOT
HETATM    1  C1  UNL     1     -24.630  15.931  11.252  1.00 20.00     0.002 C 
HETATM    2  C2  UNL     1     -23.827  16.487  10.072  1.00 20.00     0.006 C 
HETATM    3  C3  UNL     1     -24.638  17.027  12.319  1.00 20.00     0.020 C 
HETATM    4  C4  UNL     1     -23.288  17.841  10.545  1.00 20.00     0.004 C 
HETATM    5  C5  UNL     1     -24.328  18.318  11.565  1.00 20.00     0.086 C 
HETATM    6 CL9  UNL     1     -25.816  18.960  10.813  1.00 20.00    -0.125 Cl
ENDROOT
BRANCH   4   7
HETATM    7  C7  UNL     1     -22.976  18.798   9.406  1.00 20.00     0.005 C 
BRANCH   7   8
HETATM    8  C8  UNL     1     -23.419  18.227   8.060  1.00 20.00    -0.004 C 
HETATM    9  C6  UNL     1     -24.506  19.079   7.426  1.00 20.00     0.005 C 
ENDBRANCH   7   8
ENDBRANCH   4   7
TORSDOF 2
ENDMDL
MODEL 5
REMARK VINA RESULT:      -3.9     11.527     12.274
REMARK  2 active torsions:
REMARK  status: ('A' for Active; 'I' for Inactive)
REMARK    1  A    between atoms: C4_4  and  C7_7 
REMARK    2  A    between atoms: C7_7  and  C8_8 
ROOT
HETATM    1  C1  UNL     1     -33.806  16.117  -2.729  1.00 20.00     0.002 C 
HETATM    2  C2  UNL     1     -35.164  15.419  -2.850  1.00 20.00     0.006 C 
HETATM    3  C3  UNL     1     -32.896  15.467  -3.775  1.00 20.00     0.020 C 
HETATM    4  C4  UNL     1     -34.960  14.300  -3.876  1.00 20.00     0.004 C 
HETATM    5  C5  UNL     1     -33.845  14.830  -4.786  1.00 20.00     0.086 C 
HETATM    6 CL9  UNL     1     -34.409  16.057  -5.955  1.00 20.00    -0.125 Cl
ENDROOT
BRANCH   4   7
HETATM    7  C7  UNL     1     -36.245  13.872  -4.567  1.00 20.00     0.005 C 
BRANCH   7   8
HETATM    8  C8  UNL     1     -37.431  14.723  -4.117  1.00 20.00    -0.004 C 
HETATM    9  C6  UNL     1     -37.886  15.668  -5.217  1.00 20.00     0.005 C 
ENDBRANCH   7   8
ENDBRANCH   4   7
TORSDOF 2
ENDMDL
MODEL 6
REMARK VINA RESULT:      -3.9     11.784     12.489
REMARK  2 active torsions:
REMARK  status: ('A' for Active; 'I' for Inactive)
REMARK    1  A    between atoms: C4_4  and  C7_7 
REMARK    2  A    between atoms: C7_7  and  C8_8 
ROOT
HETATM    1  C1  UNL     1     -34.826  16.674  -1.638  1.00 20.00     0.002 C 
HETATM    2  C2  UNL     1     -35.012  15.541  -2.652  1.00 20.00     0.006 C 
HETATM    3  C3  UNL     1     -33.454  17.287  -1.928  1.00 20.00     0.020 C 
HETATM    4  C4  UNL     1     -33.685  15.453  -3.416  1.00 20.00     0.004 C 
HETATM    5  C5  UNL     1     -33.133  16.882  -3.363  1.00 20.00     0.086 C 
HETATM    6 CL9  UNL     1     -33.936  17.995  -4.508  1.00 20.00    -0.125 Cl
ENDROOT
BRANCH   4   7
HETATM    7  C7  UNL     1     -33.825  14.836  -4.798  1.00 20.00     0.005 C 
BRANCH   7   8
HETATM    8  C8  UNL     1     -35.289  14.580  -5.151  1.00 20.00    -0.004 C 
HETATM    9  C6  UNL     1     -35.549  14.790  -6.633  1.00 20.00     0.005 C 
ENDBRANCH   7   8
ENDBRANCH   4   7
TORSDOF 2
ENDMDL
MODEL 7
REMARK VINA RESULT:      -3.9     11.279     12.251
REMARK  2 active torsions:
REMARK  status: ('A' for Active; 'I' for Inactive)
REMARK    1  A    between atoms: C4_4  and  C7_7 
REMARK    2  A    between atoms: C7_7  and  C8_8 
ROOT
HETATM    1  C1  UNL     1     -36.151  13.683  -4.619  1.00 20.00     0.002 C 
HETATM    2  C2  UNL     1     -34.839  13.876  -3.853  1.00 20.00     0.006 C 
HETATM    3  C3  UNL     1     -36.669  15.086  -4.943  1.00 20.00     0.020 C 
HETATM    4  C4  UNL     1     -34.704  15.389  -3.648  1.00 20.00     0.004 C 
HETATM    5  C5  UNL     1     -35.445  15.993  -4.846  1.00 20.00     0.086 C 
HETATM    6 CL9  UNL     1     -34.510  15.924  -6.367  1.00 20.00    -0.125 Cl
ENDROOT
BRANCH   4   7
HETATM    7  C7  UNL     1     -33.267  15.845  -3.447  1.00 20.00     0.005 C 
BRANCH   7   8
HETATM    8  C8  UNL     1     -33.174  16.959  -2.407  1.00 20.00    -0.004 C 
HETATM    9  C6  UNL     1     -34.407  16.995  -1.519  1.00 20.00     0.005 C 
ENDBRANCH   7   8
ENDBRANCH   4   7
TORSDOF 2
ENDMDL
MODEL 8
REMARK VINA RESULT:      -3.8      9.312     10.334
REMARK  2 active torsions:
REMARK  status: ('A' for Active; 'I' for Inactive)
REMARK    1  A    between atoms: C4_4  and  C7_7 
REMARK    2  A    between atoms: C7_7  and  C8_8 
ROOT
HETATM    1  C1  UNL     1     -41.874   8.918   0.160  1.00 20.00     0.002 C 
HETATM    2  C2  UNL     1     -41.143   7.755  -0.519  1.00 20.00     0.006 C 
HETATM    3  C3  UNL     1     -43.365   8.573   0.112  1.00 20.00     0.020 C 
HETATM    4  C4  UNL     1     -42.246   6.834  -1.052  1.00 20.00     0.004 C 
HETATM    5  C5  UNL     1     -43.416   7.061  -0.088  1.00 20.00     0.086 C 
HETATM    6 CL9  UNL     1     -43.216   6.228   1.480  1.00 20.00    -0.125 Cl
ENDROOT
BRANCH   4   7
HETATM    7  C7  UNL     1     -41.793   5.393  -1.232  1.00 20.00     0.005 C 
BRANCH   7   8
HETATM    8  C8  UNL     1     -42.935   4.506  -1.724  1.00 20.00    -0.004 C 
HETATM    9  C6  UNL     1     -42.437   3.443  -2.688  1.00 20.00     0.005 C 
ENDBRANCH   7   8
ENDBRANCH   4   7
TORSDOF 2
ENDMDL
MODEL 9
REMARK VINA RESULT:      -3.7      9.058      9.980
REMARK  2 active torsions:
REMARK  status: ('A' for Active; 'I' for Inactive)
REMARK    1  A    between atoms: C4_4  and  C7_7 
REMARK    2  A    between atoms: C7_7  and  C8_8 
ROOT
HETATM    1  C1  UNL     1     -42.917   6.856   1.277  1.00 20.00     0.002 C 
HETATM    2  C2  UNL     1     -42.716   5.553   0.498  1.00 20.00     0.006 C 
HETATM    3  C3  UNL     1     -41.767   7.780   0.870  1.00 20.00     0.020 C 
HETATM    4  C4  UNL     1     -41.383   5.718  -0.240  1.00 20.00     0.004 C 
HETATM    5  C5  UNL     1     -41.269   7.231  -0.464  1.00 20.00     0.086 C 
HETATM    6 CL9  UNL     1     -42.297   7.830  -1.796  1.00 20.00    -0.125 Cl
ENDROOT
BRANCH   4   7
HETATM    7  C7  UNL     1     -41.267   4.845  -1.479  1.00 20.00     0.005 C 
BRANCH   7   8
HETATM    8  C8  UNL     1     -42.616   4.243  -1.867  1.00 20.00    -0.004 C 
HETATM    9  C6  UNL     1     -42.456   3.135  -2.895  1.00 20.00     0.005 C 
ENDBRANCH   7   8
ENDBRANCH   4   7
TORSDOF 2
ENDMDL
