MODEL 1
REMARK VINA RESULT:      -4.2      0.000      0.000
REMARK  1 active torsions:
REMARK  status: ('A' for Active; 'I' for Inactive)
REMARK    1  A    between atoms: C6_6  and  C8_8 
ROOT
HETATM    1  C1  UNL     1     -21.788  17.404   7.820  1.00 20.00     0.012 C 
HETATM    2  C2  UNL     1     -22.627  17.985   8.453  1.00 20.00    -0.117 C 
HETATM    3  C8  UNL     1     -23.651  18.701   9.225  1.00 20.00     0.099 C 
ENDROOT
BRANCH   3   4
HETATM    4  C6  UNL     1     -24.455  17.741  10.103  1.00 20.00     0.015 C 
HETATM    5  C4  UNL     1     -25.446  18.502  10.993  1.00 20.00     0.007 C 
HETATM    6  C3  UNL     1     -24.740  18.728  12.332  1.00 20.00     0.002 C 
HETATM    7  C5  UNL     1     -23.404  17.992  12.250  1.00 20.00     0.020 C 
HETATM    8  C7  UNL     1     -23.561  16.998  11.103  1.00 20.00     0.087 C 
HETATM    9 CL9  UNL     1     -24.372  15.511  11.687  1.00 20.00    -0.125 Cl
ENDBRANCH   3   4
TORSDOF 1
ENDMDL
MODEL 2
REMARK VINA RESULT:      -4.2      1.910      2.443
REMARK  1 active torsions:
REMARK  status: ('A' for Active; 'I' for Inactive)
REMARK    1  A    between atoms: C6_6  and  C8_8 
ROOT
HETATM    1  C1  UNL     1     -24.869  18.993   7.063  1.00 20.00     0.012 C 
HETATM    2  C2  UNL     1     -24.856  18.948   8.263  1.00 20.00    -0.117 C 
HETATM    3  C8  UNL     1     -24.844  18.897   9.730  1.00 20.00     0.099 C 
ENDROOT
BRANCH   3   4
HETATM    4  C6  UNL     1     -23.628  18.126  10.248  1.00 20.00     0.015 C 
HETATM    5  C4  UNL     1     -23.726  16.636   9.895  1.00 20.00     0.007 C 
HETATM    6  C3  UNL     1     -24.358  15.946  11.106  1.00 20.00     0.002 C 
HETATM    7  C5  UNL     1     -24.504  17.013  12.189  1.00 20.00     0.020 C 
HETATM    8  C7  UNL     1     -23.557  18.136  11.779  1.00 20.00     0.087 C 
HETATM    9 CL9  UNL     1     -21.893  17.768  12.332  1.00 20.00    -0.125 Cl
ENDBRANCH   3   4
TORSDOF 1
ENDMDL
MODEL 3
REMARK VINA RESULT:      -4.1     17.516     18.400
REMARK  1 active torsions:
REMARK  status: ('A' for Active; 'I' for Inactive)
REMARK    1  A    between atoms: C6_6  and  C8_8 
ROOT
HETATM    1  C1  UNL     1     -35.450  17.067  -0.661  1.00 20.00     0.012 C 
HETATM    2  C2  UNL     1     -34.742  16.676  -1.548  1.00 20.00    -0.117 C 
HETATM    3  C8  UNL     1     -33.872  16.203  -2.633  1.00 20.00     0.099 C 
ENDROOT
BRANCH   3   4
HETATM    4  C6  UNL     1     -34.482  14.995  -3.345  1.00 20.00     0.015 C 
HETATM    5  C4  UNL     1     -33.545  14.466  -4.439  1.00 20.00     0.007 C 
HETATM    6  C3  UNL     1     -33.985  15.133  -5.744  1.00 20.00     0.002 C 
HETATM    7  C5  UNL     1     -35.241  15.940  -5.420  1.00 20.00     0.020 C 
HETATM    8  C7  UNL     1     -35.760  15.366  -4.106  1.00 20.00     0.087 C 
HETATM    9 CL9  UNL     1     -36.749  13.906  -4.421  1.00 20.00    -0.125 Cl
ENDBRANCH   3   4
TORSDOF 1
ENDMDL
MODEL 4
REMARK VINA RESULT:      -4.0      1.728      2.456
REMARK  1 active torsions:
REMARK  status: ('A' for Active; 'I' for Inactive)
REMARK    1  A    between atoms: C6_6  and  C8_8 
ROOT
HETATM    1  C1  UNL     1     -24.854  19.040   7.290  1.00 20.00     0.012 C 
HETATM    2  C2  UNL     1     -24.106  18.569   8.103  1.00 20.00    -0.117 C 
HETATM    3  C8  UNL     1     -23.190  17.990   9.093  1.00 20.00     0.099 C 
ENDROOT
BRANCH   3   4
HETATM    4  C6  UNL     1     -23.579  18.398  10.515  1.00 20.00     0.015 C 
HETATM    5  C4  UNL     1     -22.701  17.691  11.555  1.00 20.00     0.007 C 
HETATM    6  C3  UNL     1     -23.464  16.435  11.982  1.00 20.00     0.002 C 
HETATM    7  C5  UNL     1     -24.822  16.491  11.285  1.00 20.00     0.020 C 
HETATM    8  C7  UNL     1     -25.001  17.948  10.868  1.00 20.00     0.087 C 
HETATM    9 CL9  UNL     1     -25.639  18.904  12.242  1.00 20.00    -0.125 Cl
ENDBRANCH   3   4
TORSDOF 1
ENDMDL
MODEL 5
REMARK VINA RESULT:      -4.0     16.173     16.748
REMARK  1 active torsions:
REMARK  status: ('A' for Active; 'I' for Inactive)
REMARK    1  A    between atoms: C6_6  and  C8_8 
ROOT
HETATM    1  C1  UNL     1     -32.380   7.649   1.316  1.00 20.00     0.012 C 
HETATM    2  C2  UNL     1     -32.474   7.301   2.462  1.00 20.00    -0.117 C 
HETATM    3  C8  UNL     1     -32.582   6.875   3.862  1.00 20.00     0.099 C 
ENDROOT
BRANCH   3   4
HETATM    4  C6  UNL     1     -34.045   6.772   4.299  1.00 20.00     0.015 C 
HETATM    5  C4  UNL     1     -34.159   6.625   5.821  1.00 20.00     0.007 C 
HETATM    6  C3  UNL     1     -34.237   5.122   6.106  1.00 20.00     0.002 C 
HETATM    7  C5  UNL     1     -34.291   4.424   4.748  1.00 20.00     0.020 C 
HETATM    8  C7  UNL     1     -34.713   5.504   3.756  1.00 20.00     0.087 C 
HETATM    9 CL9  UNL     1     -36.496   5.681   3.765  1.00 20.00    -0.125 Cl
ENDBRANCH   3   4
TORSDOF 1
ENDMDL
MODEL 6
REMARK VINA RESULT:      -3.8     17.301     18.095
REMARK  1 active torsions:
REMARK  status: ('A' for Active; 'I' for Inactive)
REMARK    1  A    between atoms: C6_6  and  C8_8 
ROOT
HETATM    1  C1  UNL     1     -32.649  17.771  -1.899  1.00 20.00     0.012 C 
HETATM    2  C2  UNL     1     -33.655  17.116  -1.938  1.00 20.00    -0.117 C 
HETATM    3  C8  UNL     1     -34.886  16.318  -1.981  1.00 20.00     0.099 C 
ENDROOT
BRANCH   3   4
HETATM    4  C6  UNL     1     -34.785  15.198  -3.019  1.00 20.00     0.015 C 
HETATM    5  C4  UNL     1     -33.720  15.517  -4.076  1.00 20.00     0.007 C 
HETATM    6  C3  UNL     1     -34.455  16.182  -5.243  1.00 20.00     0.002 C 
HETATM    7  C5  UNL     1     -35.944  16.130  -4.906  1.00 20.00     0.020 C 
HETATM    8  C7  UNL     1     -36.077  15.056  -3.831  1.00 20.00     0.087 C 
HETATM    9 CL9  UNL     1     -36.166  13.435  -4.590  1.00 20.00    -0.125 Cl
ENDBRANCH   3   4
TORSDOF 1
ENDMDL
MODEL 7
REMARK VINA RESULT:      -3.8     23.195     24.000
REMARK  1 active torsions:
REMARK  status: ('A' for Active; 'I' for Inactive)
REMARK    1  A    between atoms: C6_6  and  C8_8 
ROOT
HETATM    1  C1  UNL     1     -40.953   9.883   0.369  1.00 20.00     0.012 C 
HETATM    2  C2  UNL     1     -41.882   9.125   0.302  1.00 20.00    -0.117 C 
HETATM    3  C8  UNL     1     -43.020   8.202   0.220  1.00 20.00     0.099 C 
ENDROOT
BRANCH   3   4
HETATM    4  C6  UNL     1     -42.634   6.800   0.693  1.00 20.00     0.015 C 
HETATM    5  C4  UNL     1     -41.169   6.488   0.361  1.00 20.00     0.007 C 
HETATM    6  C3  UNL     1     -41.177   5.753  -0.981  1.00 20.00     0.002 C 
HETATM    7  C5  UNL     1     -42.644   5.537  -1.351  1.00 20.00     0.020 C 
HETATM    8  C7  UNL     1     -43.417   5.712  -0.049  1.00 20.00     0.087 C 
HETATM    9 CL9  UNL     1     -43.402   4.182   0.884  1.00 20.00    -0.125 Cl
ENDBRANCH   3   4
TORSDOF 1
ENDMDL
MODEL 8
REMARK VINA RESULT:      -3.8      1.549      3.537
REMARK  1 active torsions:
REMARK  status: ('A' for Active; 'I' for Inactive)
REMARK    1  A    between atoms: C6_6  and  C8_8 
ROOT
HETATM    1  C1  UNL     1     -26.952  19.262  11.566  1.00 20.00     0.012 C 
HETATM    2  C2  UNL     1     -26.134  19.171  10.691  1.00 20.00    -0.117 C 
HETATM    3  C8  UNL     1     -25.139  19.060   9.618  1.00 20.00     0.099 C 
ENDROOT
BRANCH   3   4
HETATM    4  C6  UNL     1     -23.742  18.796  10.183  1.00 20.00     0.015 C 
HETATM    5  C4  UNL     1     -22.760  18.401   9.072  1.00 20.00     0.007 C 
HETATM    6  C3  UNL     1     -22.750  16.871   9.028  1.00 20.00     0.002 C 
HETATM    7  C5  UNL     1     -23.624  16.396  10.188  1.00 20.00     0.020 C 
HETATM    8  C7  UNL     1     -23.727  17.592  11.130  1.00 20.00     0.087 C 
HETATM    9 CL9  UNL     1     -22.294  17.654  12.203  1.00 20.00    -0.125 Cl
ENDBRANCH   3   4
TORSDOF 1
ENDMDL
MODEL 9
REMARK VINA RESULT:      -3.8     17.260     18.010
REMARK  1 active torsions:
REMARK  status: ('A' for Active; 'I' for Inactive)
REMARK    1  A    between atoms: C6_6  and  C8_8 
ROOT
HETATM    1  C1  UNL     1     -32.710  17.774  -1.680  1.00 20.00     0.012 C 
HETATM    2  C2  UNL     1     -33.679  17.080  -1.824  1.00 20.00    -0.117 C 
HETATM    3  C8  UNL     1     -34.863  16.230  -1.995  1.00 20.00     0.099 C 
ENDROOT
BRANCH   3   4
HETATM    4  C6  UNL     1     -35.283  16.152  -3.464  1.00 20.00     0.015 C 
HETATM    5  C4  UNL     1     -36.189  14.941  -3.718  1.00 20.00     0.007 C 
HETATM    6  C3  UNL     1     -35.274  13.807  -4.187  1.00 20.00     0.002 C 
HETATM    7  C5  UNL     1     -33.874  14.403  -4.319  1.00 20.00     0.020 C 
HETATM    8  C7  UNL     1     -34.083  15.912  -4.388  1.00 20.00     0.087 C 
HETATM    9 CL9  UNL     1     -34.476  16.401  -6.066  1.00 20.00    -0.125 Cl
ENDBRANCH   3   4
TORSDOF 1
ENDMDL
