MODEL 1
REMARK VINA RESULT:      -5.1      0.000      0.000
REMARK  3 active torsions:
REMARK  status: ('A' for Active; 'I' for Inactive)
REMARK    1  A    between atoms: C4_4  and  C5_5 
REMARK    2  A    between atoms: C5_5  and  C6_6 
REMARK    3  A    between atoms: C6_6  and  C7_7 
ROOT
HETATM    1  C2  UNL     1     -33.251   5.100   2.261  1.00 20.00     0.011 C 
HETATM    2  C6  UNL     1     -32.991   6.133   3.365  1.00 20.00    -0.001 C 
ENDROOT
BRANCH   2   3
HETATM    3  C5  UNL     1     -32.515   7.484   2.782  1.00 20.00     0.005 C 
BRANCH   3   4
HETATM    4  C4  UNL     1     -32.483   7.577   1.251  1.00 20.00    -0.004 C 
HETATM    5  C1  UNL     1     -32.898   8.936   0.712  1.00 20.00     0.005 C 
ENDBRANCH   3   4
ENDBRANCH   2   3
BRANCH   2   6
HETATM    6  C7  UNL     1     -34.231   6.272   4.292  1.00 20.00     0.082 C 
HETATM    7  C3  UNL     1     -35.002   4.968   4.472  1.00 20.00     0.027 C 
HETATM    8 CL8  UNL     1     -33.805   6.923   5.906  1.00 20.00    -0.125 Cl
ENDBRANCH   2   6
TORSDOF 3
ENDMDL
MODEL 2
REMARK VINA RESULT:      -4.8      1.134      1.819
REMARK  3 active torsions:
REMARK  status: ('A' for Active; 'I' for Inactive)
REMARK    1  A    between atoms: C4_4  and  C5_5 
REMARK    2  A    between atoms: C5_5  and  C6_6 
REMARK    3  A    between atoms: C6_6  and  C7_7 
ROOT
HETATM    1  C2  UNL     1     -33.306   7.210   5.228  1.00 20.00     0.011 C 
HETATM    2  C6  UNL     1     -34.010   6.572   4.023  1.00 20.00    -0.001 C 
ENDROOT
BRANCH   2   3
HETATM    3  C5  UNL     1     -33.027   6.313   2.857  1.00 20.00     0.005 C 
BRANCH   3   4
HETATM    4  C4  UNL     1     -32.187   7.517   2.413  1.00 20.00    -0.004 C 
HETATM    5  C1  UNL     1     -32.681   8.168   1.131  1.00 20.00     0.005 C 
ENDBRANCH   3   4
ENDBRANCH   2   3
BRANCH   2   6
HETATM    6  C7  UNL     1     -34.795   5.302   4.453  1.00 20.00     0.082 C 
HETATM    7  C3  UNL     1     -34.235   4.013   3.860  1.00 20.00     0.027 C 
HETATM    8 CL8  UNL     1     -34.890   5.130   6.234  1.00 20.00    -0.125 Cl
ENDBRANCH   2   6
TORSDOF 3
ENDMDL
MODEL 3
REMARK VINA RESULT:      -4.7      1.384      3.894
REMARK  3 active torsions:
REMARK  status: ('A' for Active; 'I' for Inactive)
REMARK    1  A    between atoms: C4_4  and  C5_5 
REMARK    2  A    between atoms: C5_5  and  C6_6 
REMARK    3  A    between atoms: C6_6  and  C7_7 
ROOT
HETATM    1  C2  UNL     1     -33.168   4.646   2.498  1.00 20.00     0.011 C 
HETATM    2  C6  UNL     1     -33.520   6.131   2.658  1.00 20.00    -0.001 C 
ENDROOT
BRANCH   2   3
HETATM    3  C5  UNL     1     -34.105   6.431   4.058  1.00 20.00     0.005 C 
BRANCH   3   4
HETATM    4  C4  UNL     1     -35.001   5.338   4.655  1.00 20.00    -0.004 C 
HETATM    5  C1  UNL     1     -34.760   5.091   6.135  1.00 20.00     0.005 C 
ENDBRANCH   3   4
ENDBRANCH   2   3
BRANCH   2   6
HETATM    6  C7  UNL     1     -32.301   7.027   2.302  1.00 20.00     0.082 C 
HETATM    7  C3  UNL     1     -32.624   8.109   1.277  1.00 20.00     0.027 C 
HETATM    8 CL8  UNL     1     -31.575   7.795   3.749  1.00 20.00    -0.125 Cl
ENDBRANCH   2   6
TORSDOF 3
ENDMDL
MODEL 4
REMARK VINA RESULT:      -3.9      1.760      2.117
REMARK  3 active torsions:
REMARK  status: ('A' for Active; 'I' for Inactive)
REMARK    1  A    between atoms: C4_4  and  C5_5 
REMARK    2  A    between atoms: C5_5  and  C6_6 
REMARK    3  A    between atoms: C6_6  and  C7_7 
ROOT
HETATM    1  C2  UNL     1     -33.305   7.409   5.221  1.00 20.00     0.011 C 
HETATM    2  C6  UNL     1     -33.460   6.834   3.806  1.00 20.00    -0.001 C 
ENDROOT
BRANCH   2   3
HETATM    3  C5  UNL     1     -32.242   7.171   2.915  1.00 20.00     0.005 C 
BRANCH   3   4
HETATM    4  C4  UNL     1     -32.556   7.481   1.446  1.00 20.00    -0.004 C 
HETATM    5  C1  UNL     1     -32.867   8.946   1.184  1.00 20.00     0.005 C 
ENDBRANCH   3   4
ENDBRANCH   2   3
BRANCH   2   6
HETATM    6  C7  UNL     1     -33.772   5.312   3.862  1.00 20.00     0.082 C 
HETATM    7  C3  UNL     1     -35.213   5.003   4.258  1.00 20.00     0.027 C 
HETATM    8 CL8  UNL     1     -33.403   4.484   2.317  1.00 20.00    -0.125 Cl
ENDBRANCH   2   6
TORSDOF 3
ENDMDL
MODEL 5
REMARK VINA RESULT:      -3.7     15.847     16.875
REMARK  3 active torsions:
REMARK  status: ('A' for Active; 'I' for Inactive)
REMARK    1  A    between atoms: C4_4  and  C5_5 
REMARK    2  A    between atoms: C5_5  and  C6_6 
REMARK    3  A    between atoms: C6_6  and  C7_7 
ROOT
HETATM    1  C2  UNL     1     -24.734  15.760  11.840  1.00 20.00     0.011 C 
HETATM    2  C6  UNL     1     -24.491  17.178  11.307  1.00 20.00    -0.001 C 
ENDROOT
BRANCH   2   3
HETATM    3  C5  UNL     1     -24.916  18.255  12.332  1.00 20.00     0.005 C 
BRANCH   3   4
HETATM    4  C4  UNL     1     -26.094  19.145  11.915  1.00 20.00    -0.004 C 
HETATM    5  C1  UNL     1     -27.437  18.431  11.941  1.00 20.00     0.005 C 
ENDBRANCH   3   4
ENDBRANCH   2   3
BRANCH   2   6
HETATM    6  C7  UNL     1     -23.023  17.340  10.825  1.00 20.00     0.082 C 
HETATM    7  C3  UNL     1     -22.858  18.382   9.722  1.00 20.00     0.027 C 
HETATM    8 CL8  UNL     1     -21.905  17.734  12.168  1.00 20.00    -0.125 Cl
ENDBRANCH   2   6
TORSDOF 3
ENDMDL
MODEL 6
REMARK VINA RESULT:      -3.6     10.940     11.483
REMARK  3 active torsions:
REMARK  status: ('A' for Active; 'I' for Inactive)
REMARK    1  A    between atoms: C4_4  and  C5_5 
REMARK    2  A    between atoms: C5_5  and  C6_6 
REMARK    3  A    between atoms: C6_6  and  C7_7 
ROOT
HETATM    1  C2  UNL     1     -33.338  14.453  -4.481  1.00 20.00     0.011 C 
HETATM    2  C6  UNL     1     -34.664  14.300  -3.724  1.00 20.00    -0.001 C 
ENDROOT
BRANCH   2   3
HETATM    3  C5  UNL     1     -34.941  15.514  -2.806  1.00 20.00     0.005 C 
BRANCH   3   4
HETATM    4  C4  UNL     1     -33.745  16.438  -2.544  1.00 20.00    -0.004 C 
HETATM    5  C1  UNL     1     -33.974  17.426  -1.411  1.00 20.00     0.005 C 
ENDBRANCH   3   4
ENDBRANCH   2   3
BRANCH   2   6
HETATM    6  C7  UNL     1     -35.829  14.002  -4.709  1.00 20.00     0.082 C 
HETATM    7  C3  UNL     1     -37.171  14.563  -4.248  1.00 20.00     0.027 C 
HETATM    8 CL8  UNL     1     -35.488  14.594  -6.365  1.00 20.00    -0.125 Cl
ENDBRANCH   2   6
TORSDOF 3
ENDMDL
MODEL 7
REMARK VINA RESULT:      -3.6      1.889      4.130
REMARK  3 active torsions:
REMARK  status: ('A' for Active; 'I' for Inactive)
REMARK    1  A    between atoms: C4_4  and  C5_5 
REMARK    2  A    between atoms: C5_5  and  C6_6 
REMARK    3  A    between atoms: C6_6  and  C7_7 
ROOT
HETATM    1  C2  UNL     1     -31.775   7.956   4.142  1.00 20.00     0.011 C 
HETATM    2  C6  UNL     1     -32.815   6.828   4.124  1.00 20.00    -0.001 C 
ENDROOT
BRANCH   2   3
HETATM    3  C5  UNL     1     -34.005   7.132   5.064  1.00 20.00     0.005 C 
BRANCH   3   4
HETATM    4  C4  UNL     1     -34.393   6.010   6.034  1.00 20.00    -0.004 C 
HETATM    5  C1  UNL     1     -34.929   4.764   5.346  1.00 20.00     0.005 C 
ENDBRANCH   3   4
ENDBRANCH   2   3
BRANCH   2   6
HETATM    6  C7  UNL     1     -33.254   6.508   2.668  1.00 20.00     0.082 C 
HETATM    7  C3  UNL     1     -32.524   7.339   1.618  1.00 20.00     0.027 C 
HETATM    8 CL8  UNL     1     -33.068   4.771   2.267  1.00 20.00    -0.125 Cl
ENDBRANCH   2   6
TORSDOF 3
ENDMDL
MODEL 8
REMARK VINA RESULT:      -3.5     15.356     16.062
REMARK  3 active torsions:
REMARK  status: ('A' for Active; 'I' for Inactive)
REMARK    1  A    between atoms: C4_4  and  C5_5 
REMARK    2  A    between atoms: C5_5  and  C6_6 
REMARK    3  A    between atoms: C6_6  and  C7_7 
ROOT
HETATM    1  C2  UNL     1     -22.981  17.013   9.463  1.00 20.00     0.011 C 
HETATM    2  C6  UNL     1     -23.660  18.150  10.239  1.00 20.00    -0.001 C 
ENDROOT
BRANCH   2   3
HETATM    3  C5  UNL     1     -24.703  18.891   9.371  1.00 20.00     0.005 C 
BRANCH   3   4
HETATM    4  C4  UNL     1     -24.293  19.156   7.916  1.00 20.00    -0.004 C 
HETATM    5  C1  UNL     1     -25.464  19.189   6.947  1.00 20.00     0.005 C 
ENDBRANCH   3   4
ENDBRANCH   2   3
BRANCH   2   6
HETATM    6  C7  UNL     1     -24.244  17.628  11.581  1.00 20.00     0.082 C 
HETATM    7  C3  UNL     1     -25.461  18.414  12.059  1.00 20.00     0.027 C 
HETATM    8 CL8  UNL     1     -24.667  15.888  11.509  1.00 20.00    -0.125 Cl
ENDBRANCH   2   6
TORSDOF 3
ENDMDL
MODEL 9
REMARK VINA RESULT:      -3.5     11.006     11.649
REMARK  3 active torsions:
REMARK  status: ('A' for Active; 'I' for Inactive)
REMARK    1  A    between atoms: C4_4  and  C5_5 
REMARK    2  A    between atoms: C5_5  and  C6_6 
REMARK    3  A    between atoms: C6_6  and  C7_7 
ROOT
HETATM    1  C2  UNL     1     -35.148  16.381  -1.554  1.00 20.00     0.011 C 
HETATM    2  C6  UNL     1     -34.881  15.484  -2.770  1.00 20.00    -0.001 C 
ENDROOT
BRANCH   2   3
HETATM    3  C5  UNL     1     -36.160  15.268  -3.613  1.00 20.00     0.005 C 
BRANCH   3   4
HETATM    4  C4  UNL     1     -36.169  14.018  -4.503  1.00 20.00    -0.004 C 
HETATM    5  C1  UNL     1     -35.896  14.311  -5.970  1.00 20.00     0.005 C 
ENDBRANCH   3   4
ENDBRANCH   2   3
BRANCH   2   6
HETATM    6  C7  UNL     1     -33.686  16.026  -3.602  1.00 20.00     0.082 C 
HETATM    7  C3  UNL     1     -32.820  17.024  -2.841  1.00 20.00     0.027 C 
HETATM    8 CL8  UNL     1     -32.643  14.712  -4.231  1.00 20.00    -0.125 Cl
ENDBRANCH   2   6
TORSDOF 3
ENDMDL
