MODEL 1
REMARK VINA RESULT:      -4.6      0.000      0.000
REMARK  1 active torsions:
REMARK  status: ('A' for Active; 'I' for Inactive)
REMARK    1  A    between atoms: C6_6  and  C8_8 
ROOT
HETATM    1  C1  UNL     1     -32.480   7.673   1.247  1.00 20.00     0.012 C 
HETATM    2  C2  UNL     1     -32.484   7.687   2.448  1.00 20.00    -0.117 C 
HETATM    3  C8  UNL     1     -32.486   7.712   3.915  1.00 20.00     0.098 C 
ENDROOT
BRANCH   3   4
HETATM    4  C6  UNL     1     -33.107   6.445   4.486  1.00 20.00     0.011 C 
HETATM    5  C4  UNL     1     -33.850   6.698   5.798  1.00 20.00     0.007 C 
HETATM    6  C3  UNL     1     -34.793   5.510   5.888  1.00 20.00     0.002 C 
HETATM    7  C5  UNL     1     -35.319   5.370   4.464  1.00 20.00     0.016 C 
HETATM    8  C7  UNL     1     -34.170   5.830   3.563  1.00 20.00     0.062 C 
HETATM    9 BR9  UNL     1     -33.420   4.312   2.592  1.00 20.00    -0.091 Br
ENDBRANCH   3   4
TORSDOF 1
ENDMDL
MODEL 2
REMARK VINA RESULT:      -4.4     11.496     12.460
REMARK  1 active torsions:
REMARK  status: ('A' for Active; 'I' for Inactive)
REMARK    1  A    between atoms: C6_6  and  C8_8 
ROOT
HETATM    1  C1  UNL     1     -34.235  16.846  -1.916  1.00 20.00     0.012 C 
HETATM    2  C2  UNL     1     -33.685  16.205  -2.769  1.00 20.00    -0.117 C 
HETATM    3  C8  UNL     1     -33.006  15.425  -3.810  1.00 20.00     0.098 C 
ENDROOT
BRANCH   3   4
HETATM    4  C6  UNL     1     -34.006  14.647  -4.654  1.00 20.00     0.011 C 
HETATM    5  C4  UNL     1     -35.071  13.950  -3.805  1.00 20.00     0.007 C 
HETATM    6  C3  UNL     1     -36.199  13.724  -4.797  1.00 20.00     0.002 C 
HETATM    7  C5  UNL     1     -36.255  15.034  -5.573  1.00 20.00     0.016 C 
HETATM    8  C7  UNL     1     -34.812  15.544  -5.606  1.00 20.00     0.062 C 
HETATM    9 BR9  UNL     1     -34.090  15.419  -7.416  1.00 20.00    -0.091 Br
ENDBRANCH   3   4
TORSDOF 1
ENDMDL
MODEL 3
REMARK VINA RESULT:      -4.3     15.316     16.685
REMARK  1 active torsions:
REMARK  status: ('A' for Active; 'I' for Inactive)
REMARK    1  A    between atoms: C6_6  and  C8_8 
ROOT
HETATM    1  C1  UNL     1     -24.622  15.584  11.639  1.00 20.00     0.012 C 
HETATM    2  C2  UNL     1     -24.624  16.754  11.367  1.00 20.00    -0.117 C 
HETATM    3  C8  UNL     1     -24.633  18.184  11.041  1.00 20.00     0.098 C 
ENDROOT
BRANCH   3   4
HETATM    4  C6  UNL     1     -23.545  18.524  10.031  1.00 20.00     0.011 C 
HETATM    5  C4  UNL     1     -22.163  18.041  10.477  1.00 20.00     0.007 C 
HETATM    6  C3  UNL     1     -21.388  17.986   9.171  1.00 20.00     0.002 C 
HETATM    7  C5  UNL     1     -22.384  17.370   8.196  1.00 20.00     0.016 C 
HETATM    8  C7  UNL     1     -23.759  17.848   8.669  1.00 20.00     0.062 C 
HETATM    9 BR9  UNL     1     -24.507  19.126   7.397  1.00 20.00    -0.091 Br
ENDBRANCH   3   4
TORSDOF 1
ENDMDL
MODEL 4
REMARK VINA RESULT:      -4.2     15.905     16.761
REMARK  1 active torsions:
REMARK  status: ('A' for Active; 'I' for Inactive)
REMARK    1  A    between atoms: C6_6  and  C8_8 
ROOT
HETATM    1  C1  UNL     1     -27.618  18.550  11.980  1.00 20.00     0.012 C 
HETATM    2  C2  UNL     1     -26.577  17.971  12.136  1.00 20.00    -0.117 C 
HETATM    3  C8  UNL     1     -25.311  17.257  12.332  1.00 20.00     0.098 C 
ENDROOT
BRANCH   3   4
HETATM    4  C6  UNL     1     -24.178  17.929  11.568  1.00 20.00     0.011 C 
HETATM    5  C4  UNL     1     -22.799  17.515  12.085  1.00 20.00     0.007 C 
HETATM    6  C3  UNL     1     -21.888  17.833  10.911  1.00 20.00     0.002 C 
HETATM    7  C5  UNL     1     -22.682  17.341   9.706  1.00 20.00     0.016 C 
HETATM    8  C7  UNL     1     -24.151  17.549  10.080  1.00 20.00     0.062 C 
HETATM    9 BR9  UNL     1     -24.927  18.984   9.007  1.00 20.00    -0.091 Br
ENDBRANCH   3   4
TORSDOF 1
ENDMDL
MODEL 5
REMARK VINA RESULT:      -4.2     11.821     12.437
REMARK  1 active torsions:
REMARK  status: ('A' for Active; 'I' for Inactive)
REMARK    1  A    between atoms: C6_6  and  C8_8 
ROOT
HETATM    1  C1  UNL     1     -35.539  13.795  -4.206  1.00 20.00     0.012 C 
HETATM    2  C2  UNL     1     -34.654  14.545  -3.894  1.00 20.00    -0.117 C 
HETATM    3  C8  UNL     1     -33.568  15.456  -3.516  1.00 20.00     0.098 C 
ENDROOT
BRANCH   3   4
HETATM    4  C6  UNL     1     -34.104  16.674  -2.777  1.00 20.00     0.011 C 
HETATM    5  C4  UNL     1     -35.012  16.294  -1.606  1.00 20.00     0.007 C 
HETATM    6  C3  UNL     1     -34.979  17.539  -0.735  1.00 20.00     0.002 C 
HETATM    7  C5  UNL     1     -33.510  17.944  -0.756  1.00 20.00     0.016 C 
HETATM    8  C7  UNL     1     -32.995  17.520  -2.133  1.00 20.00     0.062 C 
HETATM    9 BR9  UNL     1     -32.628  19.091  -3.233  1.00 20.00    -0.091 Br
ENDBRANCH   3   4
TORSDOF 1
ENDMDL
MODEL 6
REMARK VINA RESULT:      -4.1     15.957     16.661
REMARK  1 active torsions:
REMARK  status: ('A' for Active; 'I' for Inactive)
REMARK    1  A    between atoms: C6_6  and  C8_8 
ROOT
HETATM    1  C1  UNL     1     -26.592  19.263  11.645  1.00 20.00     0.012 C 
HETATM    2  C2  UNL     1     -26.056  19.238  10.571  1.00 20.00    -0.117 C 
HETATM    3  C8  UNL     1     -25.406  19.214   9.256  1.00 20.00     0.098 C 
ENDROOT
BRANCH   3   4
HETATM    4  C6  UNL     1     -24.358  18.112   9.181  1.00 20.00     0.011 C 
HETATM    5  C4  UNL     1     -23.230  18.444   8.202  1.00 20.00     0.007 C 
HETATM    6  C3  UNL     1     -22.100  17.543   8.670  1.00 20.00     0.002 C 
HETATM    7  C5  UNL     1     -22.160  17.663  10.188  1.00 20.00     0.016 C 
HETATM    8  C7  UNL     1     -23.639  17.877  10.517  1.00 20.00     0.062 C 
HETATM    9 BR9  UNL     1     -24.371  16.299  11.404  1.00 20.00    -0.091 Br
ENDBRANCH   3   4
TORSDOF 1
ENDMDL
MODEL 7
REMARK VINA RESULT:      -4.1     11.776     12.490
REMARK  1 active torsions:
REMARK  status: ('A' for Active; 'I' for Inactive)
REMARK    1  A    between atoms: C6_6  and  C8_8 
ROOT
HETATM    1  C1  UNL     1     -38.898  15.029  -4.262  1.00 20.00     0.012 C 
HETATM    2  C2  UNL     1     -37.802  14.540  -4.294  1.00 20.00    -0.117 C 
HETATM    3  C8  UNL     1     -36.466  13.935  -4.333  1.00 20.00     0.098 C 
ENDROOT
BRANCH   3   4
HETATM    4  C6  UNL     1     -35.379  15.002  -4.331  1.00 20.00     0.011 C 
HETATM    5  C4  UNL     1     -34.929  15.375  -2.918  1.00 20.00     0.007 C 
HETATM    6  C3  UNL     1     -33.557  15.986  -3.150  1.00 20.00     0.002 C 
HETATM    7  C5  UNL     1     -32.925  15.053  -4.176  1.00 20.00     0.016 C 
HETATM    8  C7  UNL     1     -34.089  14.543  -5.028  1.00 20.00     0.062 C 
HETATM    9 BR9  UNL     1     -33.994  15.297  -6.826  1.00 20.00    -0.091 Br
ENDBRANCH   3   4
TORSDOF 1
ENDMDL
MODEL 8
REMARK VINA RESULT:      -4.1     11.422     12.100
REMARK  1 active torsions:
REMARK  status: ('A' for Active; 'I' for Inactive)
REMARK    1  A    between atoms: C6_6  and  C8_8 
ROOT
HETATM    1  C1  UNL     1     -33.397  18.441  -0.667  1.00 20.00     0.012 C 
HETATM    2  C2  UNL     1     -34.180  17.607  -1.034  1.00 20.00    -0.117 C 
HETATM    3  C8  UNL     1     -35.139  16.589  -1.475  1.00 20.00     0.098 C 
ENDROOT
BRANCH   3   4
HETATM    4  C6  UNL     1     -34.850  16.141  -2.901  1.00 20.00     0.011 C 
HETATM    5  C4  UNL     1     -33.364  15.866  -3.137  1.00 20.00     0.007 C 
HETATM    6  C3  UNL     1     -33.378  14.962  -4.358  1.00 20.00     0.002 C 
HETATM    7  C5  UNL     1     -34.528  14.004  -4.074  1.00 20.00     0.016 C 
HETATM    8  C7  UNL     1     -35.540  14.818  -3.265  1.00 20.00     0.062 C 
HETATM    9 BR9  UNL     1     -37.138  15.168  -4.332  1.00 20.00    -0.091 Br
ENDBRANCH   3   4
TORSDOF 1
ENDMDL
MODEL 9
REMARK VINA RESULT:      -4.1     11.561     12.278
REMARK  1 active torsions:
REMARK  status: ('A' for Active; 'I' for Inactive)
REMARK    1  A    between atoms: C6_6  and  C8_8 
ROOT
HETATM    1  C1  UNL     1     -35.445  17.091  -0.775  1.00 20.00     0.012 C 
HETATM    2  C2  UNL     1     -34.771  16.590  -1.634  1.00 20.00    -0.117 C 
HETATM    3  C8  UNL     1     -33.941  15.981  -2.679  1.00 20.00     0.098 C 
ENDROOT
BRANCH   3   4
HETATM    4  C6  UNL     1     -34.796  15.459  -3.826  1.00 20.00     0.011 C 
HETATM    5  C4  UNL     1     -34.863  13.931  -3.856  1.00 20.00     0.007 C 
HETATM    6  C3  UNL     1     -36.121  13.665  -4.665  1.00 20.00     0.002 C 
HETATM    7  C5  UNL     1     -37.112  14.688  -4.123  1.00 20.00     0.016 C 
HETATM    8  C7  UNL     1     -36.264  15.899  -3.727  1.00 20.00     0.062 C 
HETATM    9 BR9  UNL     1     -36.600  17.389  -4.942  1.00 20.00    -0.091 Br
ENDBRANCH   3   4
TORSDOF 1
ENDMDL
