MODEL 1
REMARK VINA RESULT:      -4.3      0.000      0.000
REMARK  1 active torsions:
REMARK  status: ('A' for Active; 'I' for Inactive)
REMARK    1  A    between atoms: C4_4  and  C9_9 
ROOT
HETATM    1  C1  UNL     1     -23.530  18.158  12.322  1.00 20.00     0.006 C 
HETATM    2  C2  UNL     1     -22.857  17.392  11.186  1.00 20.00     0.021 C 
HETATM    3  C3  UNL     1     -25.302  18.978  10.724  1.00 20.00     0.010 C 
HETATM    4  C4  UNL     1     -25.035  18.353  12.101  1.00 20.00    -0.014 C 
HETATM    5  C5  UNL     1     -24.638  18.218   9.561  1.00 20.00     0.000 C 
HETATM    6  C6  UNL     1     -23.129  18.040   9.827  1.00 20.00     0.086 C 
HETATM    7  C7  UNL     1     -24.914  18.965   8.250  1.00 20.00     0.011 C 
HETATM    8 CL10 UNL     1     -22.357  17.041   8.555  1.00 20.00    -0.125 Cl
ENDROOT
BRANCH   4   9
HETATM    9  C9  UNL     1     -25.813  17.049  12.293  1.00 20.00     0.000 C 
HETATM   10  C8  UNL     1     -27.286  17.287  12.331  1.00 20.00     0.005 C 
ENDBRANCH   4   9
TORSDOF 1
ENDMDL
MODEL 2
REMARK VINA RESULT:      -4.3     15.267     16.389
REMARK  1 active torsions:
REMARK  status: ('A' for Active; 'I' for Inactive)
REMARK    1  A    between atoms: C4_4  and  C9_9 
ROOT
HETATM    1  C1  UNL     1     -31.661   7.579   3.378  1.00 20.00     0.006 C 
HETATM    2  C2  UNL     1     -32.567   7.782   4.589  1.00 20.00     0.021 C 
HETATM    3  C3  UNL     1     -33.156   5.715   2.567  1.00 20.00     0.010 C 
HETATM    4  C4  UNL     1     -32.402   6.992   2.170  1.00 20.00    -0.014 C 
HETATM    5  C5  UNL     1     -34.082   5.897   3.784  1.00 20.00     0.000 C 
HETATM    6  C6  UNL     1     -33.299   6.493   4.971  1.00 20.00     0.086 C 
HETATM    7  C7  UNL     1     -34.727   4.549   4.130  1.00 20.00     0.011 C 
HETATM    8 CL10 UNL     1     -34.381   6.842   6.356  1.00 20.00    -0.125 Cl
ENDROOT
BRANCH   4   9
HETATM    9  C9  UNL     1     -33.329   8.019   1.517  1.00 20.00     0.000 C 
HETATM   10  C8  UNL     1     -32.697   8.649   0.319  1.00 20.00     0.005 C 
ENDBRANCH   4   9
TORSDOF 1
ENDMDL
MODEL 3
REMARK VINA RESULT:      -4.0     16.182     18.152
REMARK  1 active torsions:
REMARK  status: ('A' for Active; 'I' for Inactive)
REMARK    1  A    between atoms: C4_4  and  C9_9 
ROOT
HETATM    1  C1  UNL     1     -35.125  15.896  -2.399  1.00 20.00     0.006 C 
HETATM    2  C2  UNL     1     -36.029  16.481  -3.480  1.00 20.00     0.021 C 
HETATM    3  C3  UNL     1     -33.446  15.225  -4.159  1.00 20.00     0.010 C 
HETATM    4  C4  UNL     1     -33.643  15.898  -2.793  1.00 20.00    -0.014 C 
HETATM    5  C5  UNL     1     -34.344  15.804  -5.268  1.00 20.00     0.000 C 
HETATM    6  C6  UNL     1     -35.822  15.787  -4.829  1.00 20.00     0.086 C 
HETATM    7  C7  UNL     1     -34.113  15.016  -6.564  1.00 20.00     0.011 C 
HETATM    8 CL10 UNL     1     -36.872  16.580  -6.045  1.00 20.00    -0.125 Cl
ENDROOT
BRANCH   4   9
HETATM    9  C9  UNL     1     -33.049  17.308  -2.763  1.00 20.00     0.000 C 
HETATM   10  C8  UNL     1     -33.057  17.880  -1.384  1.00 20.00     0.005 C 
ENDBRANCH   4   9
TORSDOF 1
ENDMDL
MODEL 4
REMARK VINA RESULT:      -4.0     12.817     14.931
REMARK  1 active torsions:
REMARK  status: ('A' for Active; 'I' for Inactive)
REMARK    1  A    between atoms: C4_4  and  C9_9 
ROOT
HETATM    1  C1  UNL     1     -32.312  18.865  -2.338  1.00 20.00     0.006 C 
HETATM    2  C2  UNL     1     -32.928  17.510  -2.679  1.00 20.00     0.021 C 
HETATM    3  C3  UNL     1     -33.534  18.869  -0.130  1.00 20.00     0.010 C 
HETATM    4  C4  UNL     1     -32.185  19.100  -0.828  1.00 20.00    -0.014 C 
HETATM    5  C5  UNL     1     -34.171  17.505  -0.454  1.00 20.00     0.000 C 
HETATM    6  C6  UNL     1     -34.274  17.308  -1.980  1.00 20.00     0.086 C 
HETATM    7  C7  UNL     1     -35.537  17.412   0.239  1.00 20.00     0.011 C 
HETATM    8 CL10 UNL     1     -34.887  15.673  -2.386  1.00 20.00    -0.125 Cl
ENDROOT
BRANCH   4   9
HETATM    9  C9  UNL     1     -31.073  18.250  -0.211  1.00 20.00     0.000 C 
HETATM   10  C8  UNL     1     -30.638  18.789   1.112  1.00 20.00     0.005 C 
ENDBRANCH   4   9
TORSDOF 1
ENDMDL
MODEL 5
REMARK VINA RESULT:      -4.0     17.447     19.340
REMARK  1 active torsions:
REMARK  status: ('A' for Active; 'I' for Inactive)
REMARK    1  A    between atoms: C4_4  and  C9_9 
ROOT
HETATM    1  C1  UNL     1     -35.852  14.341  -3.871  1.00 20.00     0.006 C 
HETATM    2  C2  UNL     1     -36.607  15.162  -4.914  1.00 20.00     0.021 C 
HETATM    3  C3  UNL     1     -33.711  14.650  -5.170  1.00 20.00     0.010 C 
HETATM    4  C4  UNL     1     -34.366  14.709  -3.782  1.00 20.00    -0.014 C 
HETATM    5  C5  UNL     1     -34.451  15.476  -6.238  1.00 20.00     0.000 C 
HETATM    6  C6  UNL     1     -35.941  15.078  -6.289  1.00 20.00     0.086 C 
HETATM    7  C7  UNL     1     -33.752  15.289  -7.591  1.00 20.00     0.011 C 
HETATM    8 CL10 UNL     1     -36.854  16.118  -7.428  1.00 20.00    -0.125 Cl
ENDROOT
BRANCH   4   9
HETATM    9  C9  UNL     1     -34.155  16.069  -3.112  1.00 20.00     0.000 C 
HETATM   10  C8  UNL     1     -34.941  16.187  -1.848  1.00 20.00     0.005 C 
ENDBRANCH   4   9
TORSDOF 1
ENDMDL
MODEL 6
REMARK VINA RESULT:      -3.9     15.993     17.847
REMARK  1 active torsions:
REMARK  status: ('A' for Active; 'I' for Inactive)
REMARK    1  A    between atoms: C4_4  and  C9_9 
ROOT
HETATM    1  C1  UNL     1     -33.617  14.551  -4.286  1.00 20.00     0.006 C 
HETATM    2  C2  UNL     1     -32.956  15.893  -3.980  1.00 20.00     0.021 C 
HETATM    3  C3  UNL     1     -35.536  15.145  -2.758  1.00 20.00     0.010 C 
HETATM    4  C4  UNL     1     -35.143  14.590  -4.135  1.00 20.00    -0.014 C 
HETATM    5  C5  UNL     1     -34.886  16.501  -2.430  1.00 20.00     0.000 C 
HETATM    6  C6  UNL     1     -33.355  16.419  -2.600  1.00 20.00     0.086 C 
HETATM    7  C7  UNL     1     -35.293  16.924  -1.013  1.00 20.00     0.011 C 
HETATM    8 CL10 UNL     1     -32.586  18.019  -2.356  1.00 20.00    -0.125 Cl
ENDROOT
BRANCH   4   9
HETATM    9  C9  UNL     1     -35.808  15.368  -5.273  1.00 20.00     0.000 C 
HETATM   10  C8  UNL     1     -35.488  14.777  -6.606  1.00 20.00     0.005 C 
ENDBRANCH   4   9
TORSDOF 1
ENDMDL
MODEL 7
REMARK VINA RESULT:      -3.9     15.685     17.706
REMARK  1 active torsions:
REMARK  status: ('A' for Active; 'I' for Inactive)
REMARK    1  A    between atoms: C4_4  and  C9_9 
ROOT
HETATM    1  C1  UNL     1     -34.785  17.906  -3.716  1.00 20.00     0.006 C 
HETATM    2  C2  UNL     1     -34.304  17.257  -5.011  1.00 20.00     0.021 C 
HETATM    3  C3  UNL     1     -34.839  15.645  -2.597  1.00 20.00     0.010 C 
HETATM    4  C4  UNL     1     -34.393  17.108  -2.466  1.00 20.00    -0.014 C 
HETATM    5  C5  UNL     1     -34.359  14.966  -3.894  1.00 20.00     0.000 C 
HETATM    6  C6  UNL     1     -34.770  15.803  -5.122  1.00 20.00     0.086 C 
HETATM    7  C7  UNL     1     -34.916  13.538  -3.949  1.00 20.00     0.011 C 
HETATM    8 CL10 UNL     1     -34.107  15.107  -6.635  1.00 20.00    -0.125 Cl
ENDROOT
BRANCH   4   9
HETATM    9  C9  UNL     1     -32.897  17.222  -2.165  1.00 20.00     0.000 C 
HETATM   10  C8  UNL     1     -32.589  18.438  -1.355  1.00 20.00     0.005 C 
ENDBRANCH   4   9
TORSDOF 1
ENDMDL
MODEL 8
REMARK VINA RESULT:      -3.9     14.828     16.828
REMARK  1 active torsions:
REMARK  status: ('A' for Active; 'I' for Inactive)
REMARK    1  A    between atoms: C4_4  and  C9_9 
ROOT
HETATM    1  C1  UNL     1     -33.711  15.540  -3.423  1.00 20.00     0.006 C 
HETATM    2  C2  UNL     1     -32.973  16.875  -3.382  1.00 20.00     0.021 C 
HETATM    3  C3  UNL     1     -35.125  16.256  -1.459  1.00 20.00     0.010 C 
HETATM    4  C4  UNL     1     -35.135  15.627  -2.860  1.00 20.00    -0.014 C 
HETATM    5  C5  UNL     1     -34.391  17.608  -1.395  1.00 20.00     0.000 C 
HETATM    6  C6  UNL     1     -32.968  17.476  -1.974  1.00 20.00     0.086 C 
HETATM    7  C7  UNL     1     -34.384  18.107   0.056  1.00 20.00     0.011 C 
HETATM    8 CL10 UNL     1     -32.140  19.064  -2.037  1.00 20.00    -0.125 Cl
ENDROOT
BRANCH   4   9
HETATM    9  C9  UNL     1     -36.078  16.369  -3.810  1.00 20.00     0.000 C 
HETATM   10  C8  UNL     1     -36.593  15.473  -4.887  1.00 20.00     0.005 C 
ENDBRANCH   4   9
TORSDOF 1
ENDMDL
MODEL 9
REMARK VINA RESULT:      -3.9     14.330     16.435
REMARK  1 active torsions:
REMARK  status: ('A' for Active; 'I' for Inactive)
REMARK    1  A    between atoms: C4_4  and  C9_9 
ROOT
HETATM    1  C1  UNL     1     -35.786  17.034  -2.736  1.00 20.00     0.006 C 
HETATM    2  C2  UNL     1     -35.563  17.065  -1.226  1.00 20.00     0.021 C 
HETATM    3  C3  UNL     1     -33.332  17.487  -3.112  1.00 20.00     0.010 C 
HETATM    4  C4  UNL     1     -34.533  16.619  -3.516  1.00 20.00    -0.014 C 
HETATM    5  C5  UNL     1     -33.084  17.528  -1.593  1.00 20.00     0.000 C 
HETATM    6  C6  UNL     1     -34.369  17.944  -0.848  1.00 20.00     0.086 C 
HETATM    7  C7  UNL     1     -31.910  18.472  -1.302  1.00 20.00     0.011 C 
HETATM    8 CL10 UNL     1     -34.145  17.868   0.928  1.00 20.00    -0.125 Cl
ENDROOT
BRANCH   4   9
HETATM    9  C9  UNL     1     -34.234  15.126  -3.360  1.00 20.00     0.000 C 
HETATM   10  C8  UNL     1     -33.158  14.679  -4.295  1.00 20.00     0.005 C 
ENDBRANCH   4   9
TORSDOF 1
ENDMDL
