MODEL 1
REMARK VINA RESULT:      -3.9      0.000      0.000
REMARK  2 active torsions:
REMARK  status: ('A' for Active; 'I' for Inactive)
REMARK    1  A    between atoms: C4_4  and  C8_8 
REMARK    2  A    between atoms: C8_8  and  C9_9 
ROOT
HETATM    1  C1  UNL     1     -34.055  15.058  -5.614  1.00 20.00     0.002 C 
HETATM    2  C2  UNL     1     -33.720  14.416  -4.267  1.00 20.00     0.006 C 
HETATM    3  C3  UNL     1     -35.202  16.036  -5.358  1.00 20.00     0.020 C 
HETATM    4  C4  UNL     1     -34.593  15.120  -3.222  1.00 20.00     0.004 C 
HETATM    5  C5  UNL     1     -35.804  15.607  -4.025  1.00 20.00     0.086 C 
HETATM    6 CL10 UNL     1     -36.969  14.271  -4.279  1.00 20.00    -0.125 Cl
ENDROOT
BRANCH   4   7
HETATM    7  C8  UNL     1     -33.843  16.280  -2.564  1.00 20.00     0.010 C 
BRANCH   7   8
HETATM    8  C9  UNL     1     -34.770  17.341  -1.944  1.00 20.00    -0.022 C 
HETATM    9  C6  UNL     1     -35.292  16.927  -0.567  1.00 20.00     0.009 C 
HETATM   10  C7  UNL     1     -34.032  18.678  -1.836  1.00 20.00     0.009 C 
ENDBRANCH   7   8
ENDBRANCH   4   7
TORSDOF 2
ENDMDL
MODEL 2
REMARK VINA RESULT:      -3.8      2.351      4.388
REMARK  2 active torsions:
REMARK  status: ('A' for Active; 'I' for Inactive)
REMARK    1  A    between atoms: C4_4  and  C8_8 
REMARK    2  A    between atoms: C8_8  and  C9_9 
ROOT
HETATM    1  C1  UNL     1     -35.489  18.338  -1.118  1.00 20.00     0.002 C 
HETATM    2  C2  UNL     1     -35.190  16.851  -0.911  1.00 20.00     0.006 C 
HETATM    3  C3  UNL     1     -34.705  18.773  -2.356  1.00 20.00     0.020 C 
HETATM    4  C4  UNL     1     -34.334  16.412  -2.105  1.00 20.00     0.004 C 
HETATM    5  C5  UNL     1     -33.637  17.703  -2.550  1.00 20.00     0.086 C 
HETATM    6 CL10 UNL     1     -32.224  18.047  -1.505  1.00 20.00    -0.125 Cl
ENDROOT
BRANCH   4   7
HETATM    7  C8  UNL     1     -35.199  15.819  -3.219  1.00 20.00     0.010 C 
BRANCH   7   8
HETATM    8  C9  UNL     1     -34.759  14.410  -3.656  1.00 20.00    -0.022 C 
HETATM    9  C6  UNL     1     -35.848  13.678  -4.443  1.00 20.00     0.009 C 
HETATM   10  C7  UNL     1     -33.485  14.500  -4.499  1.00 20.00     0.009 C 
ENDBRANCH   7   8
ENDBRANCH   4   7
TORSDOF 2
ENDMDL
MODEL 3
REMARK VINA RESULT:      -3.8      1.523      2.231
REMARK  2 active torsions:
REMARK  status: ('A' for Active; 'I' for Inactive)
REMARK    1  A    between atoms: C4_4  and  C8_8 
REMARK    2  A    between atoms: C8_8  and  C9_9 
ROOT
HETATM    1  C1  UNL     1     -37.343  14.694  -4.190  1.00 20.00     0.002 C 
HETATM    2  C2  UNL     1     -36.668  16.066  -4.127  1.00 20.00     0.006 C 
HETATM    3  C3  UNL     1     -36.248  13.684  -4.530  1.00 20.00     0.020 C 
HETATM    4  C4  UNL     1     -35.166  15.819  -4.309  1.00 20.00     0.004 C 
HETATM    5  C5  UNL     1     -35.104  14.511  -5.108  1.00 20.00     0.086 C 
HETATM    6 CL10 UNL     1     -35.391  14.824  -6.848  1.00 20.00    -0.125 Cl
ENDROOT
BRANCH   4   7
HETATM    7  C8  UNL     1     -34.457  15.694  -2.959  1.00 20.00     0.010 C 
BRANCH   7   8
HETATM    8  C9  UNL     1     -34.455  16.999  -2.142  1.00 20.00    -0.022 C 
HETATM    9  C6  UNL     1     -35.216  16.861  -0.822  1.00 20.00     0.009 C 
HETATM   10  C7  UNL     1     -33.015  17.437  -1.864  1.00 20.00     0.009 C 
ENDBRANCH   7   8
ENDBRANCH   4   7
TORSDOF 2
ENDMDL
MODEL 4
REMARK VINA RESULT:      -3.8      1.618      2.442
REMARK  2 active torsions:
REMARK  status: ('A' for Active; 'I' for Inactive)
REMARK    1  A    between atoms: C4_4  and  C8_8 
REMARK    2  A    between atoms: C8_8  and  C9_9 
ROOT
HETATM    1  C1  UNL     1     -36.574  14.374  -4.184  1.00 20.00     0.002 C 
HETATM    2  C2  UNL     1     -36.257  15.867  -4.066  1.00 20.00     0.006 C 
HETATM    3  C3  UNL     1     -35.235  13.639  -4.148  1.00 20.00     0.020 C 
HETATM    4  C4  UNL     1     -34.744  15.971  -3.839  1.00 20.00     0.004 C 
HETATM    5  C5  UNL     1     -34.188  14.695  -4.484  1.00 20.00     0.086 C 
HETATM    6 CL10 UNL     1     -34.061  14.892  -6.259  1.00 20.00    -0.125 Cl
ENDROOT
BRANCH   4   7
HETATM    7  C8  UNL     1     -34.411  16.046  -2.348  1.00 20.00     0.010 C 
BRANCH   7   8
HETATM    8  C9  UNL     1     -33.342  17.100  -2.007  1.00 20.00    -0.022 C 
HETATM    9  C6  UNL     1     -32.977  17.970  -3.212  1.00 20.00     0.009 C 
HETATM   10  C7  UNL     1     -33.832  17.986  -0.860  1.00 20.00     0.009 C 
ENDBRANCH   7   8
ENDBRANCH   4   7
TORSDOF 2
ENDMDL
MODEL 5
REMARK VINA RESULT:      -3.8      1.586      2.197
REMARK  2 active torsions:
REMARK  status: ('A' for Active; 'I' for Inactive)
REMARK    1  A    between atoms: C4_4  and  C8_8 
REMARK    2  A    between atoms: C8_8  and  C9_9 
ROOT
HETATM    1  C1  UNL     1     -36.032  14.980  -3.839  1.00 20.00     0.002 C 
HETATM    2  C2  UNL     1     -35.482  16.405  -3.930  1.00 20.00     0.006 C 
HETATM    3  C3  UNL     1     -34.837  14.040  -3.992  1.00 20.00     0.020 C 
HETATM    4  C4  UNL     1     -33.957  16.276  -4.011  1.00 20.00     0.004 C 
HETATM    5  C5  UNL     1     -33.739  14.887  -4.624  1.00 20.00     0.086 C 
HETATM    6 CL10 UNL     1     -33.952  14.944  -6.401  1.00 20.00    -0.125 Cl
ENDROOT
BRANCH   4   7
HETATM    7  C8  UNL     1     -33.317  16.393  -2.626  1.00 20.00     0.010 C 
BRANCH   7   8
HETATM    8  C9  UNL     1     -33.571  17.749  -1.942  1.00 20.00    -0.022 C 
HETATM    9  C6  UNL     1     -34.461  17.619  -0.704  1.00 20.00     0.009 C 
HETATM   10  C7  UNL     1     -32.239  18.395  -1.556  1.00 20.00     0.009 C 
ENDBRANCH   7   8
ENDBRANCH   4   7
TORSDOF 2
ENDMDL
MODEL 6
REMARK VINA RESULT:      -3.7      1.945      2.907
REMARK  2 active torsions:
REMARK  status: ('A' for Active; 'I' for Inactive)
REMARK    1  A    between atoms: C4_4  and  C8_8 
REMARK    2  A    between atoms: C8_8  and  C9_9 
ROOT
HETATM    1  C1  UNL     1     -36.716  15.825  -6.230  1.00 20.00     0.002 C 
HETATM    2  C2  UNL     1     -35.888  16.744  -5.329  1.00 20.00     0.006 C 
HETATM    3  C3  UNL     1     -35.803  14.667  -6.630  1.00 20.00     0.020 C 
HETATM    4  C4  UNL     1     -34.542  16.043  -5.117  1.00 20.00     0.004 C 
HETATM    5  C5  UNL     1     -34.386  15.162  -6.362  1.00 20.00     0.086 C 
HETATM    6 CL10 UNL     1     -33.803  16.133  -7.749  1.00 20.00    -0.125 Cl
ENDROOT
BRANCH   4   7
HETATM    7  C8  UNL     1     -34.546  15.214  -3.831  1.00 20.00     0.010 C 
BRANCH   7   8
HETATM    8  C9  UNL     1     -33.922  15.941  -2.626  1.00 20.00    -0.022 C 
HETATM    9  C6  UNL     1     -33.080  17.148  -3.047  1.00 20.00     0.009 C 
HETATM   10  C7  UNL     1     -35.022  16.390  -1.662  1.00 20.00     0.009 C 
ENDBRANCH   7   8
ENDBRANCH   4   7
TORSDOF 2
ENDMDL
MODEL 7
REMARK VINA RESULT:      -3.7      1.788      2.337
REMARK  2 active torsions:
REMARK  status: ('A' for Active; 'I' for Inactive)
REMARK    1  A    between atoms: C4_4  and  C8_8 
REMARK    2  A    between atoms: C8_8  and  C9_9 
ROOT
HETATM    1  C1  UNL     1     -34.070  17.336  -4.632  1.00 20.00     0.002 C 
HETATM    2  C2  UNL     1     -33.480  17.267  -3.222  1.00 20.00     0.006 C 
HETATM    3  C3  UNL     1     -34.805  16.016  -4.863  1.00 20.00     0.020 C 
HETATM    4  C4  UNL     1     -33.985  15.958  -2.605  1.00 20.00     0.004 C 
HETATM    5  C5  UNL     1     -34.245  15.057  -3.818  1.00 20.00     0.086 C 
HETATM    6 CL10 UNL     1     -32.715  14.335  -4.404  1.00 20.00    -0.125 Cl
ENDROOT
BRANCH   4   7
HETATM    7  C8  UNL     1     -35.255  16.187  -1.783  1.00 20.00     0.010 C 
BRANCH   7   8
HETATM    8  C9  UNL     1     -35.292  17.552  -1.073  1.00 20.00    -0.022 C 
HETATM    9  C6  UNL     1     -36.540  18.362  -1.432  1.00 20.00     0.009 C 
HETATM   10  C7  UNL     1     -35.224  17.353   0.442  1.00 20.00     0.009 C 
ENDBRANCH   7   8
ENDBRANCH   4   7
TORSDOF 2
ENDMDL
MODEL 8
REMARK VINA RESULT:      -3.6      1.812      2.350
REMARK  2 active torsions:
REMARK  status: ('A' for Active; 'I' for Inactive)
REMARK    1  A    between atoms: C4_4  and  C8_8 
REMARK    2  A    between atoms: C8_8  and  C9_9 
ROOT
HETATM    1  C1  UNL     1     -34.541  14.185  -3.996  1.00 20.00     0.002 C 
HETATM    2  C2  UNL     1     -35.702  15.026  -3.463  1.00 20.00     0.006 C 
HETATM    3  C3  UNL     1     -33.322  15.106  -4.047  1.00 20.00     0.020 C 
HETATM    4  C4  UNL     1     -35.113  16.392  -3.093  1.00 20.00     0.004 C 
HETATM    5  C5  UNL     1     -33.886  16.521  -4.004  1.00 20.00     0.086 C 
HETATM    6 CL10 UNL     1     -34.375  17.038  -5.647  1.00 20.00    -0.125 Cl
ENDROOT
BRANCH   4   7
HETATM    7  C8  UNL     1     -34.731  16.448  -1.612  1.00 20.00     0.010 C 
BRANCH   7   8
HETATM    8  C9  UNL     1     -35.387  17.614  -0.850  1.00 20.00    -0.022 C 
HETATM    9  C6  UNL     1     -36.742  18.008  -1.442  1.00 20.00     0.009 C 
HETATM   10  C7  UNL     1     -35.556  17.242   0.625  1.00 20.00     0.009 C 
ENDBRANCH   7   8
ENDBRANCH   4   7
TORSDOF 2
ENDMDL
MODEL 9
REMARK VINA RESULT:      -3.6      2.099      3.956
REMARK  2 active torsions:
REMARK  status: ('A' for Active; 'I' for Inactive)
REMARK    1  A    between atoms: C4_4  and  C8_8 
REMARK    2  A    between atoms: C8_8  and  C9_9 
ROOT
HETATM    1  C1  UNL     1     -33.695  17.667  -3.608  1.00 20.00     0.002 C 
HETATM    2  C2  UNL     1     -35.060  17.147  -4.065  1.00 20.00     0.006 C 
HETATM    3  C3  UNL     1     -33.293  16.831  -2.394  1.00 20.00     0.020 C 
HETATM    4  C4  UNL     1     -35.376  15.932  -3.186  1.00 20.00     0.004 C 
HETATM    5  C5  UNL     1     -34.587  16.196  -1.898  1.00 20.00     0.086 C 
HETATM    6 CL10 UNL     1     -35.470  17.344  -0.845  1.00 20.00    -0.125 Cl
ENDROOT
BRANCH   4   7
HETATM    7  C8  UNL     1     -34.941  14.630  -3.863  1.00 20.00     0.010 C 
BRANCH   7   8
HETATM    8  C9  UNL     1     -36.035  13.997  -4.742  1.00 20.00    -0.022 C 
HETATM    9  C6  UNL     1     -37.442  14.425  -4.320  1.00 20.00     0.009 C 
HETATM   10  C7  UNL     1     -35.802  14.365  -6.209  1.00 20.00     0.009 C 
ENDBRANCH   7   8
ENDBRANCH   4   7
TORSDOF 2
ENDMDL
