MODEL 1
REMARK VINA RESULT:      -4.2      0.000      0.000
REMARK  2 active torsions:
REMARK  status: ('A' for Active; 'I' for Inactive)
REMARK    1  A    between atoms: C8_8  and  C9_9 
REMARK    2  A    between atoms: C9_9  and  N11_11 
ROOT
HETATM    1  C1  UNL     1     -31.780  18.331  -0.305  1.00 20.00     0.071 C 
HETATM    2  C4  UNL     1     -33.864  17.777   1.001  1.00 20.00     0.028 A 
HETATM    3  C5  UNL     1     -33.854  19.262   0.784  1.00 20.00     0.028 A 
HETATM    4  C8  UNL     1     -33.218  18.349  -0.241  1.00 20.00     0.075 A 
HETATM    5  N10 UNL     1     -30.621  18.316  -0.357  1.00 20.00    -0.196 NA
ENDROOT
BRANCH   4   6
HETATM    6  C9  UNL     1     -33.918  18.164  -1.545  1.00 20.00     0.296 C 
BRANCH   6   7
HETATM    7  N11 UNL     1     -33.760  16.792  -2.040  1.00 20.00     0.090 N 
HETATM    8  C6  UNL     1     -35.064  16.179  -2.298  1.00 20.00     0.272 C 
HETATM    9  C2  UNL     1     -34.716  15.009  -3.205  1.00 20.00     0.032 C 
HETATM   10  C3  UNL     1     -33.409  15.404  -3.884  1.00 20.00     0.032 C 
HETATM   11  C7  UNL     1     -33.077  16.784  -3.335  1.00 20.00     0.272 C 
ENDBRANCH   6   7
ENDBRANCH   4   6
TORSDOF 2
ENDMDL
MODEL 2
REMARK VINA RESULT:      -4.1      2.711      5.932
REMARK  2 active torsions:
REMARK  status: ('A' for Active; 'I' for Inactive)
REMARK    1  A    between atoms: C8_8  and  C9_9 
REMARK    2  A    between atoms: C9_9  and  N11_11 
ROOT
HETATM    1  C1  UNL     1     -35.750  13.864  -5.127  1.00 20.00     0.071 C 
HETATM    2  C4  UNL     1     -34.316  15.044  -6.833  1.00 20.00     0.028 A 
HETATM    3  C5  UNL     1     -35.743  15.186  -7.274  1.00 20.00     0.028 A 
HETATM    4  C8  UNL     1     -35.419  15.094  -5.799  1.00 20.00     0.075 A 
HETATM    5  N10 UNL     1     -36.016  12.873  -4.586  1.00 20.00    -0.196 NA
ENDROOT
BRANCH   4   6
HETATM    6  C9  UNL     1     -35.552  16.328  -4.973  1.00 20.00     0.296 C 
BRANCH   6   7
HETATM    7  N11 UNL     1     -34.867  16.179  -3.685  1.00 20.00     0.090 N 
HETATM    8  C6  UNL     1     -33.650  16.992  -3.646  1.00 20.00     0.272 C 
HETATM    9  C2  UNL     1     -33.350  17.083  -2.158  1.00 20.00     0.032 C 
HETATM   10  C3  UNL     1     -34.694  16.882  -1.465  1.00 20.00     0.032 C 
HETATM   11  C7  UNL     1     -35.697  16.691  -2.593  1.00 20.00     0.272 C 
ENDBRANCH   6   7
ENDBRANCH   4   6
TORSDOF 2
ENDMDL
MODEL 3
REMARK VINA RESULT:      -4.0     11.902     14.009
REMARK  2 active torsions:
REMARK  status: ('A' for Active; 'I' for Inactive)
REMARK    1  A    between atoms: C8_8  and  C9_9 
REMARK    2  A    between atoms: C9_9  and  N11_11 
ROOT
HETATM    1  C1  UNL     1     -23.872  16.751  10.373  1.00 20.00     0.071 C 
HETATM    2  C4  UNL     1     -21.596  17.773  10.007  1.00 20.00     0.028 A 
HETATM    3  C5  UNL     1     -21.998  17.107   8.724  1.00 20.00     0.028 A 
HETATM    4  C8  UNL     1     -23.059  17.683   9.635  1.00 20.00     0.075 A 
HETATM    5  N10 UNL     1     -24.526  15.999  10.967  1.00 20.00    -0.196 NA
ENDROOT
BRANCH   4   6
HETATM    6  C9  UNL     1     -23.751  18.932   9.205  1.00 20.00     0.296 C 
BRANCH   6   7
HETATM    7  N11 UNL     1     -24.793  18.644   8.212  1.00 20.00     0.090 N 
HETATM    8  C6  UNL     1     -26.065  19.255   8.602  1.00 20.00     0.272 C 
HETATM    9  C2  UNL     1     -26.852  19.260   7.300  1.00 20.00     0.032 C 
HETATM   10  C3  UNL     1     -25.800  19.255   6.196  1.00 20.00     0.032 C 
HETATM   11  C7  UNL     1     -24.463  19.252   6.922  1.00 20.00     0.272 C 
ENDBRANCH   6   7
ENDBRANCH   4   6
TORSDOF 2
ENDMDL
MODEL 4
REMARK VINA RESULT:      -4.0      2.088      5.421
REMARK  2 active torsions:
REMARK  status: ('A' for Active; 'I' for Inactive)
REMARK    1  A    between atoms: C8_8  and  C9_9 
REMARK    2  A    between atoms: C9_9  and  N11_11 
ROOT
HETATM    1  C1  UNL     1     -36.224  14.294  -4.480  1.00 20.00     0.071 C 
HETATM    2  C4  UNL     1     -33.715  14.380  -4.251  1.00 20.00     0.028 A 
HETATM    3  C5  UNL     1     -34.057  14.904  -5.614  1.00 20.00     0.028 A 
HETATM    4  C8  UNL     1     -35.029  15.097  -4.471  1.00 20.00     0.075 A 
HETATM    5  N10 UNL     1     -37.188  13.647  -4.487  1.00 20.00    -0.196 NA
ENDROOT
BRANCH   4   6
HETATM    6  C9  UNL     1     -35.184  16.467  -3.906  1.00 20.00     0.296 C 
BRANCH   6   7
HETATM    7  N11 UNL     1     -34.534  16.576  -2.595  1.00 20.00     0.090 N 
HETATM    8  C6  UNL     1     -33.529  17.642  -2.601  1.00 20.00     0.272 C 
HETATM    9  C2  UNL     1     -33.315  17.914  -1.119  1.00 20.00     0.032 C 
HETATM   10  C3  UNL     1     -34.607  17.472  -0.440  1.00 20.00     0.032 C 
HETATM   11  C7  UNL     1     -35.498  16.974  -1.568  1.00 20.00     0.272 C 
ENDBRANCH   6   7
ENDBRANCH   4   6
TORSDOF 2
ENDMDL
MODEL 5
REMARK VINA RESULT:      -3.9     14.166     15.211
REMARK  2 active torsions:
REMARK  status: ('A' for Active; 'I' for Inactive)
REMARK    1  A    between atoms: C8_8  and  C9_9 
REMARK    2  A    between atoms: C9_9  and  N11_11 
ROOT
HETATM    1  C1  UNL     1     -24.986  16.702  11.438  1.00 20.00     0.071 C 
HETATM    2  C4  UNL     1     -26.724  18.525  11.537  1.00 20.00     0.028 A 
HETATM    3  C5  UNL     1     -25.541  18.993  12.332  1.00 20.00     0.028 A 
HETATM    4  C8  UNL     1     -25.334  18.070  11.152  1.00 20.00     0.075 A 
HETATM    5  N10 UNL     1     -24.704  15.600  11.668  1.00 20.00    -0.196 NA
ENDROOT
BRANCH   4   6
HETATM    6  C9  UNL     1     -24.728  18.638   9.914  1.00 20.00     0.296 C 
BRANCH   6   7
HETATM    7  N11 UNL     1     -23.609  17.812   9.446  1.00 20.00     0.090 N 
HETATM    8  C6  UNL     1     -23.331  18.068   8.031  1.00 20.00     0.272 C 
HETATM    9  C2  UNL     1     -21.923  17.518   7.857  1.00 20.00     0.032 C 
HETATM   10  C3  UNL     1     -21.294  17.581   9.245  1.00 20.00     0.032 C 
HETATM   11  C7  UNL     1     -22.372  18.169  10.143  1.00 20.00     0.272 C 
ENDBRANCH   6   7
ENDBRANCH   4   6
TORSDOF 2
ENDMDL
MODEL 6
REMARK VINA RESULT:      -3.9      4.068      5.622
REMARK  2 active torsions:
REMARK  status: ('A' for Active; 'I' for Inactive)
REMARK    1  A    between atoms: C8_8  and  C9_9 
REMARK    2  A    between atoms: C9_9  and  N11_11 
ROOT
HETATM    1  C1  UNL     1     -35.529  13.933  -4.249  1.00 20.00     0.071 C 
HETATM    2  C4  UNL     1     -34.810  15.629  -2.529  1.00 20.00     0.028 A 
HETATM    3  C5  UNL     1     -33.695  15.505  -3.526  1.00 20.00     0.028 A 
HETATM    4  C8  UNL     1     -35.126  15.286  -3.967  1.00 20.00     0.075 A 
HETATM    5  N10 UNL     1     -35.854  12.842  -4.477  1.00 20.00    -0.196 NA
ENDROOT
BRANCH   4   6
HETATM    6  C9  UNL     1     -35.766  16.333  -4.814  1.00 20.00     0.296 C 
BRANCH   6   7
HETATM    7  N11 UNL     1     -37.200  16.074  -4.981  1.00 20.00     0.090 N 
HETATM    8  C6  UNL     1     -37.984  16.848  -4.016  1.00 20.00     0.272 C 
HETATM    9  C2  UNL     1     -39.381  16.826  -4.617  1.00 20.00     0.032 C 
HETATM   10  C3  UNL     1     -39.170  16.614  -6.113  1.00 20.00     0.032 C 
HETATM   11  C7  UNL     1     -37.661  16.531  -6.293  1.00 20.00     0.272 C 
ENDBRANCH   6   7
ENDBRANCH   4   6
TORSDOF 2
ENDMDL
MODEL 7
REMARK VINA RESULT:      -3.8      2.180      5.255
REMARK  2 active torsions:
REMARK  status: ('A' for Active; 'I' for Inactive)
REMARK    1  A    between atoms: C8_8  and  C9_9 
REMARK    2  A    between atoms: C9_9  and  N11_11 
ROOT
HETATM    1  C1  UNL     1     -34.481  14.815  -5.854  1.00 20.00     0.071 C 
HETATM    2  C4  UNL     1     -36.687  15.433  -4.801  1.00 20.00     0.028 A 
HETATM    3  C5  UNL     1     -36.588  13.936  -4.783  1.00 20.00     0.028 A 
HETATM    4  C8  UNL     1     -35.331  14.773  -4.692  1.00 20.00     0.075 A 
HETATM    5  N10 UNL     1     -33.797  14.848  -6.790  1.00 20.00    -0.196 NA
ENDROOT
BRANCH   4   6
HETATM    6  C9  UNL     1     -34.623  14.836  -3.381  1.00 20.00     0.296 C 
BRANCH   6   7
HETATM    7  N11 UNL     1     -34.463  16.224  -2.932  1.00 20.00     0.090 N 
HETATM    8  C6  UNL     1     -34.996  16.397  -1.579  1.00 20.00     0.272 C 
HETATM    9  C2  UNL     1     -34.348  17.696  -1.123  1.00 20.00     0.032 C 
HETATM   10  C3  UNL     1     -33.068  17.815  -1.945  1.00 20.00     0.032 C 
HETATM   11  C7  UNL     1     -33.046  16.575  -2.827  1.00 20.00     0.272 C 
ENDBRANCH   6   7
ENDBRANCH   4   6
TORSDOF 2
ENDMDL
MODEL 8
REMARK VINA RESULT:      -3.8      3.530      4.814
REMARK  2 active torsions:
REMARK  status: ('A' for Active; 'I' for Inactive)
REMARK    1  A    between atoms: C8_8  and  C9_9 
REMARK    2  A    between atoms: C9_9  and  N11_11 
ROOT
HETATM    1  C1  UNL     1     -34.811  14.390  -3.795  1.00 20.00     0.071 C 
HETATM    2  C4  UNL     1     -34.946  16.073  -1.924  1.00 20.00     0.028 A 
HETATM    3  C5  UNL     1     -33.684  16.353  -2.685  1.00 20.00     0.028 A 
HETATM    4  C8  UNL     1     -34.882  15.774  -3.405  1.00 20.00     0.075 A 
HETATM    5  N10 UNL     1     -34.753  13.275  -4.110  1.00 20.00    -0.196 NA
ENDROOT
BRANCH   4   6
HETATM    6  C9  UNL     1     -35.638  16.661  -4.334  1.00 20.00     0.296 C 
BRANCH   6   7
HETATM    7  N11 UNL     1     -35.508  16.208  -5.723  1.00 20.00     0.090 N 
HETATM    8  C6  UNL     1     -36.788  16.311  -6.426  1.00 20.00     0.272 C 
HETATM    9  C2  UNL     1     -36.377  16.260  -7.889  1.00 20.00     0.032 C 
HETATM   10  C3  UNL     1     -34.936  16.760  -7.918  1.00 20.00     0.032 C 
HETATM   11  C7  UNL     1     -34.597  17.078  -6.469  1.00 20.00     0.272 C 
ENDBRANCH   6   7
ENDBRANCH   4   6
TORSDOF 2
ENDMDL
MODEL 9
REMARK VINA RESULT:      -3.6      3.744      5.866
REMARK  2 active torsions:
REMARK  status: ('A' for Active; 'I' for Inactive)
REMARK    1  A    between atoms: C8_8  and  C9_9 
REMARK    2  A    between atoms: C9_9  and  N11_11 
ROOT
HETATM    1  C1  UNL     1     -37.819  15.043  -4.707  1.00 20.00     0.071 C 
HETATM    2  C4  UNL     1     -38.494  17.070  -6.045  1.00 20.00     0.028 A 
HETATM    3  C5  UNL     1     -38.173  17.538  -4.656  1.00 20.00     0.028 A 
HETATM    4  C8  UNL     1     -37.456  16.335  -5.227  1.00 20.00     0.075 A 
HETATM    5  N10 UNL     1     -38.111  14.001  -4.288  1.00 20.00    -0.196 NA
ENDROOT
BRANCH   4   6
HETATM    6  C9  UNL     1     -36.023  16.490  -5.611  1.00 20.00     0.296 C 
BRANCH   6   7
HETATM    7  N11 UNL     1     -35.145  15.782  -4.672  1.00 20.00     0.090 N 
HETATM    8  C6  UNL     1     -34.133  15.006  -5.392  1.00 20.00     0.272 C 
HETATM    9  C2  UNL     1     -33.082  14.745  -4.323  1.00 20.00     0.032 C 
HETATM   10  C3  UNL     1     -33.249  15.876  -3.313  1.00 20.00     0.032 C 
HETATM   11  C7  UNL     1     -34.384  16.731  -3.858  1.00 20.00     0.272 C 
ENDBRANCH   6   7
ENDBRANCH   4   6
TORSDOF 2
ENDMDL
